data_PCOD9231037
_publ_section_title
;
Structure prediction by ZEFSAII (Michael W. Deem and Ramdas Pophale) SiO2 
 PCOD9231037
Probable space group: P 2/C
;
_chemical_formula_sum "Si O2"
_cell_formula_units_Z 20
_cell_length_a 5.258564
_cell_length_b 23.070066
_cell_length_c 9.083679
_cell_angle_alpha 90.000000
_cell_angle_beta 54.320889
_cell_angle_gamma 90.000000
_cell_volume 895.142573
_symmetry_space_group_name_H-M "P 2/C"
_symmetry_group_IT_number 13
_symmetry_cell_setting 'monoclinic'
loop_
_space_group_symop_operation_xyz
x,y,z
-x,y,1/2-z
-x,-y,-z
x,-y,1/2+z
loop_
_atom_site_type_symbol
_atom_site_label
_atom_site_fract_x
_atom_site_fract_y
_atom_site_fract_z
Si Si1 0.625823 0.313082 0.869353
Si Si2 0.500000 0.991670 0.250000
Si Si3 0.623722 0.203557 0.373777
Si Si4 0.541490 0.419498 0.081038
Si Si5 0.310361 0.083085 0.062471
Si Si6 0.000000 0.513375 0.250000
O O1 0.500000 0.300907 0.750000
O O2 0.000000 0.319908 0.750000
O O3 0.532584 0.259851 0.003920
O O4 0.474949 0.373275 0.976890
O O5 0.417993 0.034619 0.144455
O O6 0.273536 0.947035 0.415486
O O7 0.500000 0.194734 0.250000
O O8 0.517957 0.144790 0.498191
O O9 0.000000 0.214034 0.250000
O O10 0.500000 0.387557 0.250000
O O11 0.293580 0.471692 0.179268
O O12 0.878879 0.446745 0.925214
O O13 0.000000 0.101521 0.250000
#
# Coordination Sequence:
#
# PCOD9231037 Si02
#       6
#     4   2   4   4   4   2
#     4  12  28  47  71 104 142 185 243 294 348 415
#     4  10  20  38  62  98 132 176 220 286 348 418
#     4  11  24  46  71  98 137 187 240 290 352 418
#     4  11  24  43  72 102 145 184 232 288 348 417
#     4  10  21  38  63  95 135 174 231 279 352 413
#     4  10  24  42  70 110 142 180 236 276 358 410
#
# _framework density 22.342807000000001
#
# number of rings (size 3 to 8) (size 9 to 14) (size 15 to 20)
#    0.000    1.200    2.000    3.000    5.600    3.200 
#    0.000    1.000    0.000    0.000    0.000    0.000 
#    0.000    0.000    0.000    0.000    0.000    0.000 
#
# Total GULP energy -111456.411867 kJ/mol
# GULP energy per Si atom -5572.820593 kJ/mol
# Density = 2.229195 g / cm^3
# Si number density = 22.342807 Si / 1000 Ang^3
#
#
#
# Elastic Constant Matrix: (Units=GPa)
#
#
# Indices 1 2 3 4 5 6 
#
# 1 67.6465 4.0025 14.9918 0.0000 -1.4002 0.0000
# 2 4.0025 126.4840 44.5909 0.0000 -0.1880 0.0000
# 3 14.9918 44.5909 93.7145 0.0000 -12.4851 0.0000
# 4 0.0000 0.0000 0.0000 32.4872 0.0000 2.3067
# 5 -1.4002 -0.1880 -12.4851 0.0000 24.2321 0.0000
# 6 0.0000 0.0000 0.0000 2.3067 0.0000 50.9720
#
#
#
# Elastic Compliance Matrix: (Units=1/GPa)
#
#
# Indices 1 2 3 4 5 6 
#
# 1 0.015354 0.000486 -0.002758 0.000000 -0.000530 0.000000
# 2 0.000486 0.009649 -0.004998 0.000000 -0.002472 0.000000
# 3 -0.002758 -0.004998 0.014456 0.000000 0.007250 0.000000
# 4 0.000000 0.000000 0.000000 0.030881 0.000000 -0.001397
# 5 -0.000530 -0.002472 0.007250 0.000000 0.044953 0.000000
# 6 0.000000 0.000000 0.000000 -0.001397 0.000000 0.019682
#
#
# Mechanical properties :
#
#
# Convention : Reuss Voigt Hill
#
# Bulk Modulus (GPa) = 40.13121 46.11281 43.12201
# Shear Modulus (GPa) = 31.68115 36.48890 34.08502
#
# Velocity S-wave (km/s) = 3.76966 4.04560 3.91006
# Velocity P-wave (km/s) = 6.07846 6.51966 6.30293
#
# Compressibility (1/GPa) = 0.02491826
#
# Stress axis : x y z
#
# Youngs Moduli (GPa) = 65.12853 103.63535 69.17501
#
# Poissons Ratio (x) = -0.05033 0.19078
# Poissons Ratio (y) = -0.03163 0.34576
# Poissons Ratio (z) = 0.17962 0.51800
#
# Static dielectric constant tensor:
#      x y z
#    x 1.810600 0.000000 0.033560 
#    y 0.000000 1.916490 0.000000 
#    z 0.033560 0.000000 1.816390 
# 
# From -- ./inp_files/10283.got.cif
#   From: 2010.05.17/outbox.cif.g08.bks.cpg/sg13_6_cif.got.tgz:10283.got - 2010.06.03 16:44:36.
