data_PCOD9231141
_publ_section_title
;
Structure prediction by ZEFSAII (Michael W. Deem and Ramdas Pophale) SiO2 
 PCOD9231141
Probable space group: P 2/C
;
_chemical_formula_sum "Si O2"
_cell_formula_units_Z 22
_cell_length_a 13.947925
_cell_length_b 9.020347
_cell_length_c 18.400348
_cell_angle_alpha 90.000000
_cell_angle_beta 152.496318
_cell_angle_gamma 90.000000
_cell_volume 1069.099418
_symmetry_space_group_name_H-M "P 2/C"
_symmetry_group_IT_number 13
_symmetry_cell_setting 'monoclinic'
loop_
_space_group_symop_operation_xyz
x,y,z
-x,y,1/2-z
-x,-y,-z
x,-y,1/2+z
loop_
_atom_site_type_symbol
_atom_site_label
_atom_site_fract_x
_atom_site_fract_y
_atom_site_fract_z
Si Si1 0.621103 0.877469 0.185786
Si Si2 0.773900 0.726759 0.516639
Si Si3 0.816465 0.381976 0.882826
Si Si4 0.429842 0.514343 0.536515
Si Si5 0.412235 0.151647 0.006236
Si Si6 0.000000 0.042566 0.250000
O O1 0.818573 0.778870 0.342437
O O2 0.558915 0.834031 0.061342
O O3 0.438004 0.821004 0.115517
O O4 0.599765 0.055369 0.167364
O O5 0.788267 0.655121 0.448062
O O6 0.753343 0.596898 0.563120
O O7 0.955317 0.844250 0.654035
O O8 0.619876 0.462960 0.714586
O O9 0.000000 0.500000 0.000000
O O10 0.500000 0.500000 0.500000
O O11 0.384395 0.686069 0.519498
O O12 0.201728 0.057214 0.874117
#
# Coordination Sequence:
#
# PCOD9231141 Si02
#       6
#     4   4   4   4   4   2
#     4   9  19  39  62  84 125 171 207 261 321 386
#     4  10  22  41  62  88 133 173 211 256 333 381
#     4  11  24  39  63  97 131 170 217 266 324 385
#     4  11  21  40  68  92 124 173 215 264 324 392
#     4  10  20  38  65  96 122 162 225 260 323 388
#     4  10  24  38  64  98 130 168 212 274 318 392
#
# _framework density 20.578066
#
# number of rings (size 3 to 8) (size 9 to 14) (size 15 to 20)
#    0.000    1.818    3.636    2.182    2.545    2.182 
#    0.000   10.909    0.000    0.000    0.000    0.000 
#    0.000    0.000    0.000    0.000    0.000    0.000 
#
# Total GULP energy -122618.807206 kJ/mol
# GULP energy per Si atom -5573.582146 kJ/mol
# Density = 2.053123 g / cm^3
# Si number density = 20.578066 Si / 1000 Ang^3
#
#
#
# Elastic Constant Matrix: (Units=GPa)
#
#
# Indices 1 2 3 4 5 6 
#
# 1 97.2367 44.6962 37.2137 0.0000 -25.7601 0.0000
# 2 44.6962 161.9257 50.0943 0.0000 -4.6423 0.0000
# 3 37.2137 50.0943 82.2460 0.0000 -1.0228 0.0000
# 4 0.0000 0.0000 0.0000 45.9189 0.0000 -4.0811
# 5 -25.7601 -4.6423 -1.0228 0.0000 27.2437 0.0000
# 6 0.0000 0.0000 0.0000 -4.0811 0.0000 31.6830
#
#
#
# Elastic Compliance Matrix: (Units=1/GPa)
#
#
# Indices 1 2 3 4 5 6 
#
# 1 0.018403 -0.002574 -0.006551 0.000000 0.016716 0.000000
# 2 -0.002574 0.008004 -0.003726 0.000000 -0.001210 0.000000
# 3 -0.006551 -0.003726 0.017315 0.000000 -0.006179 0.000000
# 4 0.000000 0.000000 0.000000 0.022030 0.000000 0.002838
# 5 0.016716 -0.001210 -0.006179 0.000000 0.052074 0.000000
# 6 0.000000 0.000000 0.000000 0.002838 0.000000 0.031928
#
#
# Mechanical properties :
#
#
# Convention : Reuss Voigt Hill
#
# Bulk Modulus (GPa) = 55.49078 67.26855 61.37967
# Shear Modulus (GPa) = 27.55400 34.92939 31.24170
#
# Velocity S-wave (km/s) = 3.66320 4.12443 3.90064
# Velocity P-wave (km/s) = 6.70198 7.44592 7.08372
#
# Compressibility (1/GPa) = 0.01802101
#
# Stress axis : x y z
#
# Youngs Moduli (GPa) = 54.33896 124.93768 57.75279
#
# Poissons Ratio (x) = 0.32156 0.37835
# Poissons Ratio (y) = 0.13986 0.21516
# Poissons Ratio (z) = 0.35599 0.46546
#
# Static dielectric constant tensor:
#      x y z
#    x 1.744370 0.000000 0.033020 
#    y 0.000000 1.797730 0.000000 
#    z 0.033020 0.000000 1.782590 
# 
# From -- ./inp_files/67999.got.cif
#   From: 2010.05.17/outbox.cif.g08.bks.cpg/sg13_34_cif.got.tgz:67999.got - 2010.06.03 16:44:36.
