data_PCOD9231954
_publ_section_title
;
Structure prediction by ZEFSAII (Michael W. Deem and Ramdas Pophale) SiO2 
 PCOD9231954
Probable space group: P 2/C
;
_chemical_formula_sum "Si O2"
_cell_formula_units_Z 32
_cell_length_a 30.663840
_cell_length_b 9.299428
_cell_length_c 11.417196
_cell_angle_alpha 90.000000
_cell_angle_beta 153.389916
_cell_angle_gamma 90.000000
_cell_volume 1458.274383
_symmetry_space_group_name_H-M "P 2/C"
_symmetry_group_IT_number 13
_symmetry_cell_setting 'monoclinic'
loop_
_space_group_symop_operation_xyz
x,y,z
-x,y,1/2-z
-x,-y,-z
x,-y,1/2+z
loop_
_atom_site_type_symbol
_atom_site_label
_atom_site_fract_x
_atom_site_fract_y
_atom_site_fract_z
Si Si1 0.602652 0.617575 0.046712
Si Si2 0.258327 0.472999 0.303749
Si Si3 0.435527 0.704014 0.978868
Si Si4 0.775275 0.730905 0.114601
Si Si5 0.219161 0.019875 0.264374
Si Si6 0.382769 0.214589 0.706306
Si Si7 0.040197 0.067831 0.974110
Si Si8 0.116832 0.746750 0.355933
O O1 0.500000 0.666124 0.750000
O O2 0.574883 0.469634 0.049956
O O3 0.681164 0.569461 0.141010
O O4 0.641770 0.743085 0.221103
O O5 0.231378 0.572641 0.347791
O O6 0.331353 0.343267 0.510537
O O7 0.165614 0.395139 0.025351
O O8 0.500000 0.736904 0.250000
O O9 0.502802 0.768955 0.039192
O O10 0.325129 0.757917 0.699609
O O11 0.862333 0.746319 0.231697
O O12 0.785304 0.848360 0.241288
O O13 0.330103 0.070230 0.542760
O O14 0.171969 0.114525 0.047139
O O15 0.154878 0.065414 0.224810
O O16 0.994208 0.226739 0.874966
O O17 0.000000 0.007684 0.750000
O O18 0.000000 0.000000 0.000000
#
# Coordination Sequence:
#
# PCOD9231954 Si02
#       8
#     4   4   4   4   4   4   4   4
#     4  11  19  32  56  88 114 166 220 266 304 380
#     4  11  20  35  60  93 122 164 216 266 324 381
#     4  11  19  34  60  86 124 175 216 265 320 384
#     4  12  22  38  64  95 131 173 217 269 337 397
#     4  10  24  39  63  93 125 173 214 265 338 405
#     4  11  20  37  55  82 125 165 214 260 315 380
#     4  10  20  42  73  96 124 171 226 268 338 412
#     4  10  21  41  67  94 131 164 218 277 327 401
#
# _framework density 21.943743999999999
#
# number of rings (size 3 to 8) (size 9 to 14) (size 15 to 20)
#    0.000    1.250    6.250    1.875    0.000    1.500 
#    0.000    0.625    0.000   31.500    0.000    0.000 
#    0.000    0.000    0.000    0.000    0.000    0.000 
#
# Total GULP energy -178462.927576 kJ/mol
# GULP energy per Si atom -5576.966487 kJ/mol
# Density = 2.189380 g / cm^3
# Si number density = 21.943744 Si / 1000 Ang^3
#
#
#
# Elastic Constant Matrix: (Units=GPa)
#
#
# Indices 1 2 3 4 5 6 
#
# 1 84.9886 19.2027 -1.0190 0.0000 -0.7833 0.0000
# 2 19.2027 39.4935 1.3224 0.0000 -1.9607 0.0000
# 3 -1.0190 1.3224 26.6130 0.0000 7.7150 0.0000
# 4 0.0000 0.0000 0.0000 13.7894 0.0000 -8.2059
# 5 -0.7833 -1.9607 7.7150 0.0000 31.6511 0.0000
# 6 0.0000 0.0000 0.0000 -8.2059 0.0000 18.1743
#
#
#
# Elastic Compliance Matrix: (Units=1/GPa)
#
#
# Indices 1 2 3 4 5 6 
#
# 1 0.013239 -0.006483 0.000915 0.000000 -0.000297 0.000000
# 2 -0.006483 0.028658 -0.002303 0.000000 0.002176 0.000000
# 3 0.000915 -0.002303 0.040631 0.000000 -0.010024 0.000000
# 4 0.000000 0.000000 0.000000 0.099163 0.000000 0.044773
# 5 -0.000297 0.002176 -0.010024 0.000000 0.034165 0.000000
# 6 0.000000 0.000000 0.000000 0.044773 0.000000 0.075238
#
#
# Mechanical properties :
#
#
# Convention : Reuss Voigt Hill
#
# Bulk Modulus (GPa) = 14.97303 21.12304 18.04804
# Shear Modulus (GPa) = 15.19308 21.49559 18.34433
#
# Velocity S-wave (km/s) = 2.63414 3.13321 2.89445
# Velocity P-wave (km/s) = 4.01120 4.76826 4.40602
#
# Compressibility (1/GPa) = 0.06678674
#
# Stress axis : x y z
#
# Youngs Moduli (GPa) = 75.53312 34.89457 24.61179
#
# Poissons Ratio (x) = 0.22621 -0.02252
# Poissons Ratio (y) = 0.48965 0.05668
# Poissons Ratio (z) = -0.06913 0.08037
#
# Static dielectric constant tensor:
#      x y z
#    x 1.859280 0.000000 -0.035450 
#    y 0.000000 1.791280 0.000000 
#    z -0.035450 0.000000 1.863170 
# 
# From -- ./inp_files/42777.got.cif
#   From: 2010.05.17/outbox.cif.g08.bks.cpg/sg13_22_cif.got.tgz:42777.got - 2010.06.03 16:44:36.
