data_PCOD9231353
_publ_section_title
;
Structure prediction by ZEFSAII (Michael W. Deem and Ramdas Pophale) SiO2 
 PCOD9231353
Probable space group: P 2/C
;
_chemical_formula_sum "Si O2"
_cell_formula_units_Z 30
_cell_length_a 8.564575
_cell_length_b 8.219512
_cell_length_c 20.524845
_cell_angle_alpha 90.000000
_cell_angle_beta 72.866383
_cell_angle_gamma 90.000000
_cell_volume 1380.756564
_symmetry_space_group_name_H-M "P 2/C"
_symmetry_group_IT_number 13
_symmetry_cell_setting 'monoclinic'
loop_
_space_group_symop_operation_xyz
x,y,z
-x,y,1/2-z
-x,-y,-z
x,-y,1/2+z
loop_
_atom_site_type_symbol
_atom_site_label
_atom_site_fract_x
_atom_site_fract_y
_atom_site_fract_z
Si Si1 0.611164 0.864402 0.522676
Si Si2 0.697873 0.371726 0.231138
Si Si3 0.500000 0.929853 0.250000
Si Si4 0.057104 0.048034 0.671583
Si Si5 0.286588 0.757908 0.627077
Si Si6 0.271768 0.314773 0.702625
Si Si7 0.350133 0.557951 0.062992
Si Si8 0.764972 0.909231 0.632128
O O1 0.475407 0.777676 0.585028
O O2 0.691903 0.729271 0.466109
O O3 0.744750 0.925055 0.557549
O O4 0.500000 0.000000 0.500000
O O5 0.500000 0.390278 0.250000
O O6 0.730016 0.275123 0.294304
O O7 0.771687 0.548447 0.239260
O O8 0.778157 0.273067 0.161362
O O9 0.629414 0.822773 0.272631
O O10 0.402818 0.033848 0.313870
O O11 0.192654 0.925427 0.626627
O O12 0.000000 0.986611 0.750000
O O13 0.904859 0.026207 0.642845
O O14 0.128745 0.225419 0.680041
O O15 0.234269 0.599667 0.590296
O O16 0.388074 0.395278 0.633329
O O17 0.500000 0.500000 0.000000
#
# Coordination Sequence:
#
# PCOD9231353 Si02
#       8
#     4   4   2   4   4   4   4   4
#     4  11  21  39  67  95 124 174 229 285 321 377
#     4  11  19  37  64  97 124 165 215 283 335 384
#     4  12  20  36  62  96 128 166 216 290 326 384
#     4  12  23  41  59  96 140 180 205 265 358 419
#     4  10  20  39  64  89 131 168 215 274 334 398
#     4  11  23  38  62  96 137 161 221 285 335 397
#     4   9  21  39  63  91 123 171 224 272 327 385
#     4  12  23  38  65  95 132 177 228 261 339 416
#
# _framework density 21.727218000000001
#
# number of rings (size 3 to 8) (size 9 to 14) (size 15 to 20)
#    0.000    1.067    5.333    2.400    0.000    0.000 
#    4.800    3.333    0.000    0.000    0.000    0.000 
#    0.000    0.000    0.000    0.000    0.000    0.000 
#
# Total GULP energy -167274.605704 kJ/mol
# GULP energy per Si atom -5575.820190 kJ/mol
# Density = 2.167777 g / cm^3
# Si number density = 21.727218 Si / 1000 Ang^3
#
#
#
# Elastic Constant Matrix: (Units=GPa)
#
#
# Indices 1 2 3 4 5 6 
#
# 1 64.6195 35.7738 14.5240 0.0000 22.3707 0.0000
# 2 35.7738 120.8420 25.7501 0.0000 18.6622 0.0000
# 3 14.5240 25.7501 86.2840 0.0000 18.1328 0.0000
# 4 0.0000 0.0000 0.0000 39.5382 0.0000 -0.7096
# 5 22.3707 18.6622 18.1328 0.0000 36.1537 0.0000
# 6 0.0000 0.0000 0.0000 -0.7096 0.0000 20.2707
#
#
#
# Elastic Compliance Matrix: (Units=1/GPa)
#
#
# Indices 1 2 3 4 5 6 
#
# 1 0.021979 -0.004799 0.000078 0.000000 -0.011161 0.000000
# 2 -0.004799 0.010331 -0.001988 0.000000 -0.001366 0.000000
# 3 0.000078 -0.001988 0.013374 0.000000 -0.005730 0.000000
# 4 0.000000 0.000000 0.000000 0.025308 0.000000 0.000886
# 5 -0.011161 -0.001366 -0.005730 0.000000 0.038145 0.000000
# 6 0.000000 0.000000 0.000000 0.000886 0.000000 0.049363
#
#
# Mechanical properties :
#
#
# Convention : Reuss Voigt Hill
#
# Bulk Modulus (GPa) = 30.99367 47.09349 39.04358
# Shear Modulus (GPa) = 27.37138 32.23904 29.80521
#
# Velocity S-wave (km/s) = 3.55318 3.85620 3.70779
# Velocity P-wave (km/s) = 5.57937 6.44585 6.02820
#
# Compressibility (1/GPa) = 0.03226465
#
# Stress axis : x y z
#
# Youngs Moduli (GPa) = 45.49878 96.79933 74.77234
#
# Poissons Ratio (x) = 0.46459 -0.00586
# Poissons Ratio (y) = 0.21837 0.14866
# Poissons Ratio (z) = -0.00356 0.19245
#
# Static dielectric constant tensor:
#      x y z
#    x 1.816270 0.000000 -0.004320 
#    y 0.000000 1.912880 0.000000 
#    z -0.004320 0.000000 1.817540 
# 
# From -- ./inp_files/75686.got.cif
#   From: 2010.05.17/outbox.cif.g08.bks.cpg/sg13_38_cif.got.tgz:75686.got - 2010.06.03 16:44:36.
