data_PCOD9231961
_publ_section_title
;
Structure prediction by ZEFSAII (Michael W. Deem and Ramdas Pophale) SiO2 
 PCOD9231961
Probable space group: P 2/C
;
_chemical_formula_sum "Si O2"
_cell_formula_units_Z 28
_cell_length_a 18.433536
_cell_length_b 6.309791
_cell_length_c 10.829980
_cell_angle_alpha 90.000000
_cell_angle_beta 116.080869
_cell_angle_gamma 90.000000
_cell_volume 1131.389029
_symmetry_space_group_name_H-M "P 2/C"
_symmetry_group_IT_number 13
_symmetry_cell_setting 'monoclinic'
loop_
_space_group_symop_operation_xyz
x,y,z
-x,y,1/2-z
-x,-y,-z
x,-y,1/2+z
loop_
_atom_site_type_symbol
_atom_site_label
_atom_site_fract_x
_atom_site_fract_y
_atom_site_fract_z
Si Si1 0.599456 0.023799 0.968608
Si Si2 0.545020 0.688759 0.609954
Si Si3 0.264208 0.692070 0.440396
Si Si4 0.860365 0.040564 0.520893
Si Si5 0.000000 0.783979 0.750000
Si Si6 0.500000 0.626427 0.250000
Si Si7 0.238292 0.647805 0.138341
Si Si8 0.916280 0.594888 0.891555
O O1 0.562377 0.208919 0.857170
O O2 0.525509 0.860046 0.926921
O O3 0.614574 0.166392 0.103208
O O4 0.671354 0.876508 0.981295
O O5 0.500000 0.500000 0.500000
O O6 0.562229 0.546309 0.739607
O O7 0.177808 0.806658 0.401763
O O8 0.283118 0.644964 0.307637
O O9 0.266138 0.496645 0.540932
O O10 0.887698 0.183634 0.427085
O O11 0.943303 0.928327 0.623108
O O12 0.788834 0.879057 0.429025
O O13 0.932972 0.635859 0.762031
O O14 0.153410 0.557510 0.120958
O O15 0.000000 0.500000 0.000000
#
# Coordination Sequence:
#
# PCOD9231961 Si02
#       8
#     4   4   4   4   2   2   4   4
#     4  10  22  46  72 112 147 197 255 314 386 460
#     4   9  20  42  71 106 142 185 248 312 364 454
#     4  11  27  50  76 108 157 204 250 319 388 471
#     4  11  25  44  68 108 143 199 253 317 384 466
#     4  12  22  40  74  94 148 184 246 312 382 450
#     4  10  20  42  76 108 150 184 258 312 384 460
#     4  11  25  50  73 108 153 196 264 312 394 473
#     4  11  24  39  66 105 135 191 248 316 381 449
#
# _framework density 24.748341
#
# number of rings (size 3 to 8) (size 9 to 14) (size 15 to 20)
#    0.000    1.429    1.429    2.571    4.000    3.429 
#   20.571    0.000    0.000    0.000    0.000    0.000 
#    0.000    0.000    0.000    0.000    0.000    0.000 
#
# Total GULP energy -156041.378010 kJ/mol
# GULP energy per Si atom -5572.906357 kJ/mol
# Density = 2.469201 g / cm^3
# Si number density = 24.748341 Si / 1000 Ang^3
#
#
#
# Elastic Constant Matrix: (Units=GPa)
#
#
# Indices 1 2 3 4 5 6 
#
# 1 84.0921 57.1075 26.8990 0.0000 -1.7982 0.0000
# 2 57.1075 184.0330 62.8184 0.0000 -19.2404 0.0000
# 3 26.8990 62.8184 77.9639 0.0000 -13.4265 0.0000
# 4 0.0000 0.0000 0.0000 20.9666 0.0000 -0.5916
# 5 -1.7982 -19.2404 -13.4265 0.0000 29.7654 0.0000
# 6 0.0000 0.0000 0.0000 -0.5916 0.0000 53.5274
#
#
#
# Elastic Compliance Matrix: (Units=1/GPa)
#
#
# Indices 1 2 3 4 5 6 
#
# 1 0.015517 -0.004306 -0.002388 0.000000 -0.002923 0.000000
# 2 -0.004306 0.008838 -0.005092 0.000000 0.003156 0.000000
# 3 -0.002388 -0.005092 0.018607 0.000000 0.004957 0.000000
# 4 0.000000 0.000000 0.000000 0.047710 0.000000 0.000527
# 5 -0.002923 0.003156 0.004957 0.000000 0.037696 0.000000
# 6 0.000000 0.000000 0.000000 0.000527 0.000000 0.018688
#
#
# Mechanical properties :
#
#
# Convention : Reuss Voigt Hill
#
# Bulk Modulus (GPa) = 51.57070 71.08208 61.32639
# Shear Modulus (GPa) = 28.23429 34.13616 31.18522
#
# Velocity S-wave (km/s) = 3.38132 3.71796 3.55363
# Velocity P-wave (km/s) = 6.01063 6.87134 6.45535
#
# Compressibility (1/GPa) = 0.01939086
#
# Stress axis : x y z
#
# Youngs Moduli (GPa) = 64.44543 113.14815 53.74351
#
# Poissons Ratio (x) = 0.48717 0.12833
# Poissons Ratio (y) = 0.27748 0.27367
# Poissons Ratio (z) = 0.15388 0.57616
#
# Static dielectric constant tensor:
#      x y z
#    x 1.967090 0.000000 -0.136160 
#    y 0.000000 1.711610 0.000000 
#    z -0.136160 0.000000 2.343140 
# 
# From -- ./inp_files/40172.got.cif
#   From: 2010.05.17/outbox.cif.g08.bks.cpg/sg13_21_cif.got.tgz:40172.got - 2010.06.03 16:44:36.
