data_PCOD9231858
_publ_section_title
;
Structure prediction by ZEFSAII (Michael W. Deem and Ramdas Pophale) SiO2 
 PCOD9231858
Probable space group: P 2/C
;
_chemical_formula_sum "Si O2"
_cell_formula_units_Z 28
_cell_length_a 8.769735
_cell_length_b 15.978902
_cell_length_c 11.155231
_cell_angle_alpha 90.000000
_cell_angle_beta 57.850446
_cell_angle_gamma 90.000000
_cell_volume 1323.494204
_symmetry_space_group_name_H-M "P 2/C"
_symmetry_group_IT_number 13
_symmetry_cell_setting 'monoclinic'
loop_
_space_group_symop_operation_xyz
x,y,z
-x,y,1/2-z
-x,-y,-z
x,-y,1/2+z
loop_
_atom_site_type_symbol
_atom_site_label
_atom_site_fract_x
_atom_site_fract_y
_atom_site_fract_z
Si Si1 0.713424 0.425732 0.682923
Si Si2 0.188349 0.094415 0.369029
Si Si3 0.000000 0.792256 0.750000
Si Si4 0.359672 0.700559 0.583605
Si Si5 0.877203 0.924256 0.190449
Si Si6 0.500000 0.207897 0.250000
Si Si7 0.194432 0.531383 0.622442
Si Si8 0.652748 0.240687 0.775102
O O1 0.500000 0.437037 0.750000
O O2 0.767393 0.459089 0.793438
O O3 0.802268 0.470579 0.526599
O O4 0.741064 0.324339 0.678867
O O5 0.109025 0.148617 0.293867
O O6 0.348978 0.145161 0.364057
O O7 0.019919 0.087461 0.525778
O O8 0.244993 0.003007 0.297189
O O9 0.835535 0.737725 0.874546
O O10 0.400867 0.733775 0.697677
O O11 0.342177 0.601609 0.587193
O O12 0.531103 0.728142 0.435603
O O13 0.781821 0.835764 0.252221
O O14 0.000000 0.950757 0.250000
O O15 0.000000 0.561951 0.750000
O O16 0.500000 0.206271 0.750000
#
# Coordination Sequence:
#
# PCOD9231858 Si02
#       8
#     4   4   2   4   4   2   4   4
#     4  11  25  44  69  98 137 176 224 282 342 406
#     4  10  22  41  61  92 129 167 214 266 324 386
#     4  10  20  42  64  90 132 168 216 262 324 400
#     4  11  22  40  66  95 127 173 216 272 327 398
#     4  11  23  40  63  91 128 172 212 266 328 387
#     4  10  24  38  60  96 124 162 222 264 324 388
#     4  12  25  44  68 101 134 178 226 278 344 408
#     4  11  23  41  65  94 127 169 224 265 337 389
#
# _framework density 21.156119
#
# number of rings (size 3 to 8) (size 9 to 14) (size 15 to 20)
#    0.000    1.143    4.286    2.571    2.000    0.571 
#    0.000    2.143    0.000    0.000    0.000    0.000 
#    0.000    0.000    0.000    0.000    0.000    0.000 
#
# Total GULP energy -155990.543791 kJ/mol
# GULP energy per Si atom -5571.090850 kJ/mol
# Density = 2.110797 g / cm^3
# Si number density = 21.156119 Si / 1000 Ang^3
#
#
#
# Elastic Constant Matrix: (Units=GPa)
#
#
# Indices 1 2 3 4 5 6 
#
# 1 43.2600 25.8924 1.6567 0.0000 -3.7241 0.0000
# 2 25.8924 85.3586 28.8262 0.0000 1.6320 0.0000
# 3 1.6567 28.8262 89.9176 0.0000 -1.5450 0.0000
# 4 0.0000 0.0000 0.0000 -6.1007 0.0000 1.5554
# 5 -3.7241 1.6320 -1.5450 0.0000 19.8596 0.0000
# 6 0.0000 0.0000 0.0000 1.5554 0.0000 33.4115
#
#
#
# Elastic Compliance Matrix: (Units=1/GPa)
#
#
# Indices 1 2 3 4 5 6 
#
# 1 0.029587 -0.010042 0.002787 0.000000 0.006590 0.000000
# 2 -0.010042 0.016586 -0.005195 0.000000 -0.003650 0.000000
# 3 0.002787 -0.005195 0.012769 0.000000 0.001943 0.000000
# 4 0.000000 0.000000 0.000000 -0.161992 0.000000 0.007541
# 5 0.006590 -0.003650 0.001943 0.000000 0.052040 0.000000
# 6 0.000000 0.000000 0.000000 0.007541 0.000000 0.029579
#
#
# Mechanical properties :
#
#
# Convention : Reuss Voigt Hill
#
# Bulk Modulus (GPa) = 29.37514 36.80965 33.09239
# Shear Modulus (GPa) = 337.50434 20.24480 178.87457
#
# Velocity S-wave (km/s) = 12.64424 3.09678 9.20507
# Velocity P-wave (km/s) = 15.06931 5.49759 11.34256
#
# Compressibility (1/GPa) = 0.03404239
#
# Stress axis : x y z
#
# Youngs Moduli (GPa) = 33.79840 60.29347 78.31666
#
# Poissons Ratio (x) = 0.60548 -0.21831
# Poissons Ratio (y) = 0.33941 0.40684
# Poissons Ratio (z) = -0.09421 0.31321
#
# Static dielectric constant tensor:
#      x y z
#    x 1.767900 0.000000 0.028390 
#    y 0.000000 1.797910 0.000000 
#    z 0.028390 0.000000 1.859990 
# 
# From -- ./inp_files/30333.got.cif
#   From: 2010.05.17/outbox.cif.g08.bks.cpg/sg13_16_cif.got.tgz:30333.got - 2010.06.03 16:44:36.
