data_PCOD9231474
_publ_section_title
;
Structure prediction by ZEFSAII (Michael W. Deem and Ramdas Pophale) SiO2 
 PCOD9231474
Probable space group: P 2/C
;
_chemical_formula_sum "Si O2"
_cell_formula_units_Z 30
_cell_length_a 11.194060
_cell_length_b 8.211361
_cell_length_c 16.182012
_cell_angle_alpha 90.000000
_cell_angle_beta 86.739082
_cell_angle_gamma 90.000000
_cell_volume 1485.017381
_symmetry_space_group_name_H-M "P 2/C"
_symmetry_group_IT_number 13
_symmetry_cell_setting 'monoclinic'
loop_
_space_group_symop_operation_xyz
x,y,z
-x,y,1/2-z
-x,-y,-z
x,-y,1/2+z
loop_
_atom_site_type_symbol
_atom_site_label
_atom_site_fract_x
_atom_site_fract_y
_atom_site_fract_z
Si Si1 0.311840 0.915502 0.900951
Si Si2 0.139856 0.381154 0.104846
Si Si3 0.094093 0.169991 0.666722
Si Si4 0.000000 0.542946 0.250000
Si Si5 0.294939 0.305130 0.552928
Si Si6 0.091010 0.867250 0.461000
Si Si7 0.540919 0.881101 0.338637
Si Si8 0.239102 0.113271 0.219416
O O1 0.263310 0.855693 0.814313
O O2 0.216661 0.045856 0.939693
O O3 0.434217 0.015832 0.883720
O O4 0.323864 0.761683 0.961191
O O5 0.024815 0.437744 0.166058
O O6 0.228350 0.522792 0.067632
O O7 0.215097 0.269770 0.164996
O O8 0.099757 0.276234 0.027517
O O9 0.192362 0.186067 0.592161
O O10 0.105768 0.324506 0.727689
O O11 0.970266 0.184102 0.622563
O O12 0.124545 0.004271 0.711433
O O13 0.408189 0.264066 0.606671
O O14 0.000000 0.000000 0.500000
O O15 0.500000 0.820535 0.250000
O O16 0.647489 0.009613 0.316842
#
# Coordination Sequence:
#
# PCOD9231474 Si02
#       8
#     4   4   4   2   4   4   4   4
#     4  11  22  38  67  91 120 172 217 265 321 388
#     4  11  25  39  60  94 132 167 208 271 333 380
#     4  10  20  40  59  85 123 166 209 254 312 390
#     4  10  24  36  56  88 126 162 200 256 328 388
#     4  10  21  39  60  92 129 161 203 270 331 378
#     4  12  22  39  62  91 128 167 217 260 313 395
#     4   9  20  42  67  92 121 170 226 268 311 392
#     4  10  21  40  66  88 120 163 227 261 312 386
#
# _framework density 20.201784
#
# number of rings (size 3 to 8) (size 9 to 14) (size 15 to 20)
#    0.000    1.600    2.667    2.000    1.867    4.800 
#    0.000    4.667    0.000    0.000    0.000    0.000 
#    0.000    0.000    0.000    0.000    0.000    0.000 
#
# Total GULP energy -167147.759276 kJ/mol
# GULP energy per Si atom -5571.591976 kJ/mol
# Density = 2.015580 g / cm^3
# Si number density = 20.201784 Si / 1000 Ang^3
#
#
#
# Elastic Constant Matrix: (Units=GPa)
#
#
# Indices 1 2 3 4 5 6 
#
# 1 89.9062 51.2868 70.5405 0.0000 0.8309 0.0000
# 2 51.2868 97.5962 77.2537 0.0000 19.9376 0.0000
# 3 70.5405 77.2537 145.9428 0.0000 11.5575 0.0000
# 4 0.0000 0.0000 0.0000 20.1265 0.0000 -1.9030
# 5 0.8309 19.9376 11.5575 0.0000 30.9648 0.0000
# 6 0.0000 0.0000 0.0000 -1.9030 0.0000 23.3827
#
#
#
# Elastic Compliance Matrix: (Units=1/GPa)
#
#
# Indices 1 2 3 4 5 6 
#
# 1 0.020045 -0.006423 -0.006774 0.000000 0.006126 0.000000
# 2 -0.006423 0.021921 -0.007620 0.000000 -0.011098 0.000000
# 3 -0.006774 -0.007620 0.014176 0.000000 -0.000203 0.000000
# 4 0.000000 0.000000 0.000000 0.050071 0.000000 0.004075
# 5 0.006126 -0.011098 -0.000203 0.000000 0.039352 0.000000
# 6 0.000000 0.000000 0.000000 0.004075 0.000000 0.043098
#
#
# Mechanical properties :
#
#
# Convention : Reuss Voigt Hill
#
# Bulk Modulus (GPa) = 68.93092 81.28970 75.11031
# Shear Modulus (GPa) = 21.26475 23.85244 22.55859
#
# Velocity S-wave (km/s) = 3.24793 3.43987 3.34528
# Velocity P-wave (km/s) = 6.94699 7.49021 7.22371
#
# Compressibility (1/GPa) = 0.01450728
#
# Stress axis : x y z
#
# Youngs Moduli (GPa) = 49.88832 45.61936 70.54406
#
# Poissons Ratio (x) = 0.29303 0.47783
# Poissons Ratio (y) = 0.32045 0.53754
# Poissons Ratio (z) = 0.33792 0.34762
#
# Static dielectric constant tensor:
#      x y z
#    x 1.734670 0.000000 0.005710 
#    y 0.000000 1.742620 0.000000 
#    z 0.005710 0.000000 1.794310 
# 
# From -- ./inp_files/50061.got.cif
#   From: 2010.05.17/outbox.cif.g08.bks.cpg/sg13_26_cif.got.tgz:50061.got - 2010.06.03 16:44:36.
