data_PCOD9231526
_publ_section_title
;
Structure prediction by ZEFSAII (Michael W. Deem and Ramdas Pophale) SiO2 
 PCOD9231526
Probable space group: P 2/C
;
_chemical_formula_sum "Si O2"
_cell_formula_units_Z 22
_cell_length_a 11.267046
_cell_length_b 10.819074
_cell_length_c 14.825490
_cell_angle_alpha 90.000000
_cell_angle_beta 152.245149
_cell_angle_gamma 90.000000
_cell_volume 841.599776
_symmetry_space_group_name_H-M "P 2/C"
_symmetry_group_IT_number 13
_symmetry_cell_setting 'monoclinic'
loop_
_space_group_symop_operation_xyz
x,y,z
-x,y,1/2-z
-x,-y,-z
x,-y,1/2+z
loop_
_atom_site_type_symbol
_atom_site_label
_atom_site_fract_x
_atom_site_fract_y
_atom_site_fract_z
Si Si1 0.000000 0.871588 0.250000
Si Si2 0.249311 0.017223 0.268738
Si Si3 0.754831 0.307178 0.474124
Si Si4 0.256220 0.770635 0.196626
Si Si5 0.917307 0.561270 0.537911
Si Si6 0.238433 0.738209 0.844995
O O1 0.033048 0.960167 0.187612
O O2 0.227069 0.775907 0.424448
O O3 0.260613 0.921687 0.192887
O O4 0.500000 0.000000 0.500000
O O5 0.224586 0.163708 0.252817
O O6 0.500000 0.277573 0.250000
O O7 0.771226 0.455459 0.494998
O O8 0.007095 0.266898 0.588084
O O9 0.506191 0.741571 0.424570
O O10 0.234138 0.684757 0.093782
O O11 0.000000 0.500000 0.500000
O O12 0.168931 0.605409 0.758468
O O13 0.000000 0.768605 0.750000
#
# Coordination Sequence:
#
# PCOD9231526 Si02
#       6
#     2   4   4   4   4   4
#     4  10  20  40  62  90 126 162 212 264 318 374
#     4   9  19  39  65  93 121 164 211 261 321 385
#     4  10  23  38  62  91 125 170 214 259 306 376
#     4   9  22  42  64  93 128 164 214 263 315 381
#     4  10  24  41  61  92 130 169 216 259 316 378
#     4  11  23  39  68  96 129 170 208 267 326 378
#
# _framework density 26.140691
#
# number of rings (size 3 to 8) (size 9 to 14) (size 15 to 20)
#    0.000    2.182    0.909    0.000    3.818   12.364 
#    0.000    5.455    0.000    0.000    0.000    0.000 
#    0.000    0.000    0.000    0.000    0.000    0.000 
#
# Total GULP energy -122942.957693 kJ/mol
# GULP energy per Si atom -5588.316259 kJ/mol
# Density = 2.608119 g / cm^3
# Si number density = 26.140691 Si / 1000 Ang^3
#
#
#
# Elastic Constant Matrix: (Units=GPa)
#
#
# Indices 1 2 3 4 5 6 
#
# 1 64.9370 25.5585 26.6580 0.0000 4.9951 0.0000
# 2 25.5585 104.5578 58.7877 0.0000 -10.4175 0.0000
# 3 26.6580 58.7877 172.7455 0.0000 10.8903 0.0000
# 4 0.0000 0.0000 0.0000 56.6012 0.0000 -24.7483
# 5 4.9951 -10.4175 10.8903 0.0000 34.6638 0.0000
# 6 0.0000 0.0000 0.0000 -24.7483 0.0000 28.2751
#
#
#
# Elastic Compliance Matrix: (Units=1/GPa)
#
#
# Indices 1 2 3 4 5 6 
#
# 1 0.017717 -0.004023 -0.001151 0.000000 -0.003400 0.000000
# 2 -0.004023 0.013623 -0.004397 0.000000 0.006055 0.000000
# 3 -0.001151 -0.004397 0.007688 0.000000 -0.003571 0.000000
# 4 0.000000 0.000000 0.000000 0.028621 0.000000 0.025051
# 5 -0.003400 0.006055 -0.003571 0.000000 0.032280 0.000000
# 6 0.000000 0.000000 0.000000 0.025051 0.000000 0.057293
#
#
# Mechanical properties :
#
#
# Convention : Reuss Voigt Hill
#
# Bulk Modulus (GPa) = 50.28425 62.69431 56.48928
# Shear Modulus (GPa) = 27.32372 39.32375 33.32373
#
# Velocity S-wave (km/s) = 3.23655 3.88275 3.57429
# Velocity P-wave (km/s) = 5.76583 6.64353 6.22018
#
# Compressibility (1/GPa) = 0.01988694
#
# Stress axis : x y z
#
# Youngs Moduli (GPa) = 56.44380 73.40571 130.07378
#
# Poissons Ratio (x) = 0.29528 0.14968
# Poissons Ratio (y) = 0.22705 0.57194
# Poissons Ratio (z) = 0.06495 0.32277
#
# Static dielectric constant tensor:
#      x y z
#    x 2.675290 0.000000 0.211730 
#    y 0.000000 2.146900 0.000000 
#    z 0.211730 0.000000 2.122770 
# 
# From -- ./inp_files/68611.got.cif
#   From: 2010.05.17/outbox.cif.g08.bks.cpg/sg13_35_cif.got.tgz:68611.got - 2010.06.03 16:44:36.
