data_PCOD9231743
_publ_section_title
;
Structure prediction by ZEFSAII (Michael W. Deem and Ramdas Pophale) SiO2 
 PCOD9231743
Probable space group: P 2/C
;
_chemical_formula_sum "Si O2"
_cell_formula_units_Z 26
_cell_length_a 9.376320
_cell_length_b 8.316867
_cell_length_c 27.038248
_cell_angle_alpha 90.000000
_cell_angle_beta 36.083002
_cell_angle_gamma 90.000000
_cell_volume 1241.806804
_symmetry_space_group_name_H-M "P 2/C"
_symmetry_group_IT_number 13
_symmetry_cell_setting 'monoclinic'
loop_
_space_group_symop_operation_xyz
x,y,z
-x,y,1/2-z
-x,-y,-z
x,-y,1/2+z
loop_
_atom_site_type_symbol
_atom_site_label
_atom_site_fract_x
_atom_site_fract_y
_atom_site_fract_z
Si Si1 0.851744 0.315218 0.871152
Si Si2 0.781022 0.889736 0.079265
Si Si3 0.662316 0.482353 0.252999
Si Si4 0.184521 0.306469 0.509770
Si Si5 0.000000 0.049237 0.750000
Si Si6 0.575584 0.383029 0.580625
Si Si7 0.432466 0.850275 0.674336
O O1 0.752357 0.261514 0.952020
O O2 0.637451 0.395107 0.899584
O O3 0.072465 0.436971 0.821188
O O4 0.944053 0.167907 0.811622
O O5 0.665087 0.797234 0.065115
O O6 0.915690 0.757499 0.074458
O O7 0.581277 0.005666 0.158887
O O8 0.000000 0.000000 0.000000
O O9 0.500000 0.510525 0.250000
O O10 0.532629 0.561951 0.336691
O O11 0.665964 0.291254 0.263341
O O12 0.210248 0.497372 0.494687
O O13 0.376283 0.230076 0.417633
O O14 0.221019 0.935681 0.703195
#
# Coordination Sequence:
#
# PCOD9231743 Si02
#       7
#     4   4   4   4   2   4   4
#     4  12  23  42  67  99 130 182 220 280 333 402
#     4  10  20  41  63  91 133 173 214 272 336 388
#     4  11  24  41  69  96 128 174 229 271 332 402
#     4  10  24  39  69  97 130 175 232 274 330 398
#     4  12  24  42  68  92 142 176 210 280 338 402
#     4  11  21  43  63  94 134 168 226 274 333 392
#     4  10  24  43  65  97 137 175 220 283 337 393
#
# _framework density 20.937235999999999
#
# number of rings (size 3 to 8) (size 9 to 14) (size 15 to 20)
#    0.000    1.231    3.077    1.846    4.308    4.308 
#    0.000    0.769    0.000    0.000    0.000    0.000 
#    0.000    0.000    0.000    0.000    0.000    0.000 
#
# Total GULP energy -145225.820508 kJ/mol
# GULP energy per Si atom -5585.608481 kJ/mol
# Density = 2.088958 g / cm^3
# Si number density = 20.937236 Si / 1000 Ang^3
#
#
#
# Elastic Constant Matrix: (Units=GPa)
#
#
# Indices 1 2 3 4 5 6 
#
# 1 149.0840 36.6681 25.1498 0.0000 -18.1634 0.0000
# 2 36.6681 81.5092 14.7282 0.0000 -35.4250 0.0000
# 3 25.1498 14.7282 31.8420 0.0000 -6.6078 0.0000
# 4 0.0000 0.0000 0.0000 12.7737 0.0000 -15.2464
# 5 -18.1634 -35.4250 -6.6078 0.0000 39.1162 0.0000
# 6 0.0000 0.0000 0.0000 -15.2464 0.0000 37.0803
#
#
#
# Elastic Compliance Matrix: (Units=1/GPa)
#
#
# Indices 1 2 3 4 5 6 
#
# 1 0.008289 -0.002461 -0.005257 0.000000 0.000732 0.000000
# 2 -0.002461 0.022035 -0.004502 0.000000 0.018052 0.000000
# 3 -0.005257 -0.004502 0.037605 0.000000 -0.000166 0.000000
# 4 0.000000 0.000000 0.000000 0.153733 0.000000 0.063211
# 5 0.000732 0.018052 -0.000166 0.000000 0.042226 0.000000
# 6 0.000000 0.000000 0.000000 0.063211 0.000000 0.052959
#
#
# Mechanical properties :
#
#
# Convention : Reuss Voigt Hill
#
# Bulk Modulus (GPa) = 22.99404 46.16972 34.58188
# Shear Modulus (GPa) = 14.05353 30.18666 22.12010
#
# Velocity S-wave (km/s) = 2.59361 3.80118 3.25390
# Velocity P-wave (km/s) = 4.46937 6.43154 5.53805
#
# Compressibility (1/GPa) = 0.04348953
#
# Stress axis : x y z
#
# Youngs Moduli (GPa) = 120.64392 45.38258 26.59224
#
# Poissons Ratio (x) = 0.11167 0.13979
# Poissons Ratio (y) = 0.29687 0.11972
# Poissons Ratio (z) = 0.63418 0.20432
#
# Static dielectric constant tensor:
#      x y z
#    x 1.753140 0.000000 -0.011030 
#    y 0.000000 1.807520 0.000000 
#    z -0.011030 0.000000 1.752600 
# 
# From -- ./inp_files/91226.got.cif
#   From: 2010.05.17/outbox.cif.g08.bks.cpg/sg13_46_cif.got.tgz:91226.got - 2010.06.03 16:44:36.
