data_PCOD9231916
_publ_section_title
;
Structure prediction by ZEFSAII (Michael W. Deem and Ramdas Pophale) SiO2 
 PCOD9231916
Probable space group: P 2/C
;
_chemical_formula_sum "Si O2"
_cell_formula_units_Z 28
_cell_length_a 17.113771
_cell_length_b 12.264202
_cell_length_c 19.596196
_cell_angle_alpha 90.000000
_cell_angle_beta 160.067523
_cell_angle_gamma 90.000000
_cell_volume 1402.166818
_symmetry_space_group_name_H-M "P 2/C"
_symmetry_group_IT_number 13
_symmetry_cell_setting 'monoclinic'
loop_
_space_group_symop_operation_xyz
x,y,z
-x,y,1/2-z
-x,-y,-z
x,-y,1/2+z
loop_
_atom_site_type_symbol
_atom_site_label
_atom_site_fract_x
_atom_site_fract_y
_atom_site_fract_z
Si Si1 0.727449 0.716097 0.317741
Si Si2 0.000000 0.208096 0.750000
Si Si3 0.866851 0.391146 0.540723
Si Si4 0.164181 0.395481 0.140479
Si Si5 0.624414 0.127752 0.535015
Si Si6 0.744722 0.954365 0.285446
Si Si7 0.500000 0.574211 0.250000
Si Si8 0.616237 0.630148 0.075134
O O1 0.700751 0.846338 0.294392
O O2 0.589227 0.650763 0.261910
O O3 0.649042 0.667706 0.180059
O O4 0.001268 0.691122 0.544607
O O5 0.144545 0.289213 0.917790
O O6 0.157374 0.133019 0.833603
O O7 0.784573 0.364437 0.395942
O O8 0.714429 0.492533 0.440998
O O9 0.141634 0.410869 0.757013
O O10 0.386422 0.431737 0.364763
O O11 0.000000 0.500000 0.000000
O O12 0.696563 0.083518 0.668287
O O13 0.558490 0.253745 0.490524
O O14 0.428811 0.052649 0.343419
O O15 0.000000 0.000000 0.500000
#
# Coordination Sequence:
#
# PCOD9231916 Si02
#       8
#     4   2   4   4   4   4   2   4
#     4  10  23  41  62  91 125 166 211 259 315 390
#     4  10  22  42  60  98 132 158 210 262 332 364
#     4  10  24  38  61  89 127 169 201 263 314 374
#     4  11  21  40  63  90 119 166 222 257 296 381
#     4   9  20  39  65  92 121 152 206 265 308 383
#     4  10  20  42  69  88 117 164 212 258 319 369
#     4  12  24  44  54  92 142 164 210 254 316 394
#     4   9  21  41  66  89 118 163 213 259 310 367
#
# _framework density 19.969092
#
# number of rings (size 3 to 8) (size 9 to 14) (size 15 to 20)
#    0.000    2.000    1.429    1.714    4.000    3.429 
#    2.571    0.000    0.000    0.000    0.000    0.000 
#    0.000    0.000    0.000    0.000    0.000    0.000 
#
# Total GULP energy -156287.711498 kJ/mol
# GULP energy per Si atom -5581.703982 kJ/mol
# Density = 1.992364 g / cm^3
# Si number density = 19.969092 Si / 1000 Ang^3
#
#
#
# Elastic Constant Matrix: (Units=GPa)
#
#
# Indices 1 2 3 4 5 6 
#
# 1 83.7427 22.8581 22.1124 0.0000 18.4786 0.0000
# 2 22.8581 95.7295 47.9997 0.0000 19.1793 0.0000
# 3 22.1124 47.9997 130.7556 0.0000 -0.1396 0.0000
# 4 0.0000 0.0000 0.0000 36.7098 0.0000 6.9442
# 5 18.4786 19.1793 -0.1396 0.0000 25.1808 0.0000
# 6 0.0000 0.0000 0.0000 6.9442 0.0000 23.1408
#
#
#
# Elastic Compliance Matrix: (Units=1/GPa)
#
#
# Indices 1 2 3 4 5 6 
#
# 1 0.015060 -0.000145 -0.002505 0.000000 -0.010955 0.000000
# 2 -0.000145 0.015769 -0.005777 0.000000 -0.011936 0.000000
# 3 -0.002505 -0.005777 0.010199 0.000000 0.006295 0.000000
# 4 0.000000 0.000000 0.000000 0.028880 0.000000 -0.008666
# 5 -0.010955 -0.011936 0.006295 0.000000 0.056878 0.000000
# 6 0.000000 0.000000 0.000000 -0.008666 0.000000 0.045814
#
#
# Mechanical properties :
#
#
# Convention : Reuss Voigt Hill
#
# Bulk Modulus (GPa) = 41.36823 55.12978 48.24900
# Shear Modulus (GPa) = 25.31500 31.49012 28.40256
#
# Velocity S-wave (km/s) = 3.56435 3.97538 3.77547
# Velocity P-wave (km/s) = 6.14008 6.98134 6.57418
#
# Compressibility (1/GPa) = 0.02417314
#
# Stress axis : x y z
#
# Youngs Moduli (GPa) = 66.40235 63.41701 98.05000
#
# Poissons Ratio (x) = 0.00919 0.24564
# Poissons Ratio (y) = 0.00963 0.56642
# Poissons Ratio (z) = 0.16635 0.36635
#
# Static dielectric constant tensor:
#      x y z
#    x 1.729190 0.000000 0.002730 
#    y 0.000000 1.787700 0.000000 
#    z 0.002730 0.000000 1.804890 
# 
# From -- ./inp_files/81116.got.cif
#   From: 2010.05.17/outbox.cif.g08.bks.cpg/sg13_41_cif.got.tgz:81116.got - 2010.06.03 16:44:36.
