data_PCOD9231039
_publ_section_title
;
Structure prediction by ZEFSAII (Michael W. Deem and Ramdas Pophale) SiO2 
 PCOD9231039
Probable space group: P 2/C
;
_chemical_formula_sum "Si O2"
_cell_formula_units_Z 22
_cell_length_a 9.060205
_cell_length_b 16.777155
_cell_length_c 8.733873
_cell_angle_alpha 90.000000
_cell_angle_beta 49.875179
_cell_angle_gamma 90.000000
_cell_volume 1015.129684
_symmetry_space_group_name_H-M "P 2/C"
_symmetry_group_IT_number 13
_symmetry_cell_setting 'monoclinic'
loop_
_space_group_symop_operation_xyz
x,y,z
-x,y,1/2-z
-x,-y,-z
x,-y,1/2+z
loop_
_atom_site_type_symbol
_atom_site_label
_atom_site_fract_x
_atom_site_fract_y
_atom_site_fract_z
Si Si1 0.290561 0.785707 0.125757
Si Si2 0.500000 0.303411 0.750000
Si Si3 0.000000 0.460939 0.750000
Si Si4 0.500000 0.025886 0.750000
Si Si5 0.106862 0.757590 0.940137
Si Si6 0.370653 0.106771 0.124455
Si Si7 0.120654 0.393361 0.970138
O O1 0.442385 0.745287 0.138471
O O2 0.093995 0.792543 0.355340
O O3 0.237058 0.741824 0.003789
O O4 0.407976 0.863337 0.996711
O O5 0.313489 0.355505 0.903916
O O6 0.874352 0.408636 0.716909
O O7 0.102497 0.522658 0.567119
O O8 0.629319 0.079602 0.551324
O O9 0.637856 0.970841 0.762699
O O10 0.218961 0.823973 0.767076
O O11 0.047543 0.673753 0.901090
#
# Coordination Sequence:
#
# PCOD9231039 Si02
#       7
#     4   2   2   2   4   4   4
#     4  10  20  38  62  99 126 167 225 276 307 397
#     4  10  21  36  62  95 128 160 226 272 315 374
#     4  10  22  42  62  92 138 166 210 264 348 380
#     4  10  23  40  66  95 142 166 216 278 335 388
#     4  10  21  40  68  93 129 174 231 260 331 387
#     4  11  21  43  64  94 132 178 210 273 334 390
#     4  10  22  40  64  92 129 174 209 276 320 401
#
# _framework density 21.672107
#
# number of rings (size 3 to 8) (size 9 to 14) (size 15 to 20)
#    0.000    1.818    1.818    2.727    2.545    0.727 
#    0.000    5.455    0.000    0.000    0.000    0.000 
#    0.000    0.000    0.000    0.000    0.000    0.000 
#
# Total GULP energy -122712.727488 kJ/mol
# GULP energy per Si atom -5577.851249 kJ/mol
# Density = 2.162278 g / cm^3
# Si number density = 21.672107 Si / 1000 Ang^3
#
#
#
# Elastic Constant Matrix: (Units=GPa)
#
#
# Indices 1 2 3 4 5 6 
#
# 1 138.1909 44.2363 46.5028 0.0000 12.9066 0.0000
# 2 44.2363 95.6060 51.8021 0.0000 2.6933 0.0000
# 3 46.5028 51.8021 103.3502 0.0000 17.3108 0.0000
# 4 0.0000 0.0000 0.0000 51.1818 0.0000 23.0773
# 5 12.9066 2.6933 17.3108 0.0000 25.8278 0.0000
# 6 0.0000 0.0000 0.0000 23.0773 0.0000 -81.0264
#
#
#
# Elastic Compliance Matrix: (Units=1/GPa)
#
#
# Indices 1 2 3 4 5 6 
#
# 1 0.009187 -0.003004 -0.002153 0.000000 -0.002835 0.000000
# 2 -0.003004 0.015671 -0.007300 0.000000 0.004760 0.000000
# 3 -0.002153 -0.007300 0.015766 0.000000 -0.008730 0.000000
# 4 0.000000 0.000000 0.000000 0.017315 0.000000 0.004931
# 5 -0.002835 0.004760 -0.008730 0.000000 0.045489 0.000000
# 6 0.000000 0.000000 0.000000 0.004931 0.000000 -0.010937
#
#
# Mechanical properties :
#
#
# Convention : Reuss Voigt Hill
#
# Bulk Modulus (GPa) = 63.65894 69.13660 66.39777
# Shear Modulus (GPa) = 40.76859 12.17035 26.46947
#
# Velocity S-wave (km/s) = 4.34193 2.37231 3.49859
# Velocity P-wave (km/s) = 7.38742 6.28285 6.85741
#
# Compressibility (1/GPa) = 0.01570871
#
# Stress axis : x y z
#
# Youngs Moduli (GPa) = 108.84409 63.81151 63.42764
#
# Poissons Ratio (x) = 0.19172 0.13657
# Poissons Ratio (y) = 0.32702 0.46304
# Poissons Ratio (z) = 0.23436 0.46584
#
# Static dielectric constant tensor:
#      x y z
#    x 1.783810 0.000000 -0.013750 
#    y 0.000000 1.853110 0.000000 
#    z -0.013750 0.000000 1.714830 
# 
# From -- ./inp_files/13062.got.cif
#   From: 2010.05.17/outbox.cif.g08.bks.cpg/sg13_7_cif.got.tgz:13062.got - 2010.06.03 16:44:36.
