data_PCOD9231280
_publ_section_title
;
Structure prediction by ZEFSAII (Michael W. Deem and Ramdas Pophale) SiO2 
 PCOD9231280
Probable space group: P 2/C
;
_chemical_formula_sum "Si O2"
_cell_formula_units_Z 32
_cell_length_a 29.120869
_cell_length_b 7.773863
_cell_length_c 13.394764
_cell_angle_alpha 90.000000
_cell_angle_beta 31.004200
_cell_angle_gamma 90.000000
_cell_volume 1561.955276
_symmetry_space_group_name_H-M "P 2/C"
_symmetry_group_IT_number 13
_symmetry_cell_setting 'monoclinic'
loop_
_space_group_symop_operation_xyz
x,y,z
-x,y,1/2-z
-x,-y,-z
x,-y,1/2+z
loop_
_atom_site_type_symbol
_atom_site_label
_atom_site_fract_x
_atom_site_fract_y
_atom_site_fract_z
Si Si1 0.904675 0.411505 0.176420
Si Si2 0.651897 0.414576 0.169843
Si Si3 0.421909 0.798856 0.540042
Si Si4 0.718567 0.043253 0.588559
Si Si5 0.618275 0.231457 0.614444
Si Si6 0.772922 0.386315 0.587222
Si Si7 0.103623 0.019976 0.337382
Si Si8 0.796058 0.707531 0.269293
O O1 0.869286 0.385731 0.354898
O O2 0.892915 0.224846 0.146610
O O3 0.843203 0.551577 0.238805
O O4 0.000000 0.500000 0.000000
O O5 0.570497 0.341625 0.385306
O O6 0.631272 0.580862 0.140907
O O7 0.719256 0.459392 0.135877
O O8 0.702699 0.277336 0.003980
O O9 0.382676 0.751433 0.503555
O O10 0.523235 0.847665 0.325722
O O11 0.353363 0.929884 0.719656
O O12 0.690898 0.106160 0.528721
O O13 0.721701 0.219287 0.644072
O O14 0.822049 0.984051 0.387927
O O15 0.778359 0.366139 0.693605
O O16 0.139796 0.875760 0.347785
O O17 0.000000 0.000000 0.500000
#
# Coordination Sequence:
#
# PCOD9231280 Si02
#       8
#     4   4   4   4   4   4   4   4
#     4  10  21  40  61  84 127 160 202 272 320 375
#     4  10  20  39  61  88 128 165 210 266 325 381
#     4  11  21  37  65  93 125 169 217 259 335 396
#     4  10  22  41  60  87 131 162 206 272 322 381
#     4  10  23  39  60  94 128 167 216 270 320 400
#     4   9  22  38  60  89 118 166 209 255 321 388
#     4  11  22  40  64  90 123 166 214 262 325 384
#     4  11  21  40  65  89 125 170 210 265 322 385
#
# _framework density 20.487144000000001
#
# number of rings (size 3 to 8) (size 9 to 14) (size 15 to 20)
#    0.000    1.750    2.500    2.250    1.750    0.500 
#    0.000    0.000    5.500    6.000    0.000    0.000 
#    0.000    0.000    0.000    0.000    0.000    0.000 
#
# Total GULP energy -178142.749758 kJ/mol
# GULP energy per Si atom -5566.960930 kJ/mol
# Density = 2.044051 g / cm^3
# Si number density = 20.487144 Si / 1000 Ang^3
#
#
#
# Elastic Constant Matrix: (Units=GPa)
#
#
# Indices 1 2 3 4 5 6 
#
# 1 78.9247 6.8317 48.0783 0.0000 18.0036 0.0000
# 2 6.8317 81.1585 34.8448 0.0000 0.0792 0.0000
# 3 48.0783 34.8448 91.9570 0.0000 -1.2135 0.0000
# 4 0.0000 0.0000 0.0000 36.1567 0.0000 -5.4687
# 5 18.0036 0.0792 -1.2135 0.0000 35.0263 0.0000
# 6 0.0000 0.0000 0.0000 -5.4687 0.0000 16.0838
#
#
#
# Elastic Compliance Matrix: (Units=1/GPa)
#
#
# Indices 1 2 3 4 5 6 
#
# 1 0.023889 0.004104 -0.014214 0.000000 -0.012781 0.000000
# 2 0.004104 0.015423 -0.008022 0.000000 -0.002422 0.000000
# 3 -0.014214 -0.008022 0.021452 0.000000 0.008067 0.000000
# 4 0.000000 0.000000 0.000000 0.029157 0.000000 0.009914
# 5 -0.012781 -0.002422 0.008067 0.000000 0.035404 0.000000
# 6 0.000000 0.000000 0.000000 0.009914 0.000000 0.065545
#
#
# Mechanical properties :
#
#
# Convention : Reuss Voigt Hill
#
# Bulk Modulus (GPa) = 40.81475 47.94999 44.38237
# Shear Modulus (GPa) = 21.24946 28.27239 24.76093
#
# Velocity S-wave (km/s) = 3.22407 3.71887 3.48028
# Velocity P-wave (km/s) = 5.81591 6.47269 6.15307
#
# Compressibility (1/GPa) = 0.02450095
#
# Stress axis : x y z
#
# Youngs Moduli (GPa) = 41.86012 64.84025 46.61511
#
# Poissons Ratio (x) = -0.26612 0.66258
# Poissons Ratio (y) = -0.17180 0.37393
# Poissons Ratio (z) = 0.59500 0.52013
#
# Static dielectric constant tensor:
#      x y z
#    x 2.000110 0.000000 -0.239210 
#    y 0.000000 1.850000 0.000000 
#    z -0.239210 0.000000 1.959880 
# 
# From -- ./inp_files/42761.got.cif
#   From: 2010.05.17/outbox.cif.g08.bks.cpg/sg13_22_cif.got.tgz:42761.got - 2010.06.03 16:44:36.
