data_PCOD9231003
_publ_section_title
;
Structure prediction by ZEFSAII (Michael W. Deem and Ramdas Pophale) SiO2 
 PCOD9231003
Probable space group: P 2/C
;
_chemical_formula_sum "Si O2"
_cell_formula_units_Z 26
_cell_length_a 24.462321
_cell_length_b 9.175664
_cell_length_c 8.667326
_cell_angle_alpha 90.000000
_cell_angle_beta 137.525128
_cell_angle_gamma 90.000000
_cell_volume 1313.698460
_symmetry_space_group_name_H-M "P 2/C"
_symmetry_group_IT_number 13
_symmetry_cell_setting 'monoclinic'
loop_
_space_group_symop_operation_xyz
x,y,z
-x,y,1/2-z
-x,-y,-z
x,-y,1/2+z
loop_
_atom_site_type_symbol
_atom_site_label
_atom_site_fract_x
_atom_site_fract_y
_atom_site_fract_z
Si Si1 0.198326 0.359280 0.567942
Si Si2 0.327055 0.605899 0.777784
Si Si3 0.058170 0.413562 0.736272
Si Si4 0.561282 0.450619 0.258924
Si Si5 0.809282 0.793521 0.117730
Si Si6 0.000000 0.994901 0.750000
Si Si7 0.880416 0.892678 0.756278
O O1 0.275602 0.455087 0.679335
O O2 0.126091 0.475046 0.441217
O O3 0.208168 0.264930 0.744749
O O4 0.170709 0.252254 0.373594
O O5 0.370546 0.624893 0.702790
O O6 0.260607 0.733493 0.641808
O O7 0.393529 0.579231 0.050206
O O8 0.106886 0.284192 0.756294
O O9 0.000000 0.364617 0.750000
O O10 0.000000 0.500000 0.500000
O O11 0.500000 0.370701 0.250000
O O12 0.500000 0.500000 0.000000
O O13 0.823301 0.965039 0.134569
O O14 0.934687 0.086694 0.519349
O O15 0.054220 0.899977 0.746605
#
# Coordination Sequence:
#
# PCOD9231003 Si02
#       7
#     4   4   4   4   4   2   4
#     4  11  23  40  55  81 116 154 195 249 299 339
#     4  10  20  38  62  89 124 148 179 241 285 349
#     4  11  24  36  56  76 108 148 197 252 311 346
#     4   9  18  34  62  99 123 143 179 219 283 353
#     4  11  23  39  55  82 115 152 200 245 297 346
#     4  10  24  36  52  74 104 148 208 274 284 330
#     4  11  24  39  57  76 109 159 210 249 308 336
#
# _framework density 19.791450999999999
#
# number of rings (size 3 to 8) (size 9 to 14) (size 15 to 20)
#    0.000    1.538    4.615    0.000    6.462    1.231 
#    0.000    0.000    0.000    0.000    0.000   21.538 
#    0.000    0.000    0.000    0.000    0.000    0.000 
#
# Total GULP energy -145126.811367 kJ/mol
# GULP energy per Si atom -5581.800437 kJ/mol
# Density = 1.974640 g / cm^3
# Si number density = 19.791451 Si / 1000 Ang^3
#
#
#
# Elastic Constant Matrix: (Units=GPa)
#
#
# Indices 1 2 3 4 5 6 
#
# 1 97.0794 8.4029 11.9290 0.0000 9.7046 0.0000
# 2 8.4029 77.2142 18.9478 0.0000 15.6261 0.0000
# 3 11.9290 18.9478 114.8585 0.0000 12.1203 0.0000
# 4 0.0000 0.0000 0.0000 21.3748 0.0000 -1.3689
# 5 9.7046 15.6261 12.1203 0.0000 27.6752 0.0000
# 6 0.0000 0.0000 0.0000 -1.3689 0.0000 4.5679
#
#
#
# Elastic Compliance Matrix: (Units=1/GPa)
#
#
# Indices 1 2 3 4 5 6 
#
# 1 0.010744 -0.000332 -0.000716 0.000000 -0.003266 0.000000
# 2 -0.000332 0.014924 -0.001626 0.000000 -0.007598 0.000000
# 3 -0.000716 -0.001626 0.009358 0.000000 -0.002929 0.000000
# 4 0.000000 0.000000 0.000000 0.047700 0.000000 0.014295
# 5 -0.003266 -0.007598 -0.002929 0.000000 0.042851 0.000000
# 6 0.000000 0.000000 0.000000 0.014295 0.000000 0.223205
#
#
# Mechanical properties :
#
#
# Convention : Reuss Voigt Hill
#
# Bulk Modulus (GPa) = 33.69622 40.85684 37.27653
# Shear Modulus (GPa) = 13.73540 27.38173 20.55856
#
# Velocity S-wave (km/s) = 2.63726 3.72360 3.22648
# Velocity P-wave (km/s) = 5.13187 6.25902 5.72326
#
# Compressibility (1/GPa) = 0.02967692
#
# Stress axis : x y z
#
# Youngs Moduli (GPa) = 93.07386 67.00771 106.85986
#
# Poissons Ratio (x) = 0.02228 0.07655
# Poissons Ratio (y) = 0.03094 0.17372
# Poissons Ratio (z) = 0.06668 0.10893
#
# Static dielectric constant tensor:
#      x y z
#    x 1.776180 0.000000 -0.015480 
#    y 0.000000 1.684980 0.000000 
#    z -0.015480 0.000000 1.715910 
# 
# From -- ./inp_files/24459.got.cif
#   From: 2010.05.17/outbox.cif.g08.bks.cpg/sg13_13_cif.got.tgz:24459.got - 2010.06.03 16:44:36.
