data_PCOD9231802
_publ_section_title
;
Structure prediction by ZEFSAII (Michael W. Deem and Ramdas Pophale) SiO2 
 PCOD9231802
Probable space group: P 2/C
;
_chemical_formula_sum "Si O2"
_cell_formula_units_Z 24
_cell_length_a 12.236136
_cell_length_b 6.924504
_cell_length_c 19.312420
_cell_angle_alpha 90.000000
_cell_angle_beta 138.868194
_cell_angle_gamma 90.000000
_cell_volume 1076.364130
_symmetry_space_group_name_H-M "P 2/C"
_symmetry_group_IT_number 13
_symmetry_cell_setting 'monoclinic'
loop_
_space_group_symop_operation_xyz
x,y,z
-x,y,1/2-z
-x,-y,-z
x,-y,1/2+z
loop_
_atom_site_type_symbol
_atom_site_label
_atom_site_fract_x
_atom_site_fract_y
_atom_site_fract_z
Si Si1 0.500000 0.575431 0.250000
Si Si2 0.660867 0.693476 0.929594
Si Si3 0.269721 0.798441 0.238462
Si Si4 0.999278 0.469144 0.103684
Si Si5 0.000000 0.545658 0.750000
Si Si6 0.642043 0.663861 0.072873
Si Si7 0.153000 0.873498 0.599040
O O1 0.479883 0.430862 0.175123
O O2 0.359286 0.714806 0.212765
O O3 0.718958 0.852708 0.902805
O O4 0.628011 0.767324 0.991279
O O5 0.811769 0.537130 0.003894
O O6 0.104356 0.665844 0.163752
O O7 0.366894 0.771796 0.357466
O O8 0.230554 0.018543 0.201683
O O9 0.010303 0.350909 0.181277
O O10 0.081851 0.335385 0.085789
O O11 0.828945 0.424500 0.662308
O O12 0.500000 0.500000 0.000000
O O13 0.000000 0.000000 0.500000
#
# Coordination Sequence:
#
# PCOD9231802 Si02
#       7
#     2   4   4   4   2   4   4
#     4  12  22  38  68  92 130 174 218 284 348 414
#     4  11  22  40  69  95 133 181 222 283 357 412
#     4  11  23  41  67  95 130 176 226 280 346 418
#     4  10  20  43  63  87 131 170 220 275 336 408
#     4   8  20  36  66  92 122 180 224 266 348 418
#     4  10  20  41  69  99 137 185 230 288 356 424
#     4  12  23  39  66  99 129 174 229 282 342 420
#
# _framework density 22.297288000000002
#
# number of rings (size 3 to 8) (size 9 to 14) (size 15 to 20)
#    0.000    1.333    5.000    1.500    0.000    0.667 
#    3.000    0.000    0.000    6.000    0.000    0.000 
#    0.000    0.000    0.000    0.000    0.000    0.000 
#
# Total GULP energy -133846.708615 kJ/mol
# GULP energy per Si atom -5576.946192 kJ/mol
# Density = 2.224654 g / cm^3
# Si number density = 22.297288 Si / 1000 Ang^3
#
#
#
# Elastic Constant Matrix: (Units=GPa)
#
#
# Indices 1 2 3 4 5 6 
#
# 1 71.5277 10.4721 11.4594 0.0000 -23.8272 0.0000
# 2 10.4721 66.5959 24.1159 0.0000 -11.2815 0.0000
# 3 11.4594 24.1159 82.4039 0.0000 -26.2588 0.0000
# 4 0.0000 0.0000 0.0000 31.3036 0.0000 -5.5718
# 5 -23.8272 -11.2815 -26.2588 0.0000 52.2411 0.0000
# 6 0.0000 0.0000 0.0000 -5.5718 0.0000 20.6640
#
#
#
# Elastic Compliance Matrix: (Units=1/GPa)
#
#
# Indices 1 2 3 4 5 6 
#
# 1 0.016624 -0.001533 0.000533 0.000000 0.007519 0.000000
# 2 -0.001533 0.017021 -0.004548 0.000000 0.000690 0.000000
# 3 0.000533 -0.004548 0.015666 0.000000 0.007135 0.000000
# 4 0.000000 0.000000 0.000000 0.033556 0.000000 0.009048
# 5 0.007519 0.000690 0.007135 0.000000 0.026307 0.000000
# 6 0.000000 0.000000 0.000000 0.009048 0.000000 0.050833
#
#
# Mechanical properties :
#
#
# Convention : Reuss Voigt Hill
#
# Bulk Modulus (GPa) = 26.16814 34.73582 30.45198
# Shear Modulus (GPa) = 27.19718 32.47373 29.83546
#
# Velocity S-wave (km/s) = 3.49628 3.82042 3.66194
# Velocity P-wave (km/s) = 5.29719 5.92226 5.61842
#
# Compressibility (1/GPa) = 0.03821441
#
# Stress axis : x y z
#
# Youngs Moduli (GPa) = 60.15222 58.75114 63.83255
#
# Poissons Ratio (x) = 0.09009 -0.03402
# Poissons Ratio (y) = 0.09224 0.29031
# Poissons Ratio (z) = -0.03206 0.26720
#
# Static dielectric constant tensor:
#      x y z
#    x 1.928050 0.000000 -0.029280 
#    y 0.000000 1.834160 0.000000 
#    z -0.029280 0.000000 1.821480 
# 
# From -- ./inp_files/79394.got.cif
#   From: 2010.05.17/outbox.cif.g08.bks.cpg/sg13_40_cif.got.tgz:79394.got - 2010.06.03 16:44:36.
