data_PCOD9231250
_publ_section_title
;
Structure prediction by ZEFSAII (Michael W. Deem and Ramdas Pophale) SiO2 
 PCOD9231250
Probable space group: P 2/C
;
_chemical_formula_sum "Si O2"
_cell_formula_units_Z 28
_cell_length_a 15.768891
_cell_length_b 6.205042
_cell_length_c 13.752850
_cell_angle_alpha 90.000000
_cell_angle_beta 116.963935
_cell_angle_gamma 90.000000
_cell_volume 1199.385092
_symmetry_space_group_name_H-M "P 2/C"
_symmetry_group_IT_number 13
_symmetry_cell_setting 'monoclinic'
loop_
_space_group_symop_operation_xyz
x,y,z
-x,y,1/2-z
-x,-y,-z
x,-y,1/2+z
loop_
_atom_site_type_symbol
_atom_site_label
_atom_site_fract_x
_atom_site_fract_y
_atom_site_fract_z
Si Si1 0.651874 0.077212 0.774577
Si Si2 0.849126 0.001346 0.358193
Si Si3 0.346417 0.337246 0.915208
Si Si4 0.000000 0.539961 0.250000
Si Si5 0.159456 0.123878 0.857349
Si Si6 0.951946 0.793879 0.558871
Si Si7 0.546609 0.707039 0.605651
Si Si8 0.500000 0.369681 0.750000
O O1 0.748167 0.962745 0.856925
O O2 0.679236 0.252348 0.705963
O O3 0.589018 0.212262 0.816326
O O4 0.587626 0.903004 0.687198
O O5 0.827559 0.021618 0.232242
O O6 0.887155 0.779613 0.428898
O O7 0.941320 0.148857 0.419764
O O8 0.258865 0.244920 0.932599
O O9 0.373194 0.590775 0.919854
O O10 0.448160 0.238969 0.000517
O O11 0.911030 0.694429 0.220353
O O12 0.967091 0.397939 0.141599
O O13 0.101422 0.984183 0.906391
O O14 0.518575 0.522002 0.668567
#
# Coordination Sequence:
#
# PCOD9231250 Si02
#       8
#     4   4   4   2   4   4   4   2
#     4  10  21  38  62  84 118 162 196 247 308 362
#     4  10  22  43  60  88 125 161 203 253 305 365
#     4   9  22  37  62  89 118 155 203 251 300 362
#     4  12  22  38  66  88 120 172 202 254 318 356
#     4  11  22  42  61  92 127 159 208 257 301 372
#     4  11  23  41  61  89 126 159 205 257 300 367
#     4  10  20  39  59  89 119 155 201 248 298 366
#     4  10  22  36  54  86 122 150 196 248 294 356
#
# _framework density 23.345293999999999
#
# number of rings (size 3 to 8) (size 9 to 14) (size 15 to 20)
#    0.000    1.714    2.857    0.857    2.000    4.000 
#    0.000    1.429    0.000    0.000    0.000    0.000 
#    0.000    0.000    0.000    0.000    0.000    0.000 
#
# Total GULP energy -156044.386688 kJ/mol
# GULP energy per Si atom -5573.013810 kJ/mol
# Density = 2.329216 g / cm^3
# Si number density = 23.345294 Si / 1000 Ang^3
#
#
#
# Elastic Constant Matrix: (Units=GPa)
#
#
# Indices 1 2 3 4 5 6 
#
# 1 118.8961 29.5570 24.2229 0.0000 14.6453 0.0000
# 2 29.5570 49.6409 8.5150 0.0000 -1.4643 0.0000
# 3 24.2229 8.5150 70.1343 0.0000 7.2627 0.0000
# 4 0.0000 0.0000 0.0000 21.6619 0.0000 -5.7648
# 5 14.6453 -1.4643 7.2627 0.0000 37.9356 0.0000
# 6 0.0000 0.0000 0.0000 -5.7648 0.0000 16.4156
#
#
#
# Elastic Compliance Matrix: (Units=1/GPa)
#
#
# Indices 1 2 3 4 5 6 
#
# 1 0.010977 -0.006203 -0.002627 0.000000 -0.003974 0.000000
# 2 -0.006203 0.024141 -0.001156 0.000000 0.003548 0.000000
# 3 -0.002627 -0.001156 0.015513 0.000000 -0.002001 0.000000
# 4 0.000000 0.000000 0.000000 0.050923 0.000000 0.017883
# 5 -0.003974 0.003548 -0.002001 0.000000 0.028415 0.000000
# 6 0.000000 0.000000 0.000000 0.017883 0.000000 0.067198
#
#
# Mechanical properties :
#
#
# Convention : Reuss Voigt Hill
#
# Bulk Modulus (GPa) = 32.61544 40.36234 36.48889
# Shear Modulus (GPa) = 21.99170 26.96105 24.47637
#
# Velocity S-wave (km/s) = 3.07256 3.40204 3.24149
# Velocity P-wave (km/s) = 5.15643 5.72352 5.44736
#
# Compressibility (1/GPa) = 0.03066033
#
# Stress axis : x y z
#
# Youngs Moduli (GPa) = 91.09633 41.42351 64.46172
#
# Poissons Ratio (x) = 0.25694 0.16932
# Poissons Ratio (y) = 0.56505 0.07452
# Poissons Ratio (z) = 0.23928 0.04789
#
# Static dielectric constant tensor:
#      x y z
#    x 1.990290 0.000000 -0.086150 
#    y 0.000000 1.907520 0.000000 
#    z -0.086150 0.000000 2.017980 
# 
# From -- ./inp_files/54547.got.cif
#   From: 2010.05.17/outbox.cif.g08.bks.cpg/sg13_28_cif.got.tgz:54547.got - 2010.06.03 16:44:36.
