data_PCOD9231597
_publ_section_title
;
Structure prediction by ZEFSAII (Michael W. Deem and Ramdas Pophale) SiO2 
 PCOD9231597
Probable space group: P 2/C
;
_chemical_formula_sum "Si O2"
_cell_formula_units_Z 28
_cell_length_a 12.315711
_cell_length_b 8.656015
_cell_length_c 13.627599
_cell_angle_alpha 90.000000
_cell_angle_beta 64.139300
_cell_angle_gamma 90.000000
_cell_volume 1307.285426
_symmetry_space_group_name_H-M "P 2/C"
_symmetry_group_IT_number 13
_symmetry_cell_setting 'monoclinic'
loop_
_space_group_symop_operation_xyz
x,y,z
-x,y,1/2-z
-x,-y,-z
x,-y,1/2+z
loop_
_atom_site_type_symbol
_atom_site_label
_atom_site_fract_x
_atom_site_fract_y
_atom_site_fract_z
Si Si1 0.403933 0.126566 0.574291
Si Si2 0.125882 0.467796 0.398791
Si Si3 0.272240 0.969352 0.798770
Si Si4 0.343069 0.295535 0.395862
Si Si5 0.777870 0.247637 0.553226
Si Si6 0.969710 0.810262 0.653783
Si Si7 0.552482 0.591061 0.072097
O O1 0.355948 0.207844 0.494150
O O2 0.464271 0.262364 0.617249
O O3 0.500000 0.000000 0.500000
O O4 0.309836 0.035869 0.679119
O O5 0.208254 0.362837 0.436724
O O6 0.193739 0.631038 0.369379
O O7 0.094426 0.360051 0.319116
O O8 0.000000 0.500000 0.500000
O O9 0.352610 0.823779 0.801849
O O10 0.132111 0.919421 0.851965
O O11 0.285129 0.099736 0.875994
O O12 0.425992 0.447861 0.363038
O O13 0.685750 0.331118 0.514712
O O14 0.905252 0.204097 0.454282
O O15 0.000000 0.863395 0.750000
O O16 0.500000 0.500000 0.000000
#
# Coordination Sequence:
#
# PCOD9231597 Si02
#       7
#     4   4   4   4   4   4   4
#     4  11  24  41  64  95 130 167 221 271 329 397
#     4   8  17  39  61  88 122 167 208 260 325 384
#     4  11  24  41  65  97 129 171 213 270 343 391
#     4   9  20  41  64  90 130 168 212 268 324 399
#     4  10  20  40  65  91 135 165 214 275 325 401
#     4  10  22  39  64  93 126 171 219 267 336 394
#     4   9  20  41  66  96 127 176 217 270 330 395
#
# _framework density 21.418430000000001
#
# number of rings (size 3 to 8) (size 9 to 14) (size 15 to 20)
#    0.000    2.286    0.000    1.286    4.000    2.286 
#   10.286   10.000    0.000    0.000    0.000    0.000 
#    0.000    0.000    0.000    0.000    0.000    0.000 
#
# Total GULP energy -156024.758165 kJ/mol
# GULP energy per Si atom -5572.312792 kJ/mol
# Density = 2.136968 g / cm^3
# Si number density = 21.418430 Si / 1000 Ang^3
#
#
#
# Elastic Constant Matrix: (Units=GPa)
#
#
# Indices 1 2 3 4 5 6 
#
# 1 109.5480 36.3799 29.5720 0.0000 -0.8839 0.0000
# 2 36.3799 112.3349 26.1248 0.0000 -2.7081 0.0000
# 3 29.5720 26.1248 68.5959 0.0000 -8.3803 0.0000
# 4 0.0000 0.0000 0.0000 13.8623 0.0000 -2.7706
# 5 -0.8839 -2.7081 -8.3803 0.0000 21.5300 0.0000
# 6 0.0000 0.0000 0.0000 -2.7706 0.0000 33.2667
#
#
#
# Elastic Compliance Matrix: (Units=1/GPa)
#
#
# Indices 1 2 3 4 5 6 
#
# 1 0.011074 -0.002710 -0.003914 0.000000 -0.001410 0.000000
# 2 -0.002710 0.010431 -0.002791 0.000000 0.000115 0.000000
# 3 -0.003914 -0.002791 0.018128 0.000000 0.006544 0.000000
# 4 0.000000 0.000000 0.000000 0.073359 0.000000 0.006110
# 5 -0.001410 0.000115 0.006544 0.000000 0.048951 0.000000
# 6 0.000000 0.000000 0.000000 0.006110 0.000000 0.030569
#
#
# Mechanical properties :
#
#
# Convention : Reuss Voigt Hill
#
# Bulk Modulus (GPa) = 48.06828 52.73693 50.40260
# Shear Modulus (GPa) = 22.90688 26.95860 24.93274
#
# Velocity S-wave (km/s) = 3.27386 3.55161 3.41556
# Velocity P-wave (km/s) = 6.06482 6.44161 6.25605
#
# Compressibility (1/GPa) = 0.02080374
#
# Stress axis : x y z
#
# Youngs Moduli (GPa) = 90.30521 95.86536 55.16399
#
# Poissons Ratio (x) = 0.25979 0.21591
# Poissons Ratio (y) = 0.24472 0.15394
# Poissons Ratio (z) = 0.35346 0.26751
#
# Static dielectric constant tensor:
#      x y z
#    x 1.792030 0.000000 -0.011720 
#    y 0.000000 1.834410 0.000000 
#    z -0.011720 0.000000 1.750280 
# 
# From -- ./inp_files/50222.got.cif
#   From: 2010.05.17/outbox.cif.g08.bks.cpg/sg13_26_cif.got.tgz:50222.got - 2010.06.03 16:44:36.
