data_PCOD9231288
_publ_section_title
;
Structure prediction by ZEFSAII (Michael W. Deem and Ramdas Pophale) SiO2 
 PCOD9231288
Probable space group: P 2/C
;
_chemical_formula_sum "Si O2"
_cell_formula_units_Z 18
_cell_length_a 8.942063
_cell_length_b 11.112570
_cell_length_c 9.757382
_cell_angle_alpha 90.000000
_cell_angle_beta 49.123293
_cell_angle_gamma 90.000000
_cell_volume 733.121625
_symmetry_space_group_name_H-M "P 2/C"
_symmetry_group_IT_number 13
_symmetry_cell_setting 'monoclinic'
loop_
_space_group_symop_operation_xyz
x,y,z
-x,y,1/2-z
-x,-y,-z
x,-y,1/2+z
loop_
_atom_site_type_symbol
_atom_site_label
_atom_site_fract_x
_atom_site_fract_y
_atom_site_fract_z
Si Si1 0.500000 0.481367 0.250000
Si Si2 0.142252 0.613724 0.437049
Si Si3 0.150852 0.974209 0.783272
Si Si4 0.766776 0.222931 0.860625
Si Si5 0.737638 0.269416 0.193551
O O1 0.324484 0.564240 0.416361
O O2 0.618208 0.393740 0.284887
O O3 0.248521 0.669788 0.239328
O O4 0.000000 0.500000 0.500000
O O5 0.973371 0.708509 0.580601
O O6 0.290280 0.858176 0.717861
O O7 0.000000 0.953618 0.750000
O O8 0.277994 0.094464 0.679189
O O9 0.000000 0.000000 0.000000
O O10 0.000000 0.216517 0.750000
O O11 0.695338 0.245822 0.057074
#
# Coordination Sequence:
#
# PCOD9231288 Si02
#       5
#     2   4   4   4   4
#     4  10  22  38  58  84 130 162 214 250 312 362
#     4   9  18  35  58  84 118 163 207 251 303 363
#     4  11  18  35  66  96 119 159 207 250 312 378
#     4   9  17  33  62  87 118 157 201 253 310 359
#     4  10  20  39  61  91 123 162 202 260 308 365
#
# _framework density 24.552541000000002
#
# number of rings (size 3 to 8) (size 9 to 14) (size 15 to 20)
#    0.000    2.222    6.667    0.000    0.000    0.889 
#    0.000   22.222    0.000    0.000    0.000    0.000 
#    0.000    0.000    0.000    0.000    0.000    0.000 
#
# Total GULP energy -100257.256403 kJ/mol
# GULP energy per Si atom -5569.847578 kJ/mol
# Density = 2.449666 g / cm^3
# Si number density = 24.552541 Si / 1000 Ang^3
#
#
#
# Elastic Constant Matrix: (Units=GPa)
#
#
# Indices 1 2 3 4 5 6 
#
# 1 108.8090 52.5643 44.8893 0.0000 -16.2570 0.0000
# 2 52.5643 165.1285 40.2382 0.0000 9.3837 0.0000
# 3 44.8893 40.2382 79.1465 0.0000 7.1359 0.0000
# 4 0.0000 0.0000 0.0000 -11.5553 0.0000 2.5993
# 5 -16.2570 9.3837 7.1359 0.0000 41.7792 0.0000
# 6 0.0000 0.0000 0.0000 2.5993 0.0000 54.7720
#
#
#
# Elastic Compliance Matrix: (Units=1/GPa)
#
#
# Indices 1 2 3 4 5 6 
#
# 1 0.015164 -0.003434 -0.007572 0.000000 0.007965 0.000000
# 2 -0.003434 0.007729 -0.001731 0.000000 -0.002777 0.000000
# 3 -0.007572 -0.001731 0.018323 0.000000 -0.005687 0.000000
# 4 0.000000 0.000000 0.000000 -0.085627 0.000000 0.004063
# 5 0.007965 -0.002777 -0.005687 0.000000 0.028630 0.000000
# 6 0.000000 0.000000 0.000000 0.004063 0.000000 0.018065
#
#
# Mechanical properties :
#
#
# Convention : Reuss Voigt Hill
#
# Bulk Modulus (GPa) = 63.53612 69.82975 66.68294
# Shear Modulus (GPa) = 151.49340 31.35866 91.42603
#
# Velocity S-wave (km/s) = 7.86357 3.57768 6.10882
# Velocity P-wave (km/s) = 10.41064 6.75049 8.77355
#
# Compressibility (1/GPa) = 0.01573908
#
# Stress axis : x y z
#
# Youngs Moduli (GPa) = 65.94751 129.38716 54.57767
#
# Poissons Ratio (x) = 0.44436 0.41328
# Poissons Ratio (y) = 0.22649 0.09448
# Poissons Ratio (z) = 0.49938 0.22399
#
# Static dielectric constant tensor:
#      x y z
#    x 1.987080 0.000000 -0.077930 
#    y 0.000000 2.115740 0.000000 
#    z -0.077930 0.000000 2.122940 
# 
# From -- ./inp_files/11605.got.cif
#   From: 2010.05.17/outbox.cif.g08.bks.cpg/sg13_6_cif.got.tgz:11605.got - 2010.06.03 16:44:36.
