data_PCOD9231556
_publ_section_title
;
Structure prediction by ZEFSAII (Michael W. Deem and Ramdas Pophale) SiO2 
 PCOD9231556
Probable space group: P 2/C
;
_chemical_formula_sum "Si O2"
_cell_formula_units_Z 16
_cell_length_a 14.349158
_cell_length_b 11.017129
_cell_length_c 9.186273
_cell_angle_alpha 90.000000
_cell_angle_beta 26.433989
_cell_angle_gamma 90.000000
_cell_volume 646.482289
_symmetry_space_group_name_H-M "P 2/C"
_symmetry_group_IT_number 13
_symmetry_cell_setting 'monoclinic'
loop_
_space_group_symop_operation_xyz
x,y,z
-x,y,1/2-z
-x,-y,-z
x,-y,1/2+z
loop_
_atom_site_type_symbol
_atom_site_label
_atom_site_fract_x
_atom_site_fract_y
_atom_site_fract_z
Si Si1 0.698464 0.682760 0.680770
Si Si2 0.000000 0.463382 0.250000
Si Si3 0.683200 0.151751 0.768990
Si Si4 0.500000 0.042754 0.750000
Si Si5 0.011565 0.734321 0.979640
O O1 0.459539 0.725843 0.007790
O O2 0.822627 0.718577 0.361384
O O3 0.794198 0.547322 0.568058
O O4 0.794091 0.754784 0.685460
O O5 0.044770 0.382299 0.329338
O O6 0.601708 0.046559 0.989069
O O7 0.650473 0.119074 0.646122
O O8 0.913627 0.170975 0.506903
#
# Coordination Sequence:
#
# PCOD9231556 Si02
#       5
#     4   2   4   2   4
#     4  10  20  40  63  91 125 164 194 255 298 376
#     4  10  22  38  64  94 132 150 210 240 304 372
#     4  11  22  44  65  87 126 158 207 255 311 342
#     4  10  24  42  64  92 116 162 212 262 290 368
#     4  10  21  39  62  94 125 161 198 253 295 380
#
# _framework density 24.749324000000001
#
# number of rings (size 3 to 8) (size 9 to 14) (size 15 to 20)
#    0.000    2.000    2.500    3.000    3.500    1.000 
#    0.000   12.500    0.000    1.500    0.000    0.000 
#    0.000    0.000    0.000    0.000    0.000    0.000 
#
# Total GULP energy -89286.776518 kJ/mol
# GULP energy per Si atom -5580.423532 kJ/mol
# Density = 2.469299 g / cm^3
# Si number density = 24.749324 Si / 1000 Ang^3
#
#
#
# Elastic Constant Matrix: (Units=GPa)
#
#
# Indices 1 2 3 4 5 6 
#
# 1 241.1597 29.6818 58.2901 0.0000 15.1358 0.0000
# 2 29.6818 43.9678 30.5394 0.0000 -2.3282 0.0000
# 3 58.2901 30.5394 80.2723 0.0000 3.0329 0.0000
# 4 0.0000 0.0000 0.0000 -41.4746 0.0000 47.9671
# 5 15.1358 -2.3282 3.0329 0.0000 63.4481 0.0000
# 6 0.0000 0.0000 0.0000 47.9671 0.0000 48.9549
#
#
#
# Elastic Compliance Matrix: (Units=1/GPa)
#
#
# Indices 1 2 3 4 5 6 
#
# 1 0.005152 -0.001316 -0.003198 0.000000 -0.001125 0.000000
# 2 -0.001316 0.031433 -0.011078 0.000000 0.001997 0.000000
# 3 -0.003198 -0.011078 0.019015 0.000000 -0.000553 0.000000
# 4 0.000000 0.000000 0.000000 -0.011303 0.000000 0.011075
# 5 -0.001125 0.001997 -0.000553 0.000000 0.016129 0.000000
# 6 0.000000 0.000000 0.000000 0.011075 0.000000 0.009576
#
#
# Mechanical properties :
#
#
# Convention : Reuss Voigt Hill
#
# Bulk Modulus (GPa) = 40.95756 66.93581 53.94668
# Shear Modulus (GPa) = 45.73477 30.64490 38.18983
#
# Velocity S-wave (km/s) = 4.30341 3.52264 3.93245
# Velocity P-wave (km/s) = 6.42474 6.60678 6.51640
#
# Compressibility (1/GPa) = 0.02441552
#
# Stress axis : x y z
#
# Youngs Moduli (GPa) = 194.09148 31.81365 52.58909
#
# Poissons Ratio (x) = 0.04188 0.16818
# Poissons Ratio (y) = 0.25551 0.58259
# Poissons Ratio (z) = 0.62070 0.35244
#
# Static dielectric constant tensor:
#      x y z
#    x 1.922660 0.000000 0.037690 
#    y 0.000000 2.041360 0.000000 
#    z 0.037690 0.000000 2.214450 
# 
# From -- ./inp_files/15455.got.cif
#   From: 2010.05.17/outbox.cif.g08.bks.cpg/sg13_8_cif.got.tgz:15455.got - 2010.06.03 16:44:36.
