data_PCOD9231185
_publ_section_title
;
Structure prediction by ZEFSAII (Michael W. Deem and Ramdas Pophale) SiO2 
 PCOD9231185
Probable space group: P 2/C
;
_chemical_formula_sum "Si O2"
_cell_formula_units_Z 20
_cell_length_a 8.439855
_cell_length_b 8.559564
_cell_length_c 13.780645
_cell_angle_alpha 90.000000
_cell_angle_beta 80.073676
_cell_angle_gamma 90.000000
_cell_volume 980.631260
_symmetry_space_group_name_H-M "P 2/C"
_symmetry_group_IT_number 13
_symmetry_cell_setting 'monoclinic'
loop_
_space_group_symop_operation_xyz
x,y,z
-x,y,1/2-z
-x,-y,-z
x,-y,1/2+z
loop_
_atom_site_type_symbol
_atom_site_label
_atom_site_fract_x
_atom_site_fract_y
_atom_site_fract_z
Si Si1 0.265161 0.901855 0.122695
Si Si2 0.000000 0.315846 0.750000
Si Si3 0.847130 0.562597 0.077371
Si Si4 0.500000 0.034845 0.250000
Si Si5 0.072979 0.149256 0.048795
Si Si6 0.280501 0.753690 0.909637
O O1 0.125363 0.792290 0.179479
O O2 0.405925 0.925031 0.184341
O O3 0.190087 0.074144 0.114433
O O4 0.308574 0.829482 0.013148
O O5 0.097797 0.414492 0.818222
O O6 0.706357 0.434594 0.084786
O O7 0.828285 0.734279 0.031549
O O8 0.000000 0.500000 0.000000
O O9 0.614962 0.149261 0.176489
O O10 0.907375 0.226039 0.101760
O O11 0.000000 0.000000 0.000000
#
# Coordination Sequence:
#
# PCOD9231185 Si02
#       6
#     4   2   4   2   4   4
#     4  11  23  40  66  96 126 173 228 272 318 396
#     4  12  20  38  76  98 122 166 226 276 338 370
#     4  10  20  38  67  99 129 158 212 286 329 377
#     4  12  26  40  64  92 142 186 216 252 334 416
#     4   9  17  38  68  92 120 158 220 284 313 360
#     4  10  22  43  62  96 134 169 219 273 330 388
#
# _framework density 20.395026000000001
#
# number of rings (size 3 to 8) (size 9 to 14) (size 15 to 20)
#    0.000    1.600    6.000    1.800    2.800    3.200 
#    0.000    2.000    0.000    0.000    0.000    0.000 
#    0.000    0.000    0.000    0.000    0.000    0.000 
#
# Total GULP energy -111540.244570 kJ/mol
# GULP energy per Si atom -5577.012228 kJ/mol
# Density = 2.034861 g / cm^3
# Si number density = 20.395026 Si / 1000 Ang^3
#
#
#
# Elastic Constant Matrix: (Units=GPa)
#
#
# Indices 1 2 3 4 5 6 
#
# 1 62.0049 26.6911 40.8814 0.0000 22.8904 0.0000
# 2 26.6911 105.6643 43.9952 0.0000 3.8957 0.0000
# 3 40.8814 43.9952 136.0870 0.0000 6.4845 0.0000
# 4 0.0000 0.0000 0.0000 22.3167 0.0000 13.2542
# 5 22.8904 3.8957 6.4845 0.0000 36.5535 0.0000
# 6 0.0000 0.0000 0.0000 13.2542 0.0000 13.4613
#
#
#
# Elastic Compliance Matrix: (Units=1/GPa)
#
#
# Indices 1 2 3 4 5 6 
#
# 1 0.027832 -0.003788 -0.006379 0.000000 -0.015893 0.000000
# 2 -0.003788 0.011462 -0.002645 0.000000 0.001620 0.000000
# 3 -0.006379 -0.002645 0.010000 0.000000 0.002502 0.000000
# 4 0.000000 0.000000 0.000000 0.107915 0.000000 -0.106255
# 5 -0.015893 0.001620 0.002502 0.000000 0.036693 0.000000
# 6 0.000000 0.000000 0.000000 -0.106255 0.000000 0.178907
#
#
# Mechanical properties :
#
#
# Convention : Reuss Voigt Hill
#
# Bulk Modulus (GPa) = 42.24702 58.54348 50.39525
# Shear Modulus (GPa) = 12.30547 27.27887 19.79217
#
# Velocity S-wave (km/s) = 2.45900 3.66119 3.11857
# Velocity P-wave (km/s) = 5.36857 6.82931 6.14252
#
# Compressibility (1/GPa) = 0.02367031
#
# Stress axis : x y z
#
# Youngs Moduli (GPa) = 35.93047 87.24195 99.99783
#
# Poissons Ratio (x) = 0.33051 0.63786
# Poissons Ratio (y) = 0.13612 0.26447
# Poissons Ratio (z) = 0.22919 0.23073
#
# Static dielectric constant tensor:
#      x y z
#    x 1.708630 0.000000 0.054870 
#    y 0.000000 1.848010 0.000000 
#    z 0.054870 0.000000 1.674020 
# 
# From -- ./inp_files/28151.got.cif
#   From: 2010.05.17/outbox.cif.g08.bks.cpg/sg13_15_cif.got.tgz:28151.got - 2010.06.03 16:44:36.
