data_PCOD9231656
_publ_section_title
;
Structure prediction by ZEFSAII (Michael W. Deem and Ramdas Pophale) SiO2 
 PCOD9231656
Probable space group: P 2/C
;
_chemical_formula_sum "Si O2"
_cell_formula_units_Z 26
_cell_length_a 14.322553
_cell_length_b 11.553942
_cell_length_c 8.129212
_cell_angle_alpha 90.000000
_cell_angle_beta 108.163831
_cell_angle_gamma 90.000000
_cell_volume 1278.203320
_symmetry_space_group_name_H-M "P 2/C"
_symmetry_group_IT_number 13
_symmetry_cell_setting 'monoclinic'
loop_
_space_group_symop_operation_xyz
x,y,z
-x,y,1/2-z
-x,-y,-z
x,-y,1/2+z
loop_
_atom_site_type_symbol
_atom_site_label
_atom_site_fract_x
_atom_site_fract_y
_atom_site_fract_z
Si Si1 0.888501 0.327916 0.175892
Si Si2 0.389141 0.375380 0.719914
Si Si3 0.805276 0.478241 0.424934
Si Si4 0.500000 0.003813 0.750000
Si Si5 0.300512 0.719268 0.497635
Si Si6 0.690927 0.213083 0.118247
Si Si7 0.643952 0.941196 0.088633
O O1 0.858075 0.413625 0.306678
O O2 0.806330 0.229558 0.141252
O O3 0.000000 0.289386 0.250000
O O4 0.867925 0.410759 0.010200
O O5 0.500000 0.416168 0.750000
O O6 0.305303 0.474221 0.666544
O O7 0.376611 0.322163 0.897608
O O8 0.362798 0.288932 0.552330
O O9 0.785527 0.376104 0.547231
O O10 0.411460 0.079145 0.771297
O O11 0.447132 0.925927 0.586802
O O12 0.328338 0.737569 0.706465
O O13 0.275639 0.848807 0.418708
O O14 0.670203 0.076165 0.107404
#
# Coordination Sequence:
#
# PCOD9231656 Si02
#       7
#     4   4   4   2   4   4   4
#     4  10  20  40  68  89 115 152 203 265 315 365
#     4  11  25  39  60  87 129 171 203 250 300 363
#     4  10  21  43  59  94 119 158 207 249 316 367
#     4  10  22  32  56  82 118 164 214 244 280 348
#     4  11  23  40  60  83 131 165 202 257 294 354
#     4  10  24  40  60  91 121 162 211 250 315 362
#     4  11  21  37  53  87 120 164 210 247 291 358
#
# _framework density 20.341051
#
# number of rings (size 3 to 8) (size 9 to 14) (size 15 to 20)
#    0.000    1.538    3.077    1.385    6.462    1.231 
#    1.385    0.000    0.000    4.615    0.000    0.000 
#    0.000    0.000    0.000    0.000    0.000    0.000 
#
# Total GULP energy -144810.400924 kJ/mol
# GULP energy per Si atom -5569.630805 kJ/mol
# Density = 2.029475 g / cm^3
# Si number density = 20.341051 Si / 1000 Ang^3
#
#
#
# Elastic Constant Matrix: (Units=GPa)
#
#
# Indices 1 2 3 4 5 6 
#
# 1 84.8391 20.6311 22.6310 0.0000 16.3459 0.0000
# 2 20.6311 87.1862 10.8983 0.0000 -0.1444 0.0000
# 3 22.6310 10.8983 62.7340 0.0000 -14.2209 0.0000
# 4 0.0000 0.0000 0.0000 23.4380 0.0000 -12.0049
# 5 16.3459 -0.1444 -14.2209 0.0000 32.6238 0.0000
# 6 0.0000 0.0000 0.0000 -12.0049 0.0000 11.6565
#
#
#
# Elastic Compliance Matrix: (Units=1/GPa)
#
#
# Indices 1 2 3 4 5 6 
#
# 1 0.017140 -0.003021 -0.008442 0.000000 -0.012281 0.000000
# 2 -0.003021 0.012282 -0.000764 0.000000 0.001235 0.000000
# 3 -0.008442 -0.000764 0.022278 0.000000 0.013938 0.000000
# 4 0.000000 0.000000 0.000000 0.090299 0.000000 0.092998
# 5 -0.012281 0.001235 0.013938 0.000000 0.042887 0.000000
# 6 0.000000 0.000000 0.000000 0.092998 0.000000 0.181567
#
#
# Mechanical properties :
#
#
# Convention : Reuss Voigt Hill
#
# Bulk Modulus (GPa) = 36.70307 38.12001 37.41154
# Shear Modulus (GPa) = 12.50032 25.58358 19.04195
#
# Velocity S-wave (km/s) = 2.48167 3.55030 3.06295
# Velocity P-wave (km/s) = 5.12783 5.96551 5.56246
#
# Compressibility (1/GPa) = 0.02724567
#
# Stress axis : x y z
#
# Youngs Moduli (GPa) = 58.34352 81.41937 44.88722
#
# Poissons Ratio (x) = 0.24596 0.37895
# Poissons Ratio (y) = 0.17625 0.03429
# Poissons Ratio (z) = 0.49255 0.06220
#
# Static dielectric constant tensor:
#      x y z
#    x 1.714720 0.000000 -0.054680 
#    y 0.000000 1.777220 0.000000 
#    z -0.054680 0.000000 1.840250 
# 
# From -- ./inp_files/18631.got.cif
#   From: 2010.05.17/outbox.cif.g08.bks.cpg/sg13_10_cif.got.tgz:18631.got - 2010.06.03 16:44:36.
