data_PCOD9231082
_publ_section_title
;
Structure prediction by ZEFSAII (Michael W. Deem and Ramdas Pophale) SiO2 
 PCOD9231082
Probable space group: P 2/C
;
_chemical_formula_sum "Si O2"
_cell_formula_units_Z 20
_cell_length_a 12.557095
_cell_length_b 10.549674
_cell_length_c 15.869717
_cell_angle_alpha 90.000000
_cell_angle_beta 27.503813
_cell_angle_gamma 90.000000
_cell_volume 970.864267
_symmetry_space_group_name_H-M "P 2/C"
_symmetry_group_IT_number 13
_symmetry_cell_setting 'monoclinic'
loop_
_space_group_symop_operation_xyz
x,y,z
-x,y,1/2-z
-x,-y,-z
x,-y,1/2+z
loop_
_atom_site_type_symbol
_atom_site_label
_atom_site_fract_x
_atom_site_fract_y
_atom_site_fract_z
Si Si1 0.990810 0.840501 0.116432
Si Si2 0.668802 0.944354 0.812110
Si Si3 0.109056 0.310134 0.384622
Si Si4 0.000000 0.341085 0.750000
Si Si5 0.240604 0.497549 0.941054
Si Si6 0.500000 0.917973 0.750000
O O1 0.883537 0.754873 0.264734
O O2 0.904591 0.982897 0.169442
O O3 0.945131 0.774234 0.059670
O O4 0.267524 0.840667 0.934924
O O5 0.715735 0.793404 0.776426
O O6 0.574030 0.982073 0.785870
O O7 0.500000 0.000000 0.000000
O O8 0.215602 0.409070 0.377209
O O9 0.954236 0.390042 0.430172
O O10 0.175021 0.425346 0.571778
O O11 0.500000 0.448261 0.750000
#
# Coordination Sequence:
#
# PCOD9231082 Si02
#       6
#     4   4   4   2   4   2
#     4  10  21  39  64  94 126 167 215 273 338 407
#     4  11  23  39  65 100 131 171 219 279 340 411
#     4   9  21  41  60  93 127 162 225 273 319 402
#     4  10  22  38  68  94 122 172 228 260 330 416
#     4  10  22  42  66  88 129 179 218 276 329 387
#     4  10  20  38  64  86 134 174 202 264 340 400
#
# _framework density 20.600200999999998
#
# number of rings (size 3 to 8) (size 9 to 14) (size 15 to 20)
#    0.000    2.000    0.000    3.600   15.400    0.000 
#   10.800    4.000    0.000    0.000    0.000    0.000 
#    0.000    0.000    0.000    0.000    0.000    0.000 
#
# Total GULP energy -111388.230284 kJ/mol
# GULP energy per Si atom -5569.411514 kJ/mol
# Density = 2.055331 g / cm^3
# Si number density = 20.600201 Si / 1000 Ang^3
#
#
#
# Elastic Constant Matrix: (Units=GPa)
#
#
# Indices 1 2 3 4 5 6 
#
# 1 80.5323 38.4769 63.6667 0.0000 9.3159 0.0000
# 2 38.4769 84.5317 42.5962 0.0000 2.5188 0.0000
# 3 63.6667 42.5962 96.1069 0.0000 12.9957 0.0000
# 4 0.0000 0.0000 0.0000 16.6447 0.0000 9.2055
# 5 9.3159 2.5188 12.9957 0.0000 35.8233 0.0000
# 6 0.0000 0.0000 0.0000 9.2055 0.0000 27.9407
#
#
#
# Elastic Compliance Matrix: (Units=1/GPa)
#
#
# Indices 1 2 3 4 5 6 
#
# 1 0.027241 -0.004305 -0.016006 0.000000 -0.000975 0.000000
# 2 -0.004305 0.015984 -0.004450 0.000000 0.001610 0.000000
# 3 -0.016006 -0.004450 0.023530 0.000000 -0.004061 0.000000
# 4 0.000000 0.000000 0.000000 0.073466 0.000000 -0.024205
# 5 -0.000975 0.001610 -0.004061 0.000000 0.029528 0.000000
# 6 0.000000 0.000000 0.000000 -0.024205 0.000000 0.043765
#
#
# Mechanical properties :
#
#
# Convention : Reuss Voigt Hill
#
# Bulk Modulus (GPa) = 58.03054 61.18342 59.60698
# Shear Modulus (GPa) = 18.60256 23.84382 21.22319
#
# Velocity S-wave (km/s) = 3.00830 3.40583 3.21322
# Velocity P-wave (km/s) = 6.34804 6.72541 6.53945
#
# Compressibility (1/GPa) = 0.01723231
#
# Stress axis : x y z
#
# Youngs Moduli (GPa) = 36.70941 62.56298 42.49879
#
# Poissons Ratio (x) = 0.26932 0.68025
# Poissons Ratio (y) = 0.15803 0.18913
# Poissons Ratio (z) = 0.58758 0.27843
#
# Static dielectric constant tensor:
#      x y z
#    x 1.768350 0.000000 -0.000580 
#    y 0.000000 1.757410 0.000000 
#    z -0.000580 0.000000 1.786820 
# 
# From -- ./inp_files/50763.got.cif
#   From: 2010.05.17/outbox.cif.g08.bks.cpg/sg13_26_cif.got.tgz:50763.got - 2010.06.03 16:44:36.
