data_PCOD9231056
_publ_section_title
;
Structure prediction by ZEFSAII (Michael W. Deem and Ramdas Pophale) SiO2 
 PCOD9231056
Probable space group: P 2/C
;
_chemical_formula_sum "Si O2"
_cell_formula_units_Z 20
_cell_length_a 8.308135
_cell_length_b 23.796342
_cell_length_c 9.241282
_cell_angle_alpha 90.000000
_cell_angle_beta 32.700842
_cell_angle_gamma 90.000000
_cell_volume 987.058529
_symmetry_space_group_name_H-M "P 2/C"
_symmetry_group_IT_number 13
_symmetry_cell_setting 'monoclinic'
loop_
_space_group_symop_operation_xyz
x,y,z
-x,y,1/2-z
-x,-y,-z
x,-y,1/2+z
loop_
_atom_site_type_symbol
_atom_site_label
_atom_site_fract_x
_atom_site_fract_y
_atom_site_fract_z
Si Si1 0.706195 0.777081 0.870202
Si Si2 0.657854 0.652655 0.970886
Si Si3 0.096995 0.837640 0.341274
Si Si4 0.703561 0.036396 0.738623
Si Si5 0.794315 0.464234 0.264663
O O1 0.000000 0.778414 0.750000
O O2 0.832260 0.810592 0.636514
O O3 0.590911 0.712384 0.947170
O O4 0.409021 0.808182 0.146176
O O5 0.500000 0.644109 0.250000
O O6 0.660677 0.599537 0.859182
O O7 0.000000 0.658662 0.750000
O O8 0.173091 0.903129 0.305155
O O9 0.000000 0.827969 0.250000
O O10 0.500000 0.044078 0.750000
O O11 0.000000 0.000000 0.500000
O O12 0.500000 0.000000 0.000000
O O13 0.500000 0.500000 0.500000
O O14 0.000000 0.462049 0.250000
O O15 0.000000 0.500000 0.000000
#
# Coordination Sequence:
#
# PCOD9231056 Si02
#       5
#     4   4   4   4   4
#     4  11  22  41  66  91 117 162 215 258 303 370
#     4  10  20  38  63  90 121 163 211 258 308 374
#     4  12  25  42  62  93 131 164 199 256 320 374
#     4  12  25  44  67  94 126 167 212 258 308 370
#     4  11  22  39  61  90 124 164 208 258 313 374
#
# _framework density 20.262224
#
# number of rings (size 3 to 8) (size 9 to 14) (size 15 to 20)
#    0.000    0.800    0.000   10.800    0.000    0.000 
#    0.000    6.000    0.000    0.000    0.000    0.000 
#    0.000    0.000    0.000    0.000    0.000    0.000 
#
# Total GULP energy -111357.766102 kJ/mol
# GULP energy per Si atom -5567.888305 kJ/mol
# Density = 2.021611 g / cm^3
# Si number density = 20.262224 Si / 1000 Ang^3
#
#
#
# Elastic Constant Matrix: (Units=GPa)
#
#
# Indices 1 2 3 4 5 6 
#
# 1 49.0518 -7.2927 -9.2756 0.0000 0.0581 0.0000
# 2 -7.2927 190.8010 48.9826 0.0000 1.9210 0.0000
# 3 -9.2756 48.9826 156.2789 0.0000 -8.7735 0.0000
# 4 0.0000 0.0000 0.0000 36.4385 0.0000 5.8659
# 5 0.0581 1.9210 -8.7735 0.0000 44.0143 0.0000
# 6 0.0000 0.0000 0.0000 5.8659 0.0000 -13.7870
#
#
#
# Elastic Compliance Matrix: (Units=1/GPa)
#
#
# Indices 1 2 3 4 5 6 
#
# 1 0.020666 0.000512 0.001075 0.000000 0.000165 0.000000
# 2 0.000512 0.005729 -0.001799 0.000000 -0.000609 0.000000
# 3 0.001075 -0.001799 0.007111 0.000000 0.001494 0.000000
# 4 0.000000 0.000000 0.000000 0.025684 0.000000 0.010928
# 5 0.000165 -0.000609 0.001494 0.000000 0.023044 0.000000
# 6 0.000000 0.000000 0.000000 0.010928 0.000000 -0.067883
#
#
# Mechanical properties :
#
#
# Convention : Reuss Voigt Hill
#
# Bulk Modulus (GPa) = 30.22854 51.21783 40.72318
# Shear Modulus (GPa) = 193.78581 37.58099 115.68340
#
# Velocity S-wave (km/s) = 9.79013 4.31133 7.56420
# Velocity P-wave (km/s) = 11.94766 7.07925 9.81994
#
# Compressibility (1/GPa) = 0.03308132
#
# Stress axis : x y z
#
# Youngs Moduli (GPa) = 48.38890 174.55937 140.63679
#
# Poissons Ratio (x) = -0.08940 -0.15123
# Poissons Ratio (y) = -0.02478 0.25306
# Poissons Ratio (z) = -0.05203 0.31410
#
# Static dielectric constant tensor:
#      x y z
#    x 1.694730 0.000000 0.081670 
#    y 0.000000 1.975330 0.000000 
#    z 0.081670 0.000000 1.711480 
# 
# From -- ./inp_files/13778.got.cif
#   From: 2010.05.17/outbox.cif.g08.bks.cpg/sg13_7_cif.got.tgz:13778.got - 2010.06.03 16:44:36.
