data_PCOD9231167
_publ_section_title
;
Structure prediction by ZEFSAII (Michael W. Deem and Ramdas Pophale) SiO2 
 PCOD9231167
Probable space group: P 2/C
;
_chemical_formula_sum "Si O2"
_cell_formula_units_Z 20
_cell_length_a 11.918783
_cell_length_b 11.989450
_cell_length_c 8.334517
_cell_angle_alpha 90.000000
_cell_angle_beta 141.987965
_cell_angle_gamma 90.000000
_cell_volume 733.449683
_symmetry_space_group_name_H-M "P 2/C"
_symmetry_group_IT_number 13
_symmetry_cell_setting 'monoclinic'
loop_
_space_group_symop_operation_xyz
x,y,z
-x,y,1/2-z
-x,-y,-z
x,-y,1/2+z
loop_
_atom_site_type_symbol
_atom_site_label
_atom_site_fract_x
_atom_site_fract_y
_atom_site_fract_z
Si Si1 0.788635 0.893115 0.033526
Si Si2 0.748772 0.579914 0.292225
Si Si3 0.000000 0.729859 0.750000
Si Si4 0.500000 0.288516 0.750000
Si Si5 0.214273 0.641324 0.515250
Si Si6 0.677520 0.118127 0.778195
O O1 0.769706 0.771477 0.935385
O O2 0.744722 0.879372 0.171802
O O3 0.000000 0.926605 0.250000
O O4 0.669092 0.991357 0.824515
O O5 0.639170 0.627842 0.320271
O O6 0.693452 0.616865 0.053123
O O7 0.729546 0.447703 0.288800
O O8 0.944041 0.643082 0.545136
O O9 0.830264 0.816044 0.558355
O O10 0.501045 0.193822 0.609466
O O11 0.000000 0.616251 0.250000
#
# Coordination Sequence:
#
# PCOD9231167 Si02
#       6
#     4   4   2   2   4   4
#     4  11  23  40  67 101 127 161 218 271 314 379
#     4  11  23  42  66  95 132 170 212 263 322 376
#     4  10  20  38  66  92 128 172 202 264 322 358
#     4  10  24  46  62  90 138 176 206 258 326 388
#     4  11  23  40  67 101 127 161 218 271 314 379
#     4  11  23  42  66  95 132 170 212 263 322 376
#
# _framework density 27.268398999999999
#
# number of rings (size 3 to 8) (size 9 to 14) (size 15 to 20)
#    0.000    1.200    6.000    1.200    0.000    1.600 
#    3.600    1.000    0.000    0.000    0.000    0.000 
#    0.000    0.000    0.000    0.000    0.000    0.000 
#
# Total GULP energy -111792.785678 kJ/mol
# GULP energy per Si atom -5589.639284 kJ/mol
# Density = 2.720634 g / cm^3
# Si number density = 27.268399 Si / 1000 Ang^3
#
#
#
# Elastic Constant Matrix: (Units=GPa)
#
#
# Indices 1 2 3 4 5 6 
#
# 1 160.8727 7.7178 14.5790 0.0000 7.0530 0.0000
# 2 7.7178 181.5321 5.2991 0.0000 8.8441 0.0000
# 3 14.5790 5.2991 90.2299 0.0000 1.5352 0.0000
# 4 0.0000 0.0000 0.0000 -52.6153 0.0000 0.4736
# 5 7.0530 8.8441 1.5352 0.0000 12.7968 0.0000
# 6 0.0000 0.0000 0.0000 0.4736 0.0000 31.3201
#
#
#
# Elastic Compliance Matrix: (Units=1/GPa)
#
#
# Indices 1 2 3 4 5 6 
#
# 1 0.006457 -0.000081 -0.000981 0.000000 -0.003385 0.000000
# 2 -0.000081 0.005708 -0.000256 0.000000 -0.003870 0.000000
# 3 -0.000981 -0.000256 0.011267 0.000000 -0.000634 0.000000
# 4 0.000000 0.000000 0.000000 -0.019003 0.000000 0.000287
# 5 -0.003385 -0.003870 -0.000634 0.000000 0.082761 0.000000
# 6 0.000000 0.000000 0.000000 0.000287 0.000000 0.031924
#
#
# Mechanical properties :
#
#
# Convention : Reuss Voigt Hill
#
# Bulk Modulus (GPa) = 48.08610 54.20294 51.14452
# Shear Modulus (GPa) = 38.85521 25.30290 32.07906
#
# Velocity S-wave (km/s) = 3.77890 3.04948 3.43362
# Velocity P-wave (km/s) = 6.05911 5.68505 5.87506
#
# Compressibility (1/GPa) = 0.02079603
#
# Stress axis : x y z
#
# Youngs Moduli (GPa) = 154.86341 175.18912 88.75359
#
# Poissons Ratio (x) = 0.01418 0.08707
# Poissons Ratio (y) = 0.01254 0.02275
# Poissons Ratio (z) = 0.15192 0.04490
#
# Static dielectric constant tensor:
#      x y z
#    x 2.211960 0.000000 0.146400 
#    y 0.000000 2.066810 0.000000 
#    z 0.146400 0.000000 2.254820 
# 
# From -- ./inp_files/11804.got.cif
#   From: 2010.05.17/outbox.cif.g08.bks.cpg/sg13_6_cif.got.tgz:11804.got - 2010.06.03 16:44:36.
