data_PCOD9231986
_publ_section_title
;
Structure prediction by ZEFSAII (Michael W. Deem and Ramdas Pophale) SiO2 
 PCOD9231986
Probable space group: P 2/C
;
_chemical_formula_sum "Si O2"
_cell_formula_units_Z 20
_cell_length_a 5.327480
_cell_length_b 5.062624
_cell_length_c 28.505470
_cell_angle_alpha 90.000000
_cell_angle_beta 85.837228
_cell_angle_gamma 90.000000
_cell_volume 766.793568
_symmetry_space_group_name_H-M "P 2/C"
_symmetry_group_IT_number 13
_symmetry_cell_setting 'monoclinic'
loop_
_space_group_symop_operation_xyz
x,y,z
-x,y,1/2-z
-x,-y,-z
x,-y,1/2+z
loop_
_atom_site_type_symbol
_atom_site_label
_atom_site_fract_x
_atom_site_fract_y
_atom_site_fract_z
Si Si1 0.618958 0.979782 0.379695
Si Si2 0.771807 0.402340 0.645278
Si Si3 0.399189 0.774887 0.967103
Si Si4 0.091634 0.347214 0.060201
Si Si5 0.986714 0.107761 0.194599
O O1 0.505155 0.694234 0.367926
O O2 0.731896 0.111699 0.331514
O O3 0.395040 0.113533 0.412819
O O4 0.834647 0.073762 0.413760
O O5 0.952113 0.459454 0.598149
O O6 0.873759 0.160155 0.674777
O O7 0.816075 0.655643 0.677241
O O8 0.108335 0.713227 0.977297
O O9 0.629066 0.564330 0.960084
O O10 0.500000 0.000000 0.000000
O O11 0.000000 0.108248 0.250000
#
# Coordination Sequence:
#
# PCOD9231986 Si02
#       5
#     4   4   4   4   4
#     4   9  22  39  72  96 149 188 248 299 382 432
#     4  11  23  45  71 104 150 193 253 304 386 449
#     4  10  20  43  71 108 149 196 251 309 373 447
#     4   9  22  39  71 104 146 193 245 301 374 436
#     4  11  25  45  72 110 144 198 249 318 379 465
#
# _framework density 26.082637999999999
#
# number of rings (size 3 to 8) (size 9 to 14) (size 15 to 20)
#    1.200    0.800    0.000    3.600    2.800    2.400 
#    0.000    6.000    0.000    0.000    0.000    0.000 
#    0.000    0.000    0.000    0.000    0.000    0.000 
#
# Total GULP energy -111650.267549 kJ/mol
# GULP energy per Si atom -5582.513377 kJ/mol
# Density = 2.602327 g / cm^3
# Si number density = 26.082638 Si / 1000 Ang^3
#
#
#
# Elastic Constant Matrix: (Units=GPa)
#
#
# Indices 1 2 3 4 5 6 
#
# 1 195.7173 77.6459 67.5449 0.0000 13.3726 0.0000
# 2 77.6459 168.4485 33.6676 0.0000 18.3402 0.0000
# 3 67.5449 33.6676 102.3515 0.0000 -11.2847 0.0000
# 4 0.0000 0.0000 0.0000 35.2911 0.0000 13.4019
# 5 13.3726 18.3402 -11.2847 0.0000 34.6353 0.0000
# 6 0.0000 0.0000 0.0000 13.4019 0.0000 65.3831
#
#
#
# Elastic Compliance Matrix: (Units=1/GPa)
#
#
# Indices 1 2 3 4 5 6 
#
# 1 0.007937 -0.002316 -0.004853 0.000000 -0.003419 0.000000
# 2 -0.002316 0.007678 -0.001397 0.000000 -0.003627 0.000000
# 3 -0.004853 -0.001397 0.014232 0.000000 0.007250 0.000000
# 4 0.000000 0.000000 0.000000 0.030728 0.000000 -0.006298
# 5 -0.003419 -0.003627 0.007250 0.000000 0.034475 0.000000
# 6 0.000000 0.000000 0.000000 -0.006298 0.000000 0.016585
#
#
# Mechanical properties :
#
#
# Convention : Reuss Voigt Hill
#
# Bulk Modulus (GPa) = 78.64930 91.58155 85.11543
# Shear Modulus (GPa) = 37.59270 46.23917 41.91593
#
# Velocity S-wave (km/s) = 3.80055 4.21502 4.01314
# Velocity P-wave (km/s) = 7.03408 7.67313 7.36054
#
# Compressibility (1/GPa) = 0.01271467
#
# Stress axis : x y z
#
# Youngs Moduli (GPa) = 125.99774 130.23754 70.26625
#
# Poissons Ratio (x) = 0.30166 0.34098
# Poissons Ratio (y) = 0.29184 0.09816
# Poissons Ratio (z) = 0.61143 0.18194
#
# Static dielectric constant tensor:
#      x y z
#    x 2.201720 0.000000 -0.078050 
#    y 0.000000 2.193180 0.000000 
#    z -0.078050 0.000000 2.065490 
# 
# From -- ./inp_files/94608.got.cif
#   From: 2010.05.17/outbox.cif.g08.bks.cpg/sg13_48_cif.got.tgz:94608.got - 2010.06.03 16:44:36.
