data_PCOD9231316
_publ_section_title
;
Structure prediction by ZEFSAII (Michael W. Deem and Ramdas Pophale) SiO2 
 PCOD9231316
Probable space group: P 2/C
;
_chemical_formula_sum "Si O2"
_cell_formula_units_Z 30
_cell_length_a 8.435055
_cell_length_b 6.762180
_cell_length_c 29.583312
_cell_angle_alpha 90.000000
_cell_angle_beta 114.578486
_cell_angle_gamma 90.000000
_cell_volume 1534.520653
_symmetry_space_group_name_H-M "P 2/C"
_symmetry_group_IT_number 13
_symmetry_cell_setting 'monoclinic'
loop_
_space_group_symop_operation_xyz
x,y,z
-x,y,1/2-z
-x,-y,-z
x,-y,1/2+z
loop_
_atom_site_type_symbol
_atom_site_label
_atom_site_fract_x
_atom_site_fract_y
_atom_site_fract_z
Si Si1 0.500000 0.522287 0.250000
Si Si2 0.637893 0.390465 0.397103
Si Si3 0.415695 0.300609 0.008884
Si Si4 0.734613 0.012924 0.071586
Si Si5 0.843705 0.286912 0.259722
Si Si6 0.648368 0.217759 0.847947
Si Si7 0.101839 0.134172 0.132959
Si Si8 0.649399 0.913444 0.661172
O O1 0.659967 0.397462 0.247814
O O2 0.409097 0.656005 0.201753
O O3 0.673358 0.342053 0.453471
O O4 0.652899 0.622735 0.388758
O O5 0.770571 0.278485 0.379540
O O6 0.447289 0.294513 0.363296
O O7 0.575582 0.152348 0.038009
O O8 0.500000 0.500000 0.000000
O O9 0.290468 0.190334 0.958519
O O10 0.723242 0.991584 0.124321
O O11 0.916844 0.122616 0.086431
O O12 0.000000 0.394030 0.250000
O O13 0.905994 0.210841 0.316190
O O14 0.786882 0.118564 0.217245
O O15 0.819374 0.087604 0.859403
O O16 0.500979 0.056697 0.839624
#
# Coordination Sequence:
#
# PCOD9231316 Si02
#       8
#     2   4   4   4   4   4   4   4
#     4  12  22  42  60  94 134 174 214 266 310 390
#     4  10  21  39  64  88 121 166 206 259 331 369
#     4  10  22  42  66  90 117 163 210 268 331 384
#     4  10  22  41  63  90 124 156 214 266 317 387
#     4  12  22  41  66  93 133 174 211 260 323 373
#     4  11  21  37  61  87 124 170 210 250 321 383
#     4  11  23  40  61  93 129 163 210 264 311 386
#     4  10  20  39  63  86 124 171 204 257 309 382
#
# _framework density 19.550080000000001
#
# number of rings (size 3 to 8) (size 9 to 14) (size 15 to 20)
#    0.000    1.333    4.000    2.400    0.000    2.667 
#    2.400    1.333    0.000    0.000    0.000    0.000 
#    0.000    0.000    0.000    0.000    0.000    0.000 
#
# Total GULP energy -167354.079201 kJ/mol
# GULP energy per Si atom -5578.469307 kJ/mol
# Density = 1.950558 g / cm^3
# Si number density = 19.550080 Si / 1000 Ang^3
#
#
#
# Elastic Constant Matrix: (Units=GPa)
#
#
# Indices 1 2 3 4 5 6 
#
# 1 79.0122 3.1397 13.9490 0.0000 -11.8723 0.0000
# 2 3.1397 45.7903 8.2965 0.0000 -17.2491 0.0000
# 3 13.9490 8.2965 66.5291 0.0000 -20.0647 0.0000
# 4 0.0000 0.0000 0.0000 13.8825 0.0000 -0.2400
# 5 -11.8723 -17.2491 -20.0647 0.0000 32.2653 0.0000
# 6 0.0000 0.0000 0.0000 -0.2400 0.0000 14.4335
#
#
#
# Elastic Compliance Matrix: (Units=1/GPa)
#
#
# Indices 1 2 3 4 5 6 
#
# 1 0.013584 0.001085 -0.001601 0.000000 0.004583 0.000000
# 2 0.001085 0.027514 0.001105 0.000000 0.015796 0.000000
# 3 -0.001601 0.001105 0.018745 0.000000 0.011659 0.000000
# 4 0.000000 0.000000 0.000000 0.072054 0.000000 0.001198
# 5 0.004583 0.015796 0.011659 0.000000 0.048374 0.000000
# 6 0.000000 0.000000 0.000000 0.001198 0.000000 0.069303
#
#
# Mechanical properties :
#
#
# Convention : Reuss Voigt Hill
#
# Bulk Modulus (GPa) = 16.38769 26.90021 21.64395
# Shear Modulus (GPa) = 18.60555 23.17937 20.89246
#
# Velocity S-wave (km/s) = 3.08829 3.44705 3.27259
# Velocity P-wave (km/s) = 4.59536 5.44356 5.03734
#
# Compressibility (1/GPa) = 0.06102141
#
# Stress axis : x y z
#
# Youngs Moduli (GPa) = 73.61344 36.34484 53.34730
#
# Poissons Ratio (x) = -0.03943 0.08543
# Poissons Ratio (y) = -0.07987 -0.05896
# Poissons Ratio (z) = 0.11789 -0.04017
#
# Static dielectric constant tensor:
#      x y z
#    x 1.780710 0.000000 -0.004800 
#    y 0.000000 1.685550 0.000000 
#    z -0.004800 0.000000 1.691670 
# 
# From -- ./inp_files/95627.got.cif
#   From: 2010.05.17/outbox.cif.g08.bks.cpg/sg13_48_cif.got.tgz:95627.got - 2010.06.03 16:44:36.
