data_PCOD9231235
_publ_section_title
;
Structure prediction by ZEFSAII (Michael W. Deem and Ramdas Pophale) SiO2 
 PCOD9231235
Probable space group: P 2/C
;
_chemical_formula_sum "Si O2"
_cell_formula_units_Z 28
_cell_length_a 5.179582
_cell_length_b 10.642120
_cell_length_c 24.384560
_cell_angle_alpha 90.000000
_cell_angle_beta 69.573135
_cell_angle_gamma 90.000000
_cell_volume 1259.598907
_symmetry_space_group_name_H-M "P 2/C"
_symmetry_group_IT_number 13
_symmetry_cell_setting 'monoclinic'
loop_
_space_group_symop_operation_xyz
x,y,z
-x,y,1/2-z
-x,-y,-z
x,-y,1/2+z
loop_
_atom_site_type_symbol
_atom_site_label
_atom_site_fract_x
_atom_site_fract_y
_atom_site_fract_z
Si Si1 0.686284 0.649231 0.535336
Si Si2 0.408434 0.161297 0.119864
Si Si3 0.888036 0.500158 0.423508
Si Si4 0.176843 0.754292 0.813431
Si Si5 0.500000 0.526249 0.750000
Si Si6 0.500000 0.036953 0.250000
Si Si7 0.787170 0.376096 0.816179
Si Si8 0.757175 0.908953 0.316069
O O1 0.592871 0.792215 0.555026
O O2 0.861003 0.616979 0.468230
O O3 0.397623 0.576306 0.550854
O O4 0.608956 0.795639 0.654794
O O5 0.133467 0.244646 0.144207
O O6 0.755652 0.131929 0.233310
O O7 0.276451 0.021521 0.136947
O O8 0.890379 0.551218 0.361738
O O9 0.137407 0.414028 0.427946
O O10 0.255345 0.625717 0.778372
O O11 0.539012 0.444800 0.802150
O O12 0.484071 0.943502 0.301636
O O13 0.738253 0.232451 0.837566
O O14 0.000000 0.371807 0.750000
O O15 0.000000 0.911305 0.250000
#
# Coordination Sequence:
#
# PCOD9231235 Si02
#       8
#     4   4   4   4   2   2   4   4
#     4  10  22  41  71  87 125 161 211 271 326 359
#     4  11  21  37  62  93 115 162 213 262 309 369
#     4  10  23  45  61  95 125 165 206 263 324 389
#     4  10  22  33  60  88 128 151 203 265 310 365
#     4  11  25  36  56  92 131 169 204 254 322 381
#     4   9  17  34  54  80 121 169 202 246 314 371
#     4  11  26  39  60  88 132 174 207 248 315 397
#     4  10  20  39  55  82 126 174 207 251 309 375
#
# _framework density 22.229298
#
# number of rings (size 3 to 8) (size 9 to 14) (size 15 to 20)
#    0.000    1.714    1.429    2.143    8.000    0.000 
#    0.000    0.714    0.000    0.000    0.000    9.000 
#    0.000    0.000    0.000    0.429    0.000    0.000 
#
# Total GULP energy -155960.267182 kJ/mol
# GULP energy per Si atom -5570.009542 kJ/mol
# Density = 2.217870 g / cm^3
# Si number density = 22.229298 Si / 1000 Ang^3
#
#
#
# Elastic Constant Matrix: (Units=GPa)
#
#
# Indices 1 2 3 4 5 6 
#
# 1 70.8207 -8.4362 -19.2107 0.0000 11.8839 0.0000
# 2 -8.4362 91.3904 1.2157 0.0000 5.5068 0.0000
# 3 -19.2107 1.2157 42.7601 0.0000 17.4494 0.0000
# 4 0.0000 0.0000 0.0000 5.6962 0.0000 -0.0257
# 5 11.8839 5.5068 17.4494 0.0000 26.2206 0.0000
# 6 0.0000 0.0000 0.0000 -0.0257 0.0000 18.9742
#
#
#
# Elastic Compliance Matrix: (Units=1/GPa)
#
#
# Indices 1 2 3 4 5 6 
#
# 1 0.025046 0.003634 0.022092 0.000000 -0.026817 0.000000
# 2 0.003634 0.011633 0.004079 0.000000 -0.006804 0.000000
# 3 0.022092 0.004079 0.051661 0.000000 -0.045249 0.000000
# 4 0.000000 0.000000 0.000000 0.175557 0.000000 0.000238
# 5 -0.026817 -0.006804 -0.045249 0.000000 0.081833 0.000000
# 6 0.000000 0.000000 0.000000 0.000238 0.000000 0.052703
#
#
# Mechanical properties :
#
#
# Convention : Reuss Voigt Hill
#
# Bulk Modulus (GPa) = 6.75909 16.90097 11.83003
# Shear Modulus (GPa) = 12.88195 25.60504 19.24350
#
# Velocity S-wave (km/s) = 2.40990 3.39759 2.94544
# Velocity P-wave (km/s) = 3.28492 4.79698 4.11106
#
# Compressibility (1/GPa) = 0.14794896
#
# Stress axis : x y z
#
# Youngs Moduli (GPa) = 39.92712 85.96039 19.35709
#
# Poissons Ratio (x) = -0.31237 -0.42764
# Poissons Ratio (y) = -0.14509 -0.07895
# Poissons Ratio (z) = -0.88208 -0.35060
#
# Static dielectric constant tensor:
#      x y z
#    x 1.920010 0.000000 -0.009680 
#    y 0.000000 1.855200 0.000000 
#    z -0.009680 0.000000 1.931180 
# 
# From -- ./inp_files/73629.got.cif
#   From: 2010.05.17/outbox.cif.g08.bks.cpg/sg13_37_cif.got.tgz:73629.got - 2010.06.03 16:44:36.
