data_PCOD9231774
_publ_section_title
;
Structure prediction by ZEFSAII (Michael W. Deem and Ramdas Pophale) SiO2 
 PCOD9231774
Probable space group: P 2/C
;
_chemical_formula_sum "Si O2"
_cell_formula_units_Z 28
_cell_length_a 13.537636
_cell_length_b 6.370476
_cell_length_c 17.720562
_cell_angle_alpha 90.000000
_cell_angle_beta 60.549780
_cell_angle_gamma 90.000000
_cell_volume 1330.767690
_symmetry_space_group_name_H-M "P 2/C"
_symmetry_group_IT_number 13
_symmetry_cell_setting 'monoclinic'
loop_
_space_group_symop_operation_xyz
x,y,z
-x,y,1/2-z
-x,-y,-z
x,-y,1/2+z
loop_
_atom_site_type_symbol
_atom_site_label
_atom_site_fract_x
_atom_site_fract_y
_atom_site_fract_z
Si Si1 0.108052 0.295035 0.260807
Si Si2 0.672270 0.280927 0.160248
Si Si3 0.403095 0.952522 0.185530
Si Si4 0.790340 0.344031 0.702648
Si Si5 0.883224 0.029579 0.086794
Si Si6 0.356859 0.703950 0.592445
Si Si7 0.456710 0.580820 0.402395
O O1 0.111916 0.535546 0.289169
O O2 0.104316 0.144122 0.335869
O O3 0.227594 0.280909 0.170542
O O4 0.000000 0.253376 0.250000
O O5 0.713949 0.470999 0.197446
O O6 0.784222 0.167348 0.084950
O O7 0.594665 0.394183 0.128212
O O8 0.616472 0.111541 0.237612
O O9 0.288238 0.815646 0.222164
O O10 0.503464 0.786105 0.158033
O O11 0.415325 0.087830 0.104956
O O12 0.837840 0.203590 0.617864
O O13 0.000000 0.000000 0.000000
O O14 0.370776 0.664008 0.498617
O O15 0.430831 0.514236 0.600352
#
# Coordination Sequence:
#
# PCOD9231774 Si02
#       7
#     4   4   4   4   4   4   4
#     4  11  23  43  70  97 133 183 232 285 348 419
#     4  10  23  41  67 103 133 181 237 270 349 419
#     4  11  20  43  67  93 140 182 225 276 348 416
#     4  10  20  41  66  94 132 176 225 284 340 402
#     4  10  23  44  69  99 138 180 234 294 335 409
#     4  11  23  44  63 103 140 176 231 281 354 413
#     4  11  25  40  69 103 142 180 221 296 337 417
#
# _framework density 21.040485
#
# number of rings (size 3 to 8) (size 9 to 14) (size 15 to 20)
#    0.000    1.429    5.714    0.429    0.000   10.857 
#    0.000    2.857    0.000    0.000    0.000    0.000 
#    0.000    0.000    0.000    0.000    0.000    0.000 
#
# Total GULP energy -156325.880698 kJ/mol
# GULP energy per Si atom -5583.067168 kJ/mol
# Density = 2.099260 g / cm^3
# Si number density = 21.040485 Si / 1000 Ang^3
#
#
#
# Elastic Constant Matrix: (Units=GPa)
#
#
# Indices 1 2 3 4 5 6 
#
# 1 102.2245 39.0090 46.9345 0.0000 -4.5603 0.0000
# 2 39.0090 134.5250 59.7255 0.0000 -8.7775 0.0000
# 3 46.9345 59.7255 133.5452 0.0000 -23.1936 0.0000
# 4 0.0000 0.0000 0.0000 26.5703 0.0000 -3.3173
# 5 -4.5603 -8.7775 -23.1936 0.0000 27.7933 0.0000
# 6 0.0000 0.0000 0.0000 -3.3173 0.0000 30.8217
#
#
#
# Elastic Compliance Matrix: (Units=1/GPa)
#
#
# Indices 1 2 3 4 5 6 
#
# 1 0.012158 -0.002007 -0.003671 0.000000 -0.001702 0.000000
# 2 -0.002007 0.009616 -0.003655 0.000000 -0.000342 0.000000
# 3 -0.003671 -0.003655 0.011821 0.000000 0.008108 0.000000
# 4 0.000000 0.000000 0.000000 0.038149 0.000000 0.004106
# 5 -0.001702 -0.000342 0.008108 0.000000 0.042359 0.000000
# 6 0.000000 0.000000 0.000000 0.004106 0.000000 0.032887
#
#
# Mechanical properties :
#
#
# Convention : Reuss Voigt Hill
#
# Bulk Modulus (GPa) = 66.98102 73.51473 70.24787
# Shear Modulus (GPa) = 29.30328 32.01211 30.65769
#
# Velocity S-wave (km/s) = 3.73595 3.90481 3.82131
# Velocity P-wave (km/s) = 7.10727 7.43946 7.27526
#
# Compressibility (1/GPa) = 0.01492960
#
# Stress axis : x y z
#
# Youngs Moduli (GPa) = 82.25242 103.99689 84.59565
#
# Poissons Ratio (x) = 0.20869 0.31056
# Poissons Ratio (y) = 0.16505 0.30917
# Poissons Ratio (z) = 0.30195 0.38007
#
# Static dielectric constant tensor:
#      x y z
#    x 1.803050 0.000000 -0.005350 
#    y 0.000000 1.770500 0.000000 
#    z -0.005350 0.000000 1.784220 
# 
# From -- ./inp_files/67486.got.cif
#   From: 2010.05.17/outbox.cif.g08.bks.cpg/sg13_34_cif.got.tgz:67486.got - 2010.06.03 16:44:36.
