data_PCOD9231909
_publ_section_title
;
Structure prediction by ZEFSAII (Michael W. Deem and Ramdas Pophale) SiO2 
 PCOD9231909
Probable space group: P 2/C
;
_chemical_formula_sum "Si O2"
_cell_formula_units_Z 22
_cell_length_a 11.837068
_cell_length_b 11.960495
_cell_length_c 13.861266
_cell_angle_alpha 90.000000
_cell_angle_beta 149.535182
_cell_angle_gamma 90.000000
_cell_volume 994.974674
_symmetry_space_group_name_H-M "P 2/C"
_symmetry_group_IT_number 13
_symmetry_cell_setting 'monoclinic'
loop_
_space_group_symop_operation_xyz
x,y,z
-x,y,1/2-z
-x,-y,-z
x,-y,1/2+z
loop_
_atom_site_type_symbol
_atom_site_label
_atom_site_fract_x
_atom_site_fract_y
_atom_site_fract_z
Si Si1 0.500000 0.340999 0.750000
Si Si2 0.160199 0.838020 0.045131
Si Si3 0.917094 0.327251 0.503312
Si Si4 0.000000 0.050266 0.250000
Si Si5 0.497800 0.019963 0.111827
Si Si6 0.305475 0.484949 0.782735
Si Si7 0.500000 0.218545 0.250000
O O1 0.703635 0.254967 0.916137
O O2 0.412038 0.417616 0.771348
O O3 0.336354 0.929129 0.216532
O O4 0.044637 0.777382 0.050076
O O5 0.980507 0.884669 0.837323
O O6 0.796573 0.399284 0.330529
O O7 0.720795 0.290925 0.429785
O O8 0.105558 0.411150 0.679631
O O9 0.233957 0.990261 0.440840
O O10 0.556565 0.139372 0.200880
O O11 0.500000 0.000000 0.000000
O O12 0.500000 0.500000 0.000000
#
# Coordination Sequence:
#
# PCOD9231909 Si02
#       7
#     2   4   4   2   4   4   2
#     4  10  20  42  68  94 142 164 228 286 334 414
#     4  11  23  44  66 102 132 183 234 276 340 420
#     4  10  25  43  69  98 140 176 231 286 338 419
#     4  12  22  42  70  94 134 184 222 278 344 392
#     4  12  27  44  67 102 143 179 231 285 333 418
#     4  10  23  46  68 102 134 175 229 291 348 404
#     4  12  24  48  64 104 146 178 228 282 348 410
#
# _framework density 22.111115999999999
#
# number of rings (size 3 to 8) (size 9 to 14) (size 15 to 20)
#    0.000    1.091    3.636    1.636    5.091    4.364 
#    0.000    7.273    0.000    0.000    0.000    0.000 
#    0.000    0.000    0.000    0.000    0.000    0.000 
#
# Total GULP energy -122844.187918 kJ/mol
# GULP energy per Si atom -5583.826724 kJ/mol
# Density = 2.206079 g / cm^3
# Si number density = 22.111116 Si / 1000 Ang^3
#
#
#
# Elastic Constant Matrix: (Units=GPa)
#
#
# Indices 1 2 3 4 5 6 
#
# 1 68.3493 24.1939 18.3925 0.0000 12.5045 0.0000
# 2 24.1939 80.7592 51.7270 0.0000 12.5572 0.0000
# 3 18.3925 51.7270 153.4682 0.0000 4.1259 0.0000
# 4 0.0000 0.0000 0.0000 12.2126 0.0000 19.9534
# 5 12.5045 12.5572 4.1259 0.0000 47.6705 0.0000
# 6 0.0000 0.0000 0.0000 19.9534 0.0000 24.0148
#
#
#
# Elastic Compliance Matrix: (Units=1/GPa)
#
#
# Indices 1 2 3 4 5 6 
#
# 1 0.016858 -0.004214 -0.000512 0.000000 -0.003268 0.000000
# 2 -0.004214 0.017527 -0.005321 0.000000 -0.003051 0.000000
# 3 -0.000512 -0.005321 0.008349 0.000000 0.000813 0.000000
# 4 0.000000 0.000000 0.000000 -0.229029 0.000000 0.190296
# 5 -0.003268 -0.003051 0.000813 0.000000 0.022568 0.000000
# 6 0.000000 0.000000 0.000000 0.190296 0.000000 -0.116472
#
#
# Mechanical properties :
#
#
# Convention : Reuss Voigt Hill
#
# Bulk Modulus (GPa) = 44.16889 54.57816 49.37353
# Shear Modulus (GPa) = -19.79744 30.66378 5.43317
#
# Velocity S-wave (km/s) = -2.99551 3.72802 1.56925
# Velocity P-wave (km/s) = 2.83816 6.57784 5.06573
#
# Compressibility (1/GPa) = 0.02264037
#
# Stress axis : x y z
#
# Youngs Moduli (GPa) = 59.31872 57.05391 119.77730
#
# Poissons Ratio (x) = 0.24044 0.06134
# Poissons Ratio (y) = 0.24999 0.63728
# Poissons Ratio (z) = 0.03038 0.30356
#
# Static dielectric constant tensor:
#      x y z
#    x 1.864810 0.000000 0.038610 
#    y 0.000000 1.857960 0.000000 
#    z 0.038610 0.000000 1.684510 
# 
# From -- ./inp_files/51133.got.cif
#   From: 2010.05.17/outbox.cif.g08.bks.cpg/sg13_26_cif.got.tgz:51133.got - 2010.06.03 16:44:36.
