data_PCOD9231402
_publ_section_title
;
Structure prediction by ZEFSAII (Michael W. Deem and Ramdas Pophale) SiO2 
 PCOD9231402
Probable space group: P 2/C
;
_chemical_formula_sum "Si O2"
_cell_formula_units_Z 28
_cell_length_a 12.894483
_cell_length_b 11.547064
_cell_length_c 9.470603
_cell_angle_alpha 90.000000
_cell_angle_beta 120.907456
_cell_angle_gamma 90.000000
_cell_volume 1209.872066
_symmetry_space_group_name_H-M "P 2/C"
_symmetry_group_IT_number 13
_symmetry_cell_setting 'monoclinic'
loop_
_space_group_symop_operation_xyz
x,y,z
-x,y,1/2-z
-x,-y,-z
x,-y,1/2+z
loop_
_atom_site_type_symbol
_atom_site_label
_atom_site_fract_x
_atom_site_fract_y
_atom_site_fract_z
Si Si1 0.216361 0.121593 0.556234
Si Si2 0.339809 0.239278 0.399239
Si Si3 0.013240 0.193735 0.605033
Si Si4 0.177162 0.622022 0.610706
Si Si5 0.385008 0.248212 0.892186
Si Si6 0.182193 0.585542 0.293024
Si Si7 0.633549 0.089933 0.349673
O O1 0.240912 0.213840 0.449627
O O2 0.085738 0.123710 0.537009
O O3 0.312065 0.158877 0.743766
O O4 0.261988 0.997943 0.534192
O O5 0.300897 0.346355 0.275831
O O6 0.474990 0.254429 0.550382
O O7 0.343103 0.133480 0.291629
O O8 0.098286 0.304088 0.701926
O O9 0.000000 0.134850 0.750000
O O10 0.894724 0.257026 0.460592
O O11 0.189558 0.568938 0.465001
O O12 0.124944 0.524026 0.676018
O O13 0.313531 0.369509 0.834213
O O14 0.375209 0.195460 0.044625
O O15 0.500000 0.033867 0.250000
#
# Coordination Sequence:
#
# PCOD9231402 Si02
#       7
#     4   4   4   4   4   4   4
#     4  11  22  38  66  95 122 162 220 261 306 374
#     4  11  23  38  62  96 133 163 205 268 307 376
#     4   9  22  44  65  90 124 163 211 268 316 374
#     4  11  23  41  64  93 125 166 217 258 318 368
#     4  10  21  40  62  93 135 168 203 252 322 379
#     4  10  22  40  66  91 121 167 212 263 312 374
#     4  10  20  39  66  93 129 174 209 249 315 385
#
# _framework density 23.142944
#
# number of rings (size 3 to 8) (size 9 to 14) (size 15 to 20)
#    0.000    1.714    1.429    2.571    4.000    3.429 
#    0.000    0.714    0.000    0.000    0.000    0.000 
#    0.000    0.000    0.000    0.000    0.000    0.000 
#
# Total GULP energy -156455.110130 kJ/mol
# GULP energy per Si atom -5587.682505 kJ/mol
# Density = 2.309027 g / cm^3
# Si number density = 23.142944 Si / 1000 Ang^3
#
#
#
# Elastic Constant Matrix: (Units=GPa)
#
#
# Indices 1 2 3 4 5 6 
#
# 1 88.9289 25.0595 14.0398 0.0000 -16.9458 0.0000
# 2 25.0595 36.8945 11.0557 0.0000 3.0326 0.0000
# 3 14.0398 11.0557 66.4001 0.0000 -4.0424 0.0000
# 4 0.0000 0.0000 0.0000 19.4373 0.0000 -2.0408
# 5 -16.9458 3.0326 -4.0424 0.0000 34.1085 0.0000
# 6 0.0000 0.0000 0.0000 -2.0408 0.0000 13.6126
#
#
#
# Elastic Compliance Matrix: (Units=1/GPa)
#
#
# Indices 1 2 3 4 5 6 
#
# 1 0.016390 -0.011581 -0.000986 0.000000 0.009056 0.000000
# 2 -0.011581 0.037045 -0.004301 0.000000 -0.009557 0.000000
# 3 -0.000986 -0.004301 0.016094 0.000000 0.001800 0.000000
# 4 0.000000 0.000000 0.000000 0.052270 0.000000 0.007836
# 5 0.009056 -0.009557 0.001800 0.000000 0.034880 0.000000
# 6 0.000000 0.000000 0.000000 0.007836 0.000000 0.074636
#
#
# Mechanical properties :
#
#
# Convention : Reuss Voigt Hill
#
# Bulk Modulus (GPa) = 27.93867 32.50372 30.22119
# Shear Modulus (GPa) = 18.05167 22.90291 20.47729
#
# Velocity S-wave (km/s) = 2.79589 3.14925 2.97782
# Velocity P-wave (km/s) = 4.74564 5.22484 4.99099
#
# Compressibility (1/GPa) = 0.03579268
#
# Stress axis : x y z
#
# Youngs Moduli (GPa) = 61.01427 26.99431 62.13332
#
# Poissons Ratio (x) = 0.31262 0.06126
# Poissons Ratio (y) = 0.70661 0.26724
# Poissons Ratio (z) = 0.06015 0.11611
#
# Static dielectric constant tensor:
#      x y z
#    x 1.951840 0.000000 0.009500 
#    y 0.000000 1.921700 0.000000 
#    z 0.009500 0.000000 1.848020 
# 
# From -- ./inp_files/16879.got.cif
#   From: 2010.05.17/outbox.cif.g08.bks.cpg/sg13_9_cif.got.tgz:16879.got - 2010.06.03 16:44:36.
