data_PCOD9231004
_publ_section_title
;
Structure prediction by ZEFSAII (Michael W. Deem and Ramdas Pophale) SiO2 
 PCOD9231004
Probable space group: P 2/C
;
_chemical_formula_sum "Si O2"
_cell_formula_units_Z 22
_cell_length_a 6.448061
_cell_length_b 8.573357
_cell_length_c 19.782054
_cell_angle_alpha 90.000000
_cell_angle_beta 104.274002
_cell_angle_gamma 90.000000
_cell_volume 1059.820801
_symmetry_space_group_name_H-M "P 2/C"
_symmetry_group_IT_number 13
_symmetry_cell_setting 'monoclinic'
loop_
_space_group_symop_operation_xyz
x,y,z
-x,y,1/2-z
-x,-y,-z
x,-y,1/2+z
loop_
_atom_site_type_symbol
_atom_site_label
_atom_site_fract_x
_atom_site_fract_y
_atom_site_fract_z
Si Si1 0.481801 0.361728 0.052610
Si Si2 0.686385 0.508335 0.818906
Si Si3 0.000000 0.031639 0.250000
Si Si4 0.931392 0.272485 0.145251
Si Si5 0.315186 0.863306 0.181078
Si Si6 0.804291 0.921432 0.943288
O O1 0.383089 0.430534 0.113481
O O2 0.343222 0.203190 0.027670
O O3 0.725172 0.320714 0.088086
O O4 0.500000 0.500000 0.000000
O O5 0.500000 0.548800 0.750000
O O6 0.914859 0.586012 0.819206
O O7 0.697588 0.322032 0.825300
O O8 0.146339 0.155983 0.301778
O O9 0.893808 0.924952 0.297304
O O10 0.083171 0.176429 0.107187
O O11 0.500000 0.903925 0.250000
O O12 0.329855 0.948160 0.109498
O O13 0.000000 0.000000 0.000000
#
# Coordination Sequence:
#
# PCOD9231004 Si02
#       6
#     4   4   2   4   4   4
#     4  11  25  41  63  94 125 174 219 262 328 405
#     4  10  23  41  64  95 128 167 211 275 330 386
#     4  10  20  38  62  90 114 158 212 256 320 388
#     4  10  22  40  65  88 124 166 210 266 320 398
#     4  10  22  40  63  91 128 162 212 271 325 390
#     4  10  24  42  63  92 130 172 211 273 331 383
#
# _framework density 20.758226000000001
#
# number of rings (size 3 to 8) (size 9 to 14) (size 15 to 20)
#    0.000    1.818    0.000    2.182    5.091   10.909 
#    6.545    0.000    0.000    0.000    0.000    0.000 
#    0.000    0.000    0.000    0.000    0.000    0.000 
#
# Total GULP energy -122673.323904 kJ/mol
# GULP energy per Si atom -5576.060177 kJ/mol
# Density = 2.071098 g / cm^3
# Si number density = 20.758226 Si / 1000 Ang^3
#
#
#
# Elastic Constant Matrix: (Units=GPa)
#
#
# Indices 1 2 3 4 5 6 
#
# 1 56.5582 35.7585 6.7768 0.0000 14.7424 0.0000
# 2 35.7585 107.5107 50.0323 0.0000 19.1403 0.0000
# 3 6.7768 50.0323 84.4912 0.0000 19.0892 0.0000
# 4 0.0000 0.0000 0.0000 -83.0857 0.0000 59.4597
# 5 14.7424 19.1403 19.0892 0.0000 41.8217 0.0000
# 6 0.0000 0.0000 0.0000 59.4597 0.0000 5.5143
#
#
#
# Elastic Compliance Matrix: (Units=1/GPa)
#
#
# Indices 1 2 3 4 5 6 
#
# 1 0.024788 -0.009423 0.005120 0.000000 -0.006762 0.000000
# 2 -0.009423 0.016698 -0.009094 0.000000 -0.000170 0.000000
# 3 0.005120 -0.009094 0.018149 0.000000 -0.005927 0.000000
# 4 0.000000 0.000000 0.000000 -0.001381 0.000000 0.014889
# 5 -0.006762 -0.000170 -0.005927 0.000000 0.029077 0.000000
# 6 0.000000 0.000000 0.000000 0.014889 0.000000 0.020805
#
#
# Mechanical properties :
#
#
# Convention : Reuss Voigt Hill
#
# Bulk Modulus (GPa) = 30.45071 48.18837 39.31954
# Shear Modulus (GPa) = 34.27553 3.24955 18.76254
#
# Velocity S-wave (km/s) = 4.06788 1.25253 3.00969
# Velocity P-wave (km/s) = 6.06338 5.03550 5.57319
#
# Compressibility (1/GPa) = 0.03283996
#
# Stress axis : x y z
#
# Youngs Moduli (GPa) = 40.34240 59.88853 55.09997
#
# Poissons Ratio (x) = 0.56434 -0.28209
# Poissons Ratio (y) = 0.38016 0.50106
# Poissons Ratio (z) = -0.20654 0.54460
#
# Static dielectric constant tensor:
#      x y z
#    x 1.767230 0.000000 0.026420 
#    y 0.000000 1.764940 0.000000 
#    z 0.026420 0.000000 1.786740 
# 
# From -- ./inp_files/72988.got.cif
#   From: 2010.05.17/outbox.cif.g08.bks.cpg/sg13_37_cif.got.tgz:72988.got - 2010.06.03 16:44:36.
