data_PCOD9231009
_publ_section_title
;
Structure prediction by ZEFSAII (Michael W. Deem and Ramdas Pophale) SiO2 
 PCOD9231009
Probable space group: P 2/C
;
_chemical_formula_sum "Si O2"
_cell_formula_units_Z 28
_cell_length_a 13.849219
_cell_length_b 11.733039
_cell_length_c 8.956062
_cell_angle_alpha 90.000000
_cell_angle_beta 110.445153
_cell_angle_gamma 90.000000
_cell_volume 1363.627415
_symmetry_space_group_name_H-M "P 2/C"
_symmetry_group_IT_number 13
_symmetry_cell_setting 'monoclinic'
loop_
_space_group_symop_operation_xyz
x,y,z
-x,y,1/2-z
-x,-y,-z
x,-y,1/2+z
loop_
_atom_site_type_symbol
_atom_site_label
_atom_site_fract_x
_atom_site_fract_y
_atom_site_fract_z
Si Si1 0.107883 0.343220 0.516915
Si Si2 0.854746 0.436351 0.637019
Si Si3 0.085006 0.001261 0.915629
Si Si4 0.757364 0.809068 0.578737
Si Si5 0.622885 0.432181 0.421704
Si Si6 0.579254 0.346146 0.069701
Si Si7 0.900636 0.234012 0.443541
O O1 0.108856 0.397666 0.681147
O O2 0.103772 0.441171 0.390531
O O3 0.212787 0.277630 0.537160
O O4 0.018457 0.249565 0.454462
O O5 0.731873 0.431246 0.561395
O O6 0.885219 0.350531 0.522913
O O7 0.116921 0.133862 0.945444
O O8 0.000000 0.969427 0.750000
O O9 0.189826 0.927823 0.950273
O O10 0.000000 0.000000 0.000000
O O11 0.641223 0.769495 0.561270
O O12 0.824695 0.782175 0.763774
O O13 0.629402 0.401428 0.249202
O O14 0.540823 0.343608 0.448207
O O15 0.584368 0.560070 0.439925
#
# Coordination Sequence:
#
# PCOD9231009 Si02
#       7
#     4   4   4   4   4   4   4
#     4  12  24  38  57  91 131 167 206 249 313 387
#     4  12  23  38  59  89 127 167 204 251 315 378
#     4  12  23  42  63  88 120 169 216 262 307 374
#     4  12  23  41  63  88 125 163 210 264 318 368
#     4  10  20  38  62  90 127 159 208 253 312 381
#     4  10  21  38  62  93 121 166 205 259 315 376
#     4  12  25  41  60  87 125 169 209 258 311 376
#
# _framework density 20.533469
#
# number of rings (size 3 to 8) (size 9 to 14) (size 15 to 20)
#    0.000    0.571    5.714    3.857    0.000    1.143 
#    0.000    0.000    0.000    0.857    0.000    0.000 
#    0.000    0.000    0.000    0.000    0.000    0.000 
#
# Total GULP energy -155951.117646 kJ/mol
# GULP energy per Si atom -5569.682773 kJ/mol
# Density = 2.048673 g / cm^3
# Si number density = 20.533469 Si / 1000 Ang^3
#
#
#
# Elastic Constant Matrix: (Units=GPa)
#
#
# Indices 1 2 3 4 5 6 
#
# 1 107.5584 32.4258 18.7409 0.0000 4.0776 0.0000
# 2 32.4258 101.6703 8.4134 0.0000 -4.5077 0.0000
# 3 18.7409 8.4134 60.6051 0.0000 -4.2223 0.0000
# 4 0.0000 0.0000 0.0000 24.8845 0.0000 -9.9153
# 5 4.0776 -4.5077 -4.2223 0.0000 27.8180 0.0000
# 6 0.0000 0.0000 0.0000 -9.9153 0.0000 38.9832
#
#
#
# Elastic Compliance Matrix: (Units=1/GPa)
#
#
# Indices 1 2 3 4 5 6 
#
# 1 0.010947 -0.003351 -0.003103 0.000000 -0.002619 0.000000
# 2 -0.003351 0.011031 -0.000340 0.000000 0.002227 0.000000
# 3 -0.003103 -0.000340 0.017722 0.000000 0.003090 0.000000
# 4 0.000000 0.000000 0.000000 0.044718 0.000000 0.011374
# 5 -0.002619 0.002227 0.003090 0.000000 0.037162 0.000000
# 6 0.000000 0.000000 0.000000 0.011374 0.000000 0.028545
#
#
# Mechanical properties :
#
#
# Convention : Reuss Voigt Hill
#
# Bulk Modulus (GPa) = 38.29372 43.22157 40.75765
# Shear Modulus (GPa) = 28.99958 32.35404 30.67681
#
# Velocity S-wave (km/s) = 3.76215 3.97378 3.86941
# Velocity P-wave (km/s) = 6.12875 6.49227 6.31313
#
# Compressibility (1/GPa) = 0.02611394
#
# Stress axis : x y z
#
# Youngs Moduli (GPa) = 91.34679 90.65140 56.42670
#
# Poissons Ratio (x) = 0.30375 0.17506
# Poissons Ratio (y) = 0.30608 0.01919
# Poissons Ratio (z) = 0.28340 0.03083
#
# Static dielectric constant tensor:
#      x y z
#    x 1.873810 0.000000 -0.004240 
#    y 0.000000 1.934770 0.000000 
#    z -0.004240 0.000000 1.716950 
# 
# From -- ./inp_files/18823.got.cif
#   From: 2010.05.17/outbox.cif.g08.bks.cpg/sg13_10_cif.got.tgz:18823.got - 2010.06.03 16:44:36.
