data_PCOD9231466
_publ_section_title
;
Structure prediction by ZEFSAII (Michael W. Deem and Ramdas Pophale) SiO2 
 PCOD9231466
Probable space group: P 2/C
;
_chemical_formula_sum "Si O2"
_cell_formula_units_Z 22
_cell_length_a 9.217975
_cell_length_b 7.084360
_cell_length_c 30.846959
_cell_angle_alpha 90.000000
_cell_angle_beta 152.855820
_cell_angle_gamma 90.000000
_cell_volume 919.038042
_symmetry_space_group_name_H-M "P 2/C"
_symmetry_group_IT_number 13
_symmetry_cell_setting 'monoclinic'
loop_
_space_group_symop_operation_xyz
x,y,z
-x,y,1/2-z
-x,-y,-z
x,-y,1/2+z
loop_
_atom_site_type_symbol
_atom_site_label
_atom_site_fract_x
_atom_site_fract_y
_atom_site_fract_z
Si Si1 0.522869 0.272989 0.150434
Si Si2 0.500000 0.183504 0.750000
Si Si3 0.348107 0.673821 0.003079
Si Si4 0.203846 0.349118 0.366915
Si Si5 0.172663 0.599209 0.094670
Si Si6 0.949995 0.998488 0.926194
O O1 0.649169 0.244123 0.135601
O O2 0.310447 0.464158 0.094920
O O3 0.333661 0.109997 0.124992
O O4 0.831085 0.321098 0.261889
O O5 0.525921 0.321512 0.797770
O O6 0.808455 0.054736 0.841039
O O7 0.336073 0.714807 0.948614
O O8 0.060885 0.524614 0.937223
O O9 0.248522 0.862343 0.001643
O O10 0.669674 0.566346 0.101508
O O11 0.010203 0.799150 0.040492
#
# Coordination Sequence:
#
# PCOD9231466 Si02
#       6
#     4   2   4   4   4   4
#     4  10  20  40  58  82 116 148 184 236 274 336
#     4   8  16  30  56  86 102 132 196 222 264 320
#     4  10  20  40  58  82 116 148 184 236 274 336
#     4  10  22  36  58  84 118 152 178 222 302 332
#     4   9  19  35  61  84 104 147 198 228 268 328
#     4   9  19  35  61  84 104 147 198 228 268 328
#
# _framework density 23.938072999999999
#
# number of rings (size 3 to 8) (size 9 to 14) (size 15 to 20)
#    1.091    1.455    0.000    2.182    0.000    5.818 
#    0.000   14.545    0.000    0.000    0.000    0.000 
#    0.000    0.000    0.000    0.000    0.000    0.000 
#
# Total GULP energy -122797.319569 kJ/mol
# GULP energy per Si atom -5581.696344 kJ/mol
# Density = 2.388359 g / cm^3
# Si number density = 23.938073 Si / 1000 Ang^3
#
#
#
# Elastic Constant Matrix: (Units=GPa)
#
#
# Indices 1 2 3 4 5 6 
#
# 1 78.1647 36.0993 6.0753 0.0000 -14.3428 0.0000
# 2 36.0993 156.8401 20.4802 0.0000 2.7131 0.0000
# 3 6.0753 20.4802 76.9550 -0.0002 -11.3060 0.0001
# 4 0.0000 0.0000 -0.0002 35.5609 0.0000 -3.4748
# 5 -14.3428 2.7131 -11.3060 0.0000 26.8745 0.0000
# 6 0.0000 0.0000 0.0001 -3.4748 0.0000 16.7685
#
#
#
# Elastic Compliance Matrix: (Units=1/GPa)
#
#
# Indices 1 2 3 4 5 6 
#
# 1 0.016360 -0.004091 0.001216 0.000000 0.009656 0.000000
# 2 -0.004091 0.007686 -0.002299 0.000000 -0.003927 0.000000
# 3 0.001216 -0.002299 0.014539 0.000000 0.006997 0.000000
# 4 0.000000 0.000000 0.000000 0.028702 0.000000 0.005948
# 5 0.009656 -0.003927 0.006997 0.000000 0.045704 0.000000
# 6 0.000000 0.000000 0.000000 0.005948 0.000000 0.060868
#
#
# Mechanical properties :
#
#
# Convention : Reuss Voigt Hill
#
# Bulk Modulus (GPa) = 35.41695 48.58550 42.00123
# Shear Modulus (GPa) = 25.82379 32.46111 29.14245
#
# Velocity S-wave (km/s) = 3.28803 3.68645 3.49293
# Velocity P-wave (km/s) = 5.40761 6.20163 5.81818
#
# Compressibility (1/GPa) = 0.02823506
#
# Stress axis : x y z
#
# Youngs Moduli (GPa) = 61.12318 130.10981 68.78245
#
# Poissons Ratio (x) = 0.53234 -0.08363
# Poissons Ratio (y) = 0.25008 0.15816
# Poissons Ratio (z) = -0.07432 0.29917
#
# Static dielectric constant tensor:
#      x y z
#    x 1.913200 0.000000 -0.038350 
#    y 0.000000 1.908630 0.000000 
#    z -0.038350 0.000000 2.030750 
# 
# From -- ./inp_files/96024.got.cif
#   From: 2010.05.17/outbox.cif.g08.bks.cpg/sg13_49_cif.got.tgz:96024.got - 2010.06.03 16:44:36.
