data_PCOD9231396
_publ_section_title
;
Structure prediction by ZEFSAII (Michael W. Deem and Ramdas Pophale) SiO2 
 PCOD9231396
Probable space group: P 2/C
;
_chemical_formula_sum "Si O2"
_cell_formula_units_Z 28
_cell_length_a 8.811295
_cell_length_b 18.674347
_cell_length_c 13.419736
_cell_angle_alpha 90.000000
_cell_angle_beta 143.353883
_cell_angle_gamma 90.000000
_cell_volume 1317.982118
_symmetry_space_group_name_H-M "P 2/C"
_symmetry_group_IT_number 13
_symmetry_cell_setting 'monoclinic'
loop_
_space_group_symop_operation_xyz
x,y,z
-x,y,1/2-z
-x,-y,-z
x,-y,1/2+z
loop_
_atom_site_type_symbol
_atom_site_label
_atom_site_fract_x
_atom_site_fract_y
_atom_site_fract_z
Si Si1 0.253787 0.755362 0.714920
Si Si2 0.500000 0.124942 0.250000
Si Si3 0.000000 0.829607 0.750000
Si Si4 0.293342 0.228646 0.889072
Si Si5 0.559622 0.652579 0.398726
Si Si6 0.505195 0.917544 0.974972
Si Si7 0.084042 0.396434 0.096654
Si Si8 0.839304 0.538892 0.266691
O O1 0.266713 0.820362 0.644509
O O2 0.027808 0.777344 0.670449
O O3 0.225917 0.677847 0.655546
O O4 0.514954 0.758734 0.916532
O O5 0.471226 0.083453 0.132658
O O6 0.758453 0.880762 0.630172
O O7 0.441703 0.275082 0.883830
O O8 0.000000 0.251698 0.750000
O O9 0.299367 0.141963 0.878503
O O10 0.500000 0.655322 0.250000
O O11 0.851130 0.626793 0.547051
O O12 0.404764 0.589182 0.370781
O O13 0.500000 0.000000 0.000000
O O14 0.228792 0.459693 0.229830
O O15 0.993974 0.426663 0.942179
O O16 0.000000 0.537534 0.250000
#
# Coordination Sequence:
#
# PCOD9231396 Si02
#       8
#     4   2   2   4   4   4   4   4
#     4  10  20  39  66  90 119 166 217 269 308 381
#     4   8  20  40  58  96 124 150 216 254 294 380
#     4   8  18  36  62  92 118 158 216 250 298 378
#     4  10  22  40  63  94 125 163 214 264 329 377
#     4  10  22  40  59  85 129 165 216 269 312 384
#     4  10  21  39  65  91 131 167 202 257 314 381
#     4  10  22  42  62  91 124 172 219 265 321 379
#     4  10  23  39  59  91 132 167 214 269 324 378
#
# _framework density 21.244596999999999
#
# number of rings (size 3 to 8) (size 9 to 14) (size 15 to 20)
#    0.000    2.571    0.000    2.143    4.000    7.429 
#   10.286    2.857    0.000    0.000    0.000    0.000 
#    0.000    0.000    0.000    0.000    0.000    0.000 
#
# Total GULP energy -156058.912818 kJ/mol
# GULP energy per Si atom -5573.532601 kJ/mol
# Density = 2.119624 g / cm^3
# Si number density = 21.244597 Si / 1000 Ang^3
#
#
#
# Elastic Constant Matrix: (Units=GPa)
#
#
# Indices 1 2 3 4 5 6 
#
# 1 128.5973 34.4050 14.3730 0.0000 -8.8988 0.0000
# 2 34.4050 164.7605 18.0748 0.0000 -19.6155 0.0000
# 3 14.3730 18.0748 36.8957 0.0000 7.6273 0.0000
# 4 0.0000 0.0000 0.0000 11.3815 0.0000 -7.9339
# 5 -8.8988 -19.6155 7.6273 0.0000 25.4086 0.0000
# 6 0.0000 0.0000 0.0000 -7.9339 0.0000 28.1293
#
#
#
# Elastic Compliance Matrix: (Units=1/GPa)
#
#
# Indices 1 2 3 4 5 6 
#
# 1 0.008679 -0.001026 -0.003564 0.000000 0.003317 0.000000
# 2 -0.001026 0.007639 -0.004784 0.000000 0.006974 0.000000
# 3 -0.003564 -0.004784 0.033965 0.000000 -0.015137 0.000000
# 4 0.000000 0.000000 0.000000 0.109364 0.000000 0.030846
# 5 0.003317 0.006974 -0.015137 0.000000 0.050446 0.000000
# 6 0.000000 0.000000 0.000000 0.030846 0.000000 0.044250
#
#
# Mechanical properties :
#
#
# Convention : Reuss Voigt Hill
#
# Bulk Modulus (GPa) = 31.71198 51.55103 41.63150
# Shear Modulus (GPa) = 17.63034 30.54393 24.08713
#
# Velocity S-wave (km/s) = 2.88388 3.79585 3.37085
# Velocity P-wave (km/s) = 5.10377 6.59769 5.89822
#
# Compressibility (1/GPa) = 0.03153383
#
# Stress axis : x y z
#
# Youngs Moduli (GPa) = 115.22528 130.91004 29.44243
#
# Poissons Ratio (x) = 0.13437 0.10492
# Poissons Ratio (y) = 0.11827 0.14085
# Poissons Ratio (z) = 0.41063 0.62627
#
# Static dielectric constant tensor:
#      x y z
#    x 1.822480 0.000000 0.021620 
#    y 0.000000 1.801860 0.000000 
#    z 0.021620 0.000000 1.831680 
# 
# From -- ./inp_files/48117.got.cif
#   From: 2010.05.17/outbox.cif.g08.bks.cpg/sg13_25_cif.got.tgz:48117.got - 2010.06.03 16:44:36.
