data_PCOD9231843
_publ_section_title
;
Structure prediction by ZEFSAII (Michael W. Deem and Ramdas Pophale) SiO2 
 PCOD9231843
Probable space group: P 2/C
;
_chemical_formula_sum "Si O2"
_cell_formula_units_Z 22
_cell_length_a 5.279635
_cell_length_b 12.640097
_cell_length_c 14.527749
_cell_angle_alpha 90.000000
_cell_angle_beta 85.040399
_cell_angle_gamma 90.000000
_cell_volume 965.880819
_symmetry_space_group_name_H-M "P 2/C"
_symmetry_group_IT_number 13
_symmetry_cell_setting 'monoclinic'
loop_
_space_group_symop_operation_xyz
x,y,z
-x,y,1/2-z
-x,-y,-z
x,-y,1/2+z
loop_
_atom_site_type_symbol
_atom_site_label
_atom_site_fract_x
_atom_site_fract_y
_atom_site_fract_z
Si Si1 0.335672 0.633761 0.344209
Si Si2 0.000000 0.806997 0.250000
Si Si3 0.767722 0.413902 0.188817
Si Si4 0.568244 0.810132 0.031993
Si Si5 0.104882 0.806535 0.909908
Si Si6 0.910714 0.970532 0.107395
O O1 0.500000 0.608607 0.250000
O O2 0.147403 0.722596 0.309465
O O3 0.242733 0.518066 0.376444
O O4 0.487436 0.700513 0.414049
O O5 0.924156 0.892006 0.332918
O O6 0.500000 0.398043 0.250000
O O7 0.831410 0.303437 0.139567
O O8 0.000000 0.438918 0.250000
O O9 0.332539 0.829636 0.974268
O O10 0.829257 0.793628 0.966220
O O11 0.648239 0.906213 0.097703
O O12 0.105909 0.913061 0.848978
O O13 0.000000 0.000000 0.000000
#
# Coordination Sequence:
#
# PCOD9231843 Si02
#       6
#     4   2   4   4   4   4
#     4  10  23  39  66  91 127 166 221 268 322 389
#     4  10  20  42  62  96 120 182 216 268 336 388
#     4  11  24  42  65  92 131 170 214 271 321 383
#     4  10  23  40  66  91 127 169 212 264 327 383
#     4  11  23  42  62  93 130 168 209 267 326 386
#     4   9  21  39  65  92 133 168 218 270 323 392
#
# _framework density 22.777137
#
# number of rings (size 3 to 8) (size 9 to 14) (size 15 to 20)
#    0.000    1.818    0.909    1.636    8.909    1.455 
#    3.273    0.909    0.000    0.000    0.000    0.000 
#    0.000    0.000    0.000    0.000    0.000    0.000 
#
# Total GULP energy -122486.904337 kJ/mol
# GULP energy per Si atom -5567.586561 kJ/mol
# Density = 2.272530 g / cm^3
# Si number density = 22.777137 Si / 1000 Ang^3
#
#
#
# Elastic Constant Matrix: (Units=GPa)
#
#
# Indices 1 2 3 4 5 6 
#
# 1 95.4221 4.0364 14.6481 0.0000 -4.9396 0.0000
# 2 4.0364 217.1404 31.2351 0.0000 -9.6543 0.0000
# 3 14.6481 31.2351 37.0357 0.0000 -2.0044 0.0000
# 4 0.0000 0.0000 0.0000 104.2362 0.0000 -15.5958
# 5 -4.9396 -9.6543 -2.0044 0.0000 20.8263 0.0000
# 6 0.0000 0.0000 0.0000 -15.5958 0.0000 22.6254
#
#
#
# Elastic Compliance Matrix: (Units=1/GPa)
#
#
# Indices 1 2 3 4 5 6 
#
# 1 0.011328 0.000598 -0.004850 0.000000 0.002497 0.000000
# 2 0.000598 0.005358 -0.004638 0.000000 0.002179 0.000000
# 3 -0.004850 -0.004638 0.032823 0.000000 -0.000141 0.000000
# 4 0.000000 0.000000 0.000000 0.010697 0.000000 0.007373
# 5 0.002497 0.002179 -0.000141 0.000000 0.049605 0.000000
# 6 0.000000 0.000000 0.000000 0.007373 0.000000 0.049281
#
#
# Mechanical properties :
#
#
# Convention : Reuss Voigt Hill
#
# Bulk Modulus (GPa) = 31.51524 49.93751 40.72637
# Shear Modulus (GPa) = 26.67420 49.51616 38.09518
#
# Velocity S-wave (km/s) = 3.42584 4.66761 4.09408
# Velocity P-wave (km/s) = 5.43276 7.14288 6.34570
#
# Compressibility (1/GPa) = 0.03173068
#
# Stress axis : x y z
#
# Youngs Moduli (GPa) = 88.27531 186.62974 30.46670
#
# Poissons Ratio (x) = -0.11162 0.14775
# Poissons Ratio (y) = -0.05279 0.14129
# Poissons Ratio (z) = 0.42811 0.86551
#
# Static dielectric constant tensor:
#      x y z
#    x 1.864210 0.000000 -0.009250 
#    y 0.000000 2.022190 0.000000 
#    z -0.009250 0.000000 1.943780 
# 
# From -- ./inp_files/43693.got.cif
#   From: 2010.05.17/outbox.cif.g08.bks.cpg/sg13_22_cif.got.tgz:43693.got - 2010.06.03 16:44:36.
