data_PCOD9231633
_publ_section_title
;
Structure prediction by ZEFSAII (Michael W. Deem and Ramdas Pophale) SiO2 
 PCOD9231633
Probable space group: P 2/C
;
_chemical_formula_sum "Si O2"
_cell_formula_units_Z 24
_cell_length_a 18.843880
_cell_length_b 9.122679
_cell_length_c 23.637064
_cell_angle_alpha 90.000000
_cell_angle_beta 16.323456
_cell_angle_gamma 90.000000
_cell_volume 1142.048904
_symmetry_space_group_name_H-M "P 2/C"
_symmetry_group_IT_number 13
_symmetry_cell_setting 'monoclinic'
loop_
_space_group_symop_operation_xyz
x,y,z
-x,y,1/2-z
-x,-y,-z
x,-y,1/2+z
loop_
_atom_site_type_symbol
_atom_site_label
_atom_site_fract_x
_atom_site_fract_y
_atom_site_fract_z
Si Si1 0.500000 0.630590 0.250000
Si Si2 0.973380 0.550841 0.428095
Si Si3 0.500000 0.111437 0.250000
Si Si4 0.829397 0.710967 0.652002
Si Si5 0.567152 0.955939 0.512073
Si Si6 0.985601 0.241048 0.824344
Si Si7 0.640749 0.134159 0.728877
O O1 0.252067 0.534235 0.431016
O O2 0.508131 0.737199 0.189502
O O3 0.853673 0.649884 0.569732
O O4 0.149711 0.431034 0.323431
O O5 0.100282 0.653246 0.284314
O O6 0.297337 0.205862 0.439262
O O7 0.358752 0.004844 0.313645
O O8 0.593307 0.813565 0.845589
O O9 0.079223 0.807983 0.472922
O O10 0.857116 0.909417 0.295587
O O11 0.500000 0.000000 0.500000
O O12 0.491571 0.084225 0.612591
O O13 0.000000 0.302128 0.750000
#
# Coordination Sequence:
#
# PCOD9231633 Si02
#       7
#     2   4   2   4   4   4   4
#     4   9  21  38  70  90 125 181 218 262 322 383
#     4  10  22  42  64  93 129 175 224 256 323 387
#     4  11  21  42  66  90 143 167 220 268 320 391
#     4  10  22  42  68  93 128 180 213 267 324 382
#     4  12  24  40  63 100 135 162 218 271 325 389
#     4  12  25  40  64 102 128 176 215 267 328 381
#     4  10  20  40  66  97 125 176 215 264 328 375
#
# _framework density 21.014861
#
# number of rings (size 3 to 8) (size 9 to 14) (size 15 to 20)
#    0.000    1.333    1.667    4.000    2.333    0.667 
#    3.000    0.000    0.000    0.000    0.000    0.000 
#    0.000    0.000    0.000    0.000    0.000    0.000 
#
# Total GULP energy -134265.000909 kJ/mol
# GULP energy per Si atom -5594.375038 kJ/mol
# Density = 2.096703 g / cm^3
# Si number density = 21.014861 Si / 1000 Ang^3
#
#
#
# Elastic Constant Matrix: (Units=GPa)
#
#
# Indices 1 2 3 4 5 6 
#
# 1 126.3745 35.2138 34.7285 0.0000 21.2363 0.0000
# 2 35.2138 76.9771 24.6785 0.0000 12.6061 0.0000
# 3 34.7285 24.6785 80.3677 0.0000 10.2039 0.0000
# 4 0.0000 0.0000 0.0000 20.0565 0.0000 0.8233
# 5 21.2363 12.6061 10.2039 0.0000 29.2435 0.0000
# 6 0.0000 0.0000 0.0000 0.8233 0.0000 39.0524
#
#
#
# Elastic Compliance Matrix: (Units=1/GPa)
#
#
# Indices 1 2 3 4 5 6 
#
# 1 0.010431 -0.002970 -0.002926 0.000000 -0.005274 0.000000
# 2 -0.002970 0.015954 -0.003156 0.000000 -0.003619 0.000000
# 3 -0.002926 -0.003156 0.014894 0.000000 -0.001712 0.000000
# 4 0.000000 0.000000 0.000000 0.049902 0.000000 -0.001052
# 5 -0.005274 -0.003619 -0.001712 0.000000 0.040183 0.000000
# 6 0.000000 0.000000 0.000000 -0.001052 0.000000 0.025629
#
#
# Mechanical properties :
#
#
# Convention : Reuss Voigt Hill
#
# Bulk Modulus (GPa) = 43.15064 52.55118 47.85091
# Shear Modulus (GPa) = 27.34917 30.27704 28.81310
#
# Velocity S-wave (km/s) = 3.61143 3.79983 3.70683
# Velocity P-wave (km/s) = 6.16181 6.65677 6.41407
#
# Compressibility (1/GPa) = 0.02317463
#
# Stress axis : x y z
#
# Youngs Moduli (GPa) = 95.87011 62.67991 67.14315
#
# Poissons Ratio (x) = 0.18616 0.19645
# Poissons Ratio (y) = 0.28474 0.21191
# Poissons Ratio (z) = 0.28050 0.19782
#
# Static dielectric constant tensor:
#      x y z
#    x 1.766220 0.000000 -0.018620 
#    y 0.000000 1.764810 0.000000 
#    z -0.018620 0.000000 1.730610 
# 
# From -- ./inp_files/88019.got.cif
#   From: 2010.05.17/outbox.cif.g08.bks.cpg/sg13_45_cif.got.tgz:88019.got - 2010.06.03 16:44:36.
