data_PCOD9231380
_publ_section_title
;
Structure prediction by ZEFSAII (Michael W. Deem and Ramdas Pophale) SiO2 
 PCOD9231380
Probable space group: P 2/C
;
_chemical_formula_sum "Si O2"
_cell_formula_units_Z 14
_cell_length_a 8.989523
_cell_length_b 14.031348
_cell_length_c 5.345684
_cell_angle_alpha 90.000000
_cell_angle_beta 60.084801
_cell_angle_gamma 90.000000
_cell_volume 584.440675
_symmetry_space_group_name_H-M "P 2/C"
_symmetry_group_IT_number 13
_symmetry_cell_setting 'monoclinic'
loop_
_space_group_symop_operation_xyz
x,y,z
-x,y,1/2-z
-x,-y,-z
x,-y,1/2+z
loop_
_atom_site_type_symbol
_atom_site_label
_atom_site_fract_x
_atom_site_fract_y
_atom_site_fract_z
Si Si1 0.660159 0.744990 0.439646
Si Si2 0.304460 0.538452 0.207357
Si Si3 0.000000 0.829869 0.250000
Si Si4 0.746543 0.060107 0.675927
O O1 0.500000 0.726252 0.750000
O O2 0.690127 0.651194 0.251317
O O3 0.834130 0.767196 0.449763
O O4 0.638974 0.843474 0.309501
O O5 0.223200 0.483636 0.506902
O O6 0.500000 0.500000 0.000000
O O7 0.936993 0.897181 0.077110
O O8 0.715256 0.009886 0.439094
#
# Coordination Sequence:
#
# PCOD9231380 Si02
#       4
#     4   4   2   4
#     4  10  21  40  65  96 125 166 217 263 308 387
#     4  10  20  39  65  88 123 169 204 261 330 364
#     4   8  22  40  64  92 130 166 216 252 322 368
#     4  10  22  42  64  91 134 171 205 261 320 372
#
# _framework density 23.954526999999999
#
# number of rings (size 3 to 8) (size 9 to 14) (size 15 to 20)
#    1.714    0.571    2.857    0.857    0.000    3.429 
#    0.000    1.429    0.000    0.000    0.000    0.000 
#    0.000    0.000    0.000    0.000    0.000    0.000 
#
# Total GULP energy -78104.127021 kJ/mol
# GULP energy per Si atom -5578.866216 kJ/mol
# Density = 2.390001 g / cm^3
# Si number density = 23.954527 Si / 1000 Ang^3
#
#
#
# Elastic Constant Matrix: (Units=GPa)
#
#
# Indices 1 2 3 4 5 6 
#
# 1 67.7883 0.7269 15.0138 0.0000 0.1994 0.0000
# 2 0.7269 148.1953 25.3260 0.0000 9.4118 0.0000
# 3 15.0138 25.3260 109.7107 0.0000 23.2427 0.0000
# 4 0.0000 0.0000 0.0000 -218.9372 0.0000 132.3696
# 5 0.1994 9.4118 23.2427 0.0000 24.2357 0.0000
# 6 0.0000 0.0000 0.0000 132.3696 0.0000 -75.1941
#
#
#
# Elastic Compliance Matrix: (Units=1/GPa)
#
#
# Indices 1 2 3 4 5 6 
#
# 1 0.015328 0.000229 -0.002642 0.000000 0.002318 0.000000
# 2 0.000229 0.007071 -0.001357 0.000000 -0.001446 0.000000
# 3 -0.002642 -0.001357 0.012140 0.000000 -0.011094 0.000000
# 4 0.000000 0.000000 0.000000 0.071010 0.000000 0.125004
# 5 0.002318 -0.001446 -0.011094 0.000000 0.052443 0.000000
# 6 0.000000 0.000000 0.000000 0.125004 0.000000 0.206755
#
#
# Mechanical properties :
#
#
# Convention : Reuss Voigt Hill
#
# Bulk Modulus (GPa) = 37.03895 45.31420 41.17658
# Shear Modulus (GPa) = 13.11353 -35.00396 -10.94522
#
# Velocity S-wave (km/s) = 2.34227 -3.82680 -2.13988
# Velocity P-wave (km/s) = 4.77606 0.75368 3.33487
#
# Compressibility (1/GPa) = 0.02699861
#
# Stress axis : x y z
#
# Youngs Moduli (GPa) = 65.24181 141.43265 82.37279
#
# Poissons Ratio (x) = -0.03239 0.21759
# Poissons Ratio (y) = -0.01494 0.11179
# Poissons Ratio (z) = 0.17234 0.19195
#
# Static dielectric constant tensor:
#      x y z
#    x 1.988130 0.000000 -0.051560 
#    y 0.000000 1.888230 0.000000 
#    z -0.051560 0.000000 1.832170 
# 
# From -- ./inp_files/871.got.cif
#   From: 2010.05.17/outbox.cif.g08.bks.cpg/sg13_1_cif.got.tgz:871.got - 2010.06.03 16:44:36.
