data_PCOD9231697
_publ_section_title
;
Structure prediction by ZEFSAII (Michael W. Deem and Ramdas Pophale) SiO2 
 PCOD9231697
Probable space group: P 2/C
;
_chemical_formula_sum "Si O2"
_cell_formula_units_Z 26
_cell_length_a 9.210836
_cell_length_b 7.461549
_cell_length_c 17.871428
_cell_angle_alpha 90.000000
_cell_angle_beta 102.428475
_cell_angle_gamma 90.000000
_cell_volume 1199.467958
_symmetry_space_group_name_H-M "P 2/C"
_symmetry_group_IT_number 13
_symmetry_cell_setting 'monoclinic'
loop_
_space_group_symop_operation_xyz
x,y,z
-x,y,1/2-z
-x,-y,-z
x,-y,1/2+z
loop_
_atom_site_type_symbol
_atom_site_label
_atom_site_fract_x
_atom_site_fract_y
_atom_site_fract_z
Si Si1 0.773590 0.084851 0.297266
Si Si2 0.538959 0.169926 0.390033
Si Si3 0.954774 0.975411 0.079928
Si Si4 0.576881 0.814673 0.181881
Si Si5 0.708999 0.677052 0.052123
Si Si6 0.000000 0.639944 0.750000
Si Si7 0.223486 0.330770 0.389284
O O1 0.651213 0.191217 0.332752
O O2 0.700341 0.947558 0.231025
O O3 0.890511 0.971599 0.358773
O O4 0.875474 0.232871 0.271256
O O5 0.517810 0.955103 0.379073
O O6 0.613737 0.233520 0.475257
O O7 0.378914 0.267087 0.369226
O O8 0.859001 0.148814 0.094945
O O9 0.853206 0.801446 0.076134
O O10 0.000000 0.000000 0.000000
O O11 0.500000 0.744262 0.250000
O O12 0.632200 0.678342 0.125760
O O13 0.739038 0.468277 0.039851
O O14 0.899130 0.557699 0.673595
#
# Coordination Sequence:
#
# PCOD9231697 Si02
#       7
#     4   4   4   4   4   2   4
#     4  10  20  40  71  94 126 180 223 263 336 394
#     4  11  21  42  67  96 131 176 219 274 329 395
#     4  11  23  43  67  96 132 174 213 276 335 392
#     4  10  21  38  66  95 125 172 219 264 329 389
#     4  12  24  42  67  99 135 169 224 275 334 397
#     4  10  20  42  58  94 134 166 218 276 324 392
#     4  11  25  40  68  95 131 176 221 273 336 394
#
# _framework density 21.676279000000001
#
# number of rings (size 3 to 8) (size 9 to 14) (size 15 to 20)
#    0.000    1.231    4.615    1.846    0.000    1.846 
#    2.769    0.000    0.000    0.000    0.000    0.000 
#    0.000    0.000    0.000    0.000    0.000    0.000 
#
# Total GULP energy -144939.816861 kJ/mol
# GULP energy per Si atom -5574.608341 kJ/mol
# Density = 2.162694 g / cm^3
# Si number density = 21.676279 Si / 1000 Ang^3
#
#
#
# Elastic Constant Matrix: (Units=GPa)
#
#
# Indices 1 2 3 4 5 6 
#
# 1 123.6347 30.7398 36.0516 0.0000 -3.6239 0.0000
# 2 30.7398 54.0290 1.9966 0.0000 -11.2251 0.0000
# 3 36.0516 1.9966 76.1663 0.0000 7.3105 0.0000
# 4 0.0000 0.0000 0.0000 8.3843 0.0000 5.9790
# 5 -3.6239 -11.2251 7.3105 0.0000 33.6562 0.0000
# 6 0.0000 0.0000 0.0000 5.9790 0.0000 -2.7001
#
#
#
# Elastic Compliance Matrix: (Units=1/GPa)
#
#
# Indices 1 2 3 4 5 6 
#
# 1 0.011098 -0.006066 -0.005121 0.000000 0.000284 0.000000
# 2 -0.006066 0.023307 0.001610 0.000000 0.006770 0.000000
# 3 -0.005121 0.001610 0.015843 0.000000 -0.003456 0.000000
# 4 0.000000 0.000000 0.000000 0.046245 0.000000 0.102404
# 5 0.000284 0.006770 -0.003456 0.000000 0.032751 0.000000
# 6 0.000000 0.000000 0.000000 0.102404 0.000000 -0.143600
#
#
# Mechanical properties :
#
#
# Convention : Reuss Voigt Hill
#
# Bulk Modulus (GPa) = 32.16061 43.48956 37.82508
# Shear Modulus (GPa) = 329.73599 20.20421 174.97010
#
# Velocity S-wave (km/s) = 12.34701 3.05632 8.99416
# Velocity P-wave (km/s) = 14.76935 5.70628 11.19588
#
# Compressibility (1/GPa) = 0.03109393
#
# Stress axis : x y z
#
# Youngs Moduli (GPa) = 90.10393 42.90559 63.12052
#
# Poissons Ratio (x) = 0.26027 0.32326
# Poissons Ratio (y) = 0.54658 -0.10165
# Poissons Ratio (z) = 0.46146 -0.06910
#
# Static dielectric constant tensor:
#      x y z
#    x 1.895170 0.000000 0.036020 
#    y 0.000000 1.816610 0.000000 
#    z 0.036020 0.000000 1.854590 
# 
# From -- ./inp_files/63855.got.cif
#   From: 2010.05.17/outbox.cif.g08.bks.cpg/sg13_32_cif.got.tgz:63855.got - 2010.06.03 16:44:36.
