data_PCOD9231418
_publ_section_title
;
Structure prediction by ZEFSAII (Michael W. Deem and Ramdas Pophale) SiO2 
 PCOD9231418
Probable space group: P 2/C
;
_chemical_formula_sum "Si O2"
_cell_formula_units_Z 28
_cell_length_a 8.562931
_cell_length_b 14.738827
_cell_length_c 16.950427
_cell_angle_alpha 90.000000
_cell_angle_beta 35.450945
_cell_angle_gamma 90.000000
_cell_volume 1240.790003
_symmetry_space_group_name_H-M "P 2/C"
_symmetry_group_IT_number 13
_symmetry_cell_setting 'monoclinic'
loop_
_space_group_symop_operation_xyz
x,y,z
-x,y,1/2-z
-x,-y,-z
x,-y,1/2+z
loop_
_atom_site_type_symbol
_atom_site_label
_atom_site_fract_x
_atom_site_fract_y
_atom_site_fract_z
Si Si1 0.207305 0.412947 0.724411
Si Si2 0.358465 0.047999 0.394764
Si Si3 0.576691 0.343383 0.127129
Si Si4 0.835292 0.320777 0.594777
Si Si5 0.229219 0.464434 0.016558
Si Si6 0.130316 0.862274 0.481342
Si Si7 0.224152 0.812917 0.723274
O O1 0.278858 0.366160 0.778660
O O2 0.493662 0.423143 0.562382
O O3 0.000000 0.364528 0.750000
O O4 0.023787 0.500886 0.827333
O O5 0.500000 0.047416 0.250000
O O6 0.544105 0.110615 0.372955
O O7 0.061921 0.091339 0.505352
O O8 0.318360 0.943395 0.434656
O O9 0.500000 0.342486 0.250000
O O10 0.644737 0.444795 0.073427
O O11 0.358726 0.286386 0.169010
O O12 0.862734 0.293990 0.003370
O O13 0.863181 0.395935 0.514177
O O14 0.720679 0.227495 0.608735
O O15 0.930737 0.826993 0.630891
O O16 0.000000 0.822304 0.750000
#
# Coordination Sequence:
#
# PCOD9231418 Si02
#       7
#     4   4   4   4   4   4   4
#     4  11  24  42  61  94 135 175 215 275 337 397
#     4   9  19  39  65  91 122 165 214 270 325 397
#     4  11  18  37  62  88 123 164 220 273 311 382
#     4  11  21  39  64  92 122 169 227 271 317 395
#     4  11  24  41  67  92 130 182 224 273 330 396
#     4  10  20  39  67  91 120 170 220 268 325 394
#     4  11  22  37  62 100 129 162 215 270 336 406
#
# _framework density 22.566268000000001
#
# number of rings (size 3 to 8) (size 9 to 14) (size 15 to 20)
#    0.000    1.429    2.857    4.714    0.000    2.286 
#    5.143    0.000    0.000    4.286    0.000    0.000 
#    0.000    0.000    0.000    0.000    0.000    0.000 
#
# Total GULP energy -156317.864788 kJ/mol
# GULP energy per Si atom -5582.780885 kJ/mol
# Density = 2.251491 g / cm^3
# Si number density = 22.566268 Si / 1000 Ang^3
#
#
#
# Elastic Constant Matrix: (Units=GPa)
#
#
# Indices 1 2 3 4 5 6 
#
# 1 97.9224 45.6038 9.1396 0.0000 -17.7994 0.0000
# 2 45.6038 157.1642 14.9960 0.0000 -2.1762 0.0000
# 3 9.1396 14.9960 74.1786 0.0000 -9.9591 0.0000
# 4 0.0000 0.0000 0.0000 19.1853 0.0000 -16.1309
# 5 -17.7994 -2.1762 -9.9591 0.0000 32.0989 0.0000
# 6 0.0000 0.0000 0.0000 -16.1309 0.0000 22.8096
#
#
#
# Elastic Compliance Matrix: (Units=1/GPa)
#
#
# Indices 1 2 3 4 5 6 
#
# 1 0.013246 -0.003753 0.000082 0.000000 0.007116 0.000000
# 2 -0.003753 0.007551 -0.001330 0.000000 -0.001982 0.000000
# 3 0.000082 -0.001330 0.014331 0.000000 0.004402 0.000000
# 4 0.000000 0.000000 0.000000 0.128576 0.000000 0.090929
# 5 0.007116 -0.001982 0.004402 0.000000 0.036331 0.000000
# 6 0.000000 0.000000 0.000000 0.090929 0.000000 0.108146
#
#
# Mechanical properties :
#
#
# Convention : Reuss Voigt Hill
#
# Bulk Modulus (GPa) = 39.79990 52.08267 45.94128
# Shear Modulus (GPa) = 15.31125 32.12045 23.71585
#
# Velocity S-wave (km/s) = 2.60763 3.77687 3.24534
# Velocity P-wave (km/s) = 5.17122 6.49227 5.86903
#
# Compressibility (1/GPa) = 0.02512569
#
# Stress axis : x y z
#
# Youngs Moduli (GPa) = 75.49617 132.42955 69.78006
#
# Poissons Ratio (x) = 0.49698 -0.00572
# Poissons Ratio (y) = 0.28332 0.09282
# Poissons Ratio (z) = -0.00619 0.17616
#
# Static dielectric constant tensor:
#      x y z
#    x 1.937950 0.000000 -0.047200 
#    y 0.000000 1.896490 0.000000 
#    z -0.047200 0.000000 1.900690 
# 
# From -- ./inp_files/64615.got.cif
#   From: 2010.05.17/outbox.cif.g08.bks.cpg/sg13_33_cif.got.tgz:64615.got - 2010.06.03 16:44:36.
