data_PCOD9231856
_publ_section_title
;
Structure prediction by ZEFSAII (Michael W. Deem and Ramdas Pophale) SiO2 
 PCOD9231856
Probable space group: P 2/C
;
_chemical_formula_sum "Si O2"
_cell_formula_units_Z 26
_cell_length_a 15.451231
_cell_length_b 9.391855
_cell_length_c 13.813852
_cell_angle_alpha 90.000000
_cell_angle_beta 43.038294
_cell_angle_gamma 90.000000
_cell_volume 1368.118307
_symmetry_space_group_name_H-M "P 2/C"
_symmetry_group_IT_number 13
_symmetry_cell_setting 'monoclinic'
loop_
_space_group_symop_operation_xyz
x,y,z
-x,y,1/2-z
-x,-y,-z
x,-y,1/2+z
loop_
_atom_site_type_symbol
_atom_site_label
_atom_site_fract_x
_atom_site_fract_y
_atom_site_fract_z
Si Si1 0.204079 0.049473 0.816616
Si Si2 0.765180 0.499059 0.386031
Si Si3 0.371715 0.449753 0.305088
Si Si4 0.605392 0.307858 0.869876
Si Si5 0.678096 0.748903 0.830840
Si Si6 0.042876 0.936677 0.114783
Si Si7 0.000000 0.663608 0.250000
O O1 0.301285 0.178980 0.731655
O O2 0.080587 0.079303 0.851795
O O3 0.269370 0.906327 0.724161
O O4 0.150588 0.015923 0.967281
O O5 0.721521 0.503540 0.532962
O O6 0.669686 0.598493 0.402240
O O7 0.755275 0.344762 0.345647
O O8 0.904079 0.567722 0.268245
O O9 0.500000 0.393554 0.250000
O O10 0.408042 0.586147 0.209960
O O11 0.316252 0.334836 0.275916
O O12 0.468217 0.254924 0.015854
O O13 0.078312 0.776572 0.120221
O O14 0.000000 0.010133 0.250000
#
# Coordination Sequence:
#
# PCOD9231856 Si02
#       7
#     4   4   4   4   4   4   2
#     4  11  22  40  62  91 122 162 200 248 313 362
#     4  11  21  41  61  90 122 160 205 253 298 361
#     4  11  20  39  62  84 124 164 200 247 306 357
#     4  11  21  40  63  88 128 160 194 256 308 363
#     4  11  23  37  62  95 123 156 204 253 306 363
#     4   9  21  42  62  80 124 162 203 248 299 357
#     4  10  20  42  64  86 116 170 204 254 294 364
#
# _framework density 19.004204999999999
#
# number of rings (size 3 to 8) (size 9 to 14) (size 15 to 20)
#    0.462    0.923    4.615    2.308    0.000    1.231 
#    6.923    3.077    0.000    0.000    0.000    0.000 
#    0.000    0.000    0.000    0.000    0.000    0.000 
#
# Total GULP energy -145138.427538 kJ/mol
# GULP energy per Si atom -5582.247213 kJ/mol
# Density = 1.896095 g / cm^3
# Si number density = 19.004205 Si / 1000 Ang^3
#
#
#
# Elastic Constant Matrix: (Units=GPa)
#
#
# Indices 1 2 3 4 5 6 
#
# 1 46.8356 3.3457 12.9774 0.0000 8.7442 0.0000
# 2 3.3457 64.9221 25.7752 0.0000 -9.5787 0.0000
# 3 12.9774 25.7752 86.1030 0.0000 22.9916 0.0000
# 4 0.0000 0.0000 0.0000 23.0502 0.0000 -10.5401
# 5 8.7442 -9.5787 22.9916 0.0000 19.4965 0.0000
# 6 0.0000 0.0000 0.0000 -10.5401 0.0000 11.1415
#
#
#
# Elastic Compliance Matrix: (Units=1/GPa)
#
#
# Indices 1 2 3 4 5 6 
#
# 1 0.023907 -0.003864 0.001348 0.000000 -0.014210 0.000000
# 2 -0.003864 0.027710 -0.017240 0.000000 0.035677 0.000000
# 3 0.001348 -0.017240 0.027725 0.000000 -0.041770 0.000000
# 4 0.000000 0.000000 0.000000 0.076458 0.000000 0.072332
# 5 -0.014210 0.035677 -0.041770 0.000000 0.124451 0.000000
# 6 0.000000 0.000000 0.000000 0.072332 0.000000 0.158182
#
#
# Mechanical properties :
#
#
# Convention : Reuss Voigt Hill
#
# Bulk Modulus (GPa) = 25.10577 31.33970 28.22273
# Shear Modulus (GPa) = 10.17870 21.12178 15.65024
#
# Velocity S-wave (km/s) = 2.31682 3.33742 2.87281
# Velocity P-wave (km/s) = 4.51621 5.60160 5.08793
#
# Compressibility (1/GPa) = 0.03983148
#
# Stress axis : x y z
#
# Youngs Moduli (GPa) = 41.82902 36.08741 36.06838
#
# Poissons Ratio (x) = 0.13943 -0.04861
# Poissons Ratio (y) = 0.16161 0.62180
# Poissons Ratio (z) = -0.05638 0.62213
#
# Static dielectric constant tensor:
#      x y z
#    x 1.653870 0.000000 0.012610 
#    y 0.000000 1.627170 0.000000 
#    z 0.012610 0.000000 1.676210 
# 
# From -- ./inp_files/53323.got.cif
#   From: 2010.05.17/outbox.cif.g08.bks.cpg/sg13_27_cif.got.tgz:53323.got - 2010.06.03 16:44:36.
