data_PCOD9231306
_publ_section_title
;
Structure prediction by ZEFSAII (Michael W. Deem and Ramdas Pophale) SiO2 
 PCOD9231306
Probable space group: P 2/C
;
_chemical_formula_sum "Si O2"
_cell_formula_units_Z 30
_cell_length_a 21.151023
_cell_length_b 13.672758
_cell_length_c 15.201013
_cell_angle_alpha 90.000000
_cell_angle_beta 19.126917
_cell_angle_gamma 90.000000
_cell_volume 1440.409030
_symmetry_space_group_name_H-M "P 2/C"
_symmetry_group_IT_number 13
_symmetry_cell_setting 'monoclinic'
loop_
_space_group_symop_operation_xyz
x,y,z
-x,y,1/2-z
-x,-y,-z
x,-y,1/2+z
loop_
_atom_site_type_symbol
_atom_site_label
_atom_site_fract_x
_atom_site_fract_y
_atom_site_fract_z
Si Si1 0.583056 0.144495 0.820679
Si Si2 0.924055 0.425694 0.028250
Si Si3 0.493101 0.654824 0.361680
Si Si4 0.321331 0.479088 0.300232
Si Si5 0.500000 0.047058 0.750000
Si Si6 0.219253 0.972428 0.873856
Si Si7 0.703042 0.683965 0.530059
Si Si8 0.193467 0.089393 0.612209
O O1 0.564811 0.260673 0.834946
O O2 0.585306 0.110353 0.716159
O O3 0.745911 0.090059 0.665527
O O4 0.392938 0.090611 0.106597
O O5 0.727455 0.372999 0.320803
O O6 0.863925 0.483047 0.018465
O O7 0.000000 0.500000 0.000000
O O8 0.104764 0.357690 0.768178
O O9 0.500000 0.684094 0.250000
O O10 0.636405 0.561576 0.182843
O O11 0.315270 0.372333 0.352823
O O12 0.500000 0.500000 0.000000
O O13 0.671906 0.972644 0.499499
O O14 0.215036 0.945358 0.982738
O O15 0.027866 0.934967 0.078155
O O16 0.739212 0.799336 0.480858
O O17 0.500000 0.662278 0.750000
#
# Coordination Sequence:
#
# PCOD9231306 Si02
#       8
#     4   4   4   4   2   4   4   4
#     4  10  20  39  62  89 123 169 207 262 325 385
#     4  11  24  42  63  94 132 167 218 266 321 390
#     4  11  22  41  67  92 132 177 213 268 334 394
#     4  10  23  39  63  92 128 167 212 265 323 388
#     4  10  20  40  58  90 126 154 206 258 322 368
#     4   9  21  37  61  88 123 160 213 264 313 386
#     4  12  23  39  65  95 127 169 214 271 321 382
#     4  10  21  37  62  91 121 160 208 265 318 377
#
# _framework density 20.827417000000001
#
# number of rings (size 3 to 8) (size 9 to 14) (size 15 to 20)
#    0.000    1.600    1.333    4.000    7.467    0.533 
#    0.000    1.333   11.733    0.000    0.000    0.000 
#    0.000    0.000    0.000    0.000    0.000    0.000 
#
# Total GULP energy -167207.837815 kJ/mol
# GULP energy per Si atom -5573.594594 kJ/mol
# Density = 2.078001 g / cm^3
# Si number density = 20.827417 Si / 1000 Ang^3
#
#
#
# Elastic Constant Matrix: (Units=GPa)
#
#
# Indices 1 2 3 4 5 6 
#
# 1 60.8761 13.1101 16.4532 0.0000 -20.4357 0.0000
# 2 13.1101 86.3346 25.5014 0.0000 -13.2727 0.0000
# 3 16.4532 25.5014 80.5520 0.0000 -10.5658 0.0000
# 4 0.0000 0.0000 0.0000 25.9512 0.0000 -10.8813
# 5 -20.4357 -13.2727 -10.5658 0.0000 36.8922 0.0000
# 6 0.0000 0.0000 0.0000 -10.8813 0.0000 24.4484
#
#
#
# Elastic Compliance Matrix: (Units=1/GPa)
#
#
# Indices 1 2 3 4 5 6 
#
# 1 0.020832 -0.000770 -0.002633 0.000000 0.010508 0.000000
# 2 -0.000770 0.013276 -0.003611 0.000000 0.003316 0.000000
# 3 -0.002633 -0.003611 0.014270 0.000000 0.001329 0.000000
# 4 0.000000 0.000000 0.000000 0.047375 0.000000 0.021085
# 5 0.010508 0.003316 0.001329 0.000000 0.034500 0.000000
# 6 0.000000 0.000000 0.000000 0.021085 0.000000 0.050287
#
#
# Mechanical properties :
#
#
# Convention : Reuss Voigt Hill
#
# Bulk Modulus (GPa) = 29.11223 37.54356 33.32790
# Shear Modulus (GPa) = 24.26985 28.97157 26.62071
#
# Velocity S-wave (km/s) = 3.41733 3.73370 3.57901
# Velocity P-wave (km/s) = 5.43866 6.05413 5.75463
#
# Compressibility (1/GPa) = 0.03434983
#
# Stress axis : x y z
#
# Youngs Moduli (GPa) = 48.00355 75.32359 70.07912
#
# Poissons Ratio (x) = 0.05801 0.18451
# Poissons Ratio (y) = 0.03697 0.25304
# Poissons Ratio (z) = 0.12639 0.27198
#
# Static dielectric constant tensor:
#      x y z
#    x 1.755580 0.000000 0.005080 
#    y 0.000000 1.817530 0.000000 
#    z 0.005080 0.000000 1.799620 
# 
# From -- ./inp_files/57815.got.cif
#   From: 2010.05.17/outbox.cif.g08.bks.cpg/sg13_29_cif.got.tgz:57815.got - 2010.06.03 16:44:36.
