data_PCOD9231922
_publ_section_title
;
Structure prediction by ZEFSAII (Michael W. Deem and Ramdas Pophale) SiO2 
 PCOD9231922
Probable space group: P 2/C
;
_chemical_formula_sum "Si O2"
_cell_formula_units_Z 26
_cell_length_a 8.812661
_cell_length_b 10.299200
_cell_length_c 15.061868
_cell_angle_alpha 90.000000
_cell_angle_beta 117.104510
_cell_angle_gamma 90.000000
_cell_volume 1216.930385
_symmetry_space_group_name_H-M "P 2/C"
_symmetry_group_IT_number 13
_symmetry_cell_setting 'monoclinic'
loop_
_space_group_symop_operation_xyz
x,y,z
-x,y,1/2-z
-x,-y,-z
x,-y,1/2+z
loop_
_atom_site_type_symbol
_atom_site_label
_atom_site_fract_x
_atom_site_fract_y
_atom_site_fract_z
Si Si1 0.500000 0.157288 0.250000
Si Si2 0.959244 0.278532 0.148037
Si Si3 0.150064 0.103276 0.059472
Si Si4 0.966705 0.543294 0.390406
Si Si5 0.605631 0.364030 0.128007
Si Si6 0.351966 0.652100 0.274687
Si Si7 0.277025 0.277502 0.936932
O O1 0.332343 0.083973 0.162190
O O2 0.581551 0.254950 0.198320
O O3 0.062032 0.413696 0.173852
O O4 0.763121 0.322464 0.105845
O O5 0.000000 0.204287 0.250000
O O6 0.038190 0.206481 0.085827
O O7 0.214576 0.161721 0.983055
O O8 0.000000 0.000000 0.000000
O O9 0.126792 0.618311 0.395489
O O10 0.000000 0.500000 0.500000
O O11 0.807955 0.634228 0.332343
O O12 0.611218 0.508937 0.171607
O O13 0.435617 0.347464 0.025300
O O14 0.500000 0.693900 0.250000
O O15 0.320306 0.750305 0.346800
#
# Coordination Sequence:
#
# PCOD9231922 Si02
#       7
#     2   4   4   4   4   4   4
#     4  10  20  42  70 100 132 170 234 288 330 416
#     4  12  21  39  68 101 130 177 226 273 332 409
#     4  11  25  46  73  96 131 181 236 292 345 396
#     4  12  22  37  62  96 140 181 216 265 338 416
#     4  11  21  36  67 102 130 174 225 269 333 415
#     4  12  23  35  59 100 146 176 211 264 343 419
#     4  11  24  40  63  98 137 173 221 281 337 404
#
# _framework density 21.36523
#
# number of rings (size 3 to 8) (size 9 to 14) (size 15 to 20)
#    0.000    0.615    6.923    1.846    2.154    0.000 
#    0.000    4.615    8.462    0.000    0.000    0.000 
#    0.000    0.000    0.000    0.000    0.000    0.000 
#
# Total GULP energy -145029.301394 kJ/mol
# GULP energy per Si atom -5578.050054 kJ/mol
# Density = 2.131660 g / cm^3
# Si number density = 21.365230 Si / 1000 Ang^3
#
#
#
# Elastic Constant Matrix: (Units=GPa)
#
#
# Indices 1 2 3 4 5 6 
#
# 1 159.2374 24.8736 53.5070 0.0000 -13.2623 0.0000
# 2 24.8736 36.1525 26.9318 0.0000 8.0474 0.0000
# 3 53.5070 26.9318 115.4706 0.0000 -12.7046 0.0000
# 4 0.0000 0.0000 0.0000 5.5174 0.0000 11.0752
# 5 -13.2623 8.0474 -12.7046 0.0000 43.8794 0.0000
# 6 0.0000 0.0000 0.0000 11.0752 0.0000 19.7855
#
#
#
# Elastic Compliance Matrix: (Units=1/GPa)
#
#
# Indices 1 2 3 4 5 6 
#
# 1 0.007963 -0.004216 -0.002434 0.000000 0.002475 0.000000
# 2 -0.004216 0.039246 -0.008399 0.000000 -0.010904 0.000000
# 3 -0.002434 -0.008399 0.012225 0.000000 0.004344 0.000000
# 4 0.000000 0.000000 0.000000 -1.466067 0.000000 0.820652
# 5 0.002475 -0.010904 0.004344 0.000000 0.026795 0.000000
# 6 0.000000 0.000000 0.000000 0.820652 0.000000 -0.408830
#
#
# Mechanical properties :
#
#
# Convention : Reuss Voigt Hill
#
# Bulk Modulus (GPa) = 34.08998 57.94280 46.01639
# Shear Modulus (GPa) = -2.85912 27.53966 12.34027
#
# Velocity S-wave (km/s) = -1.15807 3.59415 2.40591
# Velocity P-wave (km/s) = 3.76859 6.66355 5.41319
#
# Compressibility (1/GPa) = 0.02933413
#
# Stress axis : x y z
#
# Youngs Moduli (GPa) = 125.58823 25.48051 81.79864
#
# Poissons Ratio (x) = 0.10743 0.19910
# Poissons Ratio (y) = 0.52949 0.68707
# Poissons Ratio (z) = 0.30569 0.21402
#
# Static dielectric constant tensor:
#      x y z
#    x 1.776750 0.000000 -0.042030 
#    y 0.000000 1.742760 0.000000 
#    z -0.042030 0.000000 1.764000 
# 
# From -- ./inp_files/47040.got.cif
#   From: 2010.05.17/outbox.cif.g08.bks.cpg/sg13_24_cif.got.tgz:47040.got - 2010.06.03 16:44:36.
