data_PCOD9231875
_publ_section_title
;
Structure prediction by ZEFSAII (Michael W. Deem and Ramdas Pophale) SiO2 
 PCOD9231875
Probable space group: P 2/C
;
_chemical_formula_sum "Si O2"
_cell_formula_units_Z 28
_cell_length_a 13.579081
_cell_length_b 6.465036
_cell_length_c 18.688168
_cell_angle_alpha 90.000000
_cell_angle_beta 44.779923
_cell_angle_gamma 90.000000
_cell_volume 1155.629127
_symmetry_space_group_name_H-M "P 2/C"
_symmetry_group_IT_number 13
_symmetry_cell_setting 'monoclinic'
loop_
_space_group_symop_operation_xyz
x,y,z
-x,y,1/2-z
-x,-y,-z
x,-y,1/2+z
loop_
_atom_site_type_symbol
_atom_site_label
_atom_site_fract_x
_atom_site_fract_y
_atom_site_fract_z
Si Si1 0.500000 0.142676 0.250000
Si Si2 0.044262 0.962896 0.803752
Si Si3 0.000000 0.554814 0.750000
Si Si4 0.159575 0.732918 0.051015
Si Si5 0.586586 0.218399 0.605680
Si Si6 0.737545 0.292373 0.767386
Si Si7 0.269141 0.461032 0.360645
Si Si8 0.654027 0.508528 0.453012
O O1 0.421550 0.999413 0.348835
O O2 0.381693 0.290119 0.277211
O O3 0.177904 0.081323 0.764970
O O4 0.000000 0.055969 0.750000
O O5 0.908132 0.039546 0.917663
O O6 0.068609 0.729202 0.768658
O O7 0.925480 0.417837 0.850532
O O8 0.313009 0.692696 0.007238
O O9 0.163483 0.644853 0.969650
O O10 0.424264 0.256025 0.669257
O O11 0.646027 0.374369 0.634621
O O12 0.669013 0.293760 0.490702
O O13 0.798092 0.422064 0.670691
O O14 0.741090 0.421632 0.838716
O O15 0.500000 0.500000 0.500000
#
# Coordination Sequence:
#
# PCOD9231875 Si02
#       8
#     2   4   2   4   4   4   4   4
#     4  12  20  44  62  96 132 174 206 254 338 380
#     4  10  22  40  63  90 122 169 215 269 313 373
#     4  10  20  42  66  86 120 172 212 270 322 362
#     4  11  21  43  62  90 127 167 213 269 320 379
#     4  10  21  40  61  92 132 167 211 264 314 382
#     4  11  18  43  63  91 135 168 213 267 313 378
#     4  11  24  39  69  92 133 172 203 267 331 385
#     4   9  19  34  66  89 122 166 207 260 317 368
#
# _framework density 24.229227999999999
#
# number of rings (size 3 to 8) (size 9 to 14) (size 15 to 20)
#    0.429    1.143    5.000    0.000    0.000    2.857 
#    5.143    1.429    0.000    0.000    0.000    0.000 
#    0.000    0.000    0.000    0.000    0.000    0.000 
#
# Total GULP energy -155974.137565 kJ/mol
# GULP energy per Si atom -5570.504913 kJ/mol
# Density = 2.417408 g / cm^3
# Si number density = 24.229228 Si / 1000 Ang^3
#
#
#
# Elastic Constant Matrix: (Units=GPa)
#
#
# Indices 1 2 3 4 5 6 
#
# 1 62.0189 18.7472 3.2725 0.0000 15.3840 0.0000
# 2 18.7472 101.3400 8.8644 0.0000 0.4081 0.0000
# 3 3.2725 8.8644 53.7384 0.0000 12.5374 0.0000
# 4 0.0000 0.0000 0.0000 25.0801 0.0000 -0.5044
# 5 15.3840 0.4081 12.5374 0.0000 36.6869 0.0000
# 6 0.0000 0.0000 0.0000 -0.5044 0.0000 25.5019
#
#
#
# Elastic Compliance Matrix: (Units=1/GPa)
#
#
# Indices 1 2 3 4 5 6 
#
# 1 0.019268 -0.003654 0.001418 0.000000 -0.008524 0.000000
# 2 -0.003654 0.010713 -0.002037 0.000000 0.002109 0.000000
# 3 0.001418 -0.002037 0.020637 0.000000 -0.007625 0.000000
# 4 0.000000 0.000000 0.000000 0.039888 0.000000 0.000789
# 5 -0.008524 0.002109 -0.007625 0.000000 0.033414 0.000000
# 6 0.000000 0.000000 0.000000 0.000789 0.000000 0.039228
#
#
# Mechanical properties :
#
#
# Convention : Reuss Voigt Hill
#
# Bulk Modulus (GPa) = 23.76827 30.98506 27.37667
# Shear Modulus (GPa) = 26.92229 29.86798 28.39514
#
# Velocity S-wave (km/s) = 3.33701 3.51483 3.42707
# Velocity P-wave (km/s) = 4.96775 5.41185 5.19455
#
# Compressibility (1/GPa) = 0.04207290
#
# Stress axis : x y z
#
# Youngs Moduli (GPa) = 51.89884 93.34066 48.45636
#
# Poissons Ratio (x) = 0.34109 -0.06871
# Poissons Ratio (y) = 0.18965 0.09870
# Poissons Ratio (z) = -0.07359 0.19012
#
# Static dielectric constant tensor:
#      x y z
#    x 2.012720 0.000000 -0.153960 
#    y 0.000000 1.926460 0.000000 
#    z -0.153960 0.000000 2.200590 
# 
# From -- ./inp_files/79289.got.cif
#   From: 2010.05.17/outbox.cif.g08.bks.cpg/sg13_40_cif.got.tgz:79289.got - 2010.06.03 16:44:36.
