data_PCOD9231425
_publ_section_title
;
Structure prediction by ZEFSAII (Michael W. Deem and Ramdas Pophale) SiO2 
 PCOD9231425
Probable space group: P 2/C
;
_chemical_formula_sum "Si O2"
_cell_formula_units_Z 30
_cell_length_a 22.479070
_cell_length_b 13.586881
_cell_length_c 8.075596
_cell_angle_alpha 90.000000
_cell_angle_beta 32.372310
_cell_angle_gamma 90.000000
_cell_volume 1320.584569
_symmetry_space_group_name_H-M "P 2/C"
_symmetry_group_IT_number 13
_symmetry_cell_setting 'monoclinic'
loop_
_space_group_symop_operation_xyz
x,y,z
-x,y,1/2-z
-x,-y,-z
x,-y,1/2+z
loop_
_atom_site_type_symbol
_atom_site_label
_atom_site_fract_x
_atom_site_fract_y
_atom_site_fract_z
Si Si1 0.727365 0.686493 0.205158
Si Si2 0.587261 0.588755 0.795485
Si Si3 0.823567 0.498366 0.328142
Si Si4 0.101673 0.356926 0.627738
Si Si5 0.723533 0.799527 0.868131
Si Si6 0.886064 0.953599 0.621041
Si Si7 0.880451 0.845010 0.990737
Si Si8 0.500000 0.248944 0.750000
O O1 0.624165 0.632955 0.532654
O O2 0.814441 0.600258 0.960155
O O3 0.702899 0.740461 0.089383
O O4 0.784408 0.766082 0.191129
O O5 0.702223 0.549003 0.605942
O O6 0.500000 0.500000 0.000000
O O7 0.537178 0.677494 0.017658
O O8 0.846459 0.446492 0.100053
O O9 0.910860 0.583434 0.172272
O O10 0.189463 0.269513 0.435056
O O11 0.000000 0.322832 0.750000
O O12 0.786105 0.898808 0.764987
O O13 0.607588 0.811472 0.050051
O O14 0.892894 0.904560 0.786261
O O15 0.862577 0.070092 0.669170
O O16 0.000000 0.937148 0.250000
O O17 0.000000 0.798297 0.750000
#
# Coordination Sequence:
#
# PCOD9231425 Si02
#       8
#     4   4   4   4   4   4   4   2
#     4  10  23  41  59  88 128 161 205 263 312 377
#     4  12  23  40  61  83 119 163 213 262 311 366
#     4  11  21  39  54  85 117 161 209 249 308 369
#     4  11  21  37  54  82 120 159 202 252 312 371
#     4  10  23  41  60  89 123 164 212 260 318 366
#     4  10  20  39  67  98 132 166 204 258 315 386
#     4  10  21  39  66  99 129 168 206 255 319 379
#     4  12  24  38  62  86 114 154 216 262 300 372
#
# _framework density 22.717213000000001
#
# number of rings (size 3 to 8) (size 9 to 14) (size 15 to 20)
#    0.000    1.333    2.667    4.800    0.000    4.267 
#    7.200    0.000    0.000    8.800    0.000    0.000 
#    0.000    0.000    0.000    0.000    0.000    0.000 
#
# Total GULP energy -167770.004283 kJ/mol
# GULP energy per Si atom -5592.333476 kJ/mol
# Density = 2.266551 g / cm^3
# Si number density = 22.717213 Si / 1000 Ang^3
#
#
#
# Elastic Constant Matrix: (Units=GPa)
#
#
# Indices 1 2 3 4 5 6 
#
# 1 76.0556 33.3959 20.6520 0.0000 -42.8788 0.0000
# 2 33.3959 74.3027 26.0702 0.0000 -14.7227 0.0000
# 3 20.6520 26.0702 61.9105 0.0000 -22.7895 0.0000
# 4 0.0000 0.0000 0.0000 86.0264 0.0000 -76.1798
# 5 -42.8788 -14.7227 -22.7895 0.0000 49.9135 0.0000
# 6 0.0000 0.0000 0.0000 -76.1798 0.0000 108.0719
#
#
#
# Elastic Compliance Matrix: (Units=1/GPa)
#
#
# Indices 1 2 3 4 5 6 
#
# 1 0.030679 -0.009956 0.003100 0.000000 0.024834 0.000000
# 2 -0.009956 0.019182 -0.006998 0.000000 -0.006090 0.000000
# 3 0.003100 -0.006998 0.021980 0.000000 0.010634 0.000000
# 4 0.000000 0.000000 0.000000 0.030934 0.000000 0.021805
# 5 0.024834 -0.006090 0.010634 0.000000 0.044428 0.000000
# 6 0.000000 0.000000 0.000000 0.021805 0.000000 0.024623
#
#
# Mechanical properties :
#
#
# Convention : Reuss Voigt Hill
#
# Bulk Modulus (GPa) = 22.65889 41.38944 32.02417
# Shear Modulus (GPa) = 23.33783 57.61242 40.47512
#
# Velocity S-wave (km/s) = 3.20866 5.04140 4.22559
# Velocity P-wave (km/s) = 4.87066 7.22126 6.15914
#
# Compressibility (1/GPa) = 0.04413278
#
# Stress axis : x y z
#
# Youngs Moduli (GPa) = 32.59543 52.13242 45.49658
#
# Poissons Ratio (x) = 0.51903 -0.14104
# Poissons Ratio (y) = 0.32452 0.31839
# Poissons Ratio (z) = -0.10105 0.36483
#
# Static dielectric constant tensor:
#      x y z
#    x 2.018880 0.000000 0.111880 
#    y 0.000000 1.804420 0.000000 
#    z 0.111880 0.000000 1.923070 
# 
# From -- ./inp_files/24225.got.cif
#   From: 2010.05.17/outbox.cif.g08.bks.cpg/sg13_13_cif.got.tgz:24225.got - 2010.06.03 16:44:36.
