data_PCOD9231651
_publ_section_title
;
Structure prediction by ZEFSAII (Michael W. Deem and Ramdas Pophale) SiO2 
 PCOD9231651
Probable space group: P 2/C
;
_chemical_formula_sum "Si O2"
_cell_formula_units_Z 26
_cell_length_a 22.490656
_cell_length_b 8.573299
_cell_length_c 16.155944
_cell_angle_alpha 90.000000
_cell_angle_beta 22.132092
_cell_angle_gamma 90.000000
_cell_volume 1173.620838
_symmetry_space_group_name_H-M "P 2/C"
_symmetry_group_IT_number 13
_symmetry_cell_setting 'monoclinic'
loop_
_space_group_symop_operation_xyz
x,y,z
-x,y,1/2-z
-x,-y,-z
x,-y,1/2+z
loop_
_atom_site_type_symbol
_atom_site_label
_atom_site_fract_x
_atom_site_fract_y
_atom_site_fract_z
Si Si1 0.729315 0.365800 0.687297
Si Si2 0.000000 0.541826 0.250000
Si Si3 0.674435 0.019413 0.812319
Si Si4 0.500000 0.307832 0.250000
Si Si5 0.729656 0.039294 0.935333
Si Si6 0.500000 0.207528 0.750000
Si Si7 0.968785 0.848524 0.381104
Si Si8 0.580166 0.446117 0.511354
O O1 0.747688 0.186237 0.689844
O O2 0.554436 0.380762 0.875078
O O3 0.852822 0.432440 0.461821
O O4 0.723483 0.483428 0.773751
O O5 0.987234 0.666519 0.190478
O O6 0.677553 0.018599 0.907700
O O7 0.788496 0.879767 0.636137
O O8 0.500000 0.000000 0.000000
O O9 0.483550 0.408940 0.353253
O O10 0.349292 0.198942 0.433391
O O11 0.639913 0.904501 0.102449
O O12 0.914731 0.061420 0.707676
O O13 0.592521 0.313869 0.564973
O O14 0.000000 0.919261 0.250000
#
# Coordination Sequence:
#
# PCOD9231651 Si02
#       8
#     4   2   4   2   4   2   4   4
#     4  11  24  42  68  98 138 179 229 283 342 415
#     4  10  26  42  68  98 138 186 228 282 356 408
#     4  12  27  44  73 103 137 184 237 282 348 413
#     4  10  20  40  68 100 134 176 222 284 346 414
#     4  11  23  43  67 102 140 179 229 284 349 411
#     4  10  24  36  72 102 138 178 230 288 344 420
#     4  10  27  45  69  96 139 183 232 290 342 410
#     4  10  22  40  65 102 132 176 228 282 341 410
#
# _framework density 22.153663000000002
#
# number of rings (size 3 to 8) (size 9 to 14) (size 15 to 20)
#    0.462    0.923    1.538    2.308   14.000    0.000 
#    0.000    0.769    0.000    0.000    0.000    0.000 
#    0.000    0.000    0.000    0.000    0.000    0.000 
#
# Total GULP energy -145115.730249 kJ/mol
# GULP energy per Si atom -5581.374240 kJ/mol
# Density = 2.210324 g / cm^3
# Si number density = 22.153663 Si / 1000 Ang^3
#
#
#
# Elastic Constant Matrix: (Units=GPa)
#
#
# Indices 1 2 3 4 5 6 
#
# 1 59.6461 12.5063 20.2491 0.0000 -0.2547 0.0000
# 2 12.5063 115.7580 27.8206 0.0000 14.8559 0.0000
# 3 20.2491 27.8206 104.9208 0.0000 4.8032 0.0000
# 4 0.0000 0.0000 0.0000 63.4767 0.0000 -6.9480
# 5 -0.2547 14.8559 4.8032 0.0000 33.5095 0.0000
# 6 0.0000 0.0000 0.0000 -6.9480 0.0000 26.7676
#
#
#
# Elastic Compliance Matrix: (Units=1/GPa)
#
#
# Indices 1 2 3 4 5 6 
#
# 1 0.018138 -0.001344 -0.003199 0.000000 0.001192 0.000000
# 2 -0.001344 0.009823 -0.002160 0.000000 -0.004056 0.000000
# 3 -0.003199 -0.002160 0.010749 0.000000 -0.000608 0.000000
# 4 0.000000 0.000000 0.000000 0.016214 0.000000 0.004209
# 5 0.001192 -0.004056 -0.000608 0.000000 0.031736 0.000000
# 6 0.000000 0.000000 0.000000 0.004209 0.000000 0.038451
#
#
# Mechanical properties :
#
#
# Convention : Reuss Voigt Hill
#
# Bulk Modulus (GPa) = 39.51660 44.60853 42.06257
# Shear Modulus (GPa) = 34.02451 39.40069 36.71260
#
# Velocity S-wave (km/s) = 3.92323 4.22182 4.07526
# Velocity P-wave (km/s) = 6.19666 6.62908 6.41651
#
# Compressibility (1/GPa) = 0.02530582
#
# Stress axis : x y z
#
# Youngs Moduli (GPa) = 55.13166 101.79716 93.03325
#
# Poissons Ratio (x) = 0.13680 0.29760
# Poissons Ratio (y) = 0.07409 0.20093
# Poissons Ratio (z) = 0.17636 0.21986
#
# Static dielectric constant tensor:
#      x y z
#    x 1.804140 0.000000 0.078360 
#    y 0.000000 1.848840 0.000000 
#    z 0.078360 0.000000 1.775480 
# 
# From -- ./inp_files/71287.got.cif
#   From: 2010.05.17/outbox.cif.g08.bks.cpg/sg13_36_cif.got.tgz:71287.got - 2010.06.03 16:44:36.
