data_PCOD9231861
_publ_section_title
;
Structure prediction by ZEFSAII (Michael W. Deem and Ramdas Pophale) SiO2 
 PCOD9231861
Probable space group: P 2/C
;
_chemical_formula_sum "Si O2"
_cell_formula_units_Z 22
_cell_length_a 12.082745
_cell_length_b 5.757168
_cell_length_c 16.051420
_cell_angle_alpha 90.000000
_cell_angle_beta 56.776026
_cell_angle_gamma 90.000000
_cell_volume 934.054362
_symmetry_space_group_name_H-M "P 2/C"
_symmetry_group_IT_number 13
_symmetry_cell_setting 'monoclinic'
loop_
_space_group_symop_operation_xyz
x,y,z
-x,y,1/2-z
-x,-y,-z
x,-y,1/2+z
loop_
_atom_site_type_symbol
_atom_site_label
_atom_site_fract_x
_atom_site_fract_y
_atom_site_fract_z
Si Si1 0.772725 0.128563 0.860278
Si Si2 0.644266 0.738174 0.162169
Si Si3 0.000000 0.779047 0.750000
Si Si4 0.394562 0.547032 0.970074
Si Si5 0.396511 0.862229 0.686990
Si Si6 0.830912 0.511735 0.201807
O O1 0.834414 0.259936 0.755975
O O2 0.638120 0.019872 0.878693
O O3 0.734753 0.325892 0.941221
O O4 0.878712 0.932448 0.834839
O O5 0.500000 0.635829 0.250000
O O6 0.634857 0.690656 0.067692
O O7 0.778715 0.605927 0.134573
O O8 0.636982 0.978740 0.218178
O O9 0.048105 0.633887 0.811062
O O10 0.462570 0.741327 0.882440
O O11 0.500000 0.500000 0.000000
O O12 0.293204 0.652301 0.725081
#
# Coordination Sequence:
#
# PCOD9231861 Si02
#       6
#     4   4   2   4   4   4
#     4  10  21  39  68  99 129 182 234 289 329 406
#     4  11  23  38  62  99 142 183 213 271 356 424
#     4  10  22  40  70  94 132 188 246 276 350 400
#     4  12  22  42  67 107 144 174 233 289 340 414
#     4  10  21  39  63  96 136 181 218 270 359 411
#     4  10  20  42  64  93 135 179 233 276 341 420
#
# _framework density 23.553232000000001
#
# number of rings (size 3 to 8) (size 9 to 14) (size 15 to 20)
#    0.000    1.455    3.636    2.182    2.545    0.000 
#    0.000    0.909    0.000   15.273    0.000    0.000 
#    0.000    0.000    0.000    0.000    0.000    0.000 
#
# Total GULP energy -122541.061894 kJ/mol
# GULP energy per Si atom -5570.048268 kJ/mol
# Density = 2.349962 g / cm^3
# Si number density = 23.553232 Si / 1000 Ang^3
#
#
#
# Elastic Constant Matrix: (Units=GPa)
#
#
# Indices 1 2 3 4 5 6 
#
# 1 140.4879 47.4007 24.4539 0.0000 20.6200 0.0000
# 2 47.4007 59.1666 15.6853 0.0000 11.2269 0.0000
# 3 24.4539 15.6853 38.5533 0.0000 17.7526 0.0000
# 4 0.0000 0.0000 0.0000 29.8319 0.0000 3.5513
# 5 20.6200 11.2269 17.7526 0.0000 26.4402 0.0000
# 6 0.0000 0.0000 0.0000 3.5513 0.0000 57.6909
#
#
#
# Elastic Compliance Matrix: (Units=1/GPa)
#
#
# Indices 1 2 3 4 5 6 
#
# 1 0.010412 -0.007101 -0.001975 0.000000 -0.003779 0.000000
# 2 -0.007101 0.024108 -0.004546 0.000000 -0.001646 0.000000
# 3 -0.001975 -0.004546 0.039724 0.000000 -0.023201 0.000000
# 4 0.000000 0.000000 0.000000 0.033769 0.000000 -0.002079
# 5 -0.003779 -0.001646 -0.023201 0.000000 0.057045 0.000000
# 6 0.000000 0.000000 0.000000 -0.002079 0.000000 0.017462
#
#
# Mechanical properties :
#
#
# Convention : Reuss Voigt Hill
#
# Bulk Modulus (GPa) = 21.27700 45.92085 33.59892
# Shear Modulus (GPa) = 22.17975 32.83711 27.50843
#
# Velocity S-wave (km/s) = 3.07202 3.73790 3.42120
# Velocity P-wave (km/s) = 4.65148 6.17804 5.46829
#
# Compressibility (1/GPa) = 0.04699912
#
# Stress axis : x y z
#
# Youngs Moduli (GPa) = 96.03879 41.48002 25.17382
#
# Poissons Ratio (x) = 0.29455 0.04973
# Poissons Ratio (y) = 0.68198 0.11444
# Poissons Ratio (z) = 0.18972 0.18857
#
# Static dielectric constant tensor:
#      x y z
#    x 1.964480 0.000000 0.050370 
#    y 0.000000 1.965370 0.000000 
#    z 0.050370 0.000000 1.918940 
# 
# From -- ./inp_files/65306.got.cif
#   From: 2010.05.17/outbox.cif.g08.bks.cpg/sg13_33_cif.got.tgz:65306.got - 2010.06.03 16:44:36.
