data_PCOD9231463
_publ_section_title
;
Structure prediction by ZEFSAII (Michael W. Deem and Ramdas Pophale) SiO2 
 PCOD9231463
Probable space group: P 2/C
;
_chemical_formula_sum "Si O2"
_cell_formula_units_Z 24
_cell_length_a 14.650056
_cell_length_b 16.342838
_cell_length_c 12.526346
_cell_angle_alpha 90.000000
_cell_angle_beta 21.204126
_cell_angle_gamma 90.000000
_cell_volume 1084.750144
_symmetry_space_group_name_H-M "P 2/C"
_symmetry_group_IT_number 13
_symmetry_cell_setting 'monoclinic'
loop_
_space_group_symop_operation_xyz
x,y,z
-x,y,1/2-z
-x,-y,-z
x,-y,1/2+z
loop_
_atom_site_type_symbol
_atom_site_label
_atom_site_fract_x
_atom_site_fract_y
_atom_site_fract_z
Si Si1 0.106918 0.182191 0.428223
Si Si2 0.781818 0.096457 0.638955
Si Si3 0.944782 0.657933 0.184344
Si Si4 0.623855 0.929333 0.728255
Si Si5 0.490684 0.404880 0.482822
Si Si6 0.565886 0.262357 0.801386
O O1 0.905252 0.251771 0.675466
O O2 0.186149 0.142931 0.452497
O O3 0.035541 0.106940 0.429363
O O4 0.324968 0.228548 0.127938
O O5 0.750824 0.184013 0.613786
O O6 0.750572 0.018371 0.599310
O O7 0.577292 0.083236 0.956457
O O8 0.000000 0.663969 0.250000
O O9 0.696874 0.609528 0.414125
O O10 0.214903 0.621307 0.850923
O O11 0.500000 0.920376 0.750000
O O12 0.500000 0.500000 0.500000
O O13 0.371556 0.347094 0.706533
O O14 0.500000 0.275783 0.750000
#
# Coordination Sequence:
#
# PCOD9231463 Si02
#       6
#     4   4   4   4   4   4
#     4  10  22  38  60  90 126 168 217 278 324 394
#     4  10  20  40  56  86 129 159 223 272 325 390
#     4  11  24  42  71 101 134 178 221 272 341 402
#     4  10  22  35  59  88 124 173 216 273 332 388
#     4  11  24  46  68 102 141 169 220 283 332 407
#     4  10  22  40  63  89 123 174 218 268 335 401
#
# _framework density 22.124911000000001
#
# number of rings (size 3 to 8) (size 9 to 14) (size 15 to 20)
#    0.000    1.667    1.667    2.000    2.333    2.000 
#    0.000    1.667    0.000    0.000    0.000    0.000 
#    0.000    0.000    0.000    0.000    0.000    0.000 
#
# Total GULP energy -133918.334540 kJ/mol
# GULP energy per Si atom -5579.930606 kJ/mol
# Density = 2.207455 g / cm^3
# Si number density = 22.124911 Si / 1000 Ang^3
#
#
#
# Elastic Constant Matrix: (Units=GPa)
#
#
# Indices 1 2 3 4 5 6 
#
# 1 157.8136 59.4810 5.6662 0.0000 -14.7076 0.0000
# 2 59.4810 132.9325 13.1416 0.0000 -7.0190 0.0000
# 3 5.6662 13.1416 36.4108 0.0000 -12.5167 0.0000
# 4 0.0000 0.0000 0.0000 -51.4326 0.0000 -80.9986
# 5 -14.7076 -7.0190 -12.5167 0.0000 32.5209 0.0000
# 6 0.0000 0.0000 0.0000 -80.9986 0.0000 -36.0354
#
#
#
# Elastic Compliance Matrix: (Units=1/GPa)
#
#
# Indices 1 2 3 4 5 6 
#
# 1 0.007912 -0.003481 0.001149 0.000000 0.003269 0.000000
# 2 -0.003481 0.009346 -0.003088 0.000000 -0.000746 0.000000
# 3 0.001149 -0.003088 0.032672 0.000000 0.012428 0.000000
# 4 0.000000 0.000000 0.000000 0.007655 0.000000 -0.017207
# 5 0.003269 -0.000746 0.012428 0.000000 0.036850 0.000000
# 6 0.000000 0.000000 0.000000 -0.017207 0.000000 0.010926
#
#
# Mechanical properties :
#
#
# Convention : Reuss Voigt Hill
#
# Bulk Modulus (GPa) = 25.58161 53.74826 39.66494
# Shear Modulus (GPa) = 38.68988 5.60178 22.14583
#
# Velocity S-wave (km/s) = 4.18629 1.59292 3.16720
# Velocity P-wave (km/s) = 5.91220 5.26583 5.59835
#
# Compressibility (1/GPa) = 0.03909058
#
# Stress axis : x y z
#
# Youngs Moduli (GPa) = 126.38825 106.99512 30.60678
#
# Poissons Ratio (x) = 0.37248 -0.03517
# Poissons Ratio (y) = 0.43999 0.09451
# Poissons Ratio (z) = -0.14522 0.33039
#
# Static dielectric constant tensor:
#      x y z
#    x 1.811610 0.000000 -0.038100 
#    y 0.000000 1.806850 0.000000 
#    z -0.038100 0.000000 1.899130 
# 
# From -- ./inp_files/34730.got.cif
#   From: 2010.05.17/outbox.cif.g08.bks.cpg/sg13_18_cif.got.tgz:34730.got - 2010.06.03 16:44:36.
