data_PCOD9231967
_publ_section_title
;
Structure prediction by ZEFSAII (Michael W. Deem and Ramdas Pophale) SiO2 
 PCOD9231967
Probable space group: P 2/C
;
_chemical_formula_sum "Si O2"
_cell_formula_units_Z 26
_cell_length_a 11.278574
_cell_length_b 5.130339
_cell_length_c 17.091535
_cell_angle_alpha 90.000000
_cell_angle_beta 75.773072
_cell_angle_gamma 90.000000
_cell_volume 958.634287
_symmetry_space_group_name_H-M "P 2/C"
_symmetry_group_IT_number 13
_symmetry_cell_setting 'monoclinic'
loop_
_space_group_symop_operation_xyz
x,y,z
-x,y,1/2-z
-x,-y,-z
x,-y,1/2+z
loop_
_atom_site_type_symbol
_atom_site_label
_atom_site_fract_x
_atom_site_fract_y
_atom_site_fract_z
Si Si1 0.753203 0.502779 0.829917
Si Si2 0.000000 0.822439 0.750000
Si Si3 0.839368 0.466148 0.969145
Si Si4 0.519388 0.621745 0.601431
Si Si5 0.370159 0.282293 0.793129
Si Si6 0.343897 0.879532 0.456604
Si Si7 0.945918 0.176848 0.080582
O O1 0.783214 0.333660 0.902045
O O2 0.625183 0.658392 0.864174
O O3 0.715901 0.319158 0.765189
O O4 0.874006 0.664753 0.788434
O O5 0.037181 0.935558 0.833086
O O6 0.975126 0.555324 0.926960
O O7 0.767661 0.742933 0.982221
O O8 0.831085 0.305126 0.050527
O O9 0.585221 0.553986 0.673925
O O10 0.448364 0.654063 0.443753
O O11 0.587116 0.852869 0.547295
O O12 0.500000 0.152925 0.750000
O O13 0.302683 0.132750 0.872329
O O14 0.000000 0.000000 0.000000
#
# Coordination Sequence:
#
# PCOD9231967 Si02
#       7
#     4   2   4   4   4   4   4
#     4  10  20  43  63 102 141 185 246 303 375 448
#     4  10  22  42  78  98 138 196 244 314 380 446
#     4  10  23  40  69  98 141 186 234 310 367 455
#     4   9  22  40  66  98 142 187 246 298 364 439
#     4   8  18  37  59  92 134 181 230 296 351 430
#     4  10  21  40  67  99 133 193 233 299 370 431
#     4  10  23  46  68 102 144 188 252 311 373 445
#
# _framework density 27.121915000000001
#
# number of rings (size 3 to 8) (size 9 to 14) (size 15 to 20)
#    0.923    1.538    0.000    0.923    2.154    3.077 
#    5.538    8.462    0.000    0.000    0.000    0.000 
#    0.000    0.000    0.000    0.000    0.000    0.000 
#
# Total GULP energy -144836.039721 kJ/mol
# GULP energy per Si atom -5570.616912 kJ/mol
# Density = 2.706018 g / cm^3
# Si number density = 27.121915 Si / 1000 Ang^3
#
#
#
# Elastic Constant Matrix: (Units=GPa)
#
#
# Indices 1 2 3 4 5 6 
#
# 1 132.5041 37.0885 67.0214 0.0000 6.1340 0.0000
# 2 37.0885 113.7255 37.8611 0.0000 6.6430 0.0000
# 3 67.0214 37.8611 181.4741 0.0000 62.1544 0.0000
# 4 0.0000 0.0000 0.0000 9.6751 0.0000 -10.1638
# 5 6.1340 6.6430 62.1544 0.0000 66.4677 0.0000
# 6 0.0000 0.0000 0.0000 -10.1638 0.0000 33.3167
#
#
#
# Elastic Compliance Matrix: (Units=1/GPa)
#
#
# Indices 1 2 3 4 5 6 
#
# 1 0.010268 -0.002030 -0.004581 0.000000 0.003539 0.000000
# 2 -0.002030 0.009931 -0.001539 0.000000 0.000634 0.000000
# 3 -0.004581 -0.001539 0.010778 0.000000 -0.009502 0.000000
# 4 0.000000 0.000000 0.000000 0.152103 0.000000 0.046402
# 5 0.003539 0.000634 -0.009502 0.000000 0.023540 0.000000
# 6 0.000000 0.000000 0.000000 0.046402 0.000000 0.044171
#
#
# Mechanical properties :
#
#
# Convention : Reuss Voigt Hill
#
# Bulk Modulus (GPa) = 68.13853 79.07172 73.60512
# Shear Modulus (GPa) = 18.38351 40.94074 29.66213
#
# Velocity S-wave (km/s) = 2.60630 3.88945 3.31064
# Velocity P-wave (km/s) = 5.85104 7.02765 6.46617
#
# Compressibility (1/GPa) = 0.01467599
#
# Stress axis : x y z
#
# Youngs Moduli (GPa) = 97.38618 100.69832 92.78562
#
# Poissons Ratio (x) = 0.20447 0.42502
# Poissons Ratio (y) = 0.19774 0.14281
# Poissons Ratio (z) = 0.44609 0.15499
#
# Static dielectric constant tensor:
#      x y z
#    x 2.392580 0.000000 -0.094350 
#    y 0.000000 2.179840 0.000000 
#    z -0.094350 0.000000 2.441570 
# 
# From -- ./inp_files/65385.got.cif
#   From: 2010.05.17/outbox.cif.g08.bks.cpg/sg13_33_cif.got.tgz:65385.got - 2010.06.03 16:44:36.
