data_PCOD9231924
_publ_section_title
;
Structure prediction by ZEFSAII (Michael W. Deem and Ramdas Pophale) SiO2 
 PCOD9231924
Probable space group: P 2/C
;
_chemical_formula_sum "Si O2"
_cell_formula_units_Z 18
_cell_length_a 10.276144
_cell_length_b 12.212445
_cell_length_c 8.535216
_cell_angle_alpha 90.000000
_cell_angle_beta 132.883543
_cell_angle_gamma 90.000000
_cell_volume 784.867354
_symmetry_space_group_name_H-M "P 2/C"
_symmetry_group_IT_number 13
_symmetry_cell_setting 'monoclinic'
loop_
_space_group_symop_operation_xyz
x,y,z
-x,y,1/2-z
-x,-y,-z
x,-y,1/2+z
loop_
_atom_site_type_symbol
_atom_site_label
_atom_site_fract_x
_atom_site_fract_y
_atom_site_fract_z
Si Si1 0.803763 0.147450 0.149548
Si Si2 0.000000 0.487203 0.250000
Si Si3 0.250321 0.430847 0.702707
Si Si4 0.638688 0.011319 0.254916
Si Si5 0.567831 0.329667 0.129142
O O1 0.694882 0.245080 0.144102
O O2 0.000000 0.174329 0.250000
O O3 0.804118 0.063031 0.298278
O O4 0.704439 0.088787 0.919121
O O5 0.152514 0.417272 0.458390
O O6 0.094458 0.564049 0.201776
O O7 0.337218 0.551828 0.774267
O O8 0.398678 0.347209 0.877268
O O9 0.500000 0.078794 0.250000
O O10 0.500000 0.000000 0.000000
O O11 0.500000 0.305944 0.250000
#
# Coordination Sequence:
#
# PCOD9231924 Si02
#       5
#     4   2   4   4   4
#     4  11  23  42  76 107 141 185 246 300 362 433
#     4  10  20  42  70 100 136 200 240 302 352 418
#     4  10  22  42  71  99 151 189 242 292 365 420
#     4   9  20  44  69 101 134 184 225 294 367 427
#     4  11  23  43  67 110 147 197 233 298 364 437
#
# _framework density 22.933813000000001
#
# number of rings (size 3 to 8) (size 9 to 14) (size 15 to 20)
#    0.000    1.778    2.222    1.333    1.556    0.000 
#   12.000    0.000    7.333    0.000    0.000    0.000 
#    0.000    0.000    0.000    0.000    0.000    0.000 
#
# Total GULP energy -100303.811317 kJ/mol
# GULP energy per Si atom -5572.433962 kJ/mol
# Density = 2.288161 g / cm^3
# Si number density = 22.933813 Si / 1000 Ang^3
#
#
#
# Elastic Constant Matrix: (Units=GPa)
#
#
# Indices 1 2 3 4 5 6 
#
# 1 195.3791 68.7134 53.9501 0.0000 -12.7266 0.0000
# 2 68.7134 93.9692 51.6191 0.0000 -5.4159 0.0000
# 3 53.9501 51.6191 161.1442 0.0000 1.3520 0.0000
# 4 0.0000 0.0000 0.0000 -8.0960 0.0000 11.8025
# 5 -12.7266 -5.4159 1.3520 0.0000 46.2622 0.0000
# 6 0.0000 0.0000 0.0000 11.8025 0.0000 34.9162
#
#
#
# Elastic Compliance Matrix: (Units=1/GPa)
#
#
# Indices 1 2 3 4 5 6 
#
# 1 0.007079 -0.004593 -0.000911 0.000000 0.001436 0.000000
# 2 -0.004593 0.016019 -0.003600 0.000000 0.000717 0.000000
# 3 -0.000911 -0.003600 0.007671 0.000000 -0.000896 0.000000
# 4 0.000000 0.000000 0.000000 -0.082744 0.000000 0.027969
# 5 0.001436 0.000717 -0.000896 0.000000 0.022121 0.000000
# 6 0.000000 0.000000 0.000000 0.027969 0.000000 0.019186
#
#
# Mechanical properties :
#
#
# Convention : Reuss Voigt Hill
#
# Bulk Modulus (GPa) = 79.60496 88.78419 84.19458
# Shear Modulus (GPa) = 426.39836 33.03049 229.71442
#
# Velocity S-wave (km/s) = 13.65025 3.79918 10.01906
# Velocity P-wave (km/s) = 16.82929 7.61855 13.06268
#
# Compressibility (1/GPa) = 0.01256203
#
# Stress axis : x y z
#
# Youngs Moduli (GPa) = 141.27030 62.42538 130.35980
#
# Poissons Ratio (x) = 0.28673 0.11871
# Poissons Ratio (y) = 0.64887 0.46925
# Poissons Ratio (z) = 0.12864 0.22471
#
# Static dielectric constant tensor:
#      x y z
#    x 1.915760 0.000000 0.001040 
#    y 0.000000 1.935400 0.000000 
#    z 0.001040 0.000000 1.883720 
# 
# From -- ./inp_files/15676.got.cif
#   From: 2010.05.17/outbox.cif.g08.bks.cpg/sg13_8_cif.got.tgz:15676.got - 2010.06.03 16:44:36.
