data_PCOD9231953
_publ_section_title
;
Structure prediction by ZEFSAII (Michael W. Deem and Ramdas Pophale) SiO2 
 PCOD9231953
Probable space group: P 2/C
;
_chemical_formula_sum "Si O2"
_cell_formula_units_Z 20
_cell_length_a 17.696324
_cell_length_b 9.705377
_cell_length_c 9.517184
_cell_angle_alpha 90.000000
_cell_angle_beta 30.820791
_cell_angle_gamma 90.000000
_cell_volume 837.480129
_symmetry_space_group_name_H-M "P 2/C"
_symmetry_group_IT_number 13
_symmetry_cell_setting 'monoclinic'
loop_
_space_group_symop_operation_xyz
x,y,z
-x,y,1/2-z
-x,-y,-z
x,-y,1/2+z
loop_
_atom_site_type_symbol
_atom_site_label
_atom_site_fract_x
_atom_site_fract_y
_atom_site_fract_z
Si Si1 0.178601 0.422085 0.951814
Si Si2 0.500000 0.997757 0.750000
Si Si3 0.755065 0.203096 0.849296
Si Si4 0.824576 0.251215 0.045024
Si Si5 0.735412 0.833898 0.997614
Si Si6 0.000000 0.901525 0.750000
O O1 0.246201 0.360929 0.700633
O O2 0.200738 0.584162 0.917503
O O3 0.246785 0.316607 0.958028
O O4 0.000000 0.403268 0.250000
O O5 0.627456 0.894365 0.495292
O O6 0.575955 0.096746 0.743395
O O7 0.907290 0.155834 0.533903
O O8 0.747652 0.200518 0.027230
O O9 0.777400 0.186217 0.267144
O O10 0.000000 0.223226 0.750000
O O11 0.852435 0.930961 0.892595
#
# Coordination Sequence:
#
# PCOD9231953 Si02
#       6
#     4   2   4   4   4   2
#     4  10  20  42  73 105 141 169 227 299 348 407
#     4  12  32  48  70  90 164 184 236 276 356 388
#     4  11  23  46  66 107 134 193 222 292 333 426
#     4  11  21  39  76 109 137 166 230 300 355 399
#     4  11  23  46  66 107 134 193 222 292 333 426
#     4  10  22  44  72  96 134 172 254 268 334 400
#
# _framework density 23.881162
#
# number of rings (size 3 to 8) (size 9 to 14) (size 15 to 20)
#    0.000    1.200    6.000    1.200    0.000   14.400 
#    3.600    6.000    0.000    0.000    0.000    0.000 
#    0.000    0.000    0.000    0.000    0.000    0.000 
#
# Total GULP energy -111478.065397 kJ/mol
# GULP energy per Si atom -5573.903270 kJ/mol
# Density = 2.382681 g / cm^3
# Si number density = 23.881162 Si / 1000 Ang^3
#
#
#
# Elastic Constant Matrix: (Units=GPa)
#
#
# Indices 1 2 3 4 5 6 
#
# 1 174.1555 77.4995 32.6629 0.0000 9.2141 0.0000
# 2 77.4995 79.8205 47.3707 0.0000 -11.8148 0.0000
# 3 32.6629 47.3707 56.2025 0.0000 6.4544 0.0000
# 4 0.0000 0.0000 0.0000 2.2732 0.0000 -13.2355
# 5 9.2141 -11.8148 6.4544 0.0000 55.6722 0.0000
# 6 0.0000 0.0000 0.0000 -13.2355 0.0000 17.9839
#
#
#
# Elastic Compliance Matrix: (Units=1/GPa)
#
#
# Indices 1 2 3 4 5 6 
#
# 1 0.012964 -0.019436 0.009697 0.000000 -0.007395 0.000000
# 2 -0.019436 0.058147 -0.040034 0.000000 0.020198 0.000000
# 3 0.009697 -0.040034 0.047695 0.000000 -0.015631 0.000000
# 4 0.000000 0.000000 0.000000 -0.133909 0.000000 -0.098553
# 5 -0.007395 0.020198 -0.015631 0.000000 0.025285 0.000000
# 6 0.000000 0.000000 0.000000 -0.098553 0.000000 -0.016926
#
#
# Mechanical properties :
#
#
# Convention : Reuss Voigt Hill
#
# Bulk Modulus (GPa) = 51.92065 69.47164 60.69614
# Shear Modulus (GPa) = 50.39211 25.36221 37.87716
#
# Velocity S-wave (km/s) = 4.59859 3.26240 3.98687
# Velocity P-wave (km/s) = 7.06997 6.58367 6.83115
#
# Compressibility (1/GPa) = 0.01926016
#
# Stress axis : x y z
#
# Youngs Moduli (GPa) = 77.13904 17.19767 20.96644
#
# Poissons Ratio (x) = 0.33425 -0.20331
# Poissons Ratio (y) = 1.49927 0.83937
# Poissons Ratio (z) = -0.74801 0.68849
#
# Static dielectric constant tensor:
#      x y z
#    x 1.946780 0.000000 0.014690 
#    y 0.000000 2.021440 0.000000 
#    z 0.014690 0.000000 1.863550 
# 
# From -- ./inp_files/21702.got.cif
#   From: 2010.05.17/outbox.cif.g08.bks.cpg/sg13_11_cif.got.tgz:21702.got - 2010.06.03 16:44:36.
