data_PCOD9231264
_publ_section_title
;
Structure prediction by ZEFSAII (Michael W. Deem and Ramdas Pophale) SiO2 
 PCOD9231264
Probable space group: P 2/C
;
_chemical_formula_sum "Si O2"
_cell_formula_units_Z 24
_cell_length_a 21.525346
_cell_length_b 8.371691
_cell_length_c 16.324319
_cell_angle_alpha 90.000000
_cell_angle_beta 157.756308
_cell_angle_gamma 90.000000
_cell_volume 1113.570939
_symmetry_space_group_name_H-M "P 2/C"
_symmetry_group_IT_number 13
_symmetry_cell_setting 'monoclinic'
loop_
_space_group_symop_operation_xyz
x,y,z
-x,y,1/2-z
-x,-y,-z
x,-y,1/2+z
loop_
_atom_site_type_symbol
_atom_site_label
_atom_site_fract_x
_atom_site_fract_y
_atom_site_fract_z
Si Si1 0.643200 0.564123 0.469975
Si Si2 0.517064 0.357685 0.453880
Si Si3 0.678893 0.058477 0.246194
Si Si4 0.115929 0.763863 0.627097
Si Si5 0.975147 0.444454 0.806375
Si Si6 0.151764 0.766897 0.062661
O O1 0.544218 0.428189 0.397424
O O2 0.739125 0.660554 0.656318
O O3 0.787918 0.498640 0.589918
O O4 0.500000 0.661347 0.250000
O O5 0.500000 0.500000 0.500000
O O6 0.367273 0.231095 0.272229
O O7 0.688411 0.276383 0.688827
O O8 0.793431 0.094360 0.308195
O O9 0.781274 0.912777 0.412152
O O10 0.500000 0.000000 0.000000
O O11 0.024350 0.658031 0.446221
O O12 0.994949 0.806560 0.553353
O O13 0.000000 0.358858 0.750000
O O14 0.088774 0.604232 0.943369
#
# Coordination Sequence:
#
# PCOD9231264 Si02
#       6
#     4   4   4   4   4   4
#     4  11  23  35  63  97 122 159 209 269 314 362
#     4  11  19  37  61  91 124 156 208 259 310 374
#     4  10  22  33  64  93 121 168 205 254 329 378
#     4  11  20  43  62  90 126 165 216 263 311 377
#     4  11  23  39  66  93 122 165 218 264 313 374
#     4  10  20  39  60  89 124 164 206 254 318 378
#
# _framework density 21.552287
#
# number of rings (size 3 to 8) (size 9 to 14) (size 15 to 20)
#    0.000    1.333    5.000    1.500    4.667    0.000 
#    0.000    0.833    0.000    6.000    0.000    0.000 
#    0.000    0.000    0.000    0.000    0.000    0.000 
#
# Total GULP energy -133852.289200 kJ/mol
# GULP energy per Si atom -5577.178717 kJ/mol
# Density = 2.150323 g / cm^3
# Si number density = 21.552287 Si / 1000 Ang^3
#
#
#
# Elastic Constant Matrix: (Units=GPa)
#
#
# Indices 1 2 3 4 5 6 
#
# 1 58.3008 17.8509 16.0128 0.0000 1.0801 0.0000
# 2 17.8509 80.9722 20.7352 0.0000 18.7267 0.0000
# 3 16.0128 20.7352 116.3099 0.0000 7.2652 0.0000
# 4 0.0000 0.0000 0.0000 7.3422 0.0000 25.0323
# 5 1.0801 18.7267 7.2652 0.0000 23.0925 0.0000
# 6 0.0000 0.0000 0.0000 25.0323 0.0000 25.3155
#
#
#
# Elastic Compliance Matrix: (Units=1/GPa)
#
#
# Indices 1 2 3 4 5 6 
#
# 1 0.019010 -0.004446 -0.002034 0.000000 0.003357 0.000000
# 2 -0.004446 0.016701 -0.001563 0.000000 -0.012844 0.000000
# 3 -0.002034 -0.001563 0.009253 0.000000 -0.001549 0.000000
# 4 0.000000 0.000000 0.000000 -0.057438 0.000000 0.056796
# 5 0.003357 -0.012844 -0.001549 0.000000 0.054050 0.000000
# 6 0.000000 0.000000 0.000000 0.056796 0.000000 -0.016659
#
#
# Mechanical properties :
#
#
# Convention : Reuss Voigt Hill
#
# Bulk Modulus (GPa) = 34.62925 40.53118 37.58022
# Shear Modulus (GPa) = 98.75593 24.54896 61.65245
#
# Velocity S-wave (km/s) = 6.77651 3.37863 5.35426
# Velocity P-wave (km/s) = 8.79377 5.83669 7.46316
#
# Compressibility (1/GPa) = 0.02887732
#
# Stress axis : x y z
#
# Youngs Moduli (GPa) = 52.60292 59.87749 108.07143
#
# Poissons Ratio (x) = 0.26623 0.21984
# Poissons Ratio (y) = 0.23389 0.16891
# Poissons Ratio (z) = 0.10701 0.09358
#
# Static dielectric constant tensor:
#      x y z
#    x 1.811110 0.000000 -0.039190 
#    y 0.000000 1.939610 0.000000 
#    z -0.039190 0.000000 1.819450 
# 
# From -- ./inp_files/71084.got.cif
#   From: 2010.05.17/outbox.cif.g08.bks.cpg/sg13_36_cif.got.tgz:71084.got - 2010.06.03 16:44:36.
