data_PCOD9231341
_publ_section_title
;
Structure prediction by ZEFSAII (Michael W. Deem and Ramdas Pophale) SiO2 
 PCOD9231341
Probable space group: P 2/C
;
_chemical_formula_sum "Si O2"
_cell_formula_units_Z 20
_cell_length_a 15.115701
_cell_length_b 7.640751
_cell_length_c 20.727644
_cell_angle_alpha 90.000000
_cell_angle_beta 23.797394
_cell_angle_gamma 90.000000
_cell_volume 965.965868
_symmetry_space_group_name_H-M "P 2/C"
_symmetry_group_IT_number 13
_symmetry_cell_setting 'monoclinic'
loop_
_space_group_symop_operation_xyz
x,y,z
-x,y,1/2-z
-x,-y,-z
x,-y,1/2+z
loop_
_atom_site_type_symbol
_atom_site_label
_atom_site_fract_x
_atom_site_fract_y
_atom_site_fract_z
Si Si1 0.906472 0.805578 0.562780
Si Si2 0.569607 0.765599 0.592106
Si Si3 0.262002 0.354296 0.200326
Si Si4 0.041524 0.294671 0.837937
Si Si5 0.222461 0.967426 0.638939
O O1 0.645126 0.802355 0.721755
O O2 0.912698 0.723998 0.630384
O O3 0.029123 0.706439 0.423744
O O4 0.000000 0.000000 0.500000
O O5 0.618396 0.941938 0.518824
O O6 0.794474 0.709240 0.474751
O O7 0.475626 0.625546 0.603066
O O8 0.168565 0.530896 0.233992
O O9 0.306490 0.202991 0.119092
O O10 0.156704 0.120863 0.733275
O O11 0.000000 0.919822 0.750000
#
# Coordination Sequence:
#
# PCOD9231341 Si02
#       5
#     4   4   4   4   4
#     4  10  20  39  64  86 122 163 199 257 309 359
#     4   9  22  37  63  90 123 162 201 257 304 363
#     4  10  22  37  64  86 123 158 203 251 303 368
#     4  11  20  40  62  88 125 160 202 253 307 358
#     4  10  21  39  61  89 122 160 205 252 304 367
#
# _framework density 20.704667000000001
#
# number of rings (size 3 to 8) (size 9 to 14) (size 15 to 20)
#    1.200    0.800    2.000    1.800    0.000    3.200 
#    0.000    8.000    0.000    0.000    0.000    0.000 
#    0.000    0.000    0.000    0.000    0.000    0.000 
#
# Total GULP energy -111534.850770 kJ/mol
# GULP energy per Si atom -5576.742538 kJ/mol
# Density = 2.065754 g / cm^3
# Si number density = 20.704667 Si / 1000 Ang^3
#
#
#
# Elastic Constant Matrix: (Units=GPa)
#
#
# Indices 1 2 3 4 5 6 
#
# 1 53.5729 25.3142 -3.9054 0.0000 -5.3940 0.0000
# 2 25.3142 91.9304 13.1666 0.0000 -10.5497 0.0000
# 3 -3.9054 13.1666 57.7890 0.0000 4.3893 0.0000
# 4 0.0000 0.0000 0.0000 18.7172 0.0000 -0.6162
# 5 -5.3940 -10.5497 4.3893 0.0000 31.4774 0.0000
# 6 0.0000 0.0000 0.0000 -0.6162 0.0000 26.0270
#
#
#
# Elastic Compliance Matrix: (Units=1/GPa)
#
#
# Indices 1 2 3 4 5 6 
#
# 1 0.021982 -0.006314 0.002829 0.000000 0.001256 0.000000
# 2 -0.006314 0.013627 -0.003837 0.000000 0.004020 0.000000
# 3 0.002829 -0.003837 0.018628 0.000000 -0.003399 0.000000
# 4 0.000000 0.000000 0.000000 0.053468 0.000000 0.001266
# 5 0.001256 0.004020 -0.003399 0.000000 0.033805 0.000000
# 6 0.000000 0.000000 0.000000 0.001266 0.000000 0.038452
#
#
# Mechanical properties :
#
#
# Convention : Reuss Voigt Hill
#
# Bulk Modulus (GPa) = 25.25695 30.27147 27.76421
# Shear Modulus (GPa) = 24.06099 26.49212 25.27656
#
# Velocity S-wave (km/s) = 3.41266 3.58092 3.49781
# Velocity P-wave (km/s) = 5.26816 5.63469 5.45450
#
# Compressibility (1/GPa) = 0.03959306
#
# Stress axis : x y z
#
# Youngs Moduli (GPa) = 45.49102 73.38182 53.68306
#
# Poissons Ratio (x) = 0.46334 -0.15186
# Poissons Ratio (y) = 0.28723 0.20598
# Poissons Ratio (z) = -0.12868 0.28156
#
# Static dielectric constant tensor:
#      x y z
#    x 1.760480 0.000000 0.018170 
#    y 0.000000 1.699750 0.000000 
#    z 0.018170 0.000000 1.759950 
# 
# From -- ./inp_files/67908.got.cif
#   From: 2010.05.17/outbox.cif.g08.bks.cpg/sg13_34_cif.got.tgz:67908.got - 2010.06.03 16:44:36.
