data_PCOD9231741
_publ_section_title
;
Structure prediction by ZEFSAII (Michael W. Deem and Ramdas Pophale) SiO2 
 PCOD9231741
Probable space group: P 2/C
;
_chemical_formula_sum "Si O2"
_cell_formula_units_Z 28
_cell_length_a 10.478478
_cell_length_b 17.160304
_cell_length_c 8.117237
_cell_angle_alpha 90.000000
_cell_angle_beta 62.509701
_cell_angle_gamma 90.000000
_cell_volume 1294.787816
_symmetry_space_group_name_H-M "P 2/C"
_symmetry_group_IT_number 13
_symmetry_cell_setting 'monoclinic'
loop_
_space_group_symop_operation_xyz
x,y,z
-x,y,1/2-z
-x,-y,-z
x,-y,1/2+z
loop_
_atom_site_type_symbol
_atom_site_label
_atom_site_fract_x
_atom_site_fract_y
_atom_site_fract_z
Si Si1 0.545099 0.695998 0.914781
Si Si2 0.838149 0.957143 0.769527
Si Si3 0.839959 0.117283 0.904752
Si Si4 0.843159 0.579031 0.309181
Si Si5 0.247329 0.262144 0.710874
Si Si6 0.651054 0.833577 0.062072
Si Si7 0.343250 0.454449 0.268725
O O1 0.500000 0.700648 0.750000
O O2 0.627996 0.614275 0.880393
O O3 0.401543 0.695871 0.109624
O O4 0.625339 0.772397 0.929720
O O5 0.839848 0.920942 0.585671
O O6 0.000000 0.952862 0.750000
O O7 0.792906 0.047787 0.809240
O O8 0.725823 0.909151 0.945152
O O9 0.756752 0.198207 0.932825
O O10 0.000000 0.137794 0.750000
O O11 0.861724 0.666736 0.230907
O O12 0.746328 0.525422 0.250200
O O13 0.753749 0.583217 0.531069
O O14 0.000000 0.544159 0.250000
O O15 0.242415 0.210173 0.875916
O O16 0.500000 0.847186 0.250000
O O17 0.500000 0.475961 0.250000
#
# Coordination Sequence:
#
# PCOD9231741 Si02
#       7
#     4   4   4   4   4   4   4
#     4  10  20  41  63  91 124 167 221 271 320 406
#     4  11  22  40  66  96 130 174 222 269 332 405
#     4  11  22  40  66  94 135 172 218 273 334 403
#     4  12  26  43  67  98 137 170 223 286 343 398
#     4  11  22  40  64  93 129 173 219 271 335 393
#     4  10  23  40  65  95 134 169 226 270 334 391
#     4  11  24  44  69  95 130 176 230 266 347 410
#
# _framework density 21.625164999999999
#
# number of rings (size 3 to 8) (size 9 to 14) (size 15 to 20)
#    0.000    1.143    2.857    5.571    2.000    0.571 
#    0.000    7.143    0.000    0.000    0.000    0.000 
#    0.000    0.000    0.000    0.000    0.000    0.000 
#
# Total GULP energy -156451.012401 kJ/mol
# GULP energy per Si atom -5587.536157 kJ/mol
# Density = 2.157595 g / cm^3
# Si number density = 21.625165 Si / 1000 Ang^3
#
#
#
# Elastic Constant Matrix: (Units=GPa)
#
#
# Indices 1 2 3 4 5 6 
#
# 1 79.4083 47.6720 15.9063 0.0000 -12.4015 0.0000
# 2 47.6720 140.4910 21.4919 0.0000 -3.7070 0.0000
# 3 15.9063 21.4919 73.0246 0.0000 -2.2993 0.0000
# 4 0.0000 0.0000 0.0000 39.0948 0.0000 3.5660
# 5 -12.4015 -3.7070 -2.2993 0.0000 28.0810 0.0000
# 6 0.0000 0.0000 0.0000 3.5660 0.0000 31.6426
#
#
#
# Elastic Compliance Matrix: (Units=1/GPa)
#
#
# Indices 1 2 3 4 5 6 
#
# 1 0.017273 -0.005382 -0.001966 0.000000 0.006757 0.000000
# 2 -0.005382 0.009149 -0.001561 0.000000 -0.001297 0.000000
# 3 -0.001966 -0.001561 0.014585 0.000000 0.000120 0.000000
# 4 0.000000 0.000000 0.000000 0.025844 0.000000 -0.002913
# 5 0.006757 -0.001297 0.000120 0.000000 0.038434 0.000000
# 6 0.000000 0.000000 0.000000 -0.002913 0.000000 0.031931
#
#
# Mechanical properties :
#
#
# Convention : Reuss Voigt Hill
#
# Bulk Modulus (GPa) = 43.12289 51.45158 47.28724
# Shear Modulus (GPa) = 30.71911 33.62060 32.16986
#
# Velocity S-wave (km/s) = 3.77308 3.94724 3.86114
# Velocity P-wave (km/s) = 6.24226 6.67970 6.46468
#
# Compressibility (1/GPa) = 0.02318954
#
# Stress axis : x y z
#
# Youngs Moduli (GPa) = 57.89265 109.30375 68.56169
#
# Poissons Ratio (x) = 0.58830 0.13477
# Poissons Ratio (y) = 0.31159 0.10703
# Poissons Ratio (z) = 0.11380 0.17063
#
# Static dielectric constant tensor:
#      x y z
#    x 1.843690 0.000000 0.024980 
#    y 0.000000 1.811530 0.000000 
#    z 0.024980 0.000000 1.783800 
# 
# From -- ./inp_files/16674.got.cif
#   From: 2010.05.17/outbox.cif.g08.bks.cpg/sg13_9_cif.got.tgz:16674.got - 2010.06.03 16:44:36.
