data_PCOD9231932
_publ_section_title
;
Structure prediction by ZEFSAII (Michael W. Deem and Ramdas Pophale) SiO2 
 PCOD9231932
Probable space group: P 2/C
;
_chemical_formula_sum "Si O2"
_cell_formula_units_Z 28
_cell_length_a 13.927007
_cell_length_b 8.473410
_cell_length_c 20.509853
_cell_angle_alpha 90.000000
_cell_angle_beta 31.305878
_cell_angle_gamma 90.000000
_cell_volume 1257.631371
_symmetry_space_group_name_H-M "P 2/C"
_symmetry_group_IT_number 13
_symmetry_cell_setting 'monoclinic'
loop_
_space_group_symop_operation_xyz
x,y,z
-x,y,1/2-z
-x,-y,-z
x,-y,1/2+z
loop_
_atom_site_type_symbol
_atom_site_label
_atom_site_fract_x
_atom_site_fract_y
_atom_site_fract_z
Si Si1 0.500000 0.739959 0.250000
Si Si2 0.747856 0.746456 0.867894
Si Si3 0.444221 0.687993 0.133967
Si Si4 0.784850 0.982771 0.607739
Si Si5 0.071604 0.550741 0.281796
Si Si6 0.547599 0.929358 0.870363
Si Si7 0.829224 0.793672 0.453299
Si Si8 0.000000 0.988914 0.250000
O O1 0.477326 0.654794 0.192208
O O2 0.320810 0.857077 0.353455
O O3 0.891357 0.633745 0.747684
O O4 0.644202 0.845002 0.873702
O O5 0.838546 0.886009 0.856259
O O6 0.616812 0.638287 0.988533
O O7 0.257011 0.620675 0.209202
O O8 0.450925 0.879988 0.123484
O O9 0.666517 0.911327 0.735513
O O10 0.786197 0.867693 0.546694
O O11 0.000000 0.000000 0.500000
O O12 0.000000 0.597013 0.250000
O O13 0.898365 0.616257 0.422392
O O14 0.353433 0.836724 0.980362
O O15 0.996393 0.883153 0.317210
#
# Coordination Sequence:
#
# PCOD9231932 Si02
#       8
#     2   4   4   4   4   4   4   2
#     4  10  20  42  70 114 140 176 238 296 368 420
#     4  12  24  41  63  98 139 185 232 288 355 422
#     4  11  22  43  73 101 141 181 229 302 359 425
#     4  11  20  39  68 103 142 178 229 301 361 420
#     4  12  26  43  64  98 142 186 232 285 365 429
#     4  11  23  41  71 103 135 177 240 295 353 419
#     4  12  22  41  67 100 134 178 232 297 353 422
#     4  12  22  38  68  96 128 170 236 300 344 424
#
# _framework density 22.264074999999998
#
# number of rings (size 3 to 8) (size 9 to 14) (size 15 to 20)
#    0.000    0.571    5.714    5.143    0.000    0.000 
#    0.000    0.714    6.286    0.000    0.000    0.000 
#    0.000    0.000    0.000    0.000    0.000    0.000 
#
# Total GULP energy -156101.663828 kJ/mol
# GULP energy per Si atom -5575.059422 kJ/mol
# Density = 2.221340 g / cm^3
# Si number density = 22.264075 Si / 1000 Ang^3
#
#
#
# Elastic Constant Matrix: (Units=GPa)
#
#
# Indices 1 2 3 4 5 6 
#
# 1 103.1165 20.4037 1.6209 0.0000 -5.3100 0.0000
# 2 20.4037 38.2736 10.3323 0.0000 -5.0247 0.0000
# 3 1.6209 10.3323 66.3071 0.0000 5.3180 0.0000
# 4 0.0000 0.0000 0.0000 14.3601 0.0000 2.0864
# 5 -5.3100 -5.0247 5.3180 0.0000 47.7714 0.0000
# 6 0.0000 0.0000 0.0000 2.0864 0.0000 20.7669
#
#
#
# Elastic Compliance Matrix: (Units=1/GPa)
#
#
# Indices 1 2 3 4 5 6 
#
# 1 0.010882 -0.005898 0.000611 0.000000 0.000521 0.000000
# 2 -0.005898 0.031021 -0.004943 0.000000 0.003158 0.000000
# 3 0.000611 -0.004943 0.016016 0.000000 -0.002235 0.000000
# 4 0.000000 0.000000 0.000000 0.070669 0.000000 -0.007100
# 5 0.000521 0.003158 -0.002235 0.000000 0.021572 0.000000
# 6 0.000000 0.000000 0.000000 -0.007100 0.000000 0.048867
#
#
# Mechanical properties :
#
#
# Convention : Reuss Voigt Hill
#
# Bulk Modulus (GPa) = 26.69536 30.26787 28.48162
# Shear Modulus (GPa) = 21.55435 28.26902 24.91168
#
# Velocity S-wave (km/s) = 3.11484 3.56717 3.34865
# Velocity P-wave (km/s) = 4.99527 5.53089 5.26989
#
# Compressibility (1/GPa) = 0.03745969
#
# Stress axis : x y z
#
# Youngs Moduli (GPa) = 91.89484 32.23654 62.43808
#
# Poissons Ratio (x) = 0.19012 -0.03816
# Poissons Ratio (y) = 0.54198 0.30862
# Poissons Ratio (z) = -0.05617 0.15934
#
# Static dielectric constant tensor:
#      x y z
#    x 1.743910 0.000000 0.008040 
#    y 0.000000 1.857030 0.000000 
#    z 0.008040 0.000000 1.873040 
# 
# From -- ./inp_files/79969.got.cif
#   From: 2010.05.17/outbox.cif.g08.bks.cpg/sg13_40_cif.got.tgz:79969.got - 2010.06.03 16:44:36.
