data_PCOD9231834
_publ_section_title
;
Structure prediction by ZEFSAII (Michael W. Deem and Ramdas Pophale) SiO2 
 PCOD9231834
Probable space group: P 2/C
;
_chemical_formula_sum "Si O2"
_cell_formula_units_Z 30
_cell_length_a 11.079904
_cell_length_b 12.259956
_cell_length_c 20.820450
_cell_angle_alpha 90.000000
_cell_angle_beta 153.498619
_cell_angle_gamma 90.000000
_cell_volume 1262.011908
_symmetry_space_group_name_H-M "P 2/C"
_symmetry_group_IT_number 13
_symmetry_cell_setting 'monoclinic'
loop_
_space_group_symop_operation_xyz
x,y,z
-x,y,1/2-z
-x,-y,-z
x,-y,1/2+z
loop_
_atom_site_type_symbol
_atom_site_label
_atom_site_fract_x
_atom_site_fract_y
_atom_site_fract_z
Si Si1 0.852842 0.142676 0.779684
Si Si2 0.195938 0.480119 0.207977
Si Si3 0.500000 0.230727 0.250000
Si Si4 0.834405 0.721671 0.525537
Si Si5 0.777994 0.889935 0.764176
Si Si6 0.576615 0.875903 0.019402
Si Si7 0.667311 0.474973 0.016870
Si Si8 0.920093 0.688655 0.426795
O O1 0.667954 0.173947 0.630625
O O2 0.156547 0.131984 0.897377
O O3 0.846531 0.228851 0.834070
O O4 0.771484 0.020169 0.761150
O O5 0.497019 0.477606 0.376673
O O6 0.100403 0.357840 0.149682
O O7 0.149478 0.566509 0.129573
O O8 0.976006 0.515407 0.158382
O O9 0.383164 0.154988 0.251414
O O10 0.759049 0.293566 0.404417
O O11 0.674878 0.652678 0.502205
O O12 0.919828 0.841958 0.585353
O O13 0.755850 0.716451 0.413786
O O14 0.662640 0.840681 0.642336
O O15 0.500000 0.000000 0.000000
O O16 0.500000 0.500000 0.000000
#
# Coordination Sequence:
#
# PCOD9231834 Si02
#       8
#     4   4   2   4   4   4   4   4
#     4  10  21  39  65  96 134 180 233 291 354 424
#     4  10  24  44  69  98 136 179 226 290 347 428
#     4  10  22  36  68  94 128 186 226 282 358 412
#     4   9  24  40  71  96 131 181 227 290 345 420
#     4  10  20  42  62 100 132 178 235 288 353 425
#     4   9  19  40  63  93 133 181 230 283 357 421
#     4  10  23  47  67 103 137 176 231 285 361 423
#     4  11  22  42  62 103 130 180 238 280 355 419
#
# _framework density 23.771567000000001
#
# number of rings (size 3 to 8) (size 9 to 14) (size 15 to 20)
#    0.800    1.333    1.333    0.800    3.733    2.667 
#   12.000    4.000    0.000    0.000    0.000    0.000 
#    0.000    0.000    0.000    0.000    0.000    0.000 
#
# Total GULP energy -167442.476883 kJ/mol
# GULP energy per Si atom -5581.415896 kJ/mol
# Density = 2.371746 g / cm^3
# Si number density = 23.771567 Si / 1000 Ang^3
#
#
#
# Elastic Constant Matrix: (Units=GPa)
#
#
# Indices 1 2 3 4 5 6 
#
# 1 109.3088 32.2905 18.8903 0.0000 -10.0432 0.0000
# 2 32.2905 77.5636 11.3501 0.0000 -8.1004 0.0000
# 3 18.8903 11.3501 73.0096 0.0000 -21.1864 0.0000
# 4 0.0000 0.0000 0.0000 15.6262 0.0000 -6.1340
# 5 -10.0432 -8.1004 -21.1864 0.0000 41.3125 0.0000
# 6 0.0000 0.0000 0.0000 -6.1340 0.0000 36.7878
#
#
#
# Elastic Compliance Matrix: (Units=1/GPa)
#
#
# Indices 1 2 3 4 5 6 
#
# 1 0.010771 -0.004118 -0.001904 0.000000 0.000834 0.000000
# 2 -0.004118 0.014883 -0.000813 0.000000 0.001500 0.000000
# 3 -0.001904 -0.000813 0.016607 0.000000 0.007894 0.000000
# 4 0.000000 0.000000 0.000000 0.068477 0.000000 0.011418
# 5 0.000834 0.001500 0.007894 0.000000 0.028751 0.000000
# 6 0.000000 0.000000 0.000000 0.011418 0.000000 0.029087
#
#
# Mechanical properties :
#
#
# Convention : Reuss Voigt Hill
#
# Bulk Modulus (GPa) = 34.97828 42.77155 38.87491
# Shear Modulus (GPa) = 26.07212 31.90203 28.98707
#
# Velocity S-wave (km/s) = 3.31536 3.66734 3.49578
# Velocity P-wave (km/s) = 5.42234 5.99702 5.71691
#
# Compressibility (1/GPa) = 0.02858917
#
# Stress axis : x y z
#
# Youngs Moduli (GPa) = 92.84453 67.19224 60.21668
#
# Poissons Ratio (x) = 0.27671 0.11468
# Poissons Ratio (y) = 0.38235 0.04895
# Poissons Ratio (z) = 0.17682 0.05462
#
# Static dielectric constant tensor:
#      x y z
#    x 1.941030 0.000000 0.029370 
#    y 0.000000 1.869630 0.000000 
#    z 0.029370 0.000000 1.981260 
# 
# From -- ./inp_files/78656.got.cif
#   From: 2010.05.17/outbox.cif.g08.bks.cpg/sg13_40_cif.got.tgz:78656.got - 2010.06.03 16:44:36.
