data_PCOD9231710
_publ_section_title
;
Structure prediction by ZEFSAII (Michael W. Deem and Ramdas Pophale) SiO2 
 PCOD9231710
Probable space group: P 2/C
;
_chemical_formula_sum "Si O2"
_cell_formula_units_Z 18
_cell_length_a 8.675642
_cell_length_b 5.083334
_cell_length_c 19.797280
_cell_angle_alpha 90.000000
_cell_angle_beta 129.061644
_cell_angle_gamma 90.000000
_cell_volume 677.921797
_symmetry_space_group_name_H-M "P 2/C"
_symmetry_group_IT_number 13
_symmetry_cell_setting 'monoclinic'
loop_
_space_group_symop_operation_xyz
x,y,z
-x,y,1/2-z
-x,-y,-z
x,-y,1/2+z
loop_
_atom_site_type_symbol
_atom_site_label
_atom_site_fract_x
_atom_site_fract_y
_atom_site_fract_z
Si Si1 0.449423 0.066157 0.062189
Si Si2 0.099481 0.113224 0.097176
Si Si3 0.500000 0.648740 0.750000
Si Si4 0.353044 0.433267 0.838520
Si Si5 0.906416 0.645164 0.102141
O O1 0.334675 0.184953 0.161905
O O2 0.615879 0.261525 0.134184
O O3 0.470323 0.779567 0.101100
O O4 0.500000 0.000000 0.000000
O O5 0.983938 0.369809 0.093285
O O6 0.262326 0.255326 0.996894
O O7 0.062551 0.882011 0.140468
O O8 0.000000 0.000000 0.000000
O O9 0.364935 0.472001 0.761601
O O10 0.184135 0.362096 0.847025
#
# Coordination Sequence:
#
# PCOD9231710 Si02
#       5
#     4   4   2   4   4
#     4  10  20  40  75 114 147 193 260 326 390 473
#     4  12  28  51  81 117 160 213 273 340 410 483
#     4  12  32  52  76 120 170 212 270 350 410 476
#     4  11  24  45  75 112 157 207 259 325 404 477
#     4  11  23  47  81 113 153 211 271 328 401 493
#
# _framework density 26.551738
#
# number of rings (size 3 to 8) (size 9 to 14) (size 15 to 20)
#    0.000    0.889    0.000    8.667    0.000    8.000 
#    0.000    4.444    0.000    4.000    0.000    0.000 
#    0.000    0.000    0.000    0.000    0.000    0.000 
#
# Total GULP energy -100389.448646 kJ/mol
# GULP energy per Si atom -5577.191591 kJ/mol
# Density = 2.649130 g / cm^3
# Si number density = 26.551738 Si / 1000 Ang^3
#
#
#
# Elastic Constant Matrix: (Units=GPa)
#
#
# Indices 1 2 3 4 5 6 
#
# 1 148.4111 85.0095 76.5412 0.0000 -15.1167 0.0000
# 2 85.0095 202.8371 51.4686 0.0000 -13.7660 0.0000
# 3 76.5412 51.4686 131.6366 0.0000 -10.1543 0.0000
# 4 0.0000 0.0000 0.0000 45.9113 0.0000 -6.3927
# 5 -15.1167 -13.7660 -10.1543 0.0000 53.6179 0.0000
# 6 0.0000 0.0000 0.0000 -6.3927 0.0000 68.0603
#
#
#
# Elastic Compliance Matrix: (Units=1/GPa)
#
#
# Indices 1 2 3 4 5 6 
#
# 1 0.011554 -0.003409 -0.005279 0.000000 0.001383 0.000000
# 2 -0.003409 0.006534 -0.000525 0.000000 0.000617 0.000000
# 3 -0.005279 -0.000525 0.010905 0.000000 0.000442 0.000000
# 4 0.000000 0.000000 0.000000 0.022070 0.000000 0.002073
# 5 0.001383 0.000617 0.000442 0.000000 0.019282 0.000000
# 6 0.000000 0.000000 0.000000 0.002073 0.000000 0.014888
#
#
# Mechanical properties :
#
#
# Convention : Reuss Voigt Hill
#
# Bulk Modulus (GPa) = 94.62443 100.99147 97.80795
# Shear Modulus (GPa) = 46.65029 51.50892 49.07961
#
# Velocity S-wave (km/s) = 4.19616 4.40926 4.30403
# Velocity P-wave (km/s) = 7.69364 8.00252 7.84960
#
# Compressibility (1/GPa) = 0.01056810
#
# Stress axis : x y z
#
# Youngs Moduli (GPa) = 86.55077 153.04903 91.69868
#
# Poissons Ratio (x) = 0.52175 0.48404
# Poissons Ratio (y) = 0.29505 0.04813
# Poissons Ratio (z) = 0.45686 0.08033
#
# Static dielectric constant tensor:
#      x y z
#    x 2.241430 0.000000 0.080320 
#    y 0.000000 1.982820 0.000000 
#    z 0.080320 0.000000 2.514390 
# 
# From -- ./inp_files/62083.got.cif
#   From: 2010.05.17/outbox.cif.g08.bks.cpg/sg13_32_cif.got.tgz:62083.got - 2010.06.03 16:44:36.
