data_PCOD9231028
_publ_section_title
;
Structure prediction by ZEFSAII (Michael W. Deem and Ramdas Pophale) SiO2 
 PCOD9231028
Probable space group: P 2/C
;
_chemical_formula_sum "Si O2"
_cell_formula_units_Z 22
_cell_length_a 23.510017
_cell_length_b 7.359006
_cell_length_c 13.353780
_cell_angle_alpha 90.000000
_cell_angle_beta 156.461795
_cell_angle_gamma 90.000000
_cell_volume 922.659380
_symmetry_space_group_name_H-M "P 2/C"
_symmetry_group_IT_number 13
_symmetry_cell_setting 'monoclinic'
loop_
_space_group_symop_operation_xyz
x,y,z
-x,y,1/2-z
-x,-y,-z
x,-y,1/2+z
loop_
_atom_site_type_symbol
_atom_site_label
_atom_site_fract_x
_atom_site_fract_y
_atom_site_fract_z
Si Si1 0.218810 0.361269 0.883449
Si Si2 0.024560 0.446710 0.398089
Si Si3 0.626512 0.063780 0.630344
Si Si4 0.158997 0.028073 0.364477
Si Si5 0.500000 0.681963 0.750000
Si Si6 0.857327 0.153043 0.386862
O O1 0.118672 0.328059 0.624772
O O2 0.231905 0.169502 0.960875
O O3 0.126528 0.499582 0.798425
O O4 0.370967 0.426761 0.091524
O O5 0.104885 0.641356 0.522298
O O6 0.000000 0.370005 0.250000
O O7 0.568156 0.196740 0.449489
O O8 0.500000 0.000000 0.500000
O O9 0.715780 0.910199 0.714711
O O10 0.748780 0.131605 0.904169
O O11 0.161328 0.129610 0.262276
O O12 0.999081 0.968068 0.136344
#
# Coordination Sequence:
#
# PCOD9231028 Si02
#       6
#     4   4   4   4   2   4
#     4  10  21  44  62  94 130 164 210 259 308 379
#     4  10  22  42  69  89 127 169 214 256 311 371
#     4  12  21  36  63  93 129 164 205 257 327 365
#     4  10  20  38  62  94 124 164 207 261 309 366
#     4  12  24  42  60  96 134 162 206 268 314 384
#     4  10  20  38  62  96 125 157 212 262 301 375
#
# _framework density 23.844118999999999
#
# number of rings (size 3 to 8) (size 9 to 14) (size 15 to 20)
#    0.000    1.455    3.636    2.727    0.000    0.000 
#   13.091    3.636    0.000    0.000    0.000    0.000 
#    0.000    0.000    0.000    0.000    0.000    0.000 
#
# Total GULP energy -123098.782749 kJ/mol
# GULP energy per Si atom -5595.399216 kJ/mol
# Density = 2.378985 g / cm^3
# Si number density = 23.844119 Si / 1000 Ang^3
#
#
#
# Elastic Constant Matrix: (Units=GPa)
#
#
# Indices 1 2 3 4 5 6 
#
# 1 133.8430 16.2424 67.4427 0.0000 7.0437 0.0000
# 2 16.2424 40.5430 29.1011 0.0000 8.7964 0.0000
# 3 67.4427 29.1011 133.4169 0.0000 -2.9518 0.0000
# 4 0.0000 0.0000 0.0000 18.2781 0.0000 0.6759
# 5 7.0437 8.7964 -2.9518 0.0000 84.7199 0.0000
# 6 0.0000 0.0000 0.0000 0.6759 0.0000 5.0677
#
#
#
# Elastic Compliance Matrix: (Units=1/GPa)
#
#
# Indices 1 2 3 4 5 6 
#
# 1 0.010113 -0.000177 -0.005096 0.000000 -0.001000 0.000000
# 2 -0.000177 0.030176 -0.006567 0.000000 -0.003347 0.000000
# 3 -0.005096 -0.006567 0.011537 0.000000 0.001507 0.000000
# 4 0.000000 0.000000 0.000000 0.054982 0.000000 -0.007334
# 5 -0.001000 -0.003347 0.001507 0.000000 0.012287 0.000000
# 6 0.000000 0.000000 0.000000 -0.007334 0.000000 0.198307
#
#
# Mechanical properties :
#
#
# Convention : Reuss Voigt Hill
#
# Bulk Modulus (GPa) = 35.52754 59.26391 47.39572
# Shear Modulus (GPa) = 14.26688 34.61425 24.44057
#
# Velocity S-wave (km/s) = 2.44875 3.81424 3.20506
# Velocity P-wave (km/s) = 4.78826 6.65632 5.79802
#
# Compressibility (1/GPa) = 0.02814718
#
# Stress axis : x y z
#
# Youngs Moduli (GPa) = 98.87970 33.13934 86.67826
#
# Poissons Ratio (x) = 0.00586 0.44170
# Poissons Ratio (y) = 0.01750 0.56918
# Poissons Ratio (z) = 0.50387 0.21761
#
# Static dielectric constant tensor:
#      x y z
#    x 1.940360 0.000000 -0.012300 
#    y 0.000000 1.890670 0.000000 
#    z -0.012300 0.000000 1.902750 
# 
# From -- ./inp_files/59469.got.cif
#   From: 2010.05.17/outbox.cif.g08.bks.cpg/sg13_30_cif.got.tgz:59469.got - 2010.06.03 16:44:36.
