data_PCOD9231350
_publ_section_title
;
Structure prediction by ZEFSAII (Michael W. Deem and Ramdas Pophale) SiO2 
 PCOD9231350
Probable space group: P 2/C
;
_chemical_formula_sum "Si O2"
_cell_formula_units_Z 28
_cell_length_a 9.078343
_cell_length_b 8.574520
_cell_length_c 27.016735
_cell_angle_alpha 90.000000
_cell_angle_beta 38.285486
_cell_angle_gamma 90.000000
_cell_volume 1303.007180
_symmetry_space_group_name_H-M "P 2/C"
_symmetry_group_IT_number 13
_symmetry_cell_setting 'monoclinic'
loop_
_space_group_symop_operation_xyz
x,y,z
-x,y,1/2-z
-x,-y,-z
x,-y,1/2+z
loop_
_atom_site_type_symbol
_atom_site_label
_atom_site_fract_x
_atom_site_fract_y
_atom_site_fract_z
Si Si1 0.121473 0.804468 0.546870
Si Si2 0.389696 0.954153 0.723655
Si Si3 0.605607 0.368450 0.937823
Si Si4 0.255480 0.629374 0.785041
Si Si5 0.757544 0.378083 0.794074
Si Si6 0.279485 0.187402 0.900010
Si Si7 0.004256 0.858776 0.375729
O O1 0.389743 0.749911 0.484648
O O2 0.100501 0.797349 0.492872
O O3 0.940929 0.690337 0.623807
O O4 0.090903 0.979625 0.575300
O O5 0.500000 0.947786 0.750000
O O6 0.599649 0.015556 0.633882
O O7 0.176337 0.077842 0.786562
O O8 0.301724 0.780686 0.737920
O O9 0.680499 0.452412 0.866971
O O10 0.811252 0.262704 0.907669
O O11 0.500000 0.500000 0.000000
O O12 0.500000 0.593694 0.750000
O O13 0.187931 0.489728 0.766486
O O14 0.513901 0.291817 0.844051
O O15 0.000000 0.294990 0.750000
O O16 0.158743 0.217073 0.879060
#
# Coordination Sequence:
#
# PCOD9231350 Si02
#       7
#     4   4   4   4   4   4   4
#     4  10  22  40  63  93 126 159 204 261 312 364
#     4   8  17  35  60  89 115 149 201 253 302 359
#     4  11  24  39  58  89 128 165 202 250 311 367
#     4  10  22  41  63  86 118 160 204 251 308 374
#     4  11  24  40  57  85 124 162 201 248 303 369
#     4  10  21  38  65  95 119 155 208 259 306 361
#     4  10  20  39  64  89 123 166 206 252 307 372
#
# _framework density 21.488754
#
# number of rings (size 3 to 8) (size 9 to 14) (size 15 to 20)
#    0.000    2.000    0.000    3.429    0.000    6.286 
#    0.000    9.286    0.000    0.000    0.000    0.000 
#    0.000    0.000    0.000    0.000    0.000    0.000 
#
# Total GULP energy -156158.589835 kJ/mol
# GULP energy per Si atom -5577.092494 kJ/mol
# Density = 2.143984 g / cm^3
# Si number density = 21.488754 Si / 1000 Ang^3
#
#
#
# Elastic Constant Matrix: (Units=GPa)
#
#
# Indices 1 2 3 4 5 6 
#
# 1 129.1506 51.6798 47.6603 0.0000 -16.1439 0.0000
# 2 51.6798 63.4445 35.2055 0.0000 -1.8967 0.0000
# 3 47.6603 35.2055 109.5824 0.0000 5.0902 0.0000
# 4 0.0000 0.0000 0.0000 33.7843 0.0000 -5.3547
# 5 -16.1439 -1.8967 5.0902 0.0000 35.6206 0.0000
# 6 0.0000 0.0000 0.0000 -5.3547 0.0000 30.2965
#
#
#
# Elastic Compliance Matrix: (Units=1/GPa)
#
#
# Indices 1 2 3 4 5 6 
#
# 1 0.013181 -0.008791 -0.003185 0.000000 0.005961 0.000000
# 2 -0.008791 0.025175 -0.004169 0.000000 -0.002048 0.000000
# 3 -0.003185 -0.004169 0.012008 0.000000 -0.003382 0.000000
# 4 0.000000 0.000000 0.000000 0.030453 0.000000 0.005382
# 5 0.005961 -0.002048 -0.003382 0.000000 0.031150 0.000000
# 6 0.000000 0.000000 0.000000 0.005382 0.000000 0.033958
#
#
# Mechanical properties :
#
#
# Convention : Reuss Voigt Hill
#
# Bulk Modulus (GPa) = 55.33420 63.47429 59.40425
# Shear Modulus (GPa) = 27.13834 31.11572 29.12703
#
# Velocity S-wave (km/s) = 3.55760 3.80939 3.68564
# Velocity P-wave (km/s) = 6.53311 6.99651 6.76878
#
# Compressibility (1/GPa) = 0.01807201
#
# Stress axis : x y z
#
# Youngs Moduli (GPa) = 75.86413 39.72152 83.28086
#
# Poissons Ratio (x) = 0.34921 0.26529
# Poissons Ratio (y) = 0.66695 0.34722
# Poissons Ratio (z) = 0.24166 0.16561
#
# Static dielectric constant tensor:
#      x y z
#    x 1.795050 0.000000 0.003230 
#    y 0.000000 1.836200 0.000000 
#    z 0.003230 0.000000 1.824130 
# 
# From -- ./inp_files/91390.got.cif
#   From: 2010.05.17/outbox.cif.g08.bks.cpg/sg13_46_cif.got.tgz:91390.got - 2010.06.03 16:44:36.
