data_PCOD9231864
_publ_section_title
;
Structure prediction by ZEFSAII (Michael W. Deem and Ramdas Pophale) SiO2 
 PCOD9231864
Probable space group: P 2/C
;
_chemical_formula_sum "Si O2"
_cell_formula_units_Z 28
_cell_length_a 19.275532
_cell_length_b 11.295897
_cell_length_c 15.562293
_cell_angle_alpha 90.000000
_cell_angle_beta 160.681825
_cell_angle_gamma 90.000000
_cell_volume 1120.944870
_symmetry_space_group_name_H-M "P 2/C"
_symmetry_group_IT_number 13
_symmetry_cell_setting 'monoclinic'
loop_
_space_group_symop_operation_xyz
x,y,z
-x,y,1/2-z
-x,-y,-z
x,-y,1/2+z
loop_
_atom_site_type_symbol
_atom_site_label
_atom_site_fract_x
_atom_site_fract_y
_atom_site_fract_z
Si Si1 0.685966 0.810108 0.719388
Si Si2 0.725369 0.824755 0.368567
Si Si3 0.500000 0.224858 0.250000
Si Si4 0.000000 0.394356 0.250000
Si Si5 0.235906 0.937331 0.514655
Si Si6 0.048309 0.783972 0.027810
Si Si7 0.160875 0.551888 0.758650
Si Si8 0.528992 0.629250 0.936839
O O1 0.507843 0.832770 0.440829
O O2 0.651857 0.887459 0.766608
O O3 0.915472 0.834997 0.950584
O O4 0.636550 0.670348 0.685015
O O5 0.814728 0.696040 0.501052
O O6 0.871536 0.861625 0.457713
O O7 0.745173 0.922231 0.464981
O O8 0.682093 0.129557 0.473425
O O9 0.423592 0.313926 0.231367
O O10 0.084882 0.470743 0.268241
O O11 0.000000 0.901482 0.250000
O O12 0.874977 0.691649 0.788651
O O13 0.258152 0.707650 0.297276
O O14 0.383120 0.497236 0.989217
O O15 0.000000 0.500000 0.500000
#
# Coordination Sequence:
#
# PCOD9231864 Si02
#       8
#     4   4   2   2   4   4   4   4
#     4  10  21  37  61  90 121 166 212 265 328 386
#     4  10  21  39  60  87 129 158 213 273 317 390
#     4  10  22  38  54  86 124 154 210 266 310 382
#     4  10  20  42  64  94 132 174 214 278 328 386
#     4  11  22  38  60  87 123 171 211 265 334 386
#     4   9  19  37  61  85 119 160 206 259 324 389
#     4   9  19  39  63  89 124 170 209 264 335 389
#     4   9  19  39  56  84 123 155 203 265 309 389
#
# _framework density 24.978928
#
# number of rings (size 3 to 8) (size 9 to 14) (size 15 to 20)
#    0.000    2.286    0.714    2.143    0.000    2.286 
#   14.143    0.000    0.000    0.000    0.000    0.000 
#    0.000    0.000    0.000    0.000    0.000    0.000 
#
# Total GULP energy -155938.965097 kJ/mol
# GULP energy per Si atom -5569.248753 kJ/mol
# Density = 2.492208 g / cm^3
# Si number density = 24.978928 Si / 1000 Ang^3
#
#
#
# Elastic Constant Matrix: (Units=GPa)
#
#
# Indices 1 2 3 4 5 6 
#
# 1 91.2638 18.9398 7.8683 0.0000 2.2176 0.0000
# 2 18.9398 67.9303 9.4147 0.0000 4.9725 0.0000
# 3 7.8683 9.4147 95.0259 0.0000 5.3385 0.0000
# 4 0.0000 0.0000 0.0000 18.2760 0.0000 8.1266
# 5 2.2176 4.9725 5.3385 0.0000 25.8839 0.0000
# 6 0.0000 0.0000 0.0000 8.1266 0.0000 26.6791
#
#
#
# Elastic Compliance Matrix: (Units=1/GPa)
#
#
# Indices 1 2 3 4 5 6 
#
# 1 0.011672 -0.003146 -0.000640 0.000000 -0.000264 0.000000
# 2 -0.003146 0.015948 -0.001176 0.000000 -0.002552 0.000000
# 3 -0.000640 -0.001176 0.010802 0.000000 -0.001947 0.000000
# 4 0.000000 0.000000 0.000000 0.063289 0.000000 -0.019278
# 5 -0.000264 -0.002552 -0.001947 0.000000 0.039548 0.000000
# 6 0.000000 0.000000 0.000000 -0.019278 0.000000 0.043355
#
#
# Mechanical properties :
#
#
# Convention : Reuss Voigt Hill
#
# Bulk Modulus (GPa) = 35.09093 36.29617 35.69355
# Shear Modulus (GPa) = 24.50527 28.70095 26.60311
#
# Velocity S-wave (km/s) = 3.13555 3.39338 3.26701
# Velocity P-wave (km/s) = 5.21417 5.46952 5.34337
#
# Compressibility (1/GPa) = 0.02849739
#
# Stress axis : x y z
#
# Youngs Moduli (GPa) = 85.67695 62.70391 92.57238
#
# Poissons Ratio (x) = 0.19728 0.05924
# Poissons Ratio (y) = 0.26956 0.10888
# Poissons Ratio (z) = 0.05483 0.07375
#
# Static dielectric constant tensor:
#      x y z
#    x 2.548110 0.000000 -0.247130 
#    y 0.000000 2.030320 0.000000 
#    z -0.247130 0.000000 2.122050 
# 
# From -- ./inp_files/70749.got.cif
#   From: 2010.05.17/outbox.cif.g08.bks.cpg/sg13_36_cif.got.tgz:70749.got - 2010.06.03 16:44:36.
