data_PCOD9231285
_publ_section_title
;
Structure prediction by ZEFSAII (Michael W. Deem and Ramdas Pophale) SiO2 
 PCOD9231285
Probable space group: P 2/C
;
_chemical_formula_sum "Si O2"
_cell_formula_units_Z 22
_cell_length_a 10.395206
_cell_length_b 13.446176
_cell_length_c 9.550689
_cell_angle_alpha 90.000000
_cell_angle_beta 138.976729
_cell_angle_gamma 90.000000
_cell_volume 876.218349
_symmetry_space_group_name_H-M "P 2/C"
_symmetry_group_IT_number 13
_symmetry_cell_setting 'monoclinic'
loop_
_space_group_symop_operation_xyz
x,y,z
-x,y,1/2-z
-x,-y,-z
x,-y,1/2+z
loop_
_atom_site_type_symbol
_atom_site_label
_atom_site_fract_x
_atom_site_fract_y
_atom_site_fract_z
Si Si1 0.071073 0.374896 0.107454
Si Si2 0.100737 0.924491 0.980519
Si Si3 0.544416 0.262645 0.016603
Si Si4 0.500000 0.904896 0.250000
Si Si5 0.676278 0.550375 0.306953
Si Si6 0.139934 0.766034 0.250694
O O1 0.233467 0.290306 0.267119
O O2 0.212692 0.469811 0.198236
O O3 0.872728 0.398885 0.035306
O O4 0.963728 0.338122 0.875517
O O5 0.000000 0.906560 0.750000
O O6 0.313440 0.969493 0.126811
O O7 0.135020 0.825016 0.099446
O O8 0.000000 0.000000 0.000000
O O9 0.552469 0.168792 0.920209
O O10 0.446576 0.359235 0.861159
O O11 0.367596 0.241005 0.980949
O O12 0.500000 0.498694 0.250000
O O13 0.000000 0.815249 0.250000
#
# Coordination Sequence:
#
# PCOD9231285 Si02
#       6
#     4   4   4   2   4   4
#     4  10  22  38  58  88 126 178 229 277 340 388
#     4  11  24  45  73 103 137 174 214 270 337 408
#     4  10  20  39  61  89 128 172 230 279 333 392
#     4  10  22  42  68 100 130 168 222 276 328 408
#     4  10  21  37  55  89 127 175 231 288 330 391
#     4  10  23  41  63  97 134 173 224 279 333 405
#
# _framework density 25.107897000000001
#
# number of rings (size 3 to 8) (size 9 to 14) (size 15 to 20)
#    0.000    1.818    0.909    2.182    2.545    1.455 
#    0.000    1.818    0.000    0.000    0.000    0.000 
#    0.000    0.000    0.000    0.000    0.000    0.000 
#
# Total GULP energy -122701.611863 kJ/mol
# GULP energy per Si atom -5577.345994 kJ/mol
# Density = 2.505075 g / cm^3
# Si number density = 25.107897 Si / 1000 Ang^3
#
#
#
# Elastic Constant Matrix: (Units=GPa)
#
#
# Indices 1 2 3 4 5 6 
#
# 1 146.1584 12.9856 78.1161 0.0000 61.4174 0.0000
# 2 12.9856 40.0919 10.2260 0.0000 10.6506 0.0000
# 3 78.1161 10.2260 169.9764 0.0000 57.3292 0.0000
# 4 0.0000 0.0000 0.0000 -12.0776 0.0000 15.6076
# 5 61.4174 10.6506 57.3292 0.0000 62.5835 0.0000
# 6 0.0000 0.0000 0.0000 15.6076 0.0000 27.2537
#
#
#
# Elastic Compliance Matrix: (Units=1/GPa)
#
#
# Indices 1 2 3 4 5 6 
#
# 1 0.012246 -0.000783 -0.002275 0.000000 -0.009800 0.000000
# 2 -0.000783 0.026175 0.000041 0.000000 -0.003724 0.000000
# 3 -0.002275 0.000041 0.008937 0.000000 -0.005960 0.000000
# 4 0.000000 0.000000 0.000000 -0.047583 0.000000 0.027250
# 5 -0.009800 -0.003724 -0.005960 0.000000 0.031690 0.000000
# 6 0.000000 0.000000 0.000000 0.027250 0.000000 0.021087
#
#
# Mechanical properties :
#
#
# Convention : Reuss Voigt Hill
#
# Bulk Modulus (GPa) = 24.19935 62.09803 43.14869
# Shear Modulus (GPa) = 69.10002 32.54516 50.82259
#
# Velocity S-wave (km/s) = 5.25176 3.60420 4.50396
# Velocity P-wave (km/s) = 6.81423 6.48895 6.65358
#
# Compressibility (1/GPa) = 0.04132343
#
# Stress axis : x y z
#
# Youngs Moduli (GPa) = 81.66254 38.20434 111.89815
#
# Poissons Ratio (x) = 0.02990 0.25460
# Poissons Ratio (y) = 0.06390 -0.00458
# Poissons Ratio (z) = 0.18581 -0.00156
#
# Static dielectric constant tensor:
#      x y z
#    x 2.063120 0.000000 0.060990 
#    y 0.000000 2.036550 0.000000 
#    z 0.060990 0.000000 1.957000 
# 
# From -- ./inp_files/34631.got.cif
#   From: 2010.05.17/outbox.cif.g08.bks.cpg/sg13_18_cif.got.tgz:34631.got - 2010.06.03 16:44:36.
