data_PCOD9231550
_publ_section_title
;
Structure prediction by ZEFSAII (Michael W. Deem and Ramdas Pophale) SiO2 
 PCOD9231550
Probable space group: P 2/C
;
_chemical_formula_sum "Si O2"
_cell_formula_units_Z 24
_cell_length_a 13.390530
_cell_length_b 6.114561
_cell_length_c 14.783662
_cell_angle_alpha 90.000000
_cell_angle_beta 110.103248
_cell_angle_gamma 90.000000
_cell_volume 1136.698392
_symmetry_space_group_name_H-M "P 2/C"
_symmetry_group_IT_number 13
_symmetry_cell_setting 'monoclinic'
loop_
_space_group_symop_operation_xyz
x,y,z
-x,y,1/2-z
-x,-y,-z
x,-y,1/2+z
loop_
_atom_site_type_symbol
_atom_site_label
_atom_site_fract_x
_atom_site_fract_y
_atom_site_fract_z
Si Si1 0.095018 0.150650 0.997655
Si Si2 0.814573 0.336575 0.299118
Si Si3 0.279556 0.187643 0.499982
Si Si4 0.849116 0.427942 0.638186
Si Si5 0.303266 0.948403 0.333259
Si Si6 0.383613 0.355530 0.713161
O O1 0.122943 0.308278 0.089151
O O2 0.197146 0.996423 0.009742
O O3 0.072357 0.290535 0.900653
O O4 0.000000 0.000000 0.000000
O O5 0.880883 0.450955 0.240044
O O6 0.708682 0.476533 0.286790
O O7 0.776210 0.103208 0.248472
O O8 0.209572 0.390417 0.441441
O O9 0.352090 0.263658 0.605140
O O10 0.340460 0.091477 0.430838
O O11 0.762485 0.250713 0.644087
O O12 0.383198 0.840601 0.286870
O O13 0.500000 0.459255 0.750000
#
# Coordination Sequence:
#
# PCOD9231550 Si02
#       6
#     4   4   4   4   4   4
#     4  11  22  39  67  95 120 165 215 252 316 380
#     4  10  20  41  62  88 135 162 203 268 308 373
#     4  10  20  40  63  89 130 159 205 268 304 371
#     4   9  20  40  64  87 127 165 200 260 324 361
#     4   9  20  39  62  89 127 166 201 262 317 356
#     4  11  22  37  64  94 124 172 213 252 316 373
#
# _framework density 21.113780999999999
#
# number of rings (size 3 to 8) (size 9 to 14) (size 15 to 20)
#    0.000    2.000    3.333    0.000    0.000    2.000 
#    0.000   16.667    0.000    0.000    0.000    0.000 
#    0.000    0.000    0.000    0.000    0.000    0.000 
#
# Total GULP energy -134000.219762 kJ/mol
# GULP energy per Si atom -5583.342490 kJ/mol
# Density = 2.106573 g / cm^3
# Si number density = 21.113781 Si / 1000 Ang^3
#
#
#
# Elastic Constant Matrix: (Units=GPa)
#
#
# Indices 1 2 3 4 5 6 
#
# 1 59.5824 7.9002 28.4333 0.0000 -2.1820 0.0000
# 2 7.9002 68.1467 24.2684 0.0000 -9.2319 0.0000
# 3 28.4333 24.2684 102.7260 0.0000 -25.3031 0.0000
# 4 0.0000 0.0000 0.0000 40.7011 0.0000 -9.4437
# 5 -2.1820 -9.2319 -25.3031 0.0000 19.6949 0.0000
# 6 0.0000 0.0000 0.0000 -9.4437 0.0000 25.6028
#
#
#
# Elastic Compliance Matrix: (Units=1/GPa)
#
#
# Indices 1 2 3 4 5 6 
#
# 1 0.020042 -0.000764 -0.007180 0.000000 -0.007363 0.000000
# 2 -0.000764 0.016256 -0.002594 0.000000 0.004203 0.000000
# 3 -0.007180 -0.002594 0.017321 0.000000 0.020242 0.000000
# 4 0.000000 0.000000 0.000000 0.026869 0.000000 0.009911
# 5 -0.007363 0.004203 0.020242 0.000000 0.077935 0.000000
# 6 0.000000 0.000000 0.000000 0.009911 0.000000 0.042714
#
#
# Mechanical properties :
#
#
# Convention : Reuss Voigt Hill
#
# Bulk Modulus (GPa) = 30.72906 39.07319 34.90112
# Shear Modulus (GPa) = 21.45383 28.52331 24.98857
#
# Velocity S-wave (km/s) = 3.19110 3.67949 3.44396
# Velocity P-wave (km/s) = 5.30689 6.04961 5.69038
#
# Compressibility (1/GPa) = 0.03254248
#
# Stress axis : x y z
#
# Youngs Moduli (GPa) = 49.89604 61.51645 57.73447
#
# Poissons Ratio (x) = 0.04698 0.41456
# Poissons Ratio (y) = 0.03811 0.14974
# Poissons Ratio (z) = 0.35827 0.15955
#
# Static dielectric constant tensor:
#      x y z
#    x 1.731230 0.000000 -0.035140 
#    y 0.000000 1.760480 0.000000 
#    z -0.035140 0.000000 1.755300 
# 
# From -- ./inp_files/52185.got.cif
#   From: 2010.05.17/outbox.cif.g08.bks.cpg/sg13_27_cif.got.tgz:52185.got - 2010.06.03 16:44:36.
