data_PCOD9231184
_publ_section_title
;
Structure prediction by ZEFSAII (Michael W. Deem and Ramdas Pophale) SiO2 
 PCOD9231184
Probable space group: P 2/C
;
_chemical_formula_sum "Si O2"
_cell_formula_units_Z 32
_cell_length_a 22.440654
_cell_length_b 9.221525
_cell_length_c 15.444602
_cell_angle_alpha 90.000000
_cell_angle_beta 156.056757
_cell_angle_gamma 90.000000
_cell_volume 1297.061952
_symmetry_space_group_name_H-M "P 2/C"
_symmetry_group_IT_number 13
_symmetry_cell_setting 'monoclinic'
loop_
_space_group_symop_operation_xyz
x,y,z
-x,y,1/2-z
-x,-y,-z
x,-y,1/2+z
loop_
_atom_site_type_symbol
_atom_site_label
_atom_site_fract_x
_atom_site_fract_y
_atom_site_fract_z
Si Si1 0.841987 0.164747 0.476416
Si Si2 0.148213 0.319050 0.284733
Si Si3 0.499259 0.831862 0.514265
Si Si4 0.614176 0.473059 0.972683
Si Si5 0.648364 0.402877 0.783384
Si Si6 0.918372 0.491235 0.553109
Si Si7 0.351438 0.797763 0.500413
Si Si8 0.100115 0.021091 0.755995
O O1 0.924146 0.317535 0.565685
O O2 0.859573 0.082795 0.593466
O O3 0.926124 0.059423 0.520527
O O4 0.671136 0.205414 0.248102
O O5 0.251537 0.361544 0.340192
O O6 0.246889 0.380994 0.495009
O O7 0.000762 0.414932 0.090090
O O8 0.121380 0.149970 0.267282
O O9 0.422839 0.749373 0.334657
O O10 0.399449 0.810194 0.465584
O O11 0.500000 0.000000 0.500000
O O12 0.500000 0.409652 0.750000
O O13 0.493612 0.502175 0.887054
O O14 0.674223 0.626334 0.018115
O O15 0.751597 0.459343 0.844099
O O16 0.000000 0.538588 0.750000
O O17 0.500000 0.840226 0.750000
O O18 0.211335 0.890234 0.342669
#
# Coordination Sequence:
#
# PCOD9231184 Si02
#       8
#     4   4   4   4   4   4   4   4
#     4  11  23  41  66  99 132 173 225 273 337 397
#     4  10  22  38  68  99 129 169 228 282 323 388
#     4  12  27  43  66 101 144 177 217 276 352 410
#     4   9  20  38  64  95 129 168 225 275 322 385
#     4  10  23  39  65  95 133 171 217 274 340 387
#     4  10  20  38  67  98 128 171 229 282 316 389
#     4  11  23  42  68  97 132 176 229 279 328 400
#     4  11  23  38  67  98 128 169 225 279 330 387
#
# _framework density 24.671143000000001
#
# number of rings (size 3 to 8) (size 9 to 14) (size 15 to 20)
#    0.000    1.500    2.500    2.250   12.250    2.500 
#    0.000    1.875    0.000    3.000    0.000    0.000 
#    0.000    0.000    0.000    0.000    0.000    0.000 
#
# Total GULP energy -178734.411886 kJ/mol
# GULP energy per Si atom -5585.450371 kJ/mol
# Density = 2.461499 g / cm^3
# Si number density = 24.671143 Si / 1000 Ang^3
#
#
#
# Elastic Constant Matrix: (Units=GPa)
#
#
# Indices 1 2 3 4 5 6 
#
# 1 91.3072 44.1698 59.8387 0.0000 39.9975 0.0000
# 2 44.1698 168.9000 41.8527 0.0000 46.8366 0.0000
# 3 59.8387 41.8527 108.3354 0.0000 46.8042 0.0000
# 4 0.0000 0.0000 0.0000 33.6085 0.0000 9.1837
# 5 39.9975 46.8366 46.8042 0.0000 60.8852 0.0000
# 6 0.0000 0.0000 0.0000 9.1837 0.0000 27.7817
#
#
#
# Elastic Compliance Matrix: (Units=1/GPa)
#
#
# Indices 1 2 3 4 5 6 
#
# 1 0.019079 -0.001592 -0.007542 0.000000 -0.005511 0.000000
# 2 -0.001592 0.007686 0.000019 0.000000 -0.004881 0.000000
# 3 -0.007542 0.000019 0.016852 0.000000 -0.008014 0.000000
# 4 0.000000 0.000000 0.000000 0.032709 0.000000 -0.010813
# 5 -0.005511 -0.004881 -0.008014 0.000000 0.029960 0.000000
# 6 0.000000 0.000000 0.000000 -0.010813 0.000000 0.039569
#
#
# Mechanical properties :
#
#
# Convention : Reuss Voigt Hill
#
# Bulk Modulus (GPa) = 39.39279 73.36278 56.37779
# Shear Modulus (GPa) = 28.97741 39.30052 34.13896
#
# Velocity S-wave (km/s) = 3.43088 3.99554 3.72393
# Velocity P-wave (km/s) = 5.62996 7.14749 6.43362
#
# Compressibility (1/GPa) = 0.02538535
#
# Stress axis : x y z
#
# Youngs Moduli (GPa) = 52.41267 130.10836 59.34164
#
# Poissons Ratio (x) = 0.20718 0.44758
# Poissons Ratio (y) = 0.08346 -0.00113
# Poissons Ratio (z) = 0.39532 -0.00248
#
# Static dielectric constant tensor:
#      x y z
#    x 2.095520 0.000000 0.086980 
#    y 0.000000 1.905180 0.000000 
#    z 0.086980 0.000000 1.950540 
# 
# From -- ./inp_files/82556.got.cif
#   From: 2010.05.17/outbox.cif.g08.bks.cpg/sg13_42_cif.got.tgz:82556.got - 2010.06.03 16:44:36.
