data_PCOD9231735
_publ_section_title
;
Structure prediction by ZEFSAII (Michael W. Deem and Ramdas Pophale) SiO2 
 PCOD9231735
Probable space group: P 2/C
;
_chemical_formula_sum "Si O2"
_cell_formula_units_Z 30
_cell_length_a 15.058653
_cell_length_b 6.899500
_cell_length_c 14.170451
_cell_angle_alpha 90.000000
_cell_angle_beta 116.963024
_cell_angle_gamma 90.000000
_cell_volume 1312.233117
_symmetry_space_group_name_H-M "P 2/C"
_symmetry_group_IT_number 13
_symmetry_cell_setting 'monoclinic'
loop_
_space_group_symop_operation_xyz
x,y,z
-x,y,1/2-z
-x,-y,-z
x,-y,1/2+z
loop_
_atom_site_type_symbol
_atom_site_label
_atom_site_fract_x
_atom_site_fract_y
_atom_site_fract_z
Si Si1 0.325715 0.639018 0.973630
Si Si2 0.202729 0.993678 0.839633
Si Si3 0.826639 0.524808 0.437298
Si Si4 0.379528 0.237226 0.942250
Si Si5 0.574339 0.966675 0.372650
Si Si6 0.975566 0.786410 0.946995
Si Si7 0.000000 0.134477 0.250000
Si Si8 0.714296 0.845004 0.288213
O O1 0.243158 0.549302 0.004486
O O2 0.412238 0.760554 0.068216
O O3 0.264899 0.797546 0.884772
O O4 0.379048 0.465856 0.945685
O O5 0.094412 0.985939 0.829237
O O6 0.267936 0.163438 0.915416
O O7 0.200850 0.042821 0.727960
O O8 0.922786 0.665542 0.485786
O O9 0.753351 0.627558 0.325376
O O10 0.878196 0.318398 0.444238
O O11 0.376184 0.162725 0.832429
O O12 0.440774 0.127986 0.053304
O O13 0.500000 0.989536 0.250000
O O14 0.680253 0.955388 0.365461
O O15 0.963527 0.762323 0.826959
O O16 0.000000 0.000000 0.000000
#
# Coordination Sequence:
#
# PCOD9231735 Si02
#       8
#     4   4   4   4   4   4   2   4
#     4  10  20  41  63  86 127 168 204 260 323 378
#     4   9  21  38  57  87 124 165 211 259 304 372
#     4  10  22  40  58  87 128 163 218 265 308 381
#     4   9  22  40  63  88 127 164 207 250 325 386
#     4  10  22  43  68  96 126 158 207 269 321 396
#     4  11  25  38  57  89 125 169 221 272 314 356
#     4  12  22  36  62  86 124 170 226 254 306 368
#     4   9  21  42  63  91 129 169 211 257 332 381
#
# _framework density 22.861789999999999
#
# number of rings (size 3 to 8) (size 9 to 14) (size 15 to 20)
#    0.800    1.333    1.333    0.800    3.733    2.133 
#    2.400    4.000    0.000    0.000    0.000    0.000 
#    0.000    0.000    0.000    0.000    0.000    0.000 
#
# Total GULP energy -167008.308120 kJ/mol
# GULP energy per Si atom -5566.943604 kJ/mol
# Density = 2.280976 g / cm^3
# Si number density = 22.861790 Si / 1000 Ang^3
#
#
#
# Elastic Constant Matrix: (Units=GPa)
#
#
# Indices 1 2 3 4 5 6 
#
# 1 41.1542 8.1165 -4.7827 0.0000 2.8196 0.0000
# 2 8.1165 106.3503 32.2114 0.0000 -9.3158 0.0000
# 3 -4.7827 32.2114 102.7680 0.0000 -4.2588 0.0000
# 4 0.0000 0.0000 0.0000 13.5459 0.0000 -14.8477
# 5 2.8196 -9.3158 -4.2588 0.0000 42.1390 0.0000
# 6 0.0000 0.0000 0.0000 -14.8477 0.0000 16.8512
#
#
#
# Elastic Compliance Matrix: (Units=1/GPa)
#
#
# Indices 1 2 3 4 5 6 
#
# 1 0.025197 -0.002690 0.001929 0.000000 -0.002086 0.000000
# 2 -0.002690 0.010843 -0.003431 0.000000 0.002230 0.000000
# 3 0.001929 -0.003431 0.010905 0.000000 0.000214 0.000000
# 4 0.000000 0.000000 0.000000 2.156934 0.000000 1.900480
# 5 -0.002086 0.002230 0.000214 0.000000 0.024385 0.000000
# 6 0.000000 0.000000 0.000000 1.900480 0.000000 1.733861
#
#
# Mechanical properties :
#
#
# Convention : Reuss Voigt Hill
#
# Bulk Modulus (GPa) = 25.93349 35.70698 30.82023
# Shear Modulus (GPa) = 1.25522 28.82239 15.03881
#
# Velocity S-wave (km/s) = 0.74178 3.55452 2.56757
# Velocity P-wave (km/s) = 3.47877 5.70076 4.72232
#
# Compressibility (1/GPa) = 0.03856019
#
# Stress axis : x y z
#
# Youngs Moduli (GPa) = 39.68802 92.22690 91.70251
#
# Poissons Ratio (x) = 0.24809 -0.17692
# Poissons Ratio (y) = 0.10676 0.31466
# Poissons Ratio (z) = -0.07657 0.31646
#
# Static dielectric constant tensor:
#      x y z
#    x 1.999450 0.000000 0.035990 
#    y 0.000000 1.832630 0.000000 
#    z 0.035990 0.000000 1.935240 
# 
# From -- ./inp_files/69180.got.cif
#   From: 2010.05.17/outbox.cif.g08.bks.cpg/sg13_35_cif.got.tgz:69180.got - 2010.06.03 16:44:36.
