data_PCOD9231017
_publ_section_title
;
Structure prediction by ZEFSAII (Michael W. Deem and Ramdas Pophale) SiO2 
 PCOD9231017
Probable space group: P 2/C
;
_chemical_formula_sum "Si O2"
_cell_formula_units_Z 20
_cell_length_a 9.009253
_cell_length_b 22.100830
_cell_length_c 10.006344
_cell_angle_alpha 90.000000
_cell_angle_beta 151.235882
_cell_angle_gamma 90.000000
_cell_volume 958.744163
_symmetry_space_group_name_H-M "P 2/C"
_symmetry_group_IT_number 13
_symmetry_cell_setting 'monoclinic'
loop_
_space_group_symop_operation_xyz
x,y,z
-x,y,1/2-z
-x,-y,-z
x,-y,1/2+z
loop_
_atom_site_type_symbol
_atom_site_label
_atom_site_fract_x
_atom_site_fract_y
_atom_site_fract_z
Si Si1 0.341962 0.154143 0.989551
Si Si2 0.320705 0.538482 0.967578
Si Si3 0.109271 0.724398 0.187085
Si Si4 0.756246 0.325385 0.167968
Si Si5 0.677703 0.964457 0.750088
O O1 0.500000 0.180267 0.250000
O O2 0.604310 0.106030 0.154940
O O3 0.236903 0.207028 0.806919
O O4 0.000000 0.124104 0.750000
O O5 0.228615 0.601972 0.824346
O O6 0.000000 0.506210 0.750000
O O7 0.500000 0.548405 0.250000
O O8 0.500000 0.500000 0.000000
O O9 0.401022 0.688478 0.360640
O O10 0.000000 0.706727 0.250000
O O11 0.841343 0.708549 0.872102
O O12 0.000000 0.303183 0.250000
O O13 0.500000 0.970556 0.750000
O O14 0.500000 0.000000 0.500000
O O15 0.000000 0.000000 0.000000
#
# Coordination Sequence:
#
# PCOD9231017 Si02
#       5
#     4   4   4   4   4
#     4  10  20  38  62  91 126 166 208 261 319 373
#     4  11  24  43  65  93 130 173 215 263 319 383
#     4  11  22  39  65  92 117 164 222 262 298 377
#     4  11  23  41  61  91 132 167 198 259 337 378
#     4  11  22  39  63  91 125 166 207 257 316 379
#
# _framework density 20.860620999999998
#
# number of rings (size 3 to 8) (size 9 to 14) (size 15 to 20)
#    0.000    1.200    0.000    9.600    0.000    2.400 
#    0.000    4.000    0.000    2.400    0.000    0.000 
#    0.000    0.000    0.000    0.000    0.000    0.000 
#
# Total GULP energy -111417.406322 kJ/mol
# GULP energy per Si atom -5570.870316 kJ/mol
# Density = 2.081314 g / cm^3
# Si number density = 20.860621 Si / 1000 Ang^3
#
#
#
# Elastic Constant Matrix: (Units=GPa)
#
#
# Indices 1 2 3 4 5 6 
#
# 1 89.7128 37.0415 11.1146 0.0000 10.2136 0.0000
# 2 37.0415 87.1706 20.1551 0.0000 -7.6064 0.0000
# 3 11.1146 20.1551 127.8890 0.0000 -0.5157 0.0000
# 4 0.0000 0.0000 0.0000 30.0364 0.0000 10.4656
# 5 10.2136 -7.6064 -0.5157 0.0000 55.3171 0.0000
# 6 0.0000 0.0000 0.0000 10.4656 0.0000 35.4802
#
#
#
# Elastic Compliance Matrix: (Units=1/GPa)
#
#
# Indices 1 2 3 4 5 6 
#
# 1 0.014160 -0.006261 -0.000258 0.000000 -0.003478 0.000000
# 2 -0.006261 0.014821 -0.001779 0.000000 0.003177 0.000000
# 3 -0.000258 -0.001779 0.008122 0.000000 -0.000121 0.000000
# 4 0.000000 0.000000 0.000000 0.037107 0.000000 -0.010945
# 5 -0.003478 0.003177 -0.000121 0.000000 0.019155 0.000000
# 6 0.000000 0.000000 0.000000 -0.010945 0.000000 0.031413
#
#
# Mechanical properties :
#
#
# Convention : Reuss Voigt Hill
#
# Bulk Modulus (GPa) = 48.76395 49.04387 48.90391
# Shear Modulus (GPa) = 33.73650 39.93081 36.83366
#
# Velocity S-wave (km/s) = 4.02585 4.37987 4.20659
# Velocity P-wave (km/s) = 6.71094 7.00992 6.86206
#
# Compressibility (1/GPa) = 0.02050695
#
# Stress axis : x y z
#
# Youngs Moduli (GPa) = 70.62383 67.47352 123.12927
#
# Poissons Ratio (x) = 0.42243 0.03176
# Poissons Ratio (y) = 0.44215 0.21902
# Poissons Ratio (z) = 0.01822 0.12002
#
# Static dielectric constant tensor:
#      x y z
#    x 1.750020 0.000000 0.024650 
#    y 0.000000 1.768260 0.000000 
#    z 0.024650 0.000000 1.764020 
# 
# From -- ./inp_files/13863.got.cif
#   From: 2010.05.17/outbox.cif.g08.bks.cpg/sg13_7_cif.got.tgz:13863.got - 2010.06.03 16:44:36.
