data_PCOD9231346
_publ_section_title
;
Structure prediction by ZEFSAII (Michael W. Deem and Ramdas Pophale) SiO2 
 PCOD9231346
Probable space group: P 2/C
;
_chemical_formula_sum "Si O2"
_cell_formula_units_Z 28
_cell_length_a 25.453152
_cell_length_b 8.208265
_cell_length_c 22.247222
_cell_angle_alpha 90.000000
_cell_angle_beta 162.368246
_cell_angle_gamma 90.000000
_cell_volume 1407.878891
_symmetry_space_group_name_H-M "P 2/C"
_symmetry_group_IT_number 13
_symmetry_cell_setting 'monoclinic'
loop_
_space_group_symop_operation_xyz
x,y,z
-x,y,1/2-z
-x,-y,-z
x,-y,1/2+z
loop_
_atom_site_type_symbol
_atom_site_label
_atom_site_fract_x
_atom_site_fract_y
_atom_site_fract_z
Si Si1 0.729726 0.361863 0.727136
Si Si2 0.326374 0.400526 0.642515
Si Si3 0.996931 0.406054 0.123890
Si Si4 0.424842 0.298395 0.477881
Si Si5 0.500000 0.150988 0.750000
Si Si6 0.234307 0.901278 0.862383
Si Si7 0.198445 0.255690 0.828931
Si Si8 0.500000 0.663016 0.750000
O O1 0.574898 0.267935 0.592898
O O2 0.684518 0.552835 0.668425
O O3 0.749174 0.287105 0.682907
O O4 0.895160 0.366836 0.950923
O O5 0.471675 0.373026 0.852209
O O6 0.356517 0.257878 0.627892
O O7 0.377580 0.559029 0.661188
O O8 0.142500 0.399651 0.474483
O O9 0.135532 0.260395 0.277311
O O10 0.078908 0.586971 0.213085
O O11 0.310584 0.151664 0.380179
O O12 0.398078 0.069259 0.584716
O O13 0.127403 0.069484 0.750346
O O14 0.359320 0.261757 0.050819
#
# Coordination Sequence:
#
# PCOD9231346 Si02
#       8
#     4   4   4   4   2   4   4   2
#     4  10  20  39  64  88 118 157 198 246 296 347
#     4   9  18  37  68  85 114 159 199 240 303 344
#     4  11  23  40  60  90 124 155 189 249 305 358
#     4   9  18  38  64  88 114 157 204 243 288 347
#     4   9  19  40  62  85 113 158 207 247 280 351
#     4  11  23  39  60  89 122 159 198 243 297 352
#     4  12  24  39  61  90 122 159 197 243 296 354
#     4  11  21  40  62  91 113 156 211 245 280 353
#
# _framework density 19.888075000000001
#
# number of rings (size 3 to 8) (size 9 to 14) (size 15 to 20)
#    0.000    1.714    2.857    2.571    0.000    3.429 
#    0.000    7.143    0.000    0.000    0.000    0.000 
#    0.000    0.000    0.000    0.000    0.000    0.000 
#
# Total GULP energy -155966.545572 kJ/mol
# GULP energy per Si atom -5570.233770 kJ/mol
# Density = 1.984281 g / cm^3
# Si number density = 19.888075 Si / 1000 Ang^3
#
#
#
# Elastic Constant Matrix: (Units=GPa)
#
#
# Indices 1 2 3 4 5 6 
#
# 1 120.6521 33.7263 31.4745 0.0000 8.8141 0.0000
# 2 33.7263 111.2295 16.5748 0.0000 28.6189 0.0000
# 3 31.4745 16.5748 50.9854 0.0000 6.9770 0.0000
# 4 0.0000 0.0000 0.0000 -12.9556 0.0000 19.8272
# 5 8.8141 28.6189 6.9770 0.0000 29.2611 0.0000
# 6 0.0000 0.0000 0.0000 19.8272 0.0000 -58.6465
#
#
#
# Elastic Compliance Matrix: (Units=1/GPa)
#
#
# Indices 1 2 3 4 5 6 
#
# 1 0.010425 -0.002474 -0.005719 0.000000 0.000643 0.000000
# 2 -0.002474 0.012886 -0.001074 0.000000 -0.011602 0.000000
# 3 -0.005719 -0.001074 0.023893 0.000000 -0.002924 0.000000
# 4 0.000000 0.000000 0.000000 -0.159938 0.000000 -0.054072
# 5 0.000643 -0.011602 -0.002924 0.000000 0.046025 0.000000
# 6 0.000000 0.000000 0.000000 -0.054072 0.000000 -0.035332
#
#
# Mechanical properties :
#
#
# Convention : Reuss Voigt Hill
#
# Bulk Modulus (GPa) = 34.88093 49.60203 42.24148
# Shear Modulus (GPa) = -67.61412 4.93788 -31.33812
#
# Velocity S-wave (km/s) = -5.83705 1.57741 -3.97385
# Velocity P-wave (km/s) = 5.27745 5.32094 0.48005
#
# Compressibility (1/GPa) = 0.02866896
#
# Stress axis : x y z
#
# Youngs Moduli (GPa) = 95.92418 77.60522 41.85263
#
# Poissons Ratio (x) = 0.19202 0.23936
# Poissons Ratio (y) = 0.23734 0.04495
# Poissons Ratio (z) = 0.54861 0.08335
#
# Static dielectric constant tensor:
#      x y z
#    x 1.690340 0.000000 -0.002460 
#    y 0.000000 1.739560 0.000000 
#    z -0.002460 0.000000 1.707540 
# 
# From -- ./inp_files/82262.got.cif
#   From: 2010.05.17/outbox.cif.g08.bks.cpg/sg13_42_cif.got.tgz:82262.got - 2010.06.03 16:44:36.
