data_PCOD9231962
_publ_section_title
;
Structure prediction by ZEFSAII (Michael W. Deem and Ramdas Pophale) SiO2 
 PCOD9231962
Probable space group: P 2/C
;
_chemical_formula_sum "Si O2"
_cell_formula_units_Z 32
_cell_length_a 13.905527
_cell_length_b 6.734449
_cell_length_c 17.105477
_cell_angle_alpha 90.000000
_cell_angle_beta 51.109918
_cell_angle_gamma 90.000000
_cell_volume 1246.811117
_symmetry_space_group_name_H-M "P 2/C"
_symmetry_group_IT_number 13
_symmetry_cell_setting 'monoclinic'
loop_
_space_group_symop_operation_xyz
x,y,z
-x,y,1/2-z
-x,-y,-z
x,-y,1/2+z
loop_
_atom_site_type_symbol
_atom_site_label
_atom_site_fract_x
_atom_site_fract_y
_atom_site_fract_z
Si Si1 0.092384 0.768826 0.477041
Si Si2 0.595237 0.145612 0.250408
Si Si3 0.126324 0.186136 0.139136
Si Si4 0.168496 0.309165 0.460680
Si Si5 0.466421 0.505563 0.133649
Si Si6 0.403583 0.183673 0.032956
Si Si7 0.730851 0.187765 0.754699
Si Si8 0.139775 0.340897 0.655973
O O1 0.107113 0.852835 0.556819
O O2 0.141378 0.543134 0.463884
O O3 0.168339 0.841557 0.363507
O O4 0.048404 0.221148 0.479012
O O5 0.500000 0.011609 0.250000
O O6 0.711958 0.228409 0.144124
O O7 0.505023 0.322605 0.325046
O O8 0.651713 0.013559 0.291047
O O9 0.141572 0.420760 0.149736
O O10 0.000000 0.128604 0.250000
O O11 0.219828 0.741946 0.186625
O O12 0.173613 0.272297 0.551356
O O13 0.419920 0.367605 0.085360
O O14 0.353320 0.626886 0.227108
O O15 0.559763 0.681234 0.062612
O O16 0.262687 0.112255 0.094236
O O17 0.500000 0.000000 0.000000
O O18 0.000000 0.289712 0.750000
#
# Coordination Sequence:
#
# PCOD9231962 Si02
#       8
#     4   4   4   4   4   4   4   4
#     4  10  22  41  81 117 154 208 260 349 411 484
#     4  12  30  47  76 113 160 216 279 336 407 502
#     4  10  23  42  82 121 166 215 281 334 413 498
#     4  10  22  44  77 113 159 202 270 336 418 487
#     4  11  26  48  78 110 159 214 268 332 417 481
#     4  11  25  47  81 120 165 213 273 341 409 499
#     4  12  24  48  79 119 160 209 274 337 415 494
#     4  10  20  42  79 116 158 216 273 336 422 488
#
# _framework density 25.665474
#
# number of rings (size 3 to 8) (size 9 to 14) (size 15 to 20)
#    0.000    1.250    3.750    0.750    7.000    3.000 
#    0.000    4.375    0.000    3.000    0.000    0.000 
#    0.000    0.000    0.000    0.000    0.000    0.000 
#
# Total GULP energy -178840.818067 kJ/mol
# GULP energy per Si atom -5588.775565 kJ/mol
# Density = 2.560706 g / cm^3
# Si number density = 25.665474 Si / 1000 Ang^3
#
#
#
# Elastic Constant Matrix: (Units=GPa)
#
#
# Indices 1 2 3 4 5 6 
#
# 1 171.3247 47.8377 62.0190 0.0000 0.2532 0.0000
# 2 47.8377 158.4689 42.8800 0.0000 -4.8167 0.0000
# 3 62.0190 42.8800 142.8170 0.0000 0.5262 0.0000
# 4 0.0000 0.0000 0.0000 13.3836 0.0000 -0.7188
# 5 0.2532 -4.8167 0.5262 0.0000 49.0577 0.0000
# 6 0.0000 0.0000 0.0000 -0.7188 0.0000 21.6884
#
#
#
# Elastic Compliance Matrix: (Units=1/GPa)
#
#
# Indices 1 2 3 4 5 6 
#
# 1 0.007220 -0.001454 -0.002698 0.000000 -0.000151 0.000000
# 2 -0.001454 0.007185 -0.001529 0.000000 0.000729 0.000000
# 3 -0.002698 -0.001529 0.008633 0.000000 -0.000229 0.000000
# 4 0.000000 0.000000 0.000000 0.074851 0.000000 0.002481
# 5 -0.000151 0.000729 -0.000229 0.000000 0.020459 0.000000
# 6 0.000000 0.000000 0.000000 0.002481 0.000000 0.046190
#
#
# Mechanical properties :
#
#
# Convention : Reuss Voigt Hill
#
# Bulk Modulus (GPa) = 85.63874 86.45378 86.04626
# Shear Modulus (GPa) = 27.80991 38.15088 32.98040
#
# Velocity S-wave (km/s) = 3.29531 3.85966 3.58859
# Velocity P-wave (km/s) = 6.92232 7.32261 7.12527
#
# Compressibility (1/GPa) = 0.01167696
#
# Stress axis : x y z
#
# Youngs Moduli (GPa) = 138.50816 139.17711 115.82883
#
# Poissons Ratio (x) = 0.20236 0.31252
# Poissons Ratio (y) = 0.20139 0.17705
# Poissons Ratio (z) = 0.37371 0.21274
#
# Static dielectric constant tensor:
#      x y z
#    x 1.895120 0.000000 -0.073390 
#    y 0.000000 2.088630 0.000000 
#    z -0.073390 0.000000 1.941920 
# 
# From -- ./inp_files/81895.got.cif
#   From: 2010.05.17/outbox.cif.g08.bks.cpg/sg13_41_cif.got.tgz:81895.got - 2010.06.03 16:44:36.
