data_PCOD9231586
_publ_section_title
;
Structure prediction by ZEFSAII (Michael W. Deem and Ramdas Pophale) SiO2 
 PCOD9231586
Probable space group: P 2/C
;
_chemical_formula_sum "Si O2"
_cell_formula_units_Z 20
_cell_length_a 14.728282
_cell_length_b 11.431575
_cell_length_c 10.929070
_cell_angle_alpha 90.000000
_cell_angle_beta 151.293468
_cell_angle_gamma 90.000000
_cell_volume 883.843144
_symmetry_space_group_name_H-M "P 2/C"
_symmetry_group_IT_number 13
_symmetry_cell_setting 'monoclinic'
loop_
_space_group_symop_operation_xyz
x,y,z
-x,y,1/2-z
-x,-y,-z
x,-y,1/2+z
loop_
_atom_site_type_symbol
_atom_site_label
_atom_site_fract_x
_atom_site_fract_y
_atom_site_fract_z
Si Si1 0.308081 0.927726 0.795148
Si Si2 0.657082 0.293356 0.336588
Si Si3 0.027271 0.900382 0.652901
Si Si4 0.086668 0.685207 0.137219
Si Si5 0.831712 0.502292 0.449406
O O1 0.334833 0.801761 0.761820
O O2 0.239402 0.926753 0.856693
O O3 0.124278 0.994169 0.521022
O O4 0.500000 0.000000 0.000000
O O5 0.500000 0.261652 0.250000
O O6 0.836609 0.291266 0.637968
O O7 0.656679 0.430916 0.299303
O O8 0.958699 0.808456 0.472683
O O9 0.000000 0.840011 0.750000
O O10 0.913039 0.597365 0.953566
O O11 0.211311 0.614833 0.184353
O O12 0.000000 0.526788 0.750000
#
# Coordination Sequence:
#
# PCOD9231586 Si02
#       5
#     4   4   4   4   4
#     4  11  26  44  63  95 133 172 226 279 331 397
#     4  11  23  39  67  92 131 177 214 269 338 397
#     4  11  25  40  68  94 126 177 225 275 334 393
#     4  10  20  40  64  95 126 165 219 270 326 399
#     4   9  19  37  66  94 126 164 213 268 327 397
#
# _framework density 22.628450999999998
#
# number of rings (size 3 to 8) (size 9 to 14) (size 15 to 20)
#    0.000    1.600    2.000    1.800    8.400    0.800 
#    0.000    0.000    0.000    0.000    0.000    0.000 
#    0.000    0.000    0.000    0.000    0.000    0.000 
#
# Total GULP energy -111398.065149 kJ/mol
# GULP energy per Si atom -5569.903257 kJ/mol
# Density = 2.257695 g / cm^3
# Si number density = 22.628451 Si / 1000 Ang^3
#
#
#
# Elastic Constant Matrix: (Units=GPa)
#
#
# Indices 1 2 3 4 5 6 
#
# 1 139.3692 21.2425 35.4252 0.0000 25.1444 0.0000
# 2 21.2425 82.4452 23.6555 0.0000 14.3752 0.0000
# 3 35.4252 23.6555 46.2401 0.0000 15.3870 0.0000
# 4 0.0000 0.0000 0.0000 19.6024 0.0000 -0.2206
# 5 25.1444 14.3752 15.3870 0.0000 35.3258 0.0000
# 6 0.0000 0.0000 0.0000 -0.2206 0.0000 43.4051
#
#
#
# Elastic Compliance Matrix: (Units=1/GPa)
#
#
# Indices 1 2 3 4 5 6 
#
# 1 0.009405 -0.000033 -0.005807 0.000000 -0.004152 0.000000
# 2 -0.000033 0.014505 -0.006361 0.000000 -0.003108 0.000000
# 3 -0.005807 -0.006361 0.031685 0.000000 -0.007079 0.000000
# 4 0.000000 0.000000 0.000000 0.051017 0.000000 0.000259
# 5 -0.004152 -0.003108 -0.007079 0.000000 0.035611 0.000000
# 6 0.000000 0.000000 0.000000 0.000259 0.000000 0.023040
#
#
# Mechanical properties :
#
#
# Convention : Reuss Voigt Hill
#
# Bulk Modulus (GPa) = 32.05822 47.63342 39.84582
# Shear Modulus (GPa) = 24.99214 32.18209 28.58712
#
# Velocity S-wave (km/s) = 3.32694 3.77529 3.55819
# Velocity P-wave (km/s) = 5.38108 6.33243 5.87604
#
# Compressibility (1/GPa) = 0.03119325
#
# Stress axis : x y z
#
# Youngs Moduli (GPa) = 106.32281 68.94273 31.56090
#
# Poissons Ratio (x) = 0.00230 0.18327
# Poissons Ratio (y) = 0.00354 0.20074
# Poissons Ratio (z) = 0.61742 0.43851
#
# Static dielectric constant tensor:
#      x y z
#    x 2.162990 0.000000 0.136890 
#    y 0.000000 1.870300 0.000000 
#    z 0.136890 0.000000 1.759440 
# 
# From -- ./inp_files/37225.got.cif
#   From: 2010.05.17/outbox.cif.g08.bks.cpg/sg13_19_cif.got.tgz:37225.got - 2010.06.03 16:44:36.
