data_PCOD9231806
_publ_section_title
;
Structure prediction by ZEFSAII (Michael W. Deem and Ramdas Pophale) SiO2 
 PCOD9231806
Probable space group: P 2/C
;
_chemical_formula_sum "Si O2"
_cell_formula_units_Z 24
_cell_length_a 13.814878
_cell_length_b 11.539736
_cell_length_c 18.835446
_cell_angle_alpha 90.000000
_cell_angle_beta 157.265554
_cell_angle_gamma 90.000000
_cell_volume 1160.443655
_symmetry_space_group_name_H-M "P 2/C"
_symmetry_group_IT_number 13
_symmetry_cell_setting 'monoclinic'
loop_
_space_group_symop_operation_xyz
x,y,z
-x,y,1/2-z
-x,-y,-z
x,-y,1/2+z
loop_
_atom_site_type_symbol
_atom_site_label
_atom_site_fract_x
_atom_site_fract_y
_atom_site_fract_z
Si Si1 0.732315 0.763388 0.292092
Si Si2 0.000000 0.108098 0.750000
Si Si3 0.313085 0.215741 0.190949
Si Si4 0.174022 0.328249 0.784899
Si Si5 0.500000 0.619962 0.250000
Si Si6 0.363982 0.577946 0.550887
Si Si7 0.448896 0.008835 0.630294
O O1 0.687500 0.678182 0.195702
O O2 0.698938 0.700983 0.344965
O O3 0.549037 0.872588 0.165031
O O4 0.022172 0.796022 0.478592
O O5 0.165228 0.200155 0.815520
O O6 0.828152 0.029650 0.582198
O O7 0.500000 0.209231 0.250000
O O8 0.394575 0.338446 0.278801
O O9 0.386705 0.101082 0.283936
O O10 0.881312 0.361563 0.579648
O O11 0.291451 0.419088 0.919370
O O12 0.600127 0.537524 0.380164
O O13 0.500000 0.022462 0.750000
#
# Coordination Sequence:
#
# PCOD9231806 Si02
#       7
#     4   2   4   4   2   4   4
#     4  12  25  41  63 100 143 175 217 282 343 412
#     4  10  20  42  72  98 142 172 224 288 328 410
#     4  11  19  40  70  96 123 176 234 271 319 397
#     4  10  20  42  68  99 125 169 236 285 328 396
#     4  12  26  44  60  96 140 178 220 276 350 404
#     4  10  20  41  70  93 121 173 232 280 326 391
#     4  11  22  42  68 102 143 183 218 275 349 416
#
# _framework density 20.681744999999999
#
# number of rings (size 3 to 8) (size 9 to 14) (size 15 to 20)
#    0.000    1.333    6.667    1.500    0.000    4.000 
#    3.000    3.333    0.000    0.000    0.000    0.000 
#    0.000    0.000    0.000    0.000    0.000    0.000 
#
# Total GULP energy -133752.561446 kJ/mol
# GULP energy per Si atom -5573.023394 kJ/mol
# Density = 2.063467 g / cm^3
# Si number density = 20.681745 Si / 1000 Ang^3
#
#
#
# Elastic Constant Matrix: (Units=GPa)
#
#
# Indices 1 2 3 4 5 6 
#
# 1 97.1406 21.2510 26.5263 0.0000 -0.5843 0.0000
# 2 21.2510 71.2134 30.4240 0.0000 0.7076 0.0000
# 3 26.5263 30.4240 83.1530 0.0000 -11.5615 0.0000
# 4 0.0000 0.0000 0.0000 -3.2804 0.0000 2.3597
# 5 -0.5843 0.7076 -11.5615 0.0000 19.5529 0.0000
# 6 0.0000 0.0000 0.0000 2.3597 0.0000 12.3936
#
#
#
# Elastic Compliance Matrix: (Units=1/GPa)
#
#
# Indices 1 2 3 4 5 6 
#
# 1 0.011602 -0.002112 -0.003126 0.000000 -0.001425 0.000000
# 2 -0.002112 0.017414 -0.006313 0.000000 -0.004426 0.000000
# 3 -0.003126 -0.006313 0.016727 0.000000 0.010026 0.000000
# 4 0.000000 0.000000 0.000000 -0.268120 0.000000 0.051049
# 5 -0.001425 -0.004426 0.010026 0.000000 0.057189 0.000000
# 6 0.000000 0.000000 0.000000 0.051049 0.000000 0.070967
#
#
# Mechanical properties :
#
#
# Convention : Reuss Voigt Hill
#
# Bulk Modulus (GPa) = 44.17090 45.32328 44.74709
# Shear Modulus (GPa) = -78.65094 17.28693 -30.68200
#
# Velocity S-wave (km/s) = -6.17347 2.89425 -3.85584
# Velocity P-wave (km/s) = 5.42327 5.75596 1.36369
#
# Compressibility (1/GPa) = 0.02263934
#
# Stress axis : x y z
#
# Youngs Moduli (GPa) = 86.19517 57.42629 59.78334
#
# Poissons Ratio (x) = 0.12130 0.18690
# Poissons Ratio (y) = 0.18207 0.37741
# Poissons Ratio (z) = 0.26947 0.36253
#
# Static dielectric constant tensor:
#      x y z
#    x 1.783130 0.000000 -0.051110 
#    y 0.000000 1.788810 0.000000 
#    z -0.051110 0.000000 1.758330 
# 
# From -- ./inp_files/80235.got.cif
#   From: 2010.05.17/outbox.cif.g08.bks.cpg/sg13_41_cif.got.tgz:80235.got - 2010.06.03 16:44:36.
