data_PCOD9231838
_publ_section_title
;
Structure prediction by ZEFSAII (Michael W. Deem and Ramdas Pophale) SiO2 
 PCOD9231838
Probable space group: P 2/C
;
_chemical_formula_sum "Si O2"
_cell_formula_units_Z 32
_cell_length_a 9.790817
_cell_length_b 10.934760
_cell_length_c 35.103338
_cell_angle_alpha 90.000000
_cell_angle_beta 26.124006
_cell_angle_gamma 90.000000
_cell_volume 1654.780787
_symmetry_space_group_name_H-M "P 2/C"
_symmetry_group_IT_number 13
_symmetry_cell_setting 'monoclinic'
loop_
_space_group_symop_operation_xyz
x,y,z
-x,y,1/2-z
-x,-y,-z
x,-y,1/2+z
loop_
_atom_site_type_symbol
_atom_site_label
_atom_site_fract_x
_atom_site_fract_y
_atom_site_fract_z
Si Si1 0.787206 0.925553 0.766157
Si Si2 0.251805 0.100154 0.924960
Si Si3 0.732582 0.222379 0.498818
Si Si4 0.347337 0.345826 0.176403
Si Si5 0.863711 0.061294 0.161329
Si Si6 0.090765 0.532477 0.933394
Si Si7 0.689334 0.870491 0.454777
Si Si8 0.816070 0.290247 0.991396
O O1 0.656532 0.789043 0.804270
O O2 0.952095 0.922226 0.683845
O O3 0.000000 0.946462 0.750000
O O4 0.521517 0.028947 0.834995
O O5 0.073185 0.204543 0.946663
O O6 0.347687 0.157384 0.941344
O O7 0.000000 0.000000 0.000000
O O8 0.417543 0.213349 0.553307
O O9 0.970892 0.146643 0.411709
O O10 0.893754 0.350868 0.468437
O O11 0.545053 0.433550 0.154714
O O12 0.000000 0.380405 0.250000
O O13 0.555787 0.329534 0.086713
O O14 0.500000 0.081885 0.250000
O O15 0.962724 0.921317 0.129517
O O16 0.991036 0.413438 0.934685
O O17 0.000000 0.500000 0.000000
O O18 0.643202 0.789722 0.503334
O O19 0.500000 0.000000 0.500000
#
# Coordination Sequence:
#
# PCOD9231838 Si02
#       8
#     4   4   4   4   4   4   4   4
#     4  11  23  35  60  94 127 162 209 264 323 378
#     4  12  19  36  62  91 119 169 214 251 319 387
#     4  11  22  37  63  92 125 165 215 264 310 370
#     4  10  21  35  65  92 123 152 220 261 314 349
#     4  11  22  37  58  90 136 163 201 266 328 370
#     4  10  20  42  62  91 116 165 222 262 302 373
#     4  10  23  37  60  92 128 160 203 256 327 375
#     4  11  22  39  67  87 124 169 212 265 304 387
#
# _framework density 19.337907999999999
#
# number of rings (size 3 to 8) (size 9 to 14) (size 15 to 20)
#    0.000    1.250    3.750    4.500    7.000    0.500 
#    0.000    0.625    8.250    3.750    0.000    0.000 
#    0.000    0.000    0.000    0.000    0.000    0.000 
#
# Total GULP energy -178349.968719 kJ/mol
# GULP energy per Si atom -5573.436522 kJ/mol
# Density = 1.929389 g / cm^3
# Si number density = 19.337908 Si / 1000 Ang^3
#
#
#
# Elastic Constant Matrix: (Units=GPa)
#
#
# Indices 1 2 3 4 5 6 
#
# 1 89.6791 36.0416 17.5860 0.0000 13.4569 0.0000
# 2 36.0416 95.9803 37.5915 0.0000 -9.1526 0.0000
# 3 17.5860 37.5915 52.2957 0.0000 -3.6313 0.0000
# 4 0.0000 0.0000 0.0000 20.9326 0.0000 -3.4832
# 5 13.4569 -9.1526 -3.6313 0.0000 28.4291 0.0000
# 6 0.0000 0.0000 0.0000 -3.4832 0.0000 39.3272
#
#
#
# Elastic Compliance Matrix: (Units=1/GPa)
#
#
# Indices 1 2 3 4 5 6 
#
# 1 0.015276 -0.006072 -0.001422 0.000000 -0.009368 0.000000
# 2 -0.006072 0.017242 -0.009854 0.000000 0.007167 0.000000
# 3 -0.001422 -0.009854 0.026748 0.000000 0.000917 0.000000
# 4 0.000000 0.000000 0.000000 0.048487 0.000000 0.004294
# 5 -0.009368 0.007167 0.000917 0.000000 0.042034 0.000000
# 6 0.000000 0.000000 0.000000 0.004294 0.000000 0.025808
#
#
# Mechanical properties :
#
#
# Convention : Reuss Voigt Hill
#
# Bulk Modulus (GPa) = 40.70472 46.71036 43.70754
# Shear Modulus (GPa) = 22.88519 27.52018 25.20268
#
# Velocity S-wave (km/s) = 3.44384 3.77652 3.61401
# Velocity P-wave (km/s) = 6.07522 6.57445 6.32976
#
# Compressibility (1/GPa) = 0.02456717
#
# Stress axis : x y z
#
# Youngs Moduli (GPa) = 65.46229 57.99788 37.38651
#
# Poissons Ratio (x) = 0.35219 0.05318
# Poissons Ratio (y) = 0.39752 0.36842
# Poissons Ratio (z) = 0.09312 0.57153
#
# Static dielectric constant tensor:
#      x y z
#    x 1.680360 0.000000 -0.067880 
#    y 0.000000 1.696800 0.000000 
#    z -0.067880 0.000000 1.754060 
# 
# From -- ./inp_files/96124.got.cif
#   From: 2010.05.17/outbox.cif.g08.bks.cpg/sg13_49_cif.got.tgz:96124.got - 2010.06.03 16:44:36.
