data_PCOD9231963
_publ_section_title
;
Structure prediction by ZEFSAII (Michael W. Deem and Ramdas Pophale) SiO2 
 PCOD9231963
Probable space group: P 2/C
;
_chemical_formula_sum "Si O2"
_cell_formula_units_Z 18
_cell_length_a 10.758437
_cell_length_b 7.242823
_cell_length_c 13.142798
_cell_angle_alpha 90.000000
_cell_angle_beta 39.485122
_cell_angle_gamma 90.000000
_cell_volume 651.206265
_symmetry_space_group_name_H-M "P 2/C"
_symmetry_group_IT_number 13
_symmetry_cell_setting 'monoclinic'
loop_
_space_group_symop_operation_xyz
x,y,z
-x,y,1/2-z
-x,-y,-z
x,-y,1/2+z
loop_
_atom_site_type_symbol
_atom_site_label
_atom_site_fract_x
_atom_site_fract_y
_atom_site_fract_z
Si Si1 0.732202 0.488343 0.087024
Si Si2 0.000000 0.065543 0.750000
Si Si3 0.193418 0.122608 0.363191
Si Si4 0.290163 0.764378 0.226695
Si Si5 0.733567 0.264227 0.403904
O O1 0.500000 0.514422 0.250000
O O2 0.768603 0.272718 0.075991
O O3 0.801767 0.618264 0.136422
O O4 0.794877 0.570664 0.939571
O O5 0.129932 0.186095 0.743846
O O6 0.169324 0.918837 0.606283
O O7 0.196667 0.240151 0.256048
O O8 0.343830 0.956312 0.250525
O O9 0.000000 0.000000 0.500000
O O10 0.498902 0.714413 0.047175
#
# Coordination Sequence:
#
# PCOD9231963 Si02
#       5
#     4   2   4   4   4
#     4  10  25  49  80 117 160 211 271 335 404 492
#     4  10  20  42  80 116 150 220 254 336 406 470
#     4  11  25  49  77 115 160 207 269 334 398 482
#     4  10  24  48  77 113 164 208 275 328 407 493
#     4  10  24  50  78 116 162 210 274 331 407 492
#
# _framework density 27.641012
#
# number of rings (size 3 to 8) (size 9 to 14) (size 15 to 20)
#    0.000    1.778    0.000    2.667    6.222    7.111 
#   16.000    1.111    0.000    0.000    0.000    0.000 
#    0.000    0.000    0.000    0.000    0.000    0.000 
#
# Total GULP energy -100744.472818 kJ/mol
# GULP energy per Si atom -5596.915157 kJ/mol
# Density = 2.757810 g / cm^3
# Si number density = 27.641012 Si / 1000 Ang^3
#
#
#
# Elastic Constant Matrix: (Units=GPa)
#
#
# Indices 1 2 3 4 5 6 
#
# 1 104.4912 66.1192 40.5689 0.0000 -0.2572 0.0000
# 2 66.1192 193.7179 23.5628 0.0000 26.3137 0.0000
# 3 40.5689 23.5628 138.2014 0.0000 16.5414 0.0000
# 4 0.0000 0.0000 0.0000 38.4794 0.0000 6.9484
# 5 -0.2572 26.3137 16.5414 0.0000 45.0228 0.0000
# 6 0.0000 0.0000 0.0000 6.9484 0.0000 57.6876
#
#
#
# Elastic Compliance Matrix: (Units=1/GPa)
#
#
# Indices 1 2 3 4 5 6 
#
# 1 0.014235 -0.004989 -0.003856 0.000000 0.004414 0.000000
# 2 -0.004989 0.007402 0.000757 0.000000 -0.004633 0.000000
# 3 -0.003856 0.000757 0.008676 0.000000 -0.003652 0.000000
# 4 0.000000 0.000000 0.000000 0.026566 0.000000 -0.003200
# 5 0.004414 -0.004633 -0.003652 0.000000 0.026286 0.000000
# 6 0.000000 0.000000 0.000000 -0.003200 0.000000 0.017720
#
#
# Mechanical properties :
#
#
# Convention : Reuss Voigt Hill
#
# Bulk Modulus (GPa) = 70.74034 77.43469 74.08752
# Shear Modulus (GPa) = 41.05937 48.64858 44.85397
#
# Velocity S-wave (km/s) = 3.85834 4.19980 4.03269
# Velocity P-wave (km/s) = 6.74515 7.18283 6.96743
#
# Compressibility (1/GPa) = 0.01413620
#
# Stress axis : x y z
#
# Youngs Moduli (GPa) = 70.24716 135.09276 115.26155
#
# Poissons Ratio (x) = 0.67402 0.44450
# Poissons Ratio (y) = 0.35049 -0.08726
# Poissons Ratio (z) = 0.27091 -0.10227
#
# Static dielectric constant tensor:
#      x y z
#    x 2.280900 0.000000 0.060080 
#    y 0.000000 2.208380 0.000000 
#    z 0.060080 0.000000 2.244260 
# 
# From -- ./inp_files/77105.got.cif
#   From: 2010.05.17/outbox.cif.g08.bks.cpg/sg13_39_cif.got.tgz:77105.got - 2010.06.03 16:44:36.
