data_PCOD9231318
_publ_section_title
;
Structure prediction by ZEFSAII (Michael W. Deem and Ramdas Pophale) SiO2 
 PCOD9231318
Probable space group: P 2/C
;
_chemical_formula_sum "Si O2"
_cell_formula_units_Z 30
_cell_length_a 12.398829
_cell_length_b 8.548692
_cell_length_c 17.076936
_cell_angle_alpha 90.000000
_cell_angle_beta 118.483482
_cell_angle_gamma 90.000000
_cell_volume 1590.950815
_symmetry_space_group_name_H-M "P 2/C"
_symmetry_group_IT_number 13
_symmetry_cell_setting 'monoclinic'
loop_
_space_group_symop_operation_xyz
x,y,z
-x,y,1/2-z
-x,-y,-z
x,-y,1/2+z
loop_
_atom_site_type_symbol
_atom_site_label
_atom_site_fract_x
_atom_site_fract_y
_atom_site_fract_z
Si Si1 0.019888 0.167450 0.965879
Si Si2 0.213737 0.328682 0.677073
Si Si3 0.125222 0.679563 0.648853
Si Si4 0.366752 0.111030 0.219015
Si Si5 0.342968 0.172875 0.586042
Si Si6 0.793072 0.026630 0.581596
Si Si7 0.380362 0.852465 0.353917
Si Si8 0.000000 0.143727 0.250000
O O1 0.900254 0.211524 0.875323
O O2 0.135606 0.146195 0.949701
O O3 0.045119 0.290637 0.043240
O O4 0.000000 0.000000 0.000000
O O5 0.160287 0.499827 0.671037
O O6 0.292442 0.309862 0.624141
O O7 0.297214 0.270139 0.777346
O O8 0.251458 0.775807 0.680449
O O9 0.053842 0.752098 0.698069
O O10 0.500000 0.186935 0.250000
O O11 0.350530 0.977492 0.146946
O O12 0.372814 0.013597 0.301633
O O13 0.252826 0.119755 0.486037
O O14 0.478710 0.200485 0.599893
O O15 0.890716 0.963510 0.678372
O O16 0.678327 0.109275 0.583110
#
# Coordination Sequence:
#
# PCOD9231318 Si02
#       8
#     4   4   4   4   4   4   4   2
#     4  12  21  39  63  88 116 158 206 245 292 357
#     4  11  23  39  60  86 124 160 190 245 302 369
#     4  12  23  39  59  89 126 156 200 239 310 368
#     4   9  18  36  60  83 112 153 206 248 287 349
#     4  10  20  39  63  87 114 157 208 249 291 351
#     4  12  21  36  66  88 120 150 206 258 296 345
#     4  10  21  38  61  90 116 154 203 253 299 344
#     4  12  24  36  60  92 124 162 192 260 306 350
#
# _framework density 18.856648
#
# number of rings (size 3 to 8) (size 9 to 14) (size 15 to 20)
#    0.000    1.067    5.333    3.600    0.000    2.133 
#    0.000    0.000    0.000    1.600    0.000    0.000 
#    0.000    0.000    0.000    0.000    0.000    0.000 
#
# Total GULP energy -167622.942455 kJ/mol
# GULP energy per Si atom -5587.431415 kJ/mol
# Density = 1.881373 g / cm^3
# Si number density = 18.856648 Si / 1000 Ang^3
#
#
#
# Elastic Constant Matrix: (Units=GPa)
#
#
# Indices 1 2 3 4 5 6 
#
# 1 119.0686 11.8851 8.0179 0.0000 -11.3164 0.0000
# 2 11.8851 46.2880 -9.7257 0.0000 -2.8969 0.0000
# 3 8.0179 -9.7257 49.7723 0.0000 -0.8400 0.0000
# 4 0.0000 0.0000 0.0000 15.4390 0.0000 3.8234
# 5 -11.3164 -2.8969 -0.8400 0.0000 36.1156 0.0000
# 6 0.0000 0.0000 0.0000 3.8234 0.0000 17.2648
#
#
#
# Elastic Compliance Matrix: (Units=1/GPa)
#
#
# Indices 1 2 3 4 5 6 
#
# 1 0.009028 -0.002558 -0.001911 0.000000 0.002579 0.000000
# 2 -0.002558 0.023386 0.005002 0.000000 0.001191 0.000000
# 3 -0.001911 0.005002 0.021382 0.000000 0.000300 0.000000
# 4 0.000000 0.000000 0.000000 0.068529 0.000000 -0.015176
# 5 0.002579 0.001191 0.000300 0.000000 0.028599 0.000000
# 6 0.000000 0.000000 0.000000 -0.015176 0.000000 0.061282
#
#
# Mechanical properties :
#
#
# Convention : Reuss Voigt Hill
#
# Bulk Modulus (GPa) = 18.22749 26.16481 22.19615
# Shear Modulus (GPa) = 21.79339 27.42732 24.61036
#
# Velocity S-wave (km/s) = 3.40331 3.81795 3.61658
# Velocity P-wave (km/s) = 5.01305 5.77420 5.40704
#
# Compressibility (1/GPa) = 0.05486220
#
# Stress axis : x y z
#
# Youngs Moduli (GPa) = 110.77106 42.76034 46.76888
#
# Poissons Ratio (x) = 0.10938 0.08936
# Poissons Ratio (y) = 0.28335 -0.23393
# Poissons Ratio (z) = 0.21164 -0.21388
#
# Static dielectric constant tensor:
#      x y z
#    x 1.674750 0.000000 -0.000410 
#    y 0.000000 1.619290 0.000000 
#    z -0.000410 0.000000 1.669230 
# 
# From -- ./inp_files/66329.got.cif
#   From: 2010.05.17/outbox.cif.g08.bks.cpg/sg13_34_cif.got.tgz:66329.got - 2010.06.03 16:44:36.
