data_PCOD9231031
_publ_section_title
;
Structure prediction by ZEFSAII (Michael W. Deem and Ramdas Pophale) SiO2 
 PCOD9231031
Probable space group: P 2/C
;
_chemical_formula_sum "Si O2"
_cell_formula_units_Z 24
_cell_length_a 13.752071
_cell_length_b 6.490069
_cell_length_c 13.026565
_cell_angle_alpha 90.000000
_cell_angle_beta 92.886539
_cell_angle_gamma 90.000000
_cell_volume 1161.170396
_symmetry_space_group_name_H-M "P 2/C"
_symmetry_group_IT_number 13
_symmetry_cell_setting 'monoclinic'
loop_
_space_group_symop_operation_xyz
x,y,z
-x,y,1/2-z
-x,-y,-z
x,-y,1/2+z
loop_
_atom_site_type_symbol
_atom_site_label
_atom_site_fract_x
_atom_site_fract_y
_atom_site_fract_z
Si Si1 0.155490 0.444318 0.615927
Si Si2 0.338788 0.802289 0.107575
Si Si3 0.913367 0.118657 0.053032
Si Si4 0.000000 0.649245 0.750000
Si Si5 0.500000 0.406284 0.750000
Si Si6 0.601768 0.480055 0.066331
Si Si7 0.742199 0.183075 0.492711
O O1 0.246121 0.304322 0.656775
O O2 0.109808 0.312896 0.521045
O O3 0.197708 0.654169 0.571248
O O4 0.078175 0.505198 0.697208
O O5 0.433787 0.737346 0.174554
O O6 0.320763 0.040531 0.086949
O O7 0.344900 0.699938 0.993626
O O8 0.947588 0.206163 0.163538
O O9 0.819986 0.966912 0.051759
O O10 0.000000 0.000000 0.000000
O O11 0.429697 0.542498 0.817916
O O12 0.500000 0.500000 0.000000
O O13 0.668761 0.682829 0.057776
#
# Coordination Sequence:
#
# PCOD9231031 Si02
#       7
#     4   4   4   2   2   4   4
#     4  10  23  43  62  94 135 170 220 279 328 398
#     4   9  21  40  63  89 127 172 211 272 331 391
#     4  11  24  44  64  97 134 172 226 273 330 400
#     4  12  24  40  70  98 128 190 220 270 348 390
#     4  10  20  38  62  96 122 164 222 268 326 404
#     4   9  20  39  61  86 125 167 209 268 329 382
#     4  10  21  42  63  89 139 169 213 278 333 385
#
# _framework density 20.668800000000001
#
# number of rings (size 3 to 8) (size 9 to 14) (size 15 to 20)
#    0.000    2.000    1.667    0.500    0.000    8.667 
#    0.000   11.667    0.000    0.000    0.000    0.000 
#    0.000    0.000    0.000    0.000    0.000    0.000 
#
# Total GULP energy -134013.472207 kJ/mol
# GULP energy per Si atom -5583.894675 kJ/mol
# Density = 2.062176 g / cm^3
# Si number density = 20.668800 Si / 1000 Ang^3
#
#
#
# Elastic Constant Matrix: (Units=GPa)
#
#
# Indices 1 2 3 4 5 6 
#
# 1 100.4555 30.7681 54.5516 0.0000 -19.7204 0.0000
# 2 30.7681 94.2919 45.4334 0.0000 -9.9613 0.0000
# 3 54.5516 45.4334 106.7866 0.0000 -11.1742 0.0000
# 4 0.0000 0.0000 0.0000 -9.6845 0.0000 13.0170
# 5 -19.7204 -9.9613 -11.1742 0.0000 45.2074 0.0000
# 6 0.0000 0.0000 0.0000 13.0170 0.0000 20.2891
#
#
#
# Elastic Compliance Matrix: (Units=1/GPa)
#
#
# Indices 1 2 3 4 5 6 
#
# 1 0.014780 -0.001173 -0.006573 0.000000 0.004564 0.000000
# 2 -0.001173 0.013544 -0.005034 0.000000 0.001228 0.000000
# 3 -0.006573 -0.005034 0.014832 0.000000 -0.000311 0.000000
# 4 0.000000 0.000000 0.000000 -0.055445 0.000000 0.035572
# 5 0.004564 0.001228 -0.000311 0.000000 0.024305 0.000000
# 6 0.000000 0.000000 0.000000 0.035572 0.000000 0.026465
#
#
# Mechanical properties :
#
#
# Convention : Reuss Voigt Hill
#
# Bulk Modulus (GPa) = 56.84055 62.56005 59.70030
# Shear Modulus (GPa) = 71.52366 22.54780 47.03573
#
# Velocity S-wave (km/s) = 5.88895 3.30648 4.77559
# Velocity P-wave (km/s) = 8.59070 6.70154 7.70424
#
# Compressibility (1/GPa) = 0.01759307
#
# Stress axis : x y z
#
# Youngs Moduli (GPa) = 67.66107 73.83486 67.42225
#
# Poissons Ratio (x) = 0.08663 0.44319
# Poissons Ratio (y) = 0.07938 0.33943
# Poissons Ratio (z) = 0.44476 0.37172
#
# Static dielectric constant tensor:
#      x y z
#    x 1.782280 0.000000 -0.009600 
#    y 0.000000 1.713970 0.000000 
#    z -0.009600 0.000000 1.740990 
# 
# From -- ./inp_files/51904.got.cif
#   From: 2010.05.17/outbox.cif.g08.bks.cpg/sg13_26_cif.got.tgz:51904.got - 2010.06.03 16:44:36.
