data_PCOD9231760
_publ_section_title
;
Structure prediction by ZEFSAII (Michael W. Deem and Ramdas Pophale) SiO2 
 PCOD9231760
Probable space group: P 2/C
;
_chemical_formula_sum "Si O2"
_cell_formula_units_Z 28
_cell_length_a 18.851033
_cell_length_b 9.980822
_cell_length_c 21.504282
_cell_angle_alpha 90.000000
_cell_angle_beta 160.749229
_cell_angle_gamma 90.000000
_cell_volume 1333.981386
_symmetry_space_group_name_H-M "P 2/C"
_symmetry_group_IT_number 13
_symmetry_cell_setting 'monoclinic'
loop_
_space_group_symop_operation_xyz
x,y,z
-x,y,1/2-z
-x,-y,-z
x,-y,1/2+z
loop_
_atom_site_type_symbol
_atom_site_label
_atom_site_fract_x
_atom_site_fract_y
_atom_site_fract_z
Si Si1 0.386054 0.978068 0.057674
Si Si2 0.179855 0.963659 0.512697
Si Si3 0.350064 0.281234 0.985182
Si Si4 0.105719 0.597130 0.171862
Si Si5 0.251927 0.651034 0.534672
Si Si6 0.804275 0.322045 0.319067
Si Si7 0.283699 0.924238 0.844570
O O1 0.633032 0.990125 0.284866
O O2 0.237845 0.961755 0.995757
O O3 0.330964 0.124219 0.983408
O O4 0.339987 0.881188 0.962063
O O5 0.213122 0.806409 0.524086
O O6 0.940541 0.992886 0.337866
O O7 0.268035 0.321369 0.849519
O O8 0.227541 0.352563 0.940085
O O9 0.598871 0.319633 0.193968
O O10 0.194757 0.459232 0.218683
O O11 0.908845 0.567104 0.056216
O O12 0.012473 0.678650 0.035799
O O13 0.500000 0.617690 0.750000
O O14 0.770932 0.197425 0.246289
O O15 0.500000 0.000000 0.000000
#
# Coordination Sequence:
#
# PCOD9231760 Si02
#       7
#     4   4   4   4   4   4   4
#     4  10  20  41  65  95 125 167 222 274 323 380
#     4  10  21  41  66  94 131 165 217 279 325 383
#     4  11  20  41  66  99 118 163 221 275 322 381
#     4  11  24  41  67  89 131 170 214 275 329 379
#     4  11  19  39  71  96 123 156 226 278 317 380
#     4  11  25  44  58  95 134 173 211 267 329 396
#     4  12  25  39  63  96 136 175 215 259 334 406
#
# _framework density 20.989799000000001
#
# number of rings (size 3 to 8) (size 9 to 14) (size 15 to 20)
#    0.000    1.143    5.714    2.143    0.000    4.000 
#    0.000    2.857    3.143    0.000    0.000    0.000 
#    0.000    0.000    0.000    0.000    0.000    0.000 
#
# Total GULP energy -156416.002608 kJ/mol
# GULP energy per Si atom -5586.285807 kJ/mol
# Density = 2.094202 g / cm^3
# Si number density = 20.989799 Si / 1000 Ang^3
#
#
#
# Elastic Constant Matrix: (Units=GPa)
#
#
# Indices 1 2 3 4 5 6 
#
# 1 99.1721 36.1885 20.9808 0.0000 -19.9276 0.0000
# 2 36.1885 45.8866 29.3100 0.0000 -12.4147 0.0000
# 3 20.9808 29.3100 90.3068 0.0000 -13.7615 0.0000
# 4 0.0000 0.0000 0.0000 22.5650 0.0000 -2.8826
# 5 -19.9276 -12.4147 -13.7615 0.0000 54.2820 0.0000
# 6 0.0000 0.0000 0.0000 -2.8826 0.0000 27.9311
#
#
#
# Elastic Compliance Matrix: (Units=1/GPa)
#
#
# Indices 1 2 3 4 5 6 
#
# 1 0.014607 -0.011146 0.000679 0.000000 0.002985 0.000000
# 2 -0.011146 0.036943 -0.009088 0.000000 0.002054 0.000000
# 3 0.000679 -0.009088 0.014132 0.000000 0.001754 0.000000
# 4 0.000000 0.000000 0.000000 0.044909 0.000000 0.004635
# 5 0.002985 0.002054 0.001754 0.000000 0.020432 0.000000
# 6 0.000000 0.000000 0.000000 0.004635 0.000000 0.036281
#
#
# Mechanical properties :
#
#
# Convention : Reuss Voigt Hill
#
# Bulk Modulus (GPa) = 37.63204 45.36936 41.50070
# Shear Modulus (GPa) = 23.22644 30.88135 27.05389
#
# Velocity S-wave (km/s) = 3.33011 3.83986 3.59403
# Velocity P-wave (km/s) = 5.72309 6.42816 6.08584
#
# Compressibility (1/GPa) = 0.02657310
#
# Stress axis : x y z
#
# Youngs Moduli (GPa) = 68.46102 27.06841 70.75889
#
# Poissons Ratio (x) = 0.30169 -0.04803
# Poissons Ratio (y) = 0.76304 0.64306
# Poissons Ratio (z) = -0.04647 0.24600
#
# Static dielectric constant tensor:
#      x y z
#    x 1.814140 0.000000 -0.031910 
#    y 0.000000 1.737200 0.000000 
#    z -0.031910 0.000000 1.810960 
# 
# From -- ./inp_files/81083.got.cif
#   From: 2010.05.17/outbox.cif.g08.bks.cpg/sg13_41_cif.got.tgz:81083.got - 2010.06.03 16:44:36.
