data_PCOD9231279
_publ_section_title
;
Structure prediction by ZEFSAII (Michael W. Deem and Ramdas Pophale) SiO2 
 PCOD9231279
Probable space group: P 2/C
;
_chemical_formula_sum "Si O2"
_cell_formula_units_Z 32
_cell_length_a 15.827536
_cell_length_b 7.426276
_cell_length_c 25.122827
_cell_angle_alpha 90.000000
_cell_angle_beta 148.470972
_cell_angle_gamma 90.000000
_cell_volume 1544.176202
_symmetry_space_group_name_H-M "P 2/C"
_symmetry_group_IT_number 13
_symmetry_cell_setting 'monoclinic'
loop_
_space_group_symop_operation_xyz
x,y,z
-x,y,1/2-z
-x,-y,-z
x,-y,1/2+z
loop_
_atom_site_type_symbol
_atom_site_label
_atom_site_fract_x
_atom_site_fract_y
_atom_site_fract_z
Si Si1 0.542343 0.810066 0.927974
Si Si2 0.124385 0.580598 0.609529
Si Si3 0.413624 0.298515 0.760599
Si Si4 0.979868 0.324046 0.147472
Si Si5 0.152862 0.334751 0.856982
Si Si6 0.373795 0.877197 0.729382
Si Si7 0.365909 0.792403 0.023896
Si Si8 0.298958 0.630024 0.874812
O O1 0.469760 0.794826 0.830807
O O2 0.434964 0.681083 0.906447
O O3 0.539517 0.023302 0.936984
O O4 0.726565 0.763642 0.039298
O O5 0.268252 0.435275 0.692787
O O6 0.040308 0.623080 0.621085
O O7 0.210383 0.764211 0.635617
O O8 0.000000 0.500000 0.500000
O O9 0.500000 0.336081 0.750000
O O10 0.543045 0.303824 0.878323
O O11 0.349839 0.091534 0.723958
O O12 0.137290 0.268919 0.266501
O O13 0.916774 0.498774 0.145978
O O14 0.824574 0.192859 0.062239
O O15 0.249561 0.423352 0.859024
O O16 0.000000 0.232400 0.750000
O O17 0.500000 0.855990 0.750000
O O18 0.359675 0.692599 0.964676
#
# Coordination Sequence:
#
# PCOD9231279 Si02
#       8
#     4   4   4   4   4   4   4   4
#     4  11  21  38  63  92 120 169 217 260 323 387
#     4  12  25  40  67  96 122 171 216 258 329 388
#     4  10  23  45  65  94 129 167 220 268 318 384
#     4  10  22  40  56  92 130 160 205 265 319 378
#     4   9  21  35  56  86 125 167 203 257 319 371
#     4  10  24  43  66  94 128 167 216 273 327 378
#     4  10  22  38  64  90 125 172 207 261 325 386
#     4  10  20  39  61  87 128 164 212 267 317 381
#
# _framework density 20.723023999999999
#
# number of rings (size 3 to 8) (size 9 to 14) (size 15 to 20)
#    0.000    1.750    1.250    3.000    5.250    3.500 
#    2.250    0.000    0.000    0.000    0.000    0.000 
#    0.000    0.000    0.000    0.000    0.000    0.000 
#
# Total GULP energy -178543.236828 kJ/mol
# GULP energy per Si atom -5579.476151 kJ/mol
# Density = 2.067586 g / cm^3
# Si number density = 20.723024 Si / 1000 Ang^3
#
#
#
# Elastic Constant Matrix: (Units=GPa)
#
#
# Indices 1 2 3 4 5 6 
#
# 1 95.8970 29.4744 6.3164 0.0000 -6.7226 0.0000
# 2 29.4744 42.2672 23.1990 0.0000 1.0998 0.0000
# 3 6.3164 23.1990 110.3667 0.0000 -7.7185 0.0000
# 4 0.0000 0.0000 0.0000 5.8423 0.0000 10.2704
# 5 -6.7226 1.0998 -7.7185 0.0000 31.1926 0.0000
# 6 0.0000 0.0000 0.0000 10.2704 0.0000 10.8258
#
#
#
# Elastic Compliance Matrix: (Units=1/GPa)
#
#
# Indices 1 2 3 4 5 6 
#
# 1 0.013876 -0.010721 0.001725 0.000000 0.003795 0.000000
# 2 -0.010721 0.035203 -0.007158 0.000000 -0.005323 0.000000
# 3 0.001725 -0.007158 0.010695 0.000000 0.003271 0.000000
# 4 0.000000 0.000000 0.000000 -0.256327 0.000000 0.243177
# 5 0.003795 -0.005323 0.003271 0.000000 0.033874 0.000000
# 6 0.000000 0.000000 0.000000 0.243177 0.000000 -0.138330
#
#
# Mechanical properties :
#
#
# Convention : Reuss Voigt Hill
#
# Bulk Modulus (GPa) = 36.41094 40.72339 38.56716
# Shear Modulus (GPa) = -19.26444 22.20823 1.47190
#
# Velocity S-wave (km/s) = -3.05227 3.27719 0.84369
# Velocity P-wave (km/s) = 2.27742 5.83214 4.42722
#
# Compressibility (1/GPa) = 0.02746428
#
# Stress axis : x y z
#
# Youngs Moduli (GPa) = 72.06901 28.40676 93.49826
#
# Poissons Ratio (x) = 0.30456 -0.16128
# Poissons Ratio (y) = 0.77268 0.66929
# Poissons Ratio (z) = -0.12432 0.20334
#
# Static dielectric constant tensor:
#      x y z
#    x 1.737550 0.000000 0.016020 
#    y 0.000000 1.777210 0.000000 
#    z 0.016020 0.000000 1.783170 
# 
# From -- ./inp_files/87419.got.cif
#   From: 2010.05.17/outbox.cif.g08.bks.cpg/sg13_44_cif.got.tgz:87419.got - 2010.06.03 16:44:36.
