data_PCOD9231369
_publ_section_title
;
Structure prediction by ZEFSAII (Michael W. Deem and Ramdas Pophale) SiO2 
 PCOD9231369
Probable space group: P 2/C
;
_chemical_formula_sum "Si O2"
_cell_formula_units_Z 26
_cell_length_a 13.151559
_cell_length_b 9.818502
_cell_length_c 14.629294
_cell_angle_alpha 90.000000
_cell_angle_beta 138.837867
_cell_angle_gamma 90.000000
_cell_volume 1243.364507
_symmetry_space_group_name_H-M "P 2/C"
_symmetry_group_IT_number 13
_symmetry_cell_setting 'monoclinic'
loop_
_space_group_symop_operation_xyz
x,y,z
-x,y,1/2-z
-x,-y,-z
x,-y,1/2+z
loop_
_atom_site_type_symbol
_atom_site_label
_atom_site_fract_x
_atom_site_fract_y
_atom_site_fract_z
Si Si1 0.789601 0.308755 0.725681
Si Si2 0.000000 0.104797 0.750000
Si Si3 0.969886 0.244174 0.467300
Si Si4 0.445100 0.960416 0.810711
Si Si5 0.852924 0.991272 0.986935
Si Si6 0.439984 0.799482 0.995003
Si Si7 0.848522 0.388696 0.209646
O O1 0.887064 0.195642 0.735995
O O2 0.610214 0.268842 0.612445
O O3 0.807038 0.452403 0.686735
O O4 0.883646 0.313246 0.885035
O O5 0.879835 0.013555 0.612543
O O6 0.862033 0.172165 0.470171
O O7 0.891127 0.339609 0.340817
O O8 0.018991 0.102638 0.452519
O O9 0.500000 0.900037 0.750000
O O10 0.290842 0.035152 0.671345
O O11 0.552633 0.076353 0.927841
O O12 0.417666 0.858931 0.876638
O O13 0.299988 0.698155 0.921608
O O14 0.000000 0.367284 0.250000
#
# Coordination Sequence:
#
# PCOD9231369 Si02
#       7
#     4   2   4   4   4   4   4
#     4  11  22  46  64  94 135 176 225 274 331 397
#     4  10  22  36  72 100 126 172 222 272 340 408
#     4  10  22  39  65  92 128 174 214 274 339 384
#     4  11  23  41  67 101 139 171 216 292 343 401
#     4  10  20  39  64  97 131 164 212 278 334 395
#     4  11  25  43  69 100 137 179 226 280 343 398
#     4  12  26  43  66  96 134 184 233 272 323 408
#
# _framework density 20.911003999999998
#
# number of rings (size 3 to 8) (size 9 to 14) (size 15 to 20)
#    0.000    1.231    3.846    1.846    3.231    0.000 
#    0.000    0.000    0.000    1.846    0.000    0.000 
#    0.000    0.000    0.000    0.000    0.000    0.000 
#
# Total GULP energy -144865.508410 kJ/mol
# GULP energy per Si atom -5571.750323 kJ/mol
# Density = 2.086341 g / cm^3
# Si number density = 20.911004 Si / 1000 Ang^3
#
#
#
# Elastic Constant Matrix: (Units=GPa)
#
#
# Indices 1 2 3 4 5 6 
#
# 1 73.5108 22.9206 42.0139 0.0000 21.5482 0.0000
# 2 22.9206 57.4824 23.1131 0.0000 8.4301 0.0000
# 3 42.0139 23.1131 134.5737 0.0000 4.0554 0.0000
# 4 0.0000 0.0000 0.0000 22.6477 0.0000 11.9212
# 5 21.5482 8.4301 4.0554 0.0000 39.3683 0.0000
# 6 0.0000 0.0000 0.0000 11.9212 0.0000 22.5750
#
#
#
# Elastic Compliance Matrix: (Units=1/GPa)
#
#
# Indices 1 2 3 4 5 6 
#
# 1 0.021152 -0.004764 -0.005485 0.000000 -0.009993 0.000000
# 2 -0.004764 0.020308 -0.001954 0.000000 -0.001540 0.000000
# 3 -0.005485 -0.001954 0.009405 0.000000 0.002452 0.000000
# 4 0.000000 0.000000 0.000000 0.061153 0.000000 -0.032293
# 5 -0.009993 -0.001540 0.002452 0.000000 0.030948 0.000000
# 6 0.000000 0.000000 0.000000 -0.032293 0.000000 0.061350
#
#
# Mechanical properties :
#
#
# Convention : Reuss Voigt Hill
#
# Bulk Modulus (GPa) = 37.79241 49.07355 43.43298
# Shear Modulus (GPa) = 21.04903 28.75282 24.90092
#
# Velocity S-wave (km/s) = 3.17614 3.71213 3.45455
# Velocity P-wave (km/s) = 5.61807 6.47240 6.06031
#
# Compressibility (1/GPa) = 0.02646034
#
# Stress axis : x y z
#
# Youngs Moduli (GPa) = 47.27575 49.24243 106.32752
#
# Poissons Ratio (x) = 0.23457 0.58316
# Poissons Ratio (y) = 0.22520 0.20779
# Poissons Ratio (z) = 0.25928 0.09623
#
# Static dielectric constant tensor:
#      x y z
#    x 1.996290 0.000000 -0.016820 
#    y 0.000000 1.745990 0.000000 
#    z -0.016820 0.000000 1.792760 
# 
# From -- ./inp_files/53253.got.cif
#   From: 2010.05.17/outbox.cif.g08.bks.cpg/sg13_27_cif.got.tgz:53253.got - 2010.06.03 16:44:36.
