data_PCOD9231798
_publ_section_title
;
Structure prediction by ZEFSAII (Michael W. Deem and Ramdas Pophale) SiO2 
 PCOD9231798
Probable space group: P 2/C
;
_chemical_formula_sum "Si O2"
_cell_formula_units_Z 24
_cell_length_a 17.844226
_cell_length_b 8.254528
_cell_length_c 24.969964
_cell_angle_alpha 90.000000
_cell_angle_beta 18.297047
_cell_angle_gamma 90.000000
_cell_volume 1154.674043
_symmetry_space_group_name_H-M "P 2/C"
_symmetry_group_IT_number 13
_symmetry_cell_setting 'monoclinic'
loop_
_space_group_symop_operation_xyz
x,y,z
-x,y,1/2-z
-x,-y,-z
x,-y,1/2+z
loop_
_atom_site_type_symbol
_atom_site_label
_atom_site_fract_x
_atom_site_fract_y
_atom_site_fract_z
Si Si1 0.000000 0.222824 0.250000
Si Si2 0.534743 0.627539 0.927867
Si Si3 0.500000 0.183698 0.750000
Si Si4 0.257037 0.932734 0.311145
Si Si5 0.851198 0.428230 0.650701
Si Si6 0.949898 0.369905 0.396808
Si Si7 0.397303 0.957289 0.011922
O O1 0.072250 0.338540 0.151344
O O2 0.208542 0.096120 0.124439
O O3 0.603239 0.525364 0.828761
O O4 0.335993 0.765098 0.057265
O O5 0.792203 0.711504 0.765411
O O6 0.500000 0.500000 0.000000
O O7 0.587836 0.081159 0.740578
O O8 0.724869 0.289765 0.578204
O O9 0.213593 0.754925 0.316344
O O10 0.402645 0.033781 0.169517
O O11 0.000000 0.000000 0.500000
O O12 0.000000 0.500000 0.500000
O O13 0.998867 0.461813 0.605824
O O14 0.500000 0.000000 0.000000
#
# Coordination Sequence:
#
# PCOD9231798 Si02
#       7
#     2   4   2   4   4   4   4
#     4  12  24  42  70 108 140 186 232 296 352 418
#     4  10  22  43  69  97 133 183 237 282 353 430
#     4  12  22  46  68 108 142 186 236 294 358 418
#     4  12  25  42  76 101 141 189 237 300 354 421
#     4  10  20  41  68  98 132 184 234 278 354 423
#     4  10  23  41  70 101 142 186 238 277 365 417
#     4  12  23  41  70  96 139 183 230 293 350 418
#
# _framework density 20.785087000000001
#
# number of rings (size 3 to 8) (size 9 to 14) (size 15 to 20)
#    1.000    0.000    5.000    3.000    0.000    0.000 
#    0.000    3.333    3.667    0.000    0.000    0.000 
#    0.000    0.000    0.000    0.000    0.000    0.000 
#
# Total GULP energy -133704.501544 kJ/mol
# GULP energy per Si atom -5571.020898 kJ/mol
# Density = 2.073778 g / cm^3
# Si number density = 20.785087 Si / 1000 Ang^3
#
#
#
# Elastic Constant Matrix: (Units=GPa)
#
#
# Indices 1 2 3 4 5 6 
#
# 1 140.5987 52.6262 43.1681 0.0000 14.5427 0.0000
# 2 52.6262 99.3227 10.5785 0.0000 12.6344 0.0000
# 3 43.1681 10.5785 91.8088 0.0000 15.5834 0.0000
# 4 0.0000 0.0000 0.0000 32.7118 0.0000 2.9381
# 5 14.5427 12.6344 15.5834 0.0000 42.1512 0.0000
# 6 0.0000 0.0000 0.0000 2.9381 0.0000 32.2070
#
#
#
# Elastic Compliance Matrix: (Units=1/GPa)
#
#
# Indices 1 2 3 4 5 6 
#
# 1 0.010303 -0.004947 -0.004186 0.000000 -0.000525 0.000000
# 2 -0.004947 0.012887 0.001288 0.000000 -0.002632 0.000000
# 3 -0.004186 0.001288 0.013371 0.000000 -0.003885 0.000000
# 4 0.000000 0.000000 0.000000 0.030823 0.000000 -0.002812
# 5 -0.000525 -0.002632 -0.003885 0.000000 0.026131 0.000000
# 6 0.000000 0.000000 0.000000 -0.002812 0.000000 0.031306
#
#
# Mechanical properties :
#
#
# Convention : Reuss Voigt Hill
#
# Bulk Modulus (GPa) = 47.90951 60.49732 54.20342
# Shear Modulus (GPa) = 33.90593 36.43782 35.17187
#
# Velocity S-wave (km/s) = 4.04327 4.19152 4.11806
# Velocity P-wave (km/s) = 6.70055 7.25220 6.98182
#
# Compressibility (1/GPa) = 0.02087268
#
# Stress axis : x y z
#
# Youngs Moduli (GPa) = 97.05564 77.59830 74.78674
#
# Poissons Ratio (x) = 0.38386 0.31303
# Poissons Ratio (y) = 0.48011 -0.09631
# Poissons Ratio (z) = 0.40623 -0.09993
#
# Static dielectric constant tensor:
#      x y z
#    x 1.854720 0.000000 -0.073470 
#    y 0.000000 1.826580 0.000000 
#    z -0.073470 0.000000 1.816510 
# 
# From -- ./inp_files/87873.got.cif
#   From: 2010.05.17/outbox.cif.g08.bks.cpg/sg13_44_cif.got.tgz:87873.got - 2010.06.03 16:44:36.
