data_PCOD9231588
_publ_section_title
;
Structure prediction by ZEFSAII (Michael W. Deem and Ramdas Pophale) SiO2 
 PCOD9231588
Probable space group: P 2/C
;
_chemical_formula_sum "Si O2"
_cell_formula_units_Z 20
_cell_length_a 10.833180
_cell_length_b 11.607066
_cell_length_c 10.707157
_cell_angle_alpha 90.000000
_cell_angle_beta 41.695279
_cell_angle_gamma 90.000000
_cell_volume 895.538941
_symmetry_space_group_name_H-M "P 2/C"
_symmetry_group_IT_number 13
_symmetry_cell_setting 'monoclinic'
loop_
_space_group_symop_operation_xyz
x,y,z
-x,y,1/2-z
-x,-y,-z
x,-y,1/2+z
loop_
_atom_site_type_symbol
_atom_site_label
_atom_site_fract_x
_atom_site_fract_y
_atom_site_fract_z
Si Si1 0.544957 0.410119 0.355642
Si Si2 0.622772 0.164969 0.979585
Si Si3 0.307828 0.780172 0.357933
Si Si4 0.029655 0.636876 0.971942
Si Si5 0.000000 0.776364 0.250000
Si Si6 0.500000 0.009586 0.750000
O O1 0.500000 0.456788 0.250000
O O2 0.500000 0.500000 0.500000
O O3 0.420611 0.296826 0.455544
O O4 0.751896 0.359452 0.221690
O O5 0.657532 0.170534 0.807080
O O6 0.820356 0.144390 0.893875
O O7 0.478916 0.076922 0.148814
O O8 0.500000 0.715558 0.250000
O O9 0.123725 0.702407 0.498684
O O10 0.332056 0.901558 0.411590
O O11 0.000000 0.500000 0.000000
O O12 0.996320 0.694957 0.131561
#
# Coordination Sequence:
#
# PCOD9231588 Si02
#       6
#     4   4   4   4   2   2
#     4  12  25  44  72 106 144 189 242 299 372 438
#     4  11  20  42  67  95 136 189 233 293 361 428
#     4   9  23  42  66 100 142 178 241 295 350 427
#     4  11  23  41  66  97 136 187 229 296 360 435
#     4  10  20  40  64  98 132 182 244 278 358 438
#     4  10  20  42  68 100 140 182 242 298 354 416
#
# _framework density 22.332922
#
# number of rings (size 3 to 8) (size 9 to 14) (size 15 to 20)
#    0.600    0.800    3.000    3.000    0.000    3.200 
#    0.000   11.000    0.000    0.000    0.000    0.000 
#    0.000    0.000    0.000    0.000    0.000    0.000 
#
# Total GULP energy -111347.974078 kJ/mol
# GULP energy per Si atom -5567.398704 kJ/mol
# Density = 2.228209 g / cm^3
# Si number density = 22.332922 Si / 1000 Ang^3
#
#
#
# Elastic Constant Matrix: (Units=GPa)
#
#
# Indices 1 2 3 4 5 6 
#
# 1 107.5296 40.8593 34.6684 0.0000 -28.6252 0.0000
# 2 40.8593 127.0181 30.1905 0.0000 -4.8876 0.0000
# 3 34.6684 30.1905 78.1393 0.0000 -24.6785 0.0000
# 4 0.0000 0.0000 0.0000 31.0567 0.0000 -3.2158
# 5 -28.6252 -4.8876 -24.6785 0.0000 41.4675 0.0000
# 6 0.0000 0.0000 0.0000 -3.2158 0.0000 30.1257
#
#
#
# Elastic Compliance Matrix: (Units=1/GPa)
#
#
# Indices 1 2 3 4 5 6 
#
# 1 0.013320 -0.003472 -0.002209 0.000000 0.007471 0.000000
# 2 -0.003472 0.009623 -0.003172 0.000000 -0.003151 0.000000
# 3 -0.002209 -0.003172 0.017738 0.000000 0.008658 0.000000
# 4 0.000000 0.000000 0.000000 0.032559 0.000000 0.003476
# 5 0.007471 -0.003151 0.008658 0.000000 0.034054 0.000000
# 6 0.000000 0.000000 0.000000 0.003476 0.000000 0.033565
#
#
# Mechanical properties :
#
#
# Convention : Reuss Voigt Hill
#
# Bulk Modulus (GPa) = 43.52793 58.23592 50.88193
# Shear Modulus (GPa) = 30.08004 34.32790 32.20397
#
# Velocity S-wave (km/s) = 3.67398 3.92484 3.80148
# Velocity P-wave (km/s) = 6.12620 6.83169 6.48854
#
# Compressibility (1/GPa) = 0.02297375
#
# Stress axis : x y z
#
# Youngs Moduli (GPa) = 75.07398 103.92098 56.37748
#
# Poissons Ratio (x) = 0.36086 0.12451
# Poissons Ratio (y) = 0.26069 0.17885
# Poissons Ratio (z) = 0.16580 0.32968
#
# Static dielectric constant tensor:
#      x y z
#    x 1.965270 0.000000 -0.211010 
#    y 0.000000 1.907810 0.000000 
#    z -0.211010 0.000000 2.276700 
# 
# From -- ./inp_files/33053.got.cif
#   From: 2010.05.17/outbox.cif.g08.bks.cpg/sg13_17_cif.got.tgz:33053.got - 2010.06.03 16:44:36.
