data_PCOD9231680
_publ_section_title
;
Structure prediction by ZEFSAII (Michael W. Deem and Ramdas Pophale) SiO2 
 PCOD9231680
Probable space group: P 2/C
;
_chemical_formula_sum "Si O2"
_cell_formula_units_Z 18
_cell_length_a 22.090662
_cell_length_b 6.541178
_cell_length_c 10.017431
_cell_angle_alpha 90.000000
_cell_angle_beta 146.998197
_cell_angle_gamma 90.000000
_cell_volume 788.407717
_symmetry_space_group_name_H-M "P 2/C"
_symmetry_group_IT_number 13
_symmetry_cell_setting 'monoclinic'
loop_
_space_group_symop_operation_xyz
x,y,z
-x,y,1/2-z
-x,-y,-z
x,-y,1/2+z
loop_
_atom_site_type_symbol
_atom_site_label
_atom_site_fract_x
_atom_site_fract_y
_atom_site_fract_z
Si Si1 0.795898 0.914911 0.569740
Si Si2 0.409311 0.892749 0.682652
Si Si3 0.500000 0.500000 0.000000
Si Si4 0.720704 0.583034 0.245632
Si Si5 0.124451 0.782286 0.513707
O O1 0.795044 0.699536 0.492085
O O2 0.870234 0.910556 0.839588
O O3 0.669179 0.953147 0.383916
O O4 0.830521 0.085629 0.527383
O O5 0.500000 0.990144 0.750000
O O6 0.324236 0.751457 0.440559
O O7 0.473724 0.730890 0.892320
O O8 0.612867 0.488246 0.116122
O O9 0.792815 0.406893 0.312309
O O10 0.000000 0.717001 0.250000
#
# Coordination Sequence:
#
# PCOD9231680 Si02
#       5
#     4   4   2   4   4
#     4  12  25  48  74 103 146 185 248 296 358 433
#     4  10  22  41  69 108 140 186 232 291 356 430
#     4  10  20  40  70 100 144 182 230 284 354 438
#     4  11  24  44  70 104 145 185 240 296 364 423
#     4  12  28  47  73 104 144 192 245 301 359 424
#
# _framework density 22.830826999999999
#
# number of rings (size 3 to 8) (size 9 to 14) (size 15 to 20)
#    0.000    0.889    4.444    2.000    0.000    7.111 
#    0.000    0.000    0.000    0.000    0.000    0.000 
#    0.000    0.000    0.000    0.000    0.000    0.000 
#
# Total GULP energy -100265.464324 kJ/mol
# GULP energy per Si atom -5570.303574 kJ/mol
# Density = 2.277886 g / cm^3
# Si number density = 22.830827 Si / 1000 Ang^3
#
#
#
# Elastic Constant Matrix: (Units=GPa)
#
#
# Indices 1 2 3 4 5 6 
#
# 1 67.9059 17.9822 16.0688 0.0000 -4.5724 0.0000
# 2 17.9822 22.7546 8.4987 0.0000 -1.9463 0.0000
# 3 16.0688 8.4987 84.5444 0.0000 -4.8381 0.0000
# 4 0.0000 0.0000 0.0000 227.1957 0.0000 -45.8588
# 5 -4.5724 -1.9463 -4.8381 0.0000 30.9380 0.0000
# 6 0.0000 0.0000 0.0000 -45.8588 0.0000 31.2382
#
#
#
# Elastic Compliance Matrix: (Units=1/GPa)
#
#
# Indices 1 2 3 4 5 6 
#
# 1 0.019082 -0.014154 -0.002112 0.000000 0.001599 0.000000
# 2 -0.014154 0.056306 -0.002913 0.000000 0.000995 0.000000
# 3 -0.002112 -0.002913 0.012607 0.000000 0.001476 0.000000
# 4 0.000000 0.000000 0.000000 0.006255 0.000000 0.009182
# 5 0.001599 0.000995 0.001476 0.000000 0.032852 0.000000
# 6 0.000000 0.000000 0.000000 0.009182 0.000000 0.045492
#
#
# Mechanical properties :
#
#
# Convention : Reuss Voigt Hill
#
# Bulk Modulus (GPa) = 20.14683 28.92270 24.53476
# Shear Modulus (GPa) = 21.97819 66.71807 44.34813
#
# Velocity S-wave (km/s) = 3.10603 5.41168 4.41212
# Velocity P-wave (km/s) = 4.65906 7.19334 6.06015
#
# Compressibility (1/GPa) = 0.04963561
#
# Stress axis : x y z
#
# Youngs Moduli (GPa) = 52.40540 17.76021 79.32179
#
# Poissons Ratio (x) = 0.25138 0.16756
# Poissons Ratio (y) = 0.74175 0.23106
# Poissons Ratio (z) = 0.11070 0.05173
#
# Static dielectric constant tensor:
#      x y z
#    x 1.842470 0.000000 -0.055970 
#    y 0.000000 1.803200 0.000000 
#    z -0.055970 0.000000 1.875600 
# 
# From -- ./inp_files/41370.got.cif
#   From: 2010.05.17/outbox.cif.g08.bks.cpg/sg13_21_cif.got.tgz:41370.got - 2010.06.03 16:44:36.
