data_PCOD9231711
_publ_section_title
;
Structure prediction by ZEFSAII (Michael W. Deem and Ramdas Pophale) SiO2 
 PCOD9231711
Probable space group: P 2/C
;
_chemical_formula_sum "Si O2"
_cell_formula_units_Z 22
_cell_length_a 29.240983
_cell_length_b 8.220925
_cell_length_c 9.155038
_cell_angle_alpha 90.000000
_cell_angle_beta 151.029889
_cell_angle_gamma 90.000000
_cell_volume 1065.945665
_symmetry_space_group_name_H-M "P 2/C"
_symmetry_group_IT_number 13
_symmetry_cell_setting 'monoclinic'
loop_
_space_group_symop_operation_xyz
x,y,z
-x,y,1/2-z
-x,-y,-z
x,-y,1/2+z
loop_
_atom_site_type_symbol
_atom_site_label
_atom_site_fract_x
_atom_site_fract_y
_atom_site_fract_z
Si Si1 0.710132 0.192915 0.574380
Si Si2 0.000000 0.509113 0.250000
Si Si3 0.404786 0.885428 0.248293
Si Si4 0.134121 0.591499 0.873400
Si Si5 0.289061 0.651468 0.725484
Si Si6 0.600724 0.348782 0.503010
O O1 0.730841 0.229918 0.464284
O O2 0.622118 0.296601 0.396615
O O3 0.681251 0.008931 0.513576
O O4 0.795638 0.259060 0.908753
O O5 0.937933 0.410813 0.193116
O O6 0.074934 0.602783 0.559916
O O7 0.400213 0.809354 0.397125
O O8 0.500000 0.000000 0.500000
O O9 0.373860 0.734205 0.056699
O O10 0.196942 0.422855 0.049776
O O11 0.324882 0.485361 0.748921
O O12 0.500000 0.425883 0.250000
#
# Coordination Sequence:
#
# PCOD9231711 Si02
#       6
#     4   2   4   4   4   4
#     4  11  23  40  63  94 136 171 220 275 338 388
#     4  10  20  40  76 100 136 166 236 274 340 420
#     4  12  26  43  63  96 138 186 223 274 334 387
#     4  10  21  42  69 108 126 180 221 283 336 404
#     4  11  25  41  65  96 133 177 230 277 323 401
#     4  11  23  40  62  91 126 180 235 270 313 385
#
# _framework density 20.638952
#
# number of rings (size 3 to 8) (size 9 to 14) (size 15 to 20)
#    0.000    1.091    3.636    3.273    5.091    1.455 
#    0.000    0.000    0.000    6.545    0.000    0.000 
#    0.000    0.000    0.000    0.000    0.000    0.000 
#
# Total GULP energy -122547.946211 kJ/mol
# GULP energy per Si atom -5570.361191 kJ/mol
# Density = 2.059198 g / cm^3
# Si number density = 20.638952 Si / 1000 Ang^3
#
#
#
# Elastic Constant Matrix: (Units=GPa)
#
#
# Indices 1 2 3 4 5 6 
#
# 1 86.0346 26.1281 31.4619 0.0000 1.9416 0.0000
# 2 26.1281 80.5683 31.4424 0.0000 2.3223 0.0000
# 3 31.4619 31.4424 113.1261 0.0000 -6.8984 0.0000
# 4 0.0000 0.0000 0.0000 25.4186 0.0000 -5.9006
# 5 1.9416 2.3223 -6.8984 0.0000 34.9003 0.0000
# 6 0.0000 0.0000 0.0000 -5.9006 0.0000 26.4795
#
#
#
# Elastic Compliance Matrix: (Units=1/GPa)
#
#
# Indices 1 2 3 4 5 6 
#
# 1 0.013728 -0.003255 -0.002983 0.000000 -0.001137 0.000000
# 2 -0.003255 0.014796 -0.003296 0.000000 -0.001455 0.000000
# 3 -0.002983 -0.003296 0.010738 0.000000 0.002508 0.000000
# 4 0.000000 0.000000 0.000000 0.041487 0.000000 0.009245
# 5 -0.001137 -0.001455 0.002508 0.000000 0.029309 0.000000
# 6 0.000000 0.000000 0.000000 0.009245 0.000000 0.039825
#
#
# Mechanical properties :
#
#
# Convention : Reuss Voigt Hill
#
# Bulk Modulus (GPa) = 49.51752 50.86600 50.19176
# Shear Modulus (GPa) = 28.46055 30.07280 29.26668
#
# Velocity S-wave (km/s) = 3.71748 3.82133 3.76976
# Velocity P-wave (km/s) = 6.51694 6.64599 6.58178
#
# Compressibility (1/GPa) = 0.02019487
#
# Stress axis : x y z
#
# Youngs Moduli (GPa) = 72.84289 67.58764 93.12638
#
# Poissons Ratio (x) = 0.22002 0.27775
# Poissons Ratio (y) = 0.23713 0.30691
# Poissons Ratio (z) = 0.21726 0.22275
#
# Static dielectric constant tensor:
#      x y z
#    x 1.768540 0.000000 0.012600 
#    y 0.000000 1.740550 0.000000 
#    z 0.012600 0.000000 1.796130 
# 
# From -- ./inp_files/18174.got.cif
#   From: 2010.05.17/outbox.cif.g08.bks.cpg/sg13_10_cif.got.tgz:18174.got - 2010.06.03 16:44:36.
