data_PCOD9231183
_publ_section_title
;
Structure prediction by ZEFSAII (Michael W. Deem and Ramdas Pophale) SiO2 
 PCOD9231183
Probable space group: P 2/C
;
_chemical_formula_sum "Si O2"
_cell_formula_units_Z 16
_cell_length_a 9.127878
_cell_length_b 9.491992
_cell_length_c 9.361969
_cell_angle_alpha 90.000000
_cell_angle_beta 127.654495
_cell_angle_gamma 90.000000
_cell_volume 642.184697
_symmetry_space_group_name_H-M "P 2/C"
_symmetry_group_IT_number 13
_symmetry_cell_setting 'monoclinic'
loop_
_space_group_symop_operation_xyz
x,y,z
-x,y,1/2-z
-x,-y,-z
x,-y,1/2+z
loop_
_atom_site_type_symbol
_atom_site_label
_atom_site_fract_x
_atom_site_fract_y
_atom_site_fract_z
Si Si1 0.813196 0.350181 0.353519
Si Si2 0.313818 0.406911 0.901004
Si Si3 0.444261 0.157571 0.504715
Si Si4 0.087685 0.875875 0.958590
O O1 0.742237 0.384591 0.468797
O O2 0.824059 0.491667 0.266461
O O3 0.673632 0.238931 0.190511
O O4 0.005612 0.268770 0.469072
O O5 0.500000 0.500000 0.000000
O O6 0.375530 0.256554 0.875383
O O7 0.304232 0.139776 0.553952
O O8 0.500000 0.000000 0.500000
O O9 0.000000 0.898358 0.750000
O O10 0.000000 0.000000 0.000000
#
# Coordination Sequence:
#
# PCOD9231183 Si02
#       4
#     4   4   4   4
#     4  10  22  43  66  95 133 174 216 266 328 393
#     4  10  20  40  65  95 131 173 218 266 322 389
#     4  10  20  38  67  98 127 167 218 270 320 385
#     4  10  22  43  66  96 131 170 219 272 329 391
#
# _framework density 24.914949
#
# number of rings (size 3 to 8) (size 9 to 14) (size 15 to 20)
#    0.000    2.000    0.000    4.500    0.000    2.000 
#    0.000   67.500    0.000   31.500    0.000    0.000 
#    0.000    0.000    0.000    0.000    0.000    0.000 
#
# Total GULP energy -89595.266372 kJ/mol
# GULP energy per Si atom -5599.704148 kJ/mol
# Density = 2.485824 g / cm^3
# Si number density = 24.914949 Si / 1000 Ang^3
#
#
#
# Elastic Constant Matrix: (Units=GPa)
#
#
# Indices 1 2 3 4 5 6 
#
# 1 215.9084 110.0677 79.2687 0.0000 -46.0825 0.0000
# 2 110.0677 263.6952 78.8393 0.0000 -22.4841 0.0000
# 3 79.2687 78.8393 94.4892 0.0000 -29.9123 0.0000
# 4 0.0000 0.0000 0.0000 38.3824 0.0000 -9.3887
# 5 -46.0825 -22.4841 -29.9123 0.0000 52.9589 0.0000
# 6 0.0000 0.0000 0.0000 -9.3887 0.0000 65.3785
#
#
#
# Elastic Compliance Matrix: (Units=1/GPa)
#
#
# Indices 1 2 3 4 5 6 
#
# 1 0.007753 -0.001769 -0.003812 0.000000 0.003842 0.000000
# 2 -0.001769 0.005460 -0.003440 0.000000 -0.001164 0.000000
# 3 -0.003812 -0.003440 0.018435 0.000000 0.005635 0.000000
# 4 0.000000 0.000000 0.000000 0.027002 0.000000 0.003878
# 5 0.003842 -0.001164 0.005635 0.000000 0.024915 0.000000
# 6 0.000000 0.000000 0.000000 0.003878 0.000000 0.015852
#
#
# Mechanical properties :
#
#
# Convention : Reuss Voigt Hill
#
# Bulk Modulus (GPa) = 73.49494 123.38269 98.43881
# Shear Modulus (GPa) = 40.98548 51.73843 46.36196
#
# Velocity S-wave (km/s) = 4.06028 4.56192 4.31839
# Velocity P-wave (km/s) = 7.17938 8.79643 8.02872
#
# Compressibility (1/GPa) = 0.01360638
#
# Stress axis : x y z
#
# Youngs Moduli (GPa) = 128.98466 183.15502 54.24344
#
# Poissons Ratio (x) = 0.32397 0.20677
# Poissons Ratio (y) = 0.22815 0.18661
# Poissons Ratio (z) = 0.49167 0.63010
#
# Static dielectric constant tensor:
#      x y z
#    x 1.997230 0.000000 0.101040 
#    y 0.000000 1.929340 0.000000 
#    z 0.101040 0.000000 2.127390 
# 
# From -- ./inp_files/11919.got.cif
#   From: 2010.05.17/outbox.cif.g08.bks.cpg/sg13_6_cif.got.tgz:11919.got - 2010.06.03 16:44:36.
