data_PCOD9231540
_publ_section_title
;
Structure prediction by ZEFSAII (Michael W. Deem and Ramdas Pophale) SiO2 
 PCOD9231540
Probable space group: P 2/C
;
_chemical_formula_sum "Si O2"
_cell_formula_units_Z 22
_cell_length_a 11.594451
_cell_length_b 9.003128
_cell_length_c 28.473459
_cell_angle_alpha 90.000000
_cell_angle_beta 19.748946
_cell_angle_gamma 90.000000
_cell_volume 1004.318053
_symmetry_space_group_name_H-M "P 2/C"
_symmetry_group_IT_number 13
_symmetry_cell_setting 'monoclinic'
loop_
_space_group_symop_operation_xyz
x,y,z
-x,y,1/2-z
-x,-y,-z
x,-y,1/2+z
loop_
_atom_site_type_symbol
_atom_site_label
_atom_site_fract_x
_atom_site_fract_y
_atom_site_fract_z
Si Si1 0.775535 0.139571 0.104703
Si Si2 0.271796 0.960714 0.042772
Si Si3 0.500000 0.656021 0.250000
Si Si4 0.765769 0.722295 0.514395
Si Si5 0.274746 0.159341 0.687157
Si Si6 0.681788 0.603426 0.079135
O O1 0.500000 0.101555 0.250000
O O2 0.606308 0.209581 0.122596
O O3 0.021718 0.272693 0.029480
O O4 0.000000 0.000000 0.000000
O O5 0.896459 0.942792 0.207387
O O6 0.363761 0.805033 0.982141
O O7 0.500000 0.000000 0.000000
O O8 0.379185 0.084954 0.964528
O O9 0.592416 0.565807 0.167662
O O10 0.171944 0.753710 0.362856
O O11 0.751867 0.544878 0.523239
O O12 0.366136 0.314248 0.675652
O O13 0.000000 0.172570 0.750000
#
# Coordination Sequence:
#
# PCOD9231540 Si02
#       6
#     4   4   2   4   4   4
#     4  11  26  40  63  99 141 181 231 276 343 421
#     4  10  22  44  70  96 132 179 233 286 340 402
#     4  10  20  40  62  94 144 174 212 276 342 414
#     4  11  24  39  69  98 137 181 225 281 352 405
#     4  10  22  44  69  96 131 180 229 290 340 404
#     4  11  24  39  69  97 141 180 225 282 349 411
#
# _framework density 21.905411000000001
#
# number of rings (size 3 to 8) (size 9 to 14) (size 15 to 20)
#    0.000    1.455    1.818    3.273   10.182    4.364 
#    0.000    6.364    0.000    0.000    0.000    0.000 
#    0.000    0.000    0.000    0.000    0.000    0.000 
#
# Total GULP energy -122821.344563 kJ/mol
# GULP energy per Si atom -5582.788389 kJ/mol
# Density = 2.185555 g / cm^3
# Si number density = 21.905411 Si / 1000 Ang^3
#
#
#
# Elastic Constant Matrix: (Units=GPa)
#
#
# Indices 1 2 3 4 5 6 
#
# 1 113.3254 71.4188 47.2744 0.0000 18.4441 0.0000
# 2 71.4188 137.9349 42.0573 0.0000 -1.2752 0.0000
# 3 47.2744 42.0573 97.7428 0.0001 23.2818 0.0000
# 4 0.0000 0.0000 0.0001 23.0511 0.0000 2.8556
# 5 18.4441 -1.2752 23.2818 0.0000 28.6994 0.0000
# 6 0.0000 0.0000 0.0000 2.8556 0.0000 43.6906
#
#
#
# Elastic Compliance Matrix: (Units=1/GPa)
#
#
# Indices 1 2 3 4 5 6 
#
# 1 0.016084 -0.007678 -0.002395 0.000000 -0.008735 0.000000
# 2 -0.007678 0.012412 -0.003637 0.000000 0.008436 0.000000
# 3 -0.002395 -0.003637 0.015650 0.000000 -0.011318 0.000000
# 4 0.000000 0.000000 0.000000 0.043736 0.000000 -0.002859
# 5 -0.008735 0.008436 -0.011318 0.000000 0.050014 0.000000
# 6 0.000000 0.000000 0.000000 -0.002859 0.000000 0.023075
#
#
# Mechanical properties :
#
#
# Convention : Reuss Voigt Hill
#
# Bulk Modulus (GPa) = 59.78406 74.50048 67.14227
# Shear Modulus (GPa) = 25.77782 31.63839 28.70811
#
# Velocity S-wave (km/s) = 3.43414 3.80454 3.62408
# Velocity P-wave (km/s) = 6.56320 7.30639 6.94474
#
# Compressibility (1/GPa) = 0.01672687
#
# Stress axis : x y z
#
# Youngs Moduli (GPa) = 62.17504 80.56589 63.89864
#
# Poissons Ratio (x) = 0.61861 0.15301
# Poissons Ratio (y) = 0.47740 0.23237
# Poissons Ratio (z) = 0.14888 0.29298
#
# Static dielectric constant tensor:
#      x y z
#    x 1.844900 0.000000 0.011050 
#    y 0.000000 1.800220 0.000000 
#    z 0.011050 0.000000 1.865080 
# 
# From -- ./inp_files/96584.got.cif
#   From: 2010.05.17/outbox.cif.g08.bks.cpg/sg13_49_cif.got.tgz:96584.got - 2010.06.03 16:44:36.
