data_PCOD9231819
_publ_section_title
;
Structure prediction by ZEFSAII (Michael W. Deem and Ramdas Pophale) SiO2 
 PCOD9231819
Probable space group: P 2/C
;
_chemical_formula_sum "Si O2"
_cell_formula_units_Z 24
_cell_length_a 23.657747
_cell_length_b 7.366445
_cell_length_c 17.099277
_cell_angle_alpha 90.000000
_cell_angle_beta 160.505675
_cell_angle_gamma 90.000000
_cell_volume 994.449757
_symmetry_space_group_name_H-M "P 2/C"
_symmetry_group_IT_number 13
_symmetry_cell_setting 'monoclinic'
loop_
_space_group_symop_operation_xyz
x,y,z
-x,y,1/2-z
-x,-y,-z
x,-y,1/2+z
loop_
_atom_site_type_symbol
_atom_site_label
_atom_site_fract_x
_atom_site_fract_y
_atom_site_fract_z
Si Si1 0.040130 0.180658 0.721065
Si Si2 0.460471 0.571177 0.605240
Si Si3 0.282630 0.309213 0.627625
Si Si4 0.577235 0.953641 0.768584
Si Si5 0.125854 0.660974 0.647091
Si Si6 0.993798 0.779785 0.630192
O O1 0.937533 0.268427 0.517723
O O2 0.000000 0.276778 0.750000
O O3 0.241720 0.145425 0.976813
O O4 0.963394 0.979455 0.623339
O O5 0.500000 0.559540 0.750000
O O6 0.605644 0.484341 0.741339
O O7 0.455213 0.788332 0.581755
O O8 0.306208 0.433142 0.389904
O O9 0.185080 0.313258 0.583288
O O10 0.138598 0.310285 0.372173
O O11 0.386239 0.122160 0.742065
O O12 0.500000 0.024710 0.750000
O O13 0.075557 0.797729 0.651401
O O14 0.000000 0.500000 0.500000
#
# Coordination Sequence:
#
# PCOD9231819 Si02
#       6
#     4   4   4   4   4   4
#     4  11  23  46  71  98 137 189 237 291 352 419
#     4  11  22  41  66 103 142 187 232 290 357 416
#     4  10  20  41  72  98 134 183 231 286 354 417
#     4  10  21  39  68  99 138 183 234 285 353 412
#     4  12  26  44  68 106 141 182 237 289 354 430
#     4  10  21  44  69  99 134 177 238 287 350 418
#
# _framework density 24.133949000000001
#
# number of rings (size 3 to 8) (size 9 to 14) (size 15 to 20)
#    0.000    1.333    5.000    3.000    2.333    1.333 
#    3.000    5.833    0.000    0.000    0.000    0.000 
#    0.000    0.000    0.000    0.000    0.000    0.000 
#
# Total GULP energy -134090.004041 kJ/mol
# GULP energy per Si atom -5587.083502 kJ/mol
# Density = 2.407902 g / cm^3
# Si number density = 24.133949 Si / 1000 Ang^3
#
#
#
# Elastic Constant Matrix: (Units=GPa)
#
#
# Indices 1 2 3 4 5 6 
#
# 1 115.3481 18.2494 26.6840 0.0000 2.3618 0.0000
# 2 18.2494 77.8857 -9.6005 0.0000 2.1076 0.0000
# 3 26.6840 -9.6005 24.4109 0.0000 7.8193 0.0000
# 4 0.0000 0.0000 0.0000 12.2513 0.0000 17.6544
# 5 2.3618 2.1076 7.8193 0.0000 42.4391 0.0000
# 6 0.0000 0.0000 0.0000 17.6544 0.0000 19.5173
#
#
#
# Elastic Compliance Matrix: (Units=1/GPa)
#
#
# Indices 1 2 3 4 5 6 
#
# 1 0.013636 -0.005486 -0.017969 0.000000 0.002824 0.000000
# 2 -0.005486 0.015824 0.013151 0.000000 -0.002904 0.000000
# 3 -0.017969 0.013151 0.069787 0.000000 -0.012511 0.000000
# 4 0.000000 0.000000 0.000000 -0.268960 0.000000 0.243288
# 5 0.002824 -0.002904 -0.012511 0.000000 0.025855 0.000000
# 6 0.000000 0.000000 0.000000 0.243288 0.000000 -0.168829
#
#
# Mechanical properties :
#
#
# Convention : Reuss Voigt Hill
#
# Bulk Modulus (GPa) = 12.71625 32.03450 22.37538
# Shear Modulus (GPa) = -18.80651 26.99567 4.09458
#
# Velocity S-wave (km/s) = -2.79454 3.34814 1.30395
# Velocity P-wave (km/s) = 2.26543 5.31499 3.39978
#
# Compressibility (1/GPa) = 0.07863951
#
# Stress axis : x y z
#
# Youngs Moduli (GPa) = 73.33356 63.19332 14.32938
#
# Poissons Ratio (x) = 0.34671 0.25748
# Poissons Ratio (y) = 0.40234 -0.18844
# Poissons Ratio (z) = 1.31769 -0.83105
#
# Static dielectric constant tensor:
#      x y z
#    x 1.587230 0.000000 -0.153880 
#    y 0.000000 -0.573280 0.000000 
#    z -0.153880 0.000000 1.851610 
# 
# From -- ./inp_files/71325.got.cif
#   From: 2010.05.17/outbox.cif.g08.bks.cpg/sg13_36_cif.got.tgz:71325.got - 2010.06.03 16:44:36.
