data_PCOD9231290
_publ_section_title
;
Structure prediction by ZEFSAII (Michael W. Deem and Ramdas Pophale) SiO2 
 PCOD9231290
Probable space group: P 2/C
;
_chemical_formula_sum "Si O2"
_cell_formula_units_Z 28
_cell_length_a 8.942922
_cell_length_b 8.019421
_cell_length_c 28.070476
_cell_angle_alpha 90.000000
_cell_angle_beta 36.768535
_cell_angle_gamma 90.000000
_cell_volume 1205.028095
_symmetry_space_group_name_H-M "P 2/C"
_symmetry_group_IT_number 13
_symmetry_cell_setting 'monoclinic'
loop_
_space_group_symop_operation_xyz
x,y,z
-x,y,1/2-z
-x,-y,-z
x,-y,1/2+z
loop_
_atom_site_type_symbol
_atom_site_label
_atom_site_fract_x
_atom_site_fract_y
_atom_site_fract_z
Si Si1 0.592704 0.237869 0.933289
Si Si2 0.344985 0.753621 0.186682
Si Si3 0.112594 0.436485 0.047100
Si Si4 0.179369 0.042501 0.546026
Si Si5 0.269270 0.441692 0.272402
Si Si6 0.050073 0.750080 0.474015
Si Si7 0.267330 0.934831 0.773619
O O1 0.742263 0.245371 0.845851
O O2 0.743816 0.205932 0.942717
O O3 0.400075 0.390521 0.981965
O O4 0.417534 0.072649 0.975806
O O5 0.270997 0.586315 0.233300
O O6 0.649864 0.750745 0.107366
O O7 0.271907 0.920210 0.233472
O O8 0.972352 0.449755 0.132482
O O9 0.061869 0.594659 0.027006
O O10 0.998147 0.286978 0.042810
O O11 0.063656 0.095856 0.525473
O O12 0.982134 0.952976 0.631115
O O13 0.500000 0.469282 0.250000
O O14 0.288115 0.252834 0.248283
O O15 0.500000 0.961814 0.750000
#
# Coordination Sequence:
#
# PCOD9231290 Si02
#       7
#     4   4   4   4   4   4   4
#     4  10  25  42  63  93 136 177 222 265 329 402
#     4  11  22  42  65  99 131 170 224 279 333 393
#     4  10  20  39  61  97 129 166 218 275 326 392
#     4  11  22  43  66  93 134 179 217 272 330 401
#     4  11  21  36  65  99 134 163 216 288 333 384
#     4  10  21  37  67  94 128 167 218 276 330 389
#     4  11  22  37  68 101 125 171 221 277 339 388
#
# _framework density 23.235972
#
# number of rings (size 3 to 8) (size 9 to 14) (size 15 to 20)
#    0.000    1.429    4.286    1.286    0.000    5.714 
#    0.000    0.000    0.000    3.429    0.000    0.000 
#    0.000    0.000    0.000    0.000    0.000    0.000 
#
# Total GULP energy -156739.698316 kJ/mol
# GULP energy per Si atom -5597.846368 kJ/mol
# Density = 2.318309 g / cm^3
# Si number density = 23.235972 Si / 1000 Ang^3
#
#
#
# Elastic Constant Matrix: (Units=GPa)
#
#
# Indices 1 2 3 4 5 6 
#
# 1 114.4877 46.8739 30.3924 0.0000 21.2108 0.0000
# 2 46.8739 111.2047 37.4693 0.0000 15.7728 0.0000
# 3 30.3924 37.4693 109.9685 0.0000 24.4749 0.0000
# 4 0.0000 0.0000 0.0000 31.1686 0.0000 -34.3347
# 5 21.2108 15.7728 24.4749 0.0000 29.9757 0.0000
# 6 0.0000 0.0000 0.0000 -34.3347 0.0000 -74.9676
#
#
#
# Elastic Compliance Matrix: (Units=1/GPa)
#
#
# Indices 1 2 3 4 5 6 
#
# 1 0.011515 -0.003848 -0.000622 0.000000 -0.005616 0.000000
# 2 -0.003848 0.011682 -0.002633 0.000000 -0.001274 0.000000
# 3 -0.000622 -0.002633 0.011923 0.000000 -0.007909 0.000000
# 4 0.000000 0.000000 0.000000 0.021325 0.000000 -0.009767
# 5 -0.005616 -0.001274 -0.007909 0.000000 0.044463 0.000000
# 6 0.000000 0.000000 0.000000 -0.009767 0.000000 -0.008866
#
#
# Mechanical properties :
#
#
# Convention : Reuss Voigt Hill
#
# Bulk Modulus (GPa) = 47.81264 62.79246 55.30255
# Shear Modulus (GPa) = 44.16186 11.96370 28.06278
#
# Velocity S-wave (km/s) = 4.36430 2.27155 3.47901
# Velocity P-wave (km/s) = 6.78364 5.82773 6.32377
#
# Compressibility (1/GPa) = 0.02091497
#
# Stress axis : x y z
#
# Youngs Moduli (GPa) = 86.83978 85.59885 83.87195
#
# Poissons Ratio (x) = 0.32938 0.05213
# Poissons Ratio (y) = 0.33415 0.22088
# Poissons Ratio (z) = 0.05397 0.22542
#
# Static dielectric constant tensor:
#      x y z
#    x 1.866460 0.000000 -0.022070 
#    y 0.000000 1.923810 0.000000 
#    z -0.022070 0.000000 1.874340 
# 
# From -- ./inp_files/91430.got.cif
#   From: 2010.05.17/outbox.cif.g08.bks.cpg/sg13_46_cif.got.tgz:91430.got - 2010.06.03 16:44:36.
