data_PCOD9231547
_publ_section_title
;
Structure prediction by ZEFSAII (Michael W. Deem and Ramdas Pophale) SiO2 
 PCOD9231547
Probable space group: P 2/C
;
_chemical_formula_sum "Si O2"
_cell_formula_units_Z 24
_cell_length_a 20.757795
_cell_length_b 7.434803
_cell_length_c 20.802536
_cell_angle_alpha 90.000000
_cell_angle_beta 19.523455
_cell_angle_gamma 90.000000
_cell_volume 1072.911618
_symmetry_space_group_name_H-M "P 2/C"
_symmetry_group_IT_number 13
_symmetry_cell_setting 'monoclinic'
loop_
_space_group_symop_operation_xyz
x,y,z
-x,y,1/2-z
-x,-y,-z
x,-y,1/2+z
loop_
_atom_site_type_symbol
_atom_site_label
_atom_site_fract_x
_atom_site_fract_y
_atom_site_fract_z
Si Si1 0.740719 0.642150 0.214323
Si Si2 0.526647 0.742525 0.926344
Si Si3 0.380438 0.773542 0.799694
Si Si4 0.047102 0.043855 0.134960
Si Si5 0.334388 0.651795 0.354711
Si Si6 0.892938 0.865211 0.648804
O O1 0.665856 0.723204 0.351458
O O2 0.653803 0.441986 0.301030
O O3 0.636604 0.713074 0.246833
O O4 0.966282 0.686999 0.989835
O O5 0.496284 0.792863 0.881151
O O6 0.677604 0.855526 0.825517
O O7 0.500000 0.826600 0.750000
O O8 0.317089 0.564902 0.868743
O O9 0.199235 0.902910 0.962869
O O10 0.895868 0.076954 0.220433
O O11 0.000000 0.973523 0.250000
O O12 0.149069 0.236684 0.050114
O O13 0.500000 0.694485 0.250000
O O14 0.000000 0.000000 0.500000
#
# Coordination Sequence:
#
# PCOD9231547 Si02
#       6
#     4   4   4   4   4   4
#     4   9  21  37  62  90 115 158 197 248 299 350
#     4  10  20  40  63  88 118 153 205 243 299 357
#     4  10  21  41  62  85 119 155 197 249 296 354
#     4  11  24  39  57  89 121 158 197 243 300 354
#     4   9  20  39  60  85 118 154 199 246 294 355
#     4  11  22  39  58  88 124 153 195 248 295 354
#
# _framework density 22.369036999999999
#
# number of rings (size 3 to 8) (size 9 to 14) (size 15 to 20)
#    0.000    2.000    1.667    1.000    2.333    2.667 
#    0.000    0.000    0.000    0.000    0.000    0.000 
#    0.000    0.000    0.000    0.000    0.000    0.000 
#
# Total GULP energy -133859.044856 kJ/mol
# GULP energy per Si atom -5577.460202 kJ/mol
# Density = 2.231812 g / cm^3
# Si number density = 22.369037 Si / 1000 Ang^3
#
#
#
# Elastic Constant Matrix: (Units=GPa)
#
#
# Indices 1 2 3 4 5 6 
#
# 1 166.3076 0.4095 24.8006 0.0000 17.0197 0.0000
# 2 0.4095 41.6312 -7.5951 0.0000 -0.2177 0.0000
# 3 24.8006 -7.5951 43.9650 0.0000 13.9147 0.0000
# 4 0.0000 0.0000 0.0000 -76.0673 0.0000 -243.3770
# 5 17.0197 -0.2177 13.9147 0.0000 34.3751 0.0000
# 6 0.0000 0.0000 0.0000 -243.3770 0.0000 -585.6065
#
#
#
# Elastic Compliance Matrix: (Units=1/GPa)
#
#
# Indices 1 2 3 4 5 6 
#
# 1 0.006707 -0.000672 -0.003265 0.000000 -0.002003 0.000000
# 2 -0.000672 0.024968 0.005204 0.000000 -0.001615 0.000000
# 3 -0.003265 0.005204 0.028632 0.000000 -0.009940 0.000000
# 4 0.000000 0.000000 0.000000 0.039873 0.000000 -0.016571
# 5 -0.002003 -0.001615 -0.009940 0.000000 0.034096 0.000000
# 6 0.000000 0.000000 0.000000 -0.016571 0.000000 0.005179
#
#
# Mechanical properties :
#
#
# Convention : Reuss Voigt Hill
#
# Bulk Modulus (GPa) = 15.91357 31.90377 23.90867
# Shear Modulus (GPa) = 31.67184 -109.84046 -39.08431
#
# Velocity S-wave (km/s) = 3.76690 -7.01501 -4.18455
# Velocity P-wave (km/s) = 5.10381 7.16383 3.55468
#
# Compressibility (1/GPa) = 0.06283946
#
# Stress axis : x y z
#
# Youngs Moduli (GPa) = 149.10824 40.05131 34.92548
#
# Poissons Ratio (x) = 0.02692 0.11404
# Poissons Ratio (y) = 0.10023 -0.18174
# Poissons Ratio (z) = 0.48689 -0.20842
#
# Static dielectric constant tensor:
#      x y z
#    x 1.835830 0.000000 0.008690 
#    y 0.000000 1.925040 0.000000 
#    z 0.008690 0.000000 1.810120 
# 
# From -- ./inp_files/81636.got.cif
#   From: 2010.05.17/outbox.cif.g08.bks.cpg/sg13_41_cif.got.tgz:81636.got - 2010.06.03 16:44:36.
