data_PCOD9231903
_publ_section_title
;
Structure prediction by ZEFSAII (Michael W. Deem and Ramdas Pophale) SiO2 
 PCOD9231903
Probable space group: P 2/C
;
_chemical_formula_sum "Si O2"
_cell_formula_units_Z 22
_cell_length_a 24.505530
_cell_length_b 5.387830
_cell_length_c 12.775006
_cell_angle_alpha 90.000000
_cell_angle_beta 142.278685
_cell_angle_gamma 90.000000
_cell_volume 1031.962039
_symmetry_space_group_name_H-M "P 2/C"
_symmetry_group_IT_number 13
_symmetry_cell_setting 'monoclinic'
loop_
_space_group_symop_operation_xyz
x,y,z
-x,y,1/2-z
-x,-y,-z
x,-y,1/2+z
loop_
_atom_site_type_symbol
_atom_site_label
_atom_site_fract_x
_atom_site_fract_y
_atom_site_fract_z
Si Si1 0.189087 0.654179 0.631649
Si Si2 0.500000 0.456165 0.250000
Si Si3 0.264683 0.982274 0.581019
Si Si4 0.658237 0.766943 0.488411
Si Si5 0.576389 0.908880 0.038394
Si Si6 0.102098 0.851241 0.937497
O O1 0.256358 0.636340 0.830829
O O2 0.130552 0.409600 0.530778
O O3 0.245909 0.720935 0.611209
O O4 0.130332 0.908006 0.549560
O O5 0.583915 0.595986 0.323765
O O6 0.543020 0.302287 0.410269
O O7 0.308676 0.009741 0.535235
O O8 0.331982 0.132869 0.759470
O O9 0.168247 0.112177 0.438494
O O10 0.601945 0.871126 0.499224
O O11 0.500000 0.000000 0.000000
O O12 0.000000 0.857363 0.750000
#
# Coordination Sequence:
#
# PCOD9231903 Si02
#       6
#     4   2   4   4   4   4
#     4   9  22  41  65  92 132 165 213 268 327 383
#     4  12  24  36  68  88 130 170 222 266 316 392
#     4   9  22  39  62  90 131 169 215 266 329 381
#     4  11  23  41  61  95 126 174 218 271 323 387
#     4  11  23  41  59  92 131 169 218 265 326 385
#     4  10  20  42  68  93 126 173 212 269 334 391
#
# _framework density 21.318612000000002
#
# number of rings (size 3 to 8) (size 9 to 14) (size 15 to 20)
#    1.091    0.727    0.000    4.364    0.000    7.273 
#    0.000    1.818    0.000    0.000    0.000    0.000 
#    0.000    0.000    0.000    0.000    0.000    0.000 
#
# Total GULP energy -122598.913721 kJ/mol
# GULP energy per Si atom -5572.677896 kJ/mol
# Density = 2.127009 g / cm^3
# Si number density = 21.318612 Si / 1000 Ang^3
#
#
#
# Elastic Constant Matrix: (Units=GPa)
#
#
# Indices 1 2 3 4 5 6 
#
# 1 68.1691 3.9964 29.0821 0.0000 17.2168 0.0000
# 2 3.9964 96.5411 35.4034 0.0000 22.4734 0.0000
# 3 29.0821 35.4034 110.0105 0.0000 44.8576 0.0000
# 4 0.0000 0.0000 0.0000 42.2922 0.0000 3.7423
# 5 17.2168 22.4734 44.8576 0.0000 34.1117 0.0000
# 6 0.0000 0.0000 0.0000 3.7423 0.0000 11.7237
#
#
#
# Elastic Compliance Matrix: (Units=1/GPa)
#
#
# Indices 1 2 3 4 5 6 
#
# 1 0.017283 0.001724 -0.002380 0.000000 -0.006729 0.000000
# 2 0.001724 0.012508 -0.001652 0.000000 -0.006938 0.000000
# 3 -0.002380 -0.001652 0.020089 0.000000 -0.024129 0.000000
# 4 0.000000 0.000000 0.000000 0.024332 0.000000 -0.007767
# 5 -0.006729 -0.006938 -0.024129 0.000000 0.069013 0.000000
# 6 0.000000 0.000000 0.000000 -0.007767 0.000000 0.087777
#
#
# Mechanical properties :
#
#
# Convention : Reuss Voigt Hill
#
# Bulk Modulus (GPa) = 22.09225 45.74271 33.91748
# Shear Modulus (GPa) = 19.94371 31.37476 25.65923
#
# Velocity S-wave (km/s) = 3.06192 3.84045 3.47307
# Velocity P-wave (km/s) = 4.78392 6.41628 5.65926
#
# Compressibility (1/GPa) = 0.04526474
#
# Stress axis : x y z
#
# Youngs Moduli (GPa) = 57.85981 79.95008 49.77763
#
# Poissons Ratio (x) = -0.13781 0.11846
# Poissons Ratio (y) = -0.09974 0.08222
# Poissons Ratio (z) = 0.13769 0.13206
#
# Static dielectric constant tensor:
#      x y z
#    x 1.817360 0.000000 -0.029860 
#    y 0.000000 1.839360 0.000000 
#    z -0.029860 0.000000 1.796710 
# 
# From -- ./inp_files/41331.got.cif
#   From: 2010.05.17/outbox.cif.g08.bks.cpg/sg13_21_cif.got.tgz:41331.got - 2010.06.03 16:44:36.
