data_PCOD9231173
_publ_section_title
;
Structure prediction by ZEFSAII (Michael W. Deem and Ramdas Pophale) SiO2 
 PCOD9231173
Probable space group: P 2/C
;
_chemical_formula_sum "Si O2"
_cell_formula_units_Z 24
_cell_length_a 20.911595
_cell_length_b 6.147145
_cell_length_c 12.597850
_cell_angle_alpha 90.000000
_cell_angle_beta 136.018211
_cell_angle_gamma 90.000000
_cell_volume 1124.567002
_symmetry_space_group_name_H-M "P 2/C"
_symmetry_group_IT_number 13
_symmetry_cell_setting 'monoclinic'
loop_
_space_group_symop_operation_xyz
x,y,z
-x,y,1/2-z
-x,-y,-z
x,-y,1/2+z
loop_
_atom_site_type_symbol
_atom_site_label
_atom_site_fract_x
_atom_site_fract_y
_atom_site_fract_z
Si Si1 0.662597 0.431971 0.812148
Si Si2 0.585927 0.107237 0.541908
Si Si3 0.000000 0.916008 0.250000
Si Si4 0.837519 0.194781 0.026270
Si Si5 0.077483 0.579383 0.513003
Si Si6 0.500000 0.379856 0.250000
Si Si7 0.746262 0.817782 0.775793
O O1 0.629144 0.283823 0.674098
O O2 0.577366 0.476483 0.785871
O O3 0.698738 0.657574 0.804878
O O4 0.749179 0.313070 0.970779
O O5 0.549523 0.228610 0.395417
O O6 0.500000 0.000000 0.500000
O O7 0.664323 0.927478 0.611794
O O8 0.033816 0.762360 0.384905
O O9 0.084971 0.068320 0.315302
O O10 0.889061 0.379250 0.019683
O O11 0.795088 0.014184 0.896959
O O12 0.170514 0.679885 0.675665
O O13 0.000000 0.500000 0.500000
#
# Coordination Sequence:
#
# PCOD9231173 Si02
#       7
#     4   4   2   4   4   2   4
#     4  10  22  44  64  94 134 170 218 284 323 394
#     4  11  23  43  68  91 137 174 220 281 333 394
#     4  10  20  38  66  96 130 172 218 266 328 390
#     4   9  20  41  65  90 132 173 209 273 332 381
#     4  10  21  40  67  94 132 173 218 264 332 394
#     4  12  24  40  70 100 124 186 230 260 352 402
#     4   9  20  42  63  91 134 170 209 281 329 379
#
# _framework density 21.341548
#
# number of rings (size 3 to 8) (size 9 to 14) (size 15 to 20)
#    0.000    2.000    1.667    1.000    0.000    3.333 
#    0.000   28.333    0.000    0.000    0.000    0.000 
#    0.000    0.000    0.000    0.000    0.000    0.000 
#
# Total GULP energy -134092.919501 kJ/mol
# GULP energy per Si atom -5587.204979 kJ/mol
# Density = 2.129297 g / cm^3
# Si number density = 21.341548 Si / 1000 Ang^3
#
#
#
# Elastic Constant Matrix: (Units=GPa)
#
#
# Indices 1 2 3 4 5 6 
#
# 1 130.9206 56.3966 66.2666 0.0000 38.3495 0.0000
# 2 56.3966 127.0967 65.6797 0.0000 22.3806 0.0000
# 3 66.2666 65.6797 127.6338 0.0000 27.5804 0.0000
# 4 0.0000 0.0000 0.0000 46.2130 0.0000 35.0599
# 5 38.3495 22.3806 27.5804 0.0000 37.1674 0.0000
# 6 0.0000 0.0000 0.0000 35.0599 0.0000 19.3192
#
#
#
# Elastic Compliance Matrix: (Units=1/GPa)
#
#
# Indices 1 2 3 4 5 6 
#
# 1 0.013297 -0.002333 -0.003623 0.000000 -0.009626 0.000000
# 2 -0.002333 0.011380 -0.004388 0.000000 -0.001190 0.000000
# 3 -0.003623 -0.004388 0.012619 0.000000 -0.002983 0.000000
# 4 0.000000 0.000000 0.000000 -0.057429 0.000000 0.104221
# 5 -0.009626 -0.001190 -0.002983 0.000000 0.039768 0.000000
# 6 0.000000 0.000000 0.000000 0.104221 0.000000 -0.137375
#
#
# Mechanical properties :
#
#
# Convention : Reuss Voigt Hill
#
# Bulk Modulus (GPa) = 60.21152 84.70410 72.45781
# Shear Modulus (GPa) = -54.63432 33.69380 -10.47026
#
# Velocity S-wave (km/s) = -5.06513 3.97771 -2.21736
# Velocity P-wave (km/s) = 2.43575 7.80206 5.24115
#
# Compressibility (1/GPa) = 0.01660812
#
# Stress axis : x y z
#
# Youngs Moduli (GPa) = 75.20679 87.87203 79.24793
#
# Poissons Ratio (x) = 0.20499 0.28711
# Poissons Ratio (y) = 0.17544 0.34774
# Poissons Ratio (z) = 0.27247 0.38558
#
# Static dielectric constant tensor:
#      x y z
#    x 1.753510 0.000000 0.019850 
#    y 0.000000 1.768500 0.000000 
#    z 0.019850 0.000000 1.794840 
# 
# From -- ./inp_files/56486.got.cif
#   From: 2010.05.17/outbox.cif.g08.bks.cpg/sg13_29_cif.got.tgz:56486.got - 2010.06.03 16:44:36.
