data_PCOD9231572
_publ_section_title
;
Structure prediction by ZEFSAII (Michael W. Deem and Ramdas Pophale) SiO2 
 PCOD9231572
Probable space group: P 2/C
;
_chemical_formula_sum "Si O2"
_cell_formula_units_Z 30
_cell_length_a 24.651329
_cell_length_b 5.160899
_cell_length_c 22.680866
_cell_angle_alpha 90.000000
_cell_angle_beta 153.241238
_cell_angle_gamma 90.000000
_cell_volume 1299.165798
_symmetry_space_group_name_H-M "P 2/C"
_symmetry_group_IT_number 13
_symmetry_cell_setting 'monoclinic'
loop_
_space_group_symop_operation_xyz
x,y,z
-x,y,1/2-z
-x,-y,-z
x,-y,1/2+z
loop_
_atom_site_type_symbol
_atom_site_label
_atom_site_fract_x
_atom_site_fract_y
_atom_site_fract_z
Si Si1 0.500000 0.595918 0.750000
Si Si2 0.814114 0.443205 0.939006
Si Si3 0.542657 0.643798 0.172786
Si Si4 0.159810 0.792308 0.630836
Si Si5 0.237698 0.770635 0.503508
Si Si6 0.037844 0.889968 0.634455
Si Si7 0.561095 0.116466 0.117826
Si Si8 0.129723 0.264515 0.344694
O O1 0.523222 0.432085 0.831494
O O2 0.380761 0.756100 0.646778
O O3 0.684326 0.327663 0.825719
O O4 0.817707 0.508328 0.873054
O O5 0.816336 0.685857 0.985650
O O6 0.934858 0.289394 0.062241
O O7 0.535726 0.409244 0.117285
O O8 0.508498 0.921660 0.115420
O O9 0.118175 0.795077 0.657491
O O10 0.292891 0.913588 0.748841
O O11 0.047614 0.896097 0.481635
O O12 0.188777 0.550055 0.410059
O O13 0.200771 0.057393 0.452393
O O14 0.123754 0.881038 0.775226
O O15 0.500000 0.000000 0.000000
O O16 0.000000 0.286277 0.250000
#
# Coordination Sequence:
#
# PCOD9231572 Si02
#       8
#     2   4   4   4   4   4   4   4
#     4  10  26  46  72 100 136 178 234 286 332 406
#     4  10  20  40  64  89 128 172 217 264 332 398
#     4  10  23  41  68  94 127 173 223 272 333 401
#     4  10  23  39  62  95 123 172 221 264 330 394
#     4  11  26  43  70  98 135 177 225 276 338 404
#     4  11  22  39  64  91 133 168 214 276 321 403
#     4  11  23  43  67  93 130 175 219 276 336 401
#     4  12  25  43  67 101 135 178 219 274 344 401
#
# _framework density 23.091740000000001
#
# number of rings (size 3 to 8) (size 9 to 14) (size 15 to 20)
#    0.000    1.333    2.667    2.000    1.867    7.467 
#    0.000    0.000    0.000    0.000    0.000    0.000 
#    0.000    0.000    0.000    0.000    0.000    0.000 
#
# Total GULP energy -167255.375266 kJ/mol
# GULP energy per Si atom -5575.179176 kJ/mol
# Density = 2.303918 g / cm^3
# Si number density = 23.091740 Si / 1000 Ang^3
#
#
#
# Elastic Constant Matrix: (Units=GPa)
#
#
# Indices 1 2 3 4 5 6 
#
# 1 99.4534 -1.1505 0.1905 0.0000 -10.7399 0.0000
# 2 -1.1505 64.5365 10.4383 0.0000 5.4771 0.0000
# 3 0.1905 10.4383 48.2823 0.0000 -14.6215 0.0000
# 4 0.0000 0.0000 0.0000 25.2046 0.0000 -4.4683
# 5 -10.7399 5.4771 -14.6215 0.0000 36.2064 0.0000
# 6 0.0000 0.0000 0.0000 -4.4683 0.0000 13.9152
#
#
#
# Elastic Compliance Matrix: (Units=1/GPa)
#
#
# Indices 1 2 3 4 5 6 
#
# 1 0.010437 -0.000298 0.001110 0.000000 0.003589 0.000000
# 2 -0.000298 0.016694 -0.005013 0.000000 -0.004638 0.000000
# 3 0.001110 -0.005013 0.025202 0.000000 0.011265 0.000000
# 4 0.000000 0.000000 0.000000 0.042070 0.000000 0.013509
# 5 0.003589 -0.004638 0.011265 0.000000 0.033935 0.000000
# 6 0.000000 0.000000 0.000000 0.013509 0.000000 0.076202
#
#
# Mechanical properties :
#
#
# Convention : Reuss Voigt Hill
#
# Bulk Modulus (GPa) = 22.76216 25.69211 24.22713
# Shear Modulus (GPa) = 21.96974 28.58483 25.27728
#
# Velocity S-wave (km/s) = 3.08784 3.52217 3.31213
# Velocity P-wave (km/s) = 4.75307 5.26224 5.01412
#
# Compressibility (1/GPa) = 0.04393257
#
# Stress axis : x y z
#
# Youngs Moduli (GPa) = 95.81301 59.90112 39.67887
#
# Poissons Ratio (x) = 0.01786 -0.04405
# Poissons Ratio (y) = 0.02857 0.19889
# Poissons Ratio (z) = -0.10638 0.30026
#
# Static dielectric constant tensor:
#      x y z
#    x 1.927980 0.000000 -0.288990 
#    y 0.000000 1.933070 0.000000 
#    z -0.288990 0.000000 2.696280 
# 
# From -- ./inp_files/81974.got.cif
#   From: 2010.05.17/outbox.cif.g08.bks.cpg/sg13_41_cif.got.tgz:81974.got - 2010.06.03 16:44:36.
