data_PCOD9231485
_publ_section_title
;
Structure prediction by ZEFSAII (Michael W. Deem and Ramdas Pophale) SiO2 
 PCOD9231485
Probable space group: P 2/C
;
_chemical_formula_sum "Si O2"
_cell_formula_units_Z 20
_cell_length_a 9.286685
_cell_length_b 16.221064
_cell_length_c 9.971136
_cell_angle_alpha 90.000000
_cell_angle_beta 44.532514
_cell_angle_gamma 90.000000
_cell_volume 1053.409284
_symmetry_space_group_name_H-M "P 2/C"
_symmetry_group_IT_number 13
_symmetry_cell_setting 'monoclinic'
loop_
_space_group_symop_operation_xyz
x,y,z
-x,y,1/2-z
-x,-y,-z
x,-y,1/2+z
loop_
_atom_site_type_symbol
_atom_site_label
_atom_site_fract_x
_atom_site_fract_y
_atom_site_fract_z
Si Si1 0.000000 0.722004 0.250000
Si Si2 0.456294 0.771979 0.983039
Si Si3 0.068167 0.438989 0.566911
Si Si4 0.500000 0.906065 0.750000
Si Si5 0.855274 0.967103 0.975999
Si Si6 0.500000 0.832264 0.250000
Si Si7 0.500000 0.630396 0.750000
O O1 0.789468 0.772286 0.387314
O O2 0.013419 0.656031 0.364934
O O3 0.492202 0.781149 0.116700
O O4 0.560794 0.847105 0.833200
O O5 0.531477 0.689510 0.858086
O O6 0.307754 0.425651 0.403600
O O7 0.000000 0.479124 0.750000
O O8 0.000000 0.500000 0.500000
O O9 0.315890 0.961695 0.927531
O O10 0.707953 0.888818 0.107942
O O11 0.000000 0.954237 0.750000
O O12 0.000000 0.000000 0.000000
#
# Coordination Sequence:
#
# PCOD9231485 Si02
#       7
#     2   4   4   2   4   2   2
#     4   8  20  38  60  82 118 158 190 222 298 360
#     4  10  20  40  60  83 121 154 196 239 298 349
#     4   9  19  39  60  90 117 152 196 234 283 345
#     4  10  22  36  64  80 106 166 198 234 294 368
#     4  11  23  39  57  85 117 149 203 247 299 343
#     4  11  24  39  55  94 117 146 206 256 285 348
#     4   9  20  41  61  86 121 162 190 232 291 354
#
# _framework density 18.985972
#
# number of rings (size 3 to 8) (size 9 to 14) (size 15 to 20)
#    0.600    1.600    0.000    2.400    4.200    4.000 
#    7.200    0.000    0.000    0.000    0.000    0.000 
#    0.000    0.000    0.000    0.000    0.000    0.000 
#
# Total GULP energy -111356.393633 kJ/mol
# GULP energy per Si atom -5567.819682 kJ/mol
# Density = 1.894276 g / cm^3
# Si number density = 18.985972 Si / 1000 Ang^3
#
#
#
# Elastic Constant Matrix: (Units=GPa)
#
#
# Indices 1 2 3 4 5 6 
#
# 1 71.7349 39.1279 56.3617 0.0000 23.1813 0.0000
# 2 39.1279 65.1882 44.5277 0.0000 10.3064 0.0000
# 3 56.3617 44.5277 159.5004 0.0000 12.3821 0.0000
# 4 0.0000 0.0000 0.0000 183.9537 0.0000 -38.2747
# 5 23.1813 10.3064 12.3821 0.0000 45.9602 0.0000
# 6 0.0000 0.0000 0.0000 -38.2747 0.0000 23.9968
#
#
#
# Elastic Compliance Matrix: (Units=1/GPa)
#
#
# Indices 1 2 3 4 5 6 
#
# 1 0.027926 -0.011087 -0.005998 0.000000 -0.009983 0.000000
# 2 -0.011087 0.023738 -0.002789 0.000000 0.001020 0.000000
# 3 -0.005998 -0.002789 0.009074 0.000000 0.001206 0.000000
# 4 0.000000 0.000000 0.000000 0.008136 0.000000 0.012977
# 5 -0.009983 0.001020 0.001206 0.000000 0.026240 0.000000
# 6 0.000000 0.000000 0.000000 0.012977 0.000000 0.062371
#
#
# Mechanical properties :
#
#
# Convention : Reuss Voigt Hill
#
# Bulk Modulus (GPa) = 47.63760 64.05089 55.84425
# Shear Modulus (GPa) = 24.48227 61.20921 42.84574
#
# Velocity S-wave (km/s) = 3.59485 5.68412 4.75563
# Velocity P-wave (km/s) = 6.50968 8.76858 7.72218
#
# Compressibility (1/GPa) = 0.02099182
#
# Stress axis : x y z
#
# Youngs Moduli (GPa) = 35.80861 42.12601 110.20597
#
# Poissons Ratio (x) = 0.46704 0.66102
# Poissons Ratio (y) = 0.39700 0.30731
# Poissons Ratio (z) = 0.21478 0.11747
#
# Static dielectric constant tensor:
#      x y z
#    x 1.648430 0.000000 -0.030700 
#    y 0.000000 1.657460 0.000000 
#    z -0.030700 0.000000 1.695310 
# 
# From -- ./inp_files/13063.got.cif
#   From: 2010.05.17/outbox.cif.g08.bks.cpg/sg13_7_cif.got.tgz:13063.got - 2010.06.03 16:44:36.
