data_PCOD9231926
_publ_section_title
;
Structure prediction by ZEFSAII (Michael W. Deem and Ramdas Pophale) SiO2 
 PCOD9231926
Probable space group: P 2/C
;
_chemical_formula_sum "Si O2"
_cell_formula_units_Z 20
_cell_length_a 13.329800
_cell_length_b 4.979286
_cell_length_c 22.050332
_cell_angle_alpha 90.000000
_cell_angle_beta 32.268499
_cell_angle_gamma 90.000000
_cell_volume 781.368014
_symmetry_space_group_name_H-M "P 2/C"
_symmetry_group_IT_number 13
_symmetry_cell_setting 'monoclinic'
loop_
_space_group_symop_operation_xyz
x,y,z
-x,y,1/2-z
-x,-y,-z
x,-y,1/2+z
loop_
_atom_site_type_symbol
_atom_site_label
_atom_site_fract_x
_atom_site_fract_y
_atom_site_fract_z
Si Si1 0.180308 0.280763 0.554603
Si Si2 0.949678 0.233346 0.451606
Si Si3 0.688223 0.984645 0.186337
Si Si4 0.687211 0.664031 0.916413
Si Si5 0.549266 0.945990 0.878942
O O1 0.092772 0.995839 0.577975
O O2 0.177120 0.445591 0.621053
O O3 0.405256 0.275180 0.425839
O O4 0.073820 0.481476 0.565458
O O5 0.606980 0.106570 0.502071
O O6 0.153463 0.198600 0.376515
O O7 0.500000 0.082141 0.250000
O O8 0.794938 0.802310 0.083315
O O9 0.628204 0.880482 0.283607
O O10 0.710021 0.821092 0.840575
O O11 0.500000 0.500000 0.000000
#
# Coordination Sequence:
#
# PCOD9231926 Si02
#       5
#     4   4   4   4   4
#     4  11  20  46  67  96 140 177 221 287 342 400
#     4  11  26  44  69 103 141 178 225 288 341 409
#     4  11  23  47  68 105 137 185 229 284 344 414
#     4   9  19  37  74  98 135 179 230 282 346 398
#     4  10  20  42  70 104 131 187 228 281 344 416
#
# _framework density 25.596135
#
# number of rings (size 3 to 8) (size 9 to 14) (size 15 to 20)
#    0.000    1.600    4.000    0.000    0.000    3.200 
#   25.200    1.000    8.800    0.000    0.000    0.000 
#    0.000    0.000    0.000    0.000    0.000    0.000 
#
# Total GULP energy -111497.946355 kJ/mol
# GULP energy per Si atom -5574.897318 kJ/mol
# Density = 2.553788 g / cm^3
# Si number density = 25.596135 Si / 1000 Ang^3
#
#
#
# Elastic Constant Matrix: (Units=GPa)
#
#
# Indices 1 2 3 4 5 6 
#
# 1 116.0385 -3.9229 43.6802 0.0000 -4.5564 0.0000
# 2 -3.9229 63.7459 -1.6877 0.0000 2.5016 0.0000
# 3 43.6802 -1.6877 99.2919 0.0000 -4.5347 0.0000
# 4 0.0000 0.0000 0.0000 -2.1969 0.0000 -2.4332
# 5 -4.5564 2.5016 -4.5347 0.0000 32.6711 0.0000
# 6 0.0000 0.0000 0.0000 -2.4332 0.0000 20.5228
#
#
#
# Elastic Compliance Matrix: (Units=1/GPa)
#
#
# Indices 1 2 3 4 5 6 
#
# 1 0.010365 0.000488 -0.004516 0.000000 0.000781 0.000000
# 2 0.000488 0.015762 0.000001 0.000000 -0.001139 0.000000
# 3 -0.004516 0.000001 0.012106 0.000000 0.001050 0.000000
# 4 0.000000 0.000000 0.000000 -0.402361 0.000000 -0.047704
# 5 0.000781 -0.001139 0.001050 0.000000 0.030950 0.000000
# 6 0.000000 0.000000 0.000000 -0.047704 0.000000 0.043071
#
#
# Mechanical properties :
#
#
# Convention : Reuss Voigt Hill
#
# Bulk Modulus (GPa) = 33.13523 39.46838 36.30181
# Shear Modulus (GPa) = -18.38274 26.26652 3.94189
#
# Velocity S-wave (km/s) = -2.68280 3.20690 1.24233
# Velocity P-wave (km/s) = 1.83764 5.40050 4.03375
#
# Compressibility (1/GPa) = 0.03017935
#
# Stress axis : x y z
#
# Youngs Moduli (GPa) = 96.48016 63.44365 82.60474
#
# Poissons Ratio (x) = -0.03094 0.37302
# Poissons Ratio (y) = -0.04705 -0.00012
# Poissons Ratio (z) = 0.43567 -0.00009
#
# Static dielectric constant tensor:
#      x y z
#    x 1.820120 0.000000 0.189930 
#    y 0.000000 1.527890 0.000000 
#    z 0.189930 0.000000 1.992040 
# 
# From -- ./inp_files/85728.got.cif
#   From: 2010.05.17/outbox.cif.g08.bks.cpg/sg13_43_cif.got.tgz:85728.got - 2010.06.03 16:44:36.
