data_PCOD9231602
_publ_section_title
;
Structure prediction by ZEFSAII (Michael W. Deem and Ramdas Pophale) SiO2 
 PCOD9231602
Probable space group: P 2/C
;
_chemical_formula_sum "Si O2"
_cell_formula_units_Z 28
_cell_length_a 24.509831
_cell_length_b 7.927416
_cell_length_c 18.045004
_cell_angle_alpha 90.000000
_cell_angle_beta 162.004326
_cell_angle_gamma 90.000000
_cell_volume 1083.204313
_symmetry_space_group_name_H-M "P 2/C"
_symmetry_group_IT_number 13
_symmetry_cell_setting 'monoclinic'
loop_
_space_group_symop_operation_xyz
x,y,z
-x,y,1/2-z
-x,-y,-z
x,-y,1/2+z
loop_
_atom_site_type_symbol
_atom_site_label
_atom_site_fract_x
_atom_site_fract_y
_atom_site_fract_z
Si Si1 0.858085 0.785548 0.721069
Si Si2 0.237201 0.366284 0.091757
Si Si3 0.186038 0.684824 0.682690
Si Si4 0.608607 0.353412 0.532263
Si Si5 0.500000 0.434465 0.750000
Si Si6 0.000000 0.335356 0.250000
Si Si7 0.535854 0.979974 0.459213
Si Si8 0.166397 0.053937 0.911135
O O1 0.927407 0.730749 0.891381
O O2 0.673517 0.684169 0.472644
O O3 0.970585 0.739203 0.793868
O O4 0.844963 0.986039 0.687199
O O5 0.134356 0.289676 0.030219
O O6 0.443518 0.362382 0.375719
O O7 0.168901 0.546869 0.982190
O O8 0.206295 0.246888 0.981441
O O9 0.241379 0.488117 0.753856
O O10 0.348408 0.814760 0.904604
O O11 0.529591 0.440380 0.356834
O O12 0.635178 0.152265 0.561465
O O13 0.500000 0.000000 0.500000
O O14 0.344928 0.966434 0.173955
O O15 0.000000 0.013672 0.750000
#
# Coordination Sequence:
#
# PCOD9231602 Si02
#       8
#     4   4   4   4   2   2   4   4
#     4  11  24  41  69  98 131 176 231 277 337 403
#     4  11  23  41  69  92 135 177 221 270 342 408
#     4  11  24  45  66 101 136 169 226 295 328 390
#     4  10  21  38  67  95 131 171 216 277 337 387
#     4  10  20  40  66 102 124 168 228 284 326 386
#     4  12  24  42  70  94 130 190 220 260 346 432
#     4  11  23  38  68 103 131 175 229 274 342 402
#     4  11  22  41  65  94 130 180 219 268 334 406
#
# _framework density 25.849232000000001
#
# number of rings (size 3 to 8) (size 9 to 14) (size 15 to 20)
#    0.000    1.143    5.714    2.143    0.000    2.857 
#    0.000    0.714    0.000    0.000    0.000    0.000 
#    0.000    0.000    0.000    0.000    0.000    0.000 
#
# Total GULP energy -156372.541050 kJ/mol
# GULP energy per Si atom -5584.733609 kJ/mol
# Density = 2.579040 g / cm^3
# Si number density = 25.849232 Si / 1000 Ang^3
#
#
#
# Elastic Constant Matrix: (Units=GPa)
#
#
# Indices 1 2 3 4 5 6 
#
# 1 139.1500 62.7931 -3.5017 0.0000 0.8938 0.0000
# 2 62.7931 118.3260 25.1332 0.0000 15.8717 0.0000
# 3 -3.5017 25.1332 48.9677 0.0000 11.1457 0.0000
# 4 0.0000 0.0000 0.0000 -26.3271 0.0000 -4.4534
# 5 0.8938 15.8717 11.1457 0.0000 33.3690 0.0000
# 6 0.0000 0.0000 0.0000 -4.4534 0.0000 50.7504
#
#
#
# Elastic Compliance Matrix: (Units=1/GPa)
#
#
# Indices 1 2 3 4 5 6 
#
# 1 0.010138 -0.006359 0.003639 0.000000 0.001538 0.000000
# 2 -0.006359 0.013785 -0.006576 0.000000 -0.004190 0.000000
# 3 0.003639 -0.006576 0.025290 0.000000 -0.005417 0.000000
# 4 0.000000 0.000000 0.000000 -0.037428 0.000000 -0.003284
# 5 0.001538 -0.004190 -0.005417 0.000000 0.033729 0.000000
# 6 0.000000 0.000000 0.000000 -0.003284 0.000000 0.019416
#
#
# Mechanical properties :
#
#
# Convention : Reuss Voigt Hill
#
# Bulk Modulus (GPa) = 32.65886 52.81032 42.73459
# Shear Modulus (GPa) = 53.34540 26.35974 39.85257
#
# Velocity S-wave (km/s) = 4.54774 3.19682 3.93075
# Velocity P-wave (km/s) = 6.34332 5.83958 6.09665
#
# Compressibility (1/GPa) = 0.03061956
#
# Stress axis : x y z
#
# Youngs Moduli (GPa) = 98.64087 72.54437 39.54118
#
# Poissons Ratio (x) = 0.46131 -0.14388
# Poissons Ratio (y) = 0.62726 0.26003
# Poissons Ratio (z) = -0.35894 0.47707
#
# Static dielectric constant tensor:
#      x y z
#    x 2.070170 0.000000 0.040060 
#    y 0.000000 2.191850 0.000000 
#    z 0.040060 0.000000 2.072150 
# 
# From -- ./inp_files/82488.got.cif
#   From: 2010.05.17/outbox.cif.g08.bks.cpg/sg13_42_cif.got.tgz:82488.got - 2010.06.03 16:44:36.
