data_PCOD9231950
_publ_section_title
;
Structure prediction by ZEFSAII (Michael W. Deem and Ramdas Pophale) SiO2 
 PCOD9231950
Probable space group: P 2/C
;
_chemical_formula_sum "Si O2"
_cell_formula_units_Z 28
_cell_length_a 13.751931
_cell_length_b 17.662173
_cell_length_c 8.831601
_cell_angle_alpha 90.000000
_cell_angle_beta 137.363349
_cell_angle_gamma 90.000000
_cell_volume 1452.975452
_symmetry_space_group_name_H-M "P 2/C"
_symmetry_group_IT_number 13
_symmetry_cell_setting 'monoclinic'
loop_
_space_group_symop_operation_xyz
x,y,z
-x,y,1/2-z
-x,-y,-z
x,-y,1/2+z
loop_
_atom_site_type_symbol
_atom_site_label
_atom_site_fract_x
_atom_site_fract_y
_atom_site_fract_z
Si Si1 0.401764 0.845888 0.869571
Si Si2 0.280797 0.145428 0.898906
Si Si3 0.000000 0.977038 0.750000
Si Si4 0.656223 0.708284 0.472548
Si Si5 0.000000 0.490334 0.750000
Si Si6 0.204266 0.971753 0.743761
Si Si7 0.107685 0.258311 0.503709
Si Si8 0.104644 0.608989 0.635765
O O1 0.315560 0.833930 0.612930
O O2 0.365477 0.785371 0.957304
O O3 0.346552 0.926744 0.866202
O O4 0.569395 0.844601 0.020358
O O5 0.158580 0.197589 0.684912
O O6 0.238047 0.057579 0.831201
O O7 0.116598 0.934248 0.781560
O O8 0.905009 0.024831 0.522670
O O9 0.751947 0.718001 0.431357
O O10 0.747458 0.653059 0.682471
O O11 0.500000 0.679317 0.250000
O O12 0.094508 0.546348 0.756066
O O13 0.914141 0.435983 0.539953
O O14 0.023147 0.329669 0.480491
O O15 0.000000 0.228733 0.250000
#
# Coordination Sequence:
#
# PCOD9231950 Si02
#       8
#     4   4   2   4   2   4   4   4
#     4  11  25  41  62  89 123 170 216 265 329 376
#     4  11  24  42  63  89 123 166 221 270 315 391
#     4  10  24  36  58  78 114 154 194 272 330 374
#     4  11  22  42  63  94 131 169 208 260 315 382
#     4  10  20  42  72  96 132 164 214 250 306 374
#     4  11  23  44  57  88 121 162 218 277 324 370
#     4  10  22  41  63  95 125 169 208 255 313 379
#     4  10  22  41  69  99 129 169 208 254 307 380
#
# _framework density 19.270799
#
# number of rings (size 3 to 8) (size 9 to 14) (size 15 to 20)
#    0.000    1.429    5.000    0.429    5.000    3.429 
#    2.571    0.714    0.000    0.000    0.000    0.000 
#    0.000    0.000    0.000    0.000    0.000    0.000 
#
# Total GULP energy -156350.347229 kJ/mol
# GULP energy per Si atom -5583.940972 kJ/mol
# Density = 1.922694 g / cm^3
# Si number density = 19.270799 Si / 1000 Ang^3
#
#
#
# Elastic Constant Matrix: (Units=GPa)
#
#
# Indices 1 2 3 4 5 6 
#
# 1 72.1717 24.6015 40.0428 0.0000 5.3239 0.0000
# 2 24.6015 97.6671 44.5935 0.0000 1.4520 0.0000
# 3 40.0428 44.5935 84.7946 0.0000 6.3315 0.0000
# 4 0.0000 0.0000 0.0000 13.7969 0.0000 -3.3025
# 5 5.3239 1.4520 6.3315 0.0000 31.7677 0.0000
# 6 0.0000 0.0000 0.0000 -3.3025 0.0000 3.8895
#
#
#
# Elastic Compliance Matrix: (Units=1/GPa)
#
#
# Indices 1 2 3 4 5 6 
#
# 1 0.018902 -0.000939 -0.008323 0.000000 -0.001466 0.000000
# 2 -0.000939 0.013541 -0.006744 0.000000 0.000883 0.000000
# 3 -0.008323 -0.006744 0.019432 0.000000 -0.002170 0.000000
# 4 0.000000 0.000000 0.000000 0.090969 0.000000 0.077241
# 5 -0.001466 0.000883 -0.002170 0.000000 0.032116 0.000000
# 6 0.000000 0.000000 0.000000 0.077241 0.000000 0.322686
#
#
# Mechanical properties :
#
#
# Convention : Reuss Voigt Hill
#
# Bulk Modulus (GPa) = 50.34289 52.56770 51.45530
# Shear Modulus (GPa) = 9.32351 19.58386 14.45368
#
# Velocity S-wave (km/s) = 2.20197 3.19132 2.74164
# Velocity P-wave (km/s) = 5.71362 6.39664 6.06476
#
# Compressibility (1/GPa) = 0.01986378
#
# Stress axis : x y z
#
# Youngs Moduli (GPa) = 52.90506 73.84719 51.46169
#
# Poissons Ratio (x) = 0.06938 0.42829
# Poissons Ratio (y) = 0.04970 0.34704
# Poissons Ratio (z) = 0.44030 0.49801
#
# Static dielectric constant tensor:
#      x y z
#    x 1.690100 0.000000 -0.013330 
#    y 0.000000 1.660610 0.000000 
#    z -0.013330 0.000000 1.674830 
# 
# From -- ./inp_files/20132.got.cif
#   From: 2010.05.17/outbox.cif.g08.bks.cpg/sg13_11_cif.got.tgz:20132.got - 2010.06.03 16:44:36.
