data_PCOD9231762
_publ_section_title
;
Structure prediction by ZEFSAII (Michael W. Deem and Ramdas Pophale) SiO2 
 PCOD9231762
Probable space group: P 2/C
;
_chemical_formula_sum "Si O2"
_cell_formula_units_Z 24
_cell_length_a 5.431193
_cell_length_b 15.838989
_cell_length_c 15.298541
_cell_angle_alpha 90.000000
_cell_angle_beta 123.979581
_cell_angle_gamma 90.000000
_cell_volume 1091.317896
_symmetry_space_group_name_H-M "P 2/C"
_symmetry_group_IT_number 13
_symmetry_cell_setting 'monoclinic'
loop_
_space_group_symop_operation_xyz
x,y,z
-x,y,1/2-z
-x,-y,-z
x,-y,1/2+z
loop_
_atom_site_type_symbol
_atom_site_label
_atom_site_fract_x
_atom_site_fract_y
_atom_site_fract_z
Si Si1 0.242445 0.227680 0.456884
Si Si2 0.538164 0.480608 0.864050
Si Si3 0.500000 0.039142 0.250000
Si Si4 0.072860 0.628827 0.529213
Si Si5 0.000000 0.145665 0.250000
Si Si6 0.686972 0.956993 0.458257
Si Si7 0.808827 0.331562 0.634079
O O1 0.251365 0.140387 0.510963
O O2 0.519796 0.279468 0.549783
O O3 0.970876 0.292306 0.416588
O O4 0.229725 0.199573 0.353714
O O5 0.500000 0.469030 0.750000
O O6 0.271071 0.427572 0.853063
O O7 0.803536 0.438024 0.975318
O O8 0.618886 0.578793 0.895750
O O9 0.790900 0.094990 0.278849
O O10 0.517565 0.978045 0.336357
O O11 0.019689 0.664540 0.421874
O O12 0.500000 0.000000 0.500000
O O13 0.000000 0.000000 0.500000
O O14 0.000000 0.293289 0.750000
#
# Coordination Sequence:
#
# PCOD9231762 Si02
#       7
#     4   4   2   4   2   4   4
#     4  11  27  44  70 106 142 182 245 305 368 439
#     4  10  20  41  65  95 134 185 236 282 361 437
#     4  12  24  48  76 104 144 202 244 300 378 448
#     4  10  23  40  66  98 135 182 234 299 353 430
#     4  12  26  48  76 104 150 194 242 314 376 440
#     4  12  25  47  74 106 144 197 247 298 373 453
#     4  11  23  42  68 100 144 189 237 302 365 433
#
# _framework density 21.991758999999998
#
# number of rings (size 3 to 8) (size 9 to 14) (size 15 to 20)
#    0.000    1.000    5.000    0.500    4.667    2.667 
#    1.500    0.000    0.000    0.000    0.000    0.000 
#    0.000    0.000    0.000    0.000    0.000    0.000 
#
# Total GULP energy -133604.684841 kJ/mol
# GULP energy per Si atom -5566.861868 kJ/mol
# Density = 2.194170 g / cm^3
# Si number density = 21.991759 Si / 1000 Ang^3
#
#
#
# Elastic Constant Matrix: (Units=GPa)
#
#
# Indices 1 2 3 4 5 6 
#
# 1 61.0919 26.8140 8.2517 0.0000 -2.0145 0.0000
# 2 26.8140 129.9071 34.9214 0.0000 1.9041 0.0000
# 3 8.2517 34.9214 126.6470 0.0000 -14.0150 0.0000
# 4 0.0000 0.0000 0.0000 4.8556 0.0000 0.2998
# 5 -2.0145 1.9041 -14.0150 0.0000 40.2818 0.0000
# 6 0.0000 0.0000 0.0000 0.2998 0.0000 5.8396
#
#
#
# Elastic Compliance Matrix: (Units=1/GPa)
#
#
# Indices 1 2 3 4 5 6 
#
# 1 0.018046 -0.003733 -0.000028 0.000000 0.001069 0.000000
# 2 -0.003733 0.009146 -0.002441 0.000000 -0.001468 0.000000
# 3 -0.000028 -0.002441 0.008927 0.000000 0.003220 0.000000
# 4 0.000000 0.000000 0.000000 0.206602 0.000000 -0.010606
# 5 0.001069 -0.001468 0.003220 0.000000 0.026068 0.000000
# 6 0.000000 0.000000 0.000000 -0.010606 0.000000 0.171790
#
#
# Mechanical properties :
#
#
# Convention : Reuss Voigt Hill
#
# Bulk Modulus (GPa) = 42.16754 50.84669 46.50712
# Shear Modulus (GPa) = 10.84859 26.70599 18.77729
#
# Velocity S-wave (km/s) = 2.22345 3.48855 2.92521
# Velocity P-wave (km/s) = 5.08011 6.27675 5.70987
#
# Compressibility (1/GPa) = 0.02371492
#
# Stress axis : x y z
#
# Youngs Moduli (GPa) = 55.41293 109.33619 112.01648
#
# Poissons Ratio (x) = 0.40816 0.00315
# Poissons Ratio (y) = 0.20686 0.27345
# Poissons Ratio (z) = 0.00156 0.26691
#
# Static dielectric constant tensor:
#      x y z
#    x 1.841770 0.000000 0.185570 
#    y 0.000000 1.877550 0.000000 
#    z 0.185570 0.000000 1.795460 
# 
# From -- ./inp_files/44133.got.cif
#   From: 2010.05.17/outbox.cif.g08.bks.cpg/sg13_23_cif.got.tgz:44133.got - 2010.06.03 16:44:36.
