data_PCOD9231880
_publ_section_title
;
Structure prediction by ZEFSAII (Michael W. Deem and Ramdas Pophale) SiO2 
 PCOD9231880
Probable space group: P 2/C
;
_chemical_formula_sum "Si O2"
_cell_formula_units_Z 26
_cell_length_a 22.053958
_cell_length_b 11.847111
_cell_length_c 14.271804
_cell_angle_alpha 90.000000
_cell_angle_beta 157.984651
_cell_angle_gamma 90.000000
_cell_volume 1397.787459
_symmetry_space_group_name_H-M "P 2/C"
_symmetry_group_IT_number 13
_symmetry_cell_setting 'monoclinic'
loop_
_space_group_symop_operation_xyz
x,y,z
-x,y,1/2-z
-x,-y,-z
x,-y,1/2+z
loop_
_atom_site_type_symbol
_atom_site_label
_atom_site_fract_x
_atom_site_fract_y
_atom_site_fract_z
Si Si1 0.302504 0.283970 0.378608
Si Si2 0.000000 0.846590 0.750000
Si Si3 0.173548 0.421884 0.840354
Si Si4 0.500000 0.530919 0.250000
Si Si5 0.337132 0.999823 0.199554
Si Si6 0.175037 0.769261 0.496168
Si Si7 0.018533 0.658717 0.613306
Si Si8 0.500000 0.911739 0.250000
O O1 0.427710 0.386009 0.567762
O O2 0.221178 0.281130 0.162189
O O3 0.172670 0.301527 0.274024
O O4 0.391869 0.168446 0.529439
O O5 0.983902 0.757571 0.638921
O O6 0.827671 0.921211 0.511850
O O7 0.070345 0.533098 0.722400
O O8 0.114095 0.370127 0.656022
O O9 0.356395 0.459833 0.086866
O O10 0.164845 0.328290 0.906224
O O11 0.291288 0.130342 0.136968
O O12 0.500000 0.000000 0.500000
O O13 0.389341 0.973856 0.167374
O O14 0.000000 0.824704 0.250000
#
# Coordination Sequence:
#
# PCOD9231880 Si02
#       8
#     4   2   4   2   4   4   4   2
#     4  10  20  42  66  91 132 179 218 279 350 401
#     4  12  26  44  72 102 136 180 238 282 340 408
#     4  10  23  40  63  97 135 173 223 280 341 407
#     4   9  22  39  62  96 134 177 227 274 346 408
#     4  12  27  45  68 104 136 180 238 280 338 416
#     4  12  24  41  66  98 137 177 229 282 342 411
#     4  10  22  41  68  96 131 175 226 278 341 411
#     4  11  22  45  68  92 134 177 221 284 342 394
#
# _framework density 18.600825
#
# number of rings (size 3 to 8) (size 9 to 14) (size 15 to 20)
#    0.000    1.231    5.385    0.000    1.077    3.692 
#    0.000    3.077    0.000    0.000    0.000    0.000 
#    0.000    0.000    0.000    0.000    0.000    0.000 
#
# Total GULP energy -144784.227951 kJ/mol
# GULP energy per Si atom -5568.624152 kJ/mol
# Density = 1.855849 g / cm^3
# Si number density = 18.600825 Si / 1000 Ang^3
#
#
#
# Elastic Constant Matrix: (Units=GPa)
#
#
# Indices 1 2 3 4 5 6 
#
# 1 108.1544 65.6800 43.4974 0.0000 11.3736 0.0000
# 2 65.6800 104.4262 31.9464 0.0000 6.5282 0.0000
# 3 43.4974 31.9464 103.4076 0.0000 1.3826 0.0000
# 4 0.0000 0.0000 0.0000 38.9671 0.0000 25.5609
# 5 11.3736 6.5282 1.3826 0.0000 40.6716 0.0000
# 6 0.0000 0.0000 0.0000 25.5609 0.0000 36.1537
#
#
#
# Elastic Compliance Matrix: (Units=1/GPa)
#
#
# Indices 1 2 3 4 5 6 
#
# 1 0.016771 -0.009066 -0.004212 0.000000 -0.003091 0.000000
# 2 -0.009066 0.015580 -0.001001 0.000000 0.000069 0.000000
# 3 -0.004212 -0.001001 0.011739 0.000000 0.000939 0.000000
# 4 0.000000 0.000000 0.000000 0.047857 0.000000 -0.033835
# 5 -0.003091 0.000069 0.000939 0.000000 0.025409 0.000000
# 6 0.000000 0.000000 0.000000 -0.033835 0.000000 0.051582
#
#
# Mechanical properties :
#
#
# Convention : Reuss Voigt Hill
#
# Bulk Modulus (GPa) = 64.38429 66.47065 65.42747
# Shear Modulus (GPa) = 24.67016 34.81610 29.74313
#
# Velocity S-wave (km/s) = 3.64578 4.33107 4.00312
# Velocity P-wave (km/s) = 7.23955 7.79896 7.52446
#
# Compressibility (1/GPa) = 0.01553174
#
# Stress axis : x y z
#
# Youngs Moduli (GPa) = 59.62625 64.18312 85.18699
#
# Poissons Ratio (x) = 0.58192 0.35883
# Poissons Ratio (y) = 0.54060 0.08523
# Poissons Ratio (z) = 0.25116 0.06422
#
# Static dielectric constant tensor:
#      x y z
#    x 1.588580 0.000000 0.012230 
#    y 0.000000 1.648820 0.000000 
#    z 0.012230 0.000000 1.681320 
# 
# From -- ./inp_files/33997.got.cif
#   From: 2010.05.17/outbox.cif.g08.bks.cpg/sg13_17_cif.got.tgz:33997.got - 2010.06.03 16:44:36.
