data_PCOD9231108
_publ_section_title
;
Structure prediction by ZEFSAII (Michael W. Deem and Ramdas Pophale) SiO2 
 PCOD9231108
Probable space group: P 2/C
;
_chemical_formula_sum "Si O2"
_cell_formula_units_Z 28
_cell_length_a 16.295105
_cell_length_b 5.215272
_cell_length_c 14.073757
_cell_angle_alpha 90.000000
_cell_angle_beta 115.777881
_cell_angle_gamma 90.000000
_cell_volume 1077.014350
_symmetry_space_group_name_H-M "P 2/C"
_symmetry_group_IT_number 13
_symmetry_cell_setting 'monoclinic'
loop_
_space_group_symop_operation_xyz
x,y,z
-x,y,1/2-z
-x,-y,-z
x,-y,1/2+z
loop_
_atom_site_type_symbol
_atom_site_label
_atom_site_fract_x
_atom_site_fract_y
_atom_site_fract_z
Si Si1 0.517056 0.747032 0.575172
Si Si2 0.000000 0.885356 0.250000
Si Si3 0.738701 0.238820 0.462062
Si Si4 0.807012 0.606052 0.348819
Si Si5 0.824809 0.482665 0.661835
Si Si6 0.350954 0.055904 0.736267
Si Si7 0.500000 0.535551 0.250000
Si Si8 0.097547 0.131616 0.451573
O O1 0.500000 0.500000 0.500000
O O2 0.465983 0.646604 0.646527
O O3 0.500000 0.000000 0.500000
O O4 0.611227 0.834580 0.675300
O O5 0.089169 0.710038 0.290932
O O6 0.007538 0.051172 0.350411
O O7 0.742187 0.478508 0.394022
O O8 0.739003 0.336727 0.569853
O O9 0.672558 0.033708 0.383048
O O10 0.839859 0.115140 0.498204
O O11 0.817757 0.423944 0.265190
O O12 0.745737 0.836495 0.277290
O O13 0.896485 0.702874 0.449474
O O14 0.849359 0.706578 0.601919
O O15 0.427435 0.274116 0.763053
#
# Coordination Sequence:
#
# PCOD9231108 Si02
#       8
#     4   2   4   4   4   4   2   4
#     4  12  27  49  74 113 148 188 250 306 376 456
#     4  10  20  38  64  92 132 176 226 280 356 420
#     4   9  21  41  65  96 136 178 230 288 353 429
#     4  10  22  42  66  97 137 178 236 288 354 430
#     4  10  21  40  65  96 131 179 230 283 353 429
#     4  11  24  47  72 103 146 188 239 298 369 438
#     4  12  26  50  76 104 148 196 242 316 368 440
#     4   9  20  39  60  94 132 172 226 287 346 430
#
# _framework density 25.997796000000001
#
# number of rings (size 3 to 8) (size 9 to 14) (size 15 to 20)
#    0.000    1.714    1.429    1.714    0.000    6.286 
#    7.714   10.000    0.000    0.000    0.000    0.000 
#    0.000    0.000    0.000    0.000    0.000    0.000 
#
# Total GULP energy -156197.494337 kJ/mol
# GULP energy per Si atom -5578.481941 kJ/mol
# Density = 2.593862 g / cm^3
# Si number density = 25.997796 Si / 1000 Ang^3
#
#
#
# Elastic Constant Matrix: (Units=GPa)
#
#
# Indices 1 2 3 4 5 6 
#
# 1 29.8467 16.3742 37.8298 0.0000 -2.7338 0.0000
# 2 16.3742 122.5725 53.1201 0.0000 2.7085 0.0000
# 3 37.8298 53.1201 173.0377 0.0000 -13.7867 0.0000
# 4 0.0000 0.0000 0.0000 73.1657 0.0000 -23.5103
# 5 -2.7338 2.7085 -13.7867 0.0000 43.0874 0.0000
# 6 0.0000 0.0000 0.0000 -23.5103 0.0000 66.6863
#
#
#
# Elastic Compliance Matrix: (Units=1/GPa)
#
#
# Indices 1 2 3 4 5 6 
#
# 1 0.046810 -0.002100 -0.009586 0.000000 0.000035 0.000000
# 2 -0.002100 0.009607 -0.002616 0.000000 -0.001574 0.000000
# 3 -0.009586 -0.002616 0.008869 0.000000 0.002394 0.000000
# 4 0.000000 0.000000 0.000000 0.015414 0.000000 0.005434
# 5 0.000035 -0.001574 0.002394 0.000000 0.024076 0.000000
# 6 0.000000 0.000000 0.000000 0.005434 0.000000 0.016911
#
#
# Mechanical properties :
#
#
# Convention : Reuss Voigt Hill
#
# Bulk Modulus (GPa) = 27.26083 60.01167 43.63625
# Shear Modulus (GPa) = 30.76589 51.13007 40.94798
#
# Velocity S-wave (km/s) = 3.44380 4.43957 3.97300
# Velocity P-wave (km/s) = 5.13045 7.02945 6.15365
#
# Compressibility (1/GPa) = 0.03668267
#
# Stress axis : x y z
#
# Youngs Moduli (GPa) = 21.36293 104.08778 112.75738
#
# Poissons Ratio (x) = 0.21853 1.08094
# Poissons Ratio (y) = 0.04485 0.29494
# Poissons Ratio (z) = 0.20479 0.27226
#
# Static dielectric constant tensor:
#      x y z
#    x 2.344540 0.000000 -0.029260 
#    y 0.000000 2.112540 0.000000 
#    z -0.029260 0.000000 2.104200 
# 
# From -- ./inp_files/54533.got.cif
#   From: 2010.05.17/outbox.cif.g08.bks.cpg/sg13_28_cif.got.tgz:54533.got - 2010.06.03 16:44:36.
