data_PCOD9231580
_publ_section_title
;
Structure prediction by ZEFSAII (Michael W. Deem and Ramdas Pophale) SiO2 
 PCOD9231580
Probable space group: P 2/C
;
_chemical_formula_sum "Si O2"
_cell_formula_units_Z 20
_cell_length_a 10.749018
_cell_length_b 9.211018
_cell_length_c 8.409192
_cell_angle_alpha 90.000000
_cell_angle_beta 96.611535
_cell_angle_gamma 90.000000
_cell_volume 827.051995
_symmetry_space_group_name_H-M "P 2/C"
_symmetry_group_IT_number 13
_symmetry_cell_setting 'monoclinic'
loop_
_space_group_symop_operation_xyz
x,y,z
-x,y,1/2-z
-x,-y,-z
x,-y,1/2+z
loop_
_atom_site_type_symbol
_atom_site_label
_atom_site_fract_x
_atom_site_fract_y
_atom_site_fract_z
Si Si1 0.609422 0.881162 0.031538
Si Si2 0.000000 0.764776 0.250000
Si Si3 0.000000 0.500000 0.500000
Si Si4 0.386940 0.417628 0.123311
Si Si5 0.241180 0.907047 0.131325
Si Si6 0.762111 0.648246 0.602447
O O1 0.568467 0.724739 0.963080
O O2 0.723252 0.937173 0.935221
O O3 0.656841 0.871314 0.218412
O O4 0.500000 0.000000 0.000000
O O5 0.033621 0.651571 0.396540
O O6 0.889060 0.866949 0.301774
O O7 0.899743 0.591011 0.589189
O O8 0.500000 0.470490 0.250000
O O9 0.273808 0.368590 0.221020
O O10 0.330382 0.540253 0.005257
O O11 0.252481 0.803889 0.979184
#
# Coordination Sequence:
#
# PCOD9231580 Si02
#       6
#     4   2   2   4   4   4
#     4  12  25  44  65  90 131 176 215 264 326 382
#     4  10  22  40  66  96 130 166 212 266 320 386
#     4  10  20  40  64  92 128 164 198 256 328 374
#     4  12  24  40  63  94 128 168 214 266 322 379
#     4  11  24  42  64  94 127 169 218 265 320 382
#     4  11  23  41  67  97 128 165 217 267 317 385
#
# _framework density 24.182276999999999
#
# number of rings (size 3 to 8) (size 9 to 14) (size 15 to 20)
#    0.000    0.800    0.000    9.600    0.000    2.400 
#    0.000    2.000    0.000    0.000    0.000    0.000 
#    0.000    0.000    0.000    0.000    0.000    0.000 
#
# Total GULP energy -111519.134783 kJ/mol
# GULP energy per Si atom -5575.956739 kJ/mol
# Density = 2.412724 g / cm^3
# Si number density = 24.182277 Si / 1000 Ang^3
#
#
#
# Elastic Constant Matrix: (Units=GPa)
#
#
# Indices 1 2 3 4 5 6 
#
# 1 65.7997 24.7232 15.6184 0.0000 -32.1750 0.0000
# 2 24.7232 74.6512 2.7896 0.0000 -3.3753 0.0000
# 3 15.6184 2.7896 69.8433 0.0000 -15.8451 0.0000
# 4 0.0000 0.0000 0.0000 26.6111 0.0000 0.9103
# 5 -32.1750 -3.3753 -15.8451 0.0000 46.9248 0.0000
# 6 0.0000 0.0000 0.0000 0.9103 0.0000 37.8040
#
#
#
# Elastic Compliance Matrix: (Units=1/GPa)
#
#
# Indices 1 2 3 4 5 6 
#
# 1 0.027242 -0.008164 -0.001799 0.000000 0.017484 0.000000
# 2 -0.008164 0.015894 0.000195 0.000000 -0.004389 0.000000
# 3 -0.001799 0.000195 0.015633 0.000000 0.004059 0.000000
# 4 0.000000 0.000000 0.000000 0.037609 0.000000 -0.000906
# 5 0.017484 -0.004389 0.004059 0.000000 0.034354 0.000000
# 6 0.000000 0.000000 0.000000 -0.000906 0.000000 0.026474
#
#
# Mechanical properties :
#
#
# Convention : Reuss Voigt Hill
#
# Bulk Modulus (GPa) = 25.48920 32.95074 29.21997
# Shear Modulus (GPa) = 26.34077 33.41218 29.87648
#
# Velocity S-wave (km/s) = 3.30397 3.72113 3.51874
# Velocity P-wave (km/s) = 5.01182 5.66727 5.34959
#
# Compressibility (1/GPa) = 0.03923231
#
# Stress axis : x y z
#
# Youngs Moduli (GPa) = 36.70840 62.91788 63.96639
#
# Poissons Ratio (x) = 0.51367 0.11509
# Poissons Ratio (y) = 0.29969 -0.01249
# Poissons Ratio (z) = 0.06604 -0.01228
#
# Static dielectric constant tensor:
#      x y z
#    x 2.019860 0.000000 0.015920 
#    y 0.000000 1.873650 0.000000 
#    z 0.015920 0.000000 1.927370 
# 
# From -- ./inp_files/14867.got.cif
#   From: 2010.05.17/outbox.cif.g08.bks.cpg/sg13_8_cif.got.tgz:14867.got - 2010.06.03 16:44:36.
