data_PCOD9231445
_publ_section_title
;
Structure prediction by ZEFSAII (Michael W. Deem and Ramdas Pophale) SiO2 
 PCOD9231445
Probable space group: P 2/C
;
_chemical_formula_sum "Si O2"
_cell_formula_units_Z 30
_cell_length_a 20.438812
_cell_length_b 7.703146
_cell_length_c 24.764853
_cell_angle_alpha 90.000000
_cell_angle_beta 161.044316
_cell_angle_gamma 90.000000
_cell_volume 1266.556800
_symmetry_space_group_name_H-M "P 2/C"
_symmetry_group_IT_number 13
_symmetry_cell_setting 'monoclinic'
loop_
_space_group_symop_operation_xyz
x,y,z
-x,y,1/2-z
-x,-y,-z
x,-y,1/2+z
loop_
_atom_site_type_symbol
_atom_site_label
_atom_site_fract_x
_atom_site_fract_y
_atom_site_fract_z
Si Si1 0.688046 0.935757 0.113329
Si Si2 0.000000 0.702469 0.250000
Si Si3 0.888958 0.132541 0.550868
Si Si4 0.820319 0.189604 0.900695
Si Si5 0.600567 0.404718 0.488385
Si Si6 0.801570 0.235533 0.375914
Si Si7 0.363164 0.764690 0.009586
Si Si8 0.720310 0.222290 0.936699
O O1 0.647921 0.734030 0.071172
O O2 0.690301 0.055639 0.061344
O O3 0.902813 0.951336 0.310029
O O4 0.500000 0.000000 0.000000
O O5 0.964747 0.804315 0.167451
O O6 0.215692 0.613223 0.410663
O O7 0.819817 0.274812 0.454053
O O8 0.724031 0.987881 0.434827
O O9 0.595498 0.243291 0.709241
O O10 0.854568 0.260478 0.988763
O O11 0.793361 0.978086 0.872593
O O12 0.995558 0.263460 0.999755
O O13 0.389949 0.335094 0.298664
O O14 0.634842 0.604598 0.530592
O O15 0.236939 0.743031 0.967036
O O16 0.500000 0.291135 0.750000
#
# Coordination Sequence:
#
# PCOD9231445 Si02
#       8
#     4   2   4   4   4   4   4   4
#     4  11  24  43  68  95 135 177 217 276 337 407
#     4  10  24  42  54  98 142 166 226 272 324 406
#     4  10  21  36  67  96 127 183 222 271 339 402
#     4   9  19  37  66  96 135 164 224 275 334 403
#     4  11  25  42  69  95 134 176 225 281 335 402
#     4  10  20  39  69 102 128 174 223 282 338 396
#     4  11  22  42  67  95 136 175 223 276 331 411
#     4   9  19  34  61  96 123 163 216 267 327 387
#
# _framework density 23.686264000000001
#
# number of rings (size 3 to 8) (size 9 to 14) (size 15 to 20)
#    0.000    1.867    1.333    2.400    7.467    2.133 
#    7.200    0.000    5.867    0.000    0.000    0.000 
#    0.000    0.000    0.000    0.000    0.000    0.000 
#
# Total GULP energy -167075.234325 kJ/mol
# GULP energy per Si atom -5569.174478 kJ/mol
# Density = 2.363235 g / cm^3
# Si number density = 23.686264 Si / 1000 Ang^3
#
#
#
# Elastic Constant Matrix: (Units=GPa)
#
#
# Indices 1 2 3 4 5 6 
#
# 1 76.0485 15.1104 -9.6738 0.0000 7.2431 0.0000
# 2 15.1104 49.5517 -19.2458 0.0000 1.0340 0.0000
# 3 -9.6738 -19.2458 71.1999 0.0000 9.4630 0.0000
# 4 0.0000 0.0000 0.0000 -14.7389 0.0000 -2.7169
# 5 7.2431 1.0340 9.4630 0.0000 28.3969 0.0000
# 6 0.0000 0.0000 0.0000 -2.7169 0.0000 15.6604
#
#
#
# Elastic Compliance Matrix: (Units=1/GPa)
#
#
# Indices 1 2 3 4 5 6 
#
# 1 0.014470 -0.003749 0.001491 0.000000 -0.004051 0.000000
# 2 -0.003749 0.023764 0.006176 0.000000 -0.001967 0.000000
# 3 0.001491 0.006176 0.016739 0.000000 -0.006183 0.000000
# 4 0.000000 0.000000 0.000000 -0.065745 0.000000 -0.011406
# 5 -0.004051 -0.001967 -0.006183 0.000000 0.038381 0.000000
# 6 0.000000 0.000000 0.000000 -0.011406 0.000000 0.061877
#
#
# Mechanical properties :
#
#
# Convention : Reuss Voigt Hill
#
# Bulk Modulus (GPa) = 15.92152 18.79797 17.35975
# Shear Modulus (GPa) = 48.74030 19.90429 34.32230
#
# Velocity S-wave (km/s) = 4.54116 2.90199 3.81075
# Velocity P-wave (km/s) = 5.85086 4.37975 5.16792
#
# Compressibility (1/GPa) = 0.06280807
#
# Stress axis : x y z
#
# Youngs Moduli (GPa) = 69.10902 42.08093 59.74192
#
# Poissons Ratio (x) = 0.15775 -0.08908
# Poissons Ratio (y) = 0.25908 -0.36894
# Poissons Ratio (z) = -0.10305 -0.25987
#
# Static dielectric constant tensor:
#      x y z
#    x 1.998050 0.000000 0.002740 
#    y 0.000000 1.965660 0.000000 
#    z 0.002740 0.000000 1.971210 
# 
# From -- ./inp_files/93531.got.cif
#   From: 2010.05.17/outbox.cif.g08.bks.cpg/sg13_47_cif.got.tgz:93531.got - 2010.06.03 16:44:36.
