data_PCOD9231395
_publ_section_title
;
Structure prediction by ZEFSAII (Michael W. Deem and Ramdas Pophale) SiO2 
 PCOD9231395
Probable space group: P 2/C
;
_chemical_formula_sum "Si O2"
_cell_formula_units_Z 28
_cell_length_a 13.040724
_cell_length_b 21.242774
_cell_length_c 5.517954
_cell_angle_alpha 90.000000
_cell_angle_beta 63.398452
_cell_angle_gamma 90.000000
_cell_volume 1366.776713
_symmetry_space_group_name_H-M "P 2/C"
_symmetry_group_IT_number 13
_symmetry_cell_setting 'monoclinic'
loop_
_space_group_symop_operation_xyz
x,y,z
-x,y,1/2-z
-x,-y,-z
x,-y,1/2+z
loop_
_atom_site_type_symbol
_atom_site_label
_atom_site_fract_x
_atom_site_fract_y
_atom_site_fract_z
Si Si1 0.132318 0.974428 0.859660
Si Si2 0.175711 0.827140 0.777162
Si Si3 0.000000 0.741412 0.250000
Si Si4 0.182300 0.733924 0.397059
Si Si5 0.375947 0.757075 0.806177
Si Si6 0.757578 0.392907 0.513066
Si Si7 0.625838 0.609210 0.676278
Si Si8 0.000000 0.538249 0.750000
O O1 0.146506 0.899561 0.837685
O O2 0.184171 0.001014 0.556155
O O3 0.000000 0.000000 0.000000
O O4 0.144745 0.800241 0.546625
O O5 0.304984 0.802917 0.701276
O O6 0.094050 0.786076 0.032807
O O7 0.923921 0.704367 0.138560
O O8 0.217117 0.681672 0.553607
O O9 0.292702 0.749618 0.123555
O O10 0.500000 0.782631 0.750000
O O11 0.393409 0.683022 0.725145
O O12 0.685970 0.417714 0.355748
O O13 0.880832 0.424431 0.381658
O O14 0.697949 0.396101 0.845691
O O15 0.500000 0.582794 0.750000
O O16 0.000000 0.500000 0.500000
#
# Coordination Sequence:
#
# PCOD9231395 Si02
#       8
#     4   4   2   4   4   4   4   2
#     4  10  23  37  55  78 111 159 207 247 302 362
#     4  11  21  36  57  84 123 155 200 254 314 379
#     4  10  22  31  52  84 129 152 190 244 322 372
#     4  10  22  34  58  93 121 160 195 256 323 372
#     4   9  20  36  57  89 127 158 196 244 322 394
#     4  11  23  41  66  95 131 171 222 256 322 389
#     4  10  20  39  66 101 134 164 205 268 332 390
#     4  12  28  47  68  92 133 188 226 266 306 376
#
# _framework density 20.486156999999999
#
# number of rings (size 3 to 8) (size 9 to 14) (size 15 to 20)
#    0.000    1.714    1.429    2.571   10.000    1.143 
#    0.000    0.000    0.000    9.429    0.000    0.000 
#    0.000    0.000    0.000    0.000    0.000    0.000 
#
# Total GULP energy -156022.449827 kJ/mol
# GULP energy per Si atom -5572.230351 kJ/mol
# Density = 2.043953 g / cm^3
# Si number density = 20.486157 Si / 1000 Ang^3
#
#
#
# Elastic Constant Matrix: (Units=GPa)
#
#
# Indices 1 2 3 4 5 6 
#
# 1 177.7940 30.3751 55.9525 0.0000 2.1128 0.0000
# 2 30.3751 44.7445 27.7004 0.0000 -0.7523 0.0000
# 3 55.9525 27.7004 73.1833 0.0000 19.9330 0.0000
# 4 0.0000 0.0000 0.0000 -131.2835 0.0000 108.1585
# 5 2.1128 -0.7523 19.9330 0.0000 34.5526 0.0000
# 6 0.0000 0.0000 0.0000 108.1585 0.0000 -97.7240
#
#
#
# Elastic Compliance Matrix: (Units=1/GPa)
#
#
# Indices 1 2 3 4 5 6 
#
# 1 0.007802 -0.001335 -0.006314 0.000000 0.003137 0.000000
# 2 -0.001335 0.031580 -0.013219 0.000000 0.008395 0.000000
# 3 -0.006314 -0.013219 0.027844 0.000000 -0.015965 0.000000
# 4 0.000000 0.000000 0.000000 -0.086383 0.000000 -0.095606
# 5 0.003137 0.008395 -0.015965 0.000000 0.038142 0.000000
# 6 0.000000 0.000000 0.000000 -0.095606 0.000000 -0.116048
#
#
# Mechanical properties :
#
#
# Convention : Reuss Voigt Hill
#
# Bulk Modulus (GPa) = 39.23225 58.19756 48.71490
# Shear Modulus (GPa) = -106.77392 -26.77805 -66.77598
#
# Velocity S-wave (km/s) = -7.22725 -3.61935 -5.71545
# Velocity P-wave (km/s) = 7.10296 3.31718 4.44119
#
# Compressibility (1/GPa) = 0.02548923
#
# Stress axis : x y z
#
# Youngs Moduli (GPa) = 128.16496 31.66530 35.91443
#
# Poissons Ratio (x) = 0.04227 0.22678
# Poissons Ratio (y) = 0.17108 0.47477
# Poissons Ratio (z) = 0.80929 0.41860
#
# Static dielectric constant tensor:
#      x y z
#    x 1.760950 0.000000 0.107430 
#    y 0.000000 1.718360 0.000000 
#    z 0.107430 0.000000 1.806920 
# 
# From -- ./inp_files/4107.got.cif
#   From: 2010.05.17/outbox.cif.g08.bks.cpg/sg13_3_cif.got.tgz:4107.got - 2010.06.03 16:44:36.
