data_PCOD9231027
_publ_section_title
;
Structure prediction by ZEFSAII (Michael W. Deem and Ramdas Pophale) SiO2 
 PCOD9231027
Probable space group: P 2/C
;
_chemical_formula_sum "Si O2"
_cell_formula_units_Z 30
_cell_length_a 26.382788
_cell_length_b 6.446786
_cell_length_c 19.152301
_cell_angle_alpha 90.000000
_cell_angle_beta 156.457909
_cell_angle_gamma 90.000000
_cell_volume 1301.120734
_symmetry_space_group_name_H-M "P 2/C"
_symmetry_group_IT_number 13
_symmetry_cell_setting 'monoclinic'
loop_
_space_group_symop_operation_xyz
x,y,z
-x,y,1/2-z
-x,-y,-z
x,-y,1/2+z
loop_
_atom_site_type_symbol
_atom_site_label
_atom_site_fract_x
_atom_site_fract_y
_atom_site_fract_z
Si Si1 0.233455 0.626713 0.575907
Si Si2 0.500000 0.496642 0.250000
Si Si3 0.220079 0.016745 0.781133
Si Si4 0.030040 0.282089 0.068846
Si Si5 0.700029 0.141125 0.465244
Si Si6 0.934575 0.727896 0.595054
Si Si7 0.676674 0.019177 0.731420
Si Si8 0.580470 0.247324 0.730406
O O1 0.202337 0.763336 0.467904
O O2 0.116950 0.508044 0.463798
O O3 0.306930 0.783813 0.720445
O O4 0.321738 0.435118 0.662202
O O5 0.611365 0.336686 0.372397
O O6 0.519533 0.642990 0.343230
O O7 0.094362 0.150570 0.607982
O O8 0.162583 0.788200 0.703947
O O9 0.323513 0.048791 0.852118
O O10 0.257565 0.061492 0.906743
O O11 0.033569 0.265734 0.156866
O O12 0.000000 0.500000 0.000000
O O13 0.633800 0.947762 0.342256
O O14 0.000000 0.785941 0.750000
O O15 0.813256 0.873664 0.425363
O O16 0.569425 0.143849 0.639345
#
# Coordination Sequence:
#
# PCOD9231027 Si02
#       8
#     4   2   4   4   4   4   4   4
#     4   9  19  34  54  79 109 153 192 232 291 337
#     4  10  20  38  62  94 110 144 188 246 302 350
#     4  10  22  37  56  83 116 158 195 235 298 345
#     4  10  22  36  54  78 121 157 200 241 283 343
#     4  10  21  36  62  85 117 146 193 246 295 353
#     4  10  21  31  51  81 111 152 203 243 280 332
#     4   9  19  38  53  78 116 154 185 241 288 344
#     4   9  19  36  60  84 114 143 187 236 289 348
#
# _framework density 23.057046
#
# number of rings (size 3 to 8) (size 9 to 14) (size 15 to 20)
#    0.000    2.400    0.000    1.200    7.467    1.600 
#    0.000    0.667    0.000   11.200    0.000    0.000 
#    0.000    0.000    0.000    0.000    0.000    0.000 
#
# Total GULP energy -167309.039254 kJ/mol
# GULP energy per Si atom -5576.967975 kJ/mol
# Density = 2.300457 g / cm^3
# Si number density = 23.057046 Si / 1000 Ang^3
#
#
#
# Elastic Constant Matrix: (Units=GPa)
#
#
# Indices 1 2 3 4 5 6 
#
# 1 99.3073 37.1771 16.1736 0.0000 -16.9366 0.0000
# 2 37.1771 115.5828 6.2575 0.0000 1.4441 0.0000
# 3 16.1736 6.2575 21.8148 0.0000 -5.5848 0.0000
# 4 0.0000 0.0000 0.0000 47.9916 0.0000 23.1232
# 5 -16.9366 1.4441 -5.5848 0.0000 29.4992 0.0000
# 6 0.0000 0.0000 0.0000 23.1232 0.0000 53.4729
#
#
#
# Elastic Compliance Matrix: (Units=1/GPa)
#
#
# Indices 1 2 3 4 5 6 
#
# 1 0.014018 -0.004192 -0.007438 0.000000 0.006845 0.000000
# 2 -0.004192 0.010067 -0.000549 0.000000 -0.003003 0.000000
# 3 -0.007438 -0.000549 0.052995 0.000000 0.005789 0.000000
# 4 0.000000 0.000000 0.000000 0.026321 0.000000 -0.011382
# 5 0.006845 -0.003003 0.005789 0.000000 0.039072 0.000000
# 6 0.000000 0.000000 0.000000 -0.011382 0.000000 0.023623
#
#
# Mechanical properties :
#
#
# Convention : Reuss Voigt Hill
#
# Bulk Modulus (GPa) = 18.96725 39.54682 29.25703
# Shear Modulus (GPa) = 24.03527 37.99918 31.01723
#
# Velocity S-wave (km/s) = 3.23217 4.06402 3.67173
# Velocity P-wave (km/s) = 4.70885 6.26184 5.54003
#
# Compressibility (1/GPa) = 0.05272246
#
# Stress axis : x y z
#
# Youngs Moduli (GPa) = 71.33801 99.33162 18.86979
#
# Poissons Ratio (x) = 0.41636 0.14036
# Poissons Ratio (y) = 0.29902 0.01036
# Poissons Ratio (z) = 0.53062 0.05453
#
# Static dielectric constant tensor:
#      x y z
#    x 1.895320 0.000000 0.010520 
#    y 0.000000 1.763520 0.000000 
#    z 0.010520 0.000000 1.904720 
# 
# From -- ./inp_files/70935.got.cif
#   From: 2010.05.17/outbox.cif.g08.bks.cpg/sg13_36_cif.got.tgz:70935.got - 2010.06.03 16:44:36.
