data_PCOD9231110
_publ_section_title
;
Structure prediction by ZEFSAII (Michael W. Deem and Ramdas Pophale) SiO2 
 PCOD9231110
Probable space group: P 2/C
;
_chemical_formula_sum "Si O2"
_cell_formula_units_Z 20
_cell_length_a 8.521641
_cell_length_b 23.085708
_cell_length_c 9.813703
_cell_angle_alpha 90.000000
_cell_angle_beta 30.625400
_cell_angle_gamma 90.000000
_cell_volume 983.507882
_symmetry_space_group_name_H-M "P 2/C"
_symmetry_group_IT_number 13
_symmetry_cell_setting 'monoclinic'
loop_
_space_group_symop_operation_xyz
x,y,z
-x,y,1/2-z
-x,-y,-z
x,-y,1/2+z
loop_
_atom_site_type_symbol
_atom_site_label
_atom_site_fract_x
_atom_site_fract_y
_atom_site_fract_z
Si Si1 0.855218 0.849605 0.003591
Si Si2 0.262565 0.665743 0.168086
Si Si3 0.902625 0.727379 0.666359
Si Si4 0.306955 0.035155 0.756147
Si Si5 0.686964 0.463560 0.751788
O O1 0.500000 0.827641 0.250000
O O2 0.808134 0.897753 0.156459
O O3 0.000000 0.873336 0.750000
O O4 0.082457 0.796635 0.867366
O O5 0.277289 0.599845 0.209438
O O6 0.000000 0.670321 0.250000
O O7 0.157186 0.702048 0.376849
O O8 0.585026 0.693237 0.878156
O O9 0.000000 0.717967 0.750000
O O10 0.500000 0.033421 0.750000
O O11 0.500000 0.000000 0.500000
O O12 0.000000 0.000000 0.000000
O O13 0.500000 0.459123 0.750000
O O14 0.000000 0.500000 0.500000
O O15 0.500000 0.500000 0.000000
#
# Coordination Sequence:
#
# PCOD9231110 Si02
#       5
#     4   4   4   4   4
#     4  10  20  38  64  93 125 166 214 263 316 383
#     4  12  25  42  63  95 133 168 206 263 327 383
#     4  11  22  41  67  92 119 167 220 264 310 378
#     4  11  22  39  63  93 126 166 210 260 317 383
#     4  12  25  44  67  95 129 171 217 266 318 379
#
# _framework density 20.335374000000002
#
# number of rings (size 3 to 8) (size 9 to 14) (size 15 to 20)
#    0.000    0.800    0.000   10.800    0.000    0.000 
#    0.000    4.000    0.000    2.400    0.000    0.000 
#    0.000    0.000    0.000    0.000    0.000    0.000 
#
# Total GULP energy -111620.715915 kJ/mol
# GULP energy per Si atom -5581.035796 kJ/mol
# Density = 2.028909 g / cm^3
# Si number density = 20.335374 Si / 1000 Ang^3
#
#
#
# Elastic Constant Matrix: (Units=GPa)
#
#
# Indices 1 2 3 4 5 6 
#
# 1 63.7181 17.4277 -12.5990 0.0000 -10.4739 0.0000
# 2 17.4277 139.7811 25.2300 0.0000 -2.1301 0.0000
# 3 -12.5990 25.2300 123.3824 0.0000 -6.9535 0.0000
# 4 0.0000 0.0000 0.0000 34.2159 0.0000 -14.2614
# 5 -10.4739 -2.1301 -6.9535 0.0000 46.2077 0.0000
# 6 0.0000 0.0000 0.0000 -14.2614 0.0000 15.0274
#
#
#
# Elastic Compliance Matrix: (Units=1/GPa)
#
#
# Indices 1 2 3 4 5 6 
#
# 1 0.017612 -0.002595 0.002569 0.000000 0.004259 0.000000
# 2 -0.002595 0.007811 -0.001891 0.000000 -0.000513 0.000000
# 3 0.002569 -0.001891 0.008857 0.000000 0.001828 0.000000
# 4 0.000000 0.000000 0.000000 0.048353 0.000000 0.045888
# 5 0.004259 -0.000513 0.001828 0.000000 0.022858 0.000000
# 6 0.000000 0.000000 0.000000 0.045888 0.000000 0.110095
#
#
# Mechanical properties :
#
#
# Convention : Reuss Voigt Hill
#
# Bulk Modulus (GPa) = 32.84458 42.99988 37.92223
# Shear Modulus (GPa) = 21.78007 38.87839 30.32923
#
# Velocity S-wave (km/s) = 3.27623 4.37723 3.86612
# Velocity P-wave (km/s) = 5.52251 6.83652 6.21435
#
# Compressibility (1/GPa) = 0.03044642
#
# Stress axis : x y z
#
# Youngs Moduli (GPa) = 56.77999 128.02365 112.90596
#
# Poissons Ratio (x) = 0.33217 -0.29005
# Poissons Ratio (y) = 0.14732 0.21351
# Poissons Ratio (z) = -0.14587 0.24210
#
# Static dielectric constant tensor:
#      x y z
#    x 1.693440 0.000000 0.008510 
#    y 0.000000 2.487540 0.000000 
#    z 0.008510 0.000000 1.673670 
# 
# From -- ./inp_files/13786.got.cif
#   From: 2010.05.17/outbox.cif.g08.bks.cpg/sg13_7_cif.got.tgz:13786.got - 2010.06.03 16:44:36.
