data_PCOD9231148
_publ_section_title
;
Structure prediction by ZEFSAII (Michael W. Deem and Ramdas Pophale) SiO2 
 PCOD9231148
Probable space group: P 2/C
;
_chemical_formula_sum "Si O2"
_cell_formula_units_Z 12
_cell_length_a 9.041524
_cell_length_b 3.891612
_cell_length_c 24.122617
_cell_angle_alpha 90.000000
_cell_angle_beta 153.827240
_cell_angle_gamma 90.000000
_cell_volume 374.379616
_symmetry_space_group_name_H-M "P 2/C"
_symmetry_group_IT_number 13
_symmetry_cell_setting 'monoclinic'
loop_
_space_group_symop_operation_xyz
x,y,z
-x,y,1/2-z
-x,-y,-z
x,-y,1/2+z
loop_
_atom_site_type_symbol
_atom_site_label
_atom_site_fract_x
_atom_site_fract_y
_atom_site_fract_z
Si Si1 0.735187 0.722931 0.119252
Si Si2 0.208265 0.765041 0.026278
Si Si3 0.743556 0.693414 0.288839
O O1 0.481272 0.922335 0.074716
O O2 0.000000 0.540559 0.250000
O O3 0.998040 0.890885 0.164321
O O4 0.500000 0.500000 0.000000
O O5 0.465762 0.550690 0.152282
O O6 0.968195 0.545371 0.904680
O O7 0.000000 0.000000 0.000000
O O8 0.500000 0.889197 0.250000
#
# Coordination Sequence:
#
# PCOD9231148 Si02
#       3
#     4   4   4
#     4   8  16  33  60  91 126 170 220 276 340 403
#     4  10  21  39  65  99 137 182 231 284 348 419
#     4  10  20  38  65  98 136 180 227 288 350 412
#
# _framework density 32.053029000000002
#
# number of rings (size 3 to 8) (size 9 to 14) (size 15 to 20)
#    0.000    2.667    0.000    1.000    0.000    1.333 
#    0.000    3.333    0.000   42.000    0.000    7.000 
#    0.000    0.000    0.000    0.000    0.000    0.000 
#
# Total GULP energy -66878.958067 kJ/mol
# GULP energy per Si atom -5573.246506 kJ/mol
# Density = 3.198008 g / cm^3
# Si number density = 32.053029 Si / 1000 Ang^3
#
#
#
# Elastic Constant Matrix: (Units=GPa)
#
#
# Indices 1 2 3 4 5 6 
#
# 1 447.1356 95.2114 69.8814 0.0000 79.1140 0.0000
# 2 95.2114 69.1349 106.5540 0.0000 -1.5720 0.0000
# 3 69.8814 106.5540 401.6763 0.0000 -80.0068 0.0000
# 4 0.0000 0.0000 0.0000 82.0099 0.0000 -13.4037
# 5 79.1140 -1.5720 -80.0068 0.0000 97.4338 0.0000
# 6 0.0000 0.0000 0.0000 -13.4037 0.0000 76.5001
#
#
#
# Elastic Compliance Matrix: (Units=1/GPa)
#
#
# Indices 1 2 3 4 5 6 
#
# 1 0.004043 -0.006069 0.000279 0.000000 -0.003152 0.000000
# 2 -0.006069 0.036789 -0.009090 0.000000 -0.001943 0.000000
# 3 0.000279 -0.009090 0.005712 0.000000 0.004318 0.000000
# 4 0.000000 0.000000 0.000000 0.012553 0.000000 0.002199
# 5 -0.003152 -0.001943 0.004318 0.000000 0.016336 0.000000
# 6 0.000000 0.000000 0.000000 0.002199 0.000000 0.013457
#
#
# Mechanical properties :
#
#
# Convention : Reuss Voigt Hill
#
# Bulk Modulus (GPa) = 59.58331 162.36007 110.97169
# Shear Modulus (GPa) = 40.24244 94.27542 67.25893
#
# Velocity S-wave (km/s) = 3.54714 5.42920 4.58576
# Velocity P-wave (km/s) = 5.95026 9.49026 7.92057
#
# Compressibility (1/GPa) = 0.01678322
#
# Stress axis : x y z
#
# Youngs Moduli (GPa) = 247.34825 27.18188 175.05763
#
# Poissons Ratio (x) = 0.16498 -0.04883
# Poissons Ratio (y) = 1.50125 1.59131
# Poissons Ratio (z) = -0.06900 0.24709
#
# Static dielectric constant tensor:
#      x y z
#    x 2.422670 0.000000 -0.016610 
#    y 0.000000 2.696050 0.000000 
#    z -0.016610 0.000000 2.415340 
# 
# From -- ./inp_files/26938.got.cif
#   From: 2010.05.17/outbox.cif.g08.bks.cpg/sg13_14_cif.got.tgz:26938.got - 2010.06.03 16:44:36.
