data_PCOD9231292
_publ_section_title
;
Structure prediction by ZEFSAII (Michael W. Deem and Ramdas Pophale) SiO2 
 PCOD9231292
Probable space group: P 2/C
;
_chemical_formula_sum "Si O2"
_cell_formula_units_Z 18
_cell_length_a 5.974772
_cell_length_b 5.730067
_cell_length_c 26.171199
_cell_angle_alpha 90.000000
_cell_angle_beta 121.399331
_cell_angle_gamma 90.000000
_cell_volume 764.781061
_symmetry_space_group_name_H-M "P 2/C"
_symmetry_group_IT_number 13
_symmetry_cell_setting 'monoclinic'
loop_
_space_group_symop_operation_xyz
x,y,z
-x,y,1/2-z
-x,-y,-z
x,-y,1/2+z
loop_
_atom_site_type_symbol
_atom_site_label
_atom_site_fract_x
_atom_site_fract_y
_atom_site_fract_z
Si Si1 0.745682 0.340826 0.972278
Si Si2 0.254539 0.277626 0.194249
Si Si3 0.738015 0.308271 0.083960
Si Si4 0.000000 0.056200 0.750000
Si Si5 0.507162 0.049705 0.638218
O O1 0.481596 0.493757 0.942282
O O2 0.712346 0.193985 0.917152
O O3 0.765522 0.214302 0.029426
O O4 0.000000 0.500000 0.000000
O O5 0.500000 0.408374 0.250000
O O6 0.012551 0.406234 0.138720
O O7 0.375650 0.114459 0.164679
O O8 0.128894 0.111986 0.222713
O O9 0.637213 0.107886 0.109538
O O10 0.247911 0.183822 0.805622
#
# Coordination Sequence:
#
# PCOD9231292 Si02
#       5
#     4   4   4   2   4
#     4  11  24  38  56  88 121 154 197 237 283 344
#     4   9  18  36  64  88 110 148 194 238 291 345
#     4  10  22  39  59  85 118 154 192 237 287 345
#     4   8  18  36  60  86 110 146 192 236 288 348
#     4  10  20  39  62  83 114 153 190 237 291 342
#
# _framework density 23.536147
#
# number of rings (size 3 to 8) (size 9 to 14) (size 15 to 20)
#    0.000    2.222    0.000    2.000    0.000   10.667 
#    0.000    8.889    0.000   13.333    0.000    0.000 
#    0.000    0.000    0.000    0.000    0.000    0.000 
#
# Total GULP energy -100541.615916 kJ/mol
# GULP energy per Si atom -5585.645329 kJ/mol
# Density = 2.348258 g / cm^3
# Si number density = 23.536147 Si / 1000 Ang^3
#
#
#
# Elastic Constant Matrix: (Units=GPa)
#
#
# Indices 1 2 3 4 5 6 
#
# 1 117.9401 19.0320 85.5209 0.0000 11.2266 0.0000
# 2 19.0320 17.1395 34.8796 0.0000 3.0939 0.0000
# 3 85.5209 34.8796 200.4750 0.0000 24.4038 0.0000
# 4 0.0000 0.0000 0.0000 125.8911 0.0000 58.1871
# 5 11.2266 3.0939 24.4038 0.0000 61.5688 0.0000
# 6 0.0000 0.0000 0.0000 58.1871 0.0000 57.2418
#
#
#
# Elastic Compliance Matrix: (Units=1/GPa)
#
#
# Indices 1 2 3 4 5 6 
#
# 1 0.012520 -0.004724 -0.004486 0.000000 -0.000267 0.000000
# 2 -0.004724 0.092294 -0.014271 0.000000 0.001880 0.000000
# 3 -0.004486 -0.014271 0.009664 0.000000 -0.002295 0.000000
# 4 0.000000 0.000000 0.000000 0.014983 0.000000 -0.015230
# 5 -0.000267 0.001880 -0.002295 0.000000 0.017106 0.000000
# 6 0.000000 0.000000 0.000000 -0.015230 0.000000 0.032951
#
#
# Mechanical properties :
#
#
# Convention : Reuss Voigt Hill
#
# Bulk Modulus (GPa) = 14.81163 68.26883 41.54023
# Shear Modulus (GPa) = 20.08140 62.01515 41.04827
#
# Velocity S-wave (km/s) = 2.92415 5.13869 4.18072
# Velocity P-wave (km/s) = 4.20805 8.01730 6.40253
#
# Compressibility (1/GPa) = 0.06751452
#
# Stress axis : x y z
#
# Youngs Moduli (GPa) = 79.87340 10.83498 103.47185
#
# Poissons Ratio (x) = 0.05118 0.46422
# Poissons Ratio (y) = 0.37731 1.47669
# Poissons Ratio (z) = 0.35835 0.15463
#
# Static dielectric constant tensor:
#      x y z
#    x 1.890040 0.000000 0.029380 
#    y 0.000000 1.914410 0.000000 
#    z 0.029380 0.000000 1.963070 
# 
# From -- ./inp_files/60676.got.cif
#   From: 2010.05.17/outbox.cif.g08.bks.cpg/sg13_31_cif.got.tgz:60676.got - 2010.06.03 16:44:36.
