data_PCOD9231355
_publ_section_title
;
Structure prediction by ZEFSAII (Michael W. Deem and Ramdas Pophale) SiO2 
 PCOD9231355
Probable space group: P 2/C
;
_chemical_formula_sum "Si O2"
_cell_formula_units_Z 24
_cell_length_a 16.754456
_cell_length_b 8.889559
_cell_length_c 23.822064
_cell_angle_alpha 90.000000
_cell_angle_beta 19.572207
_cell_angle_gamma 90.000000
_cell_volume 1188.577998
_symmetry_space_group_name_H-M "P 2/C"
_symmetry_group_IT_number 13
_symmetry_cell_setting 'monoclinic'
loop_
_space_group_symop_operation_xyz
x,y,z
-x,y,1/2-z
-x,-y,-z
x,-y,1/2+z
loop_
_atom_site_type_symbol
_atom_site_label
_atom_site_fract_x
_atom_site_fract_y
_atom_site_fract_z
Si Si1 0.222501 0.632361 0.446165
Si Si2 0.070704 0.700885 0.064316
Si Si3 0.128718 0.859508 0.606857
Si Si4 0.914686 0.829569 0.566714
Si Si5 0.389464 0.151104 0.450870
Si Si6 0.734719 0.101302 0.845513
O O1 0.500000 0.601075 0.250000
O O2 0.084393 0.477249 0.548382
O O3 0.195724 0.730467 0.520110
O O4 0.108357 0.729252 0.471109
O O5 0.811037 0.771105 0.251125
O O6 0.143281 0.766628 0.956324
O O7 0.250156 0.759009 0.994366
O O8 0.000000 0.810575 0.750000
O O9 0.350342 0.970894 0.470202
O O10 0.941127 0.976463 0.704316
O O11 0.669116 0.820340 0.764000
O O12 0.000000 0.000000 0.500000
O O13 0.272952 0.180850 0.588578
O O14 0.500000 0.000000 0.000000
#
# Coordination Sequence:
#
# PCOD9231355 Si02
#       6
#     4   4   4   4   4   4
#     4  12  25  41  59  90 130 166 208 265 329 390
#     4  11  24  40  60  89 126 164 203 257 321 384
#     4   9  20  37  60  87 117 156 206 254 304 372
#     4  12  23  39  64  90 119 165 217 265 314 378
#     4  10  20  40  64  89 120 161 210 262 313 376
#     4  10  20  39  64  91 120 158 209 257 303 374
#
# _framework density 20.192198000000001
#
# number of rings (size 3 to 8) (size 9 to 14) (size 15 to 20)
#    0.000    1.333    0.000    8.500    0.000    2.667 
#    0.000    3.333    0.000    0.000    0.000    0.000 
#    0.000    0.000    0.000    0.000    0.000    0.000 
#
# Total GULP energy -133999.944964 kJ/mol
# GULP energy per Si atom -5583.331040 kJ/mol
# Density = 2.014624 g / cm^3
# Si number density = 20.192198 Si / 1000 Ang^3
#
#
#
# Elastic Constant Matrix: (Units=GPa)
#
#
# Indices 1 2 3 4 5 6 
#
# 1 58.2240 23.4008 7.9720 0.0000 8.5837 0.0000
# 2 23.4008 108.0525 40.5735 0.0000 15.4222 0.0000
# 3 7.9720 40.5735 94.7589 0.0000 -2.9525 0.0000
# 4 0.0000 0.0000 0.0000 29.4810 0.0000 -0.5487
# 5 8.5837 15.4222 -2.9525 0.0000 40.3847 0.0000
# 6 0.0000 0.0000 0.0000 -0.5487 0.0000 13.0042
#
#
#
# Elastic Compliance Matrix: (Units=1/GPa)
#
#
# Indices 1 2 3 4 5 6 
#
# 1 0.019072 -0.003718 -0.000095 0.000000 -0.002641 0.000000
# 2 -0.003718 0.012662 -0.005247 0.000000 -0.004429 0.000000
# 3 -0.000095 -0.005247 0.012900 0.000000 0.002967 0.000000
# 4 0.000000 0.000000 0.000000 0.033947 0.000000 0.001432
# 5 -0.002641 -0.004429 0.002967 0.000000 0.027231 0.000000
# 6 0.000000 0.000000 0.000000 0.001432 0.000000 0.076958
#
#
# Mechanical properties :
#
#
# Convention : Reuss Voigt Hill
#
# Bulk Modulus (GPa) = 37.71472 44.99198 41.35335
# Shear Modulus (GPa) = 23.84042 29.17993 26.51018
#
# Velocity S-wave (km/s) = 3.43982 3.80558 3.62732
# Velocity P-wave (km/s) = 5.87324 6.45292 6.16989
#
# Compressibility (1/GPa) = 0.02651484
#
# Stress axis : x y z
#
# Youngs Moduli (GPa) = 52.43409 78.97501 77.51858
#
# Poissons Ratio (x) = 0.29361 0.00736
# Poissons Ratio (y) = 0.19494 0.40673
# Poissons Ratio (z) = 0.00498 0.41437
#
# Static dielectric constant tensor:
#      x y z
#    x 1.785880 0.000000 -0.021070 
#    y 0.000000 1.707680 0.000000 
#    z -0.021070 0.000000 1.765320 
# 
# From -- ./inp_files/87854.got.cif
#   From: 2010.05.17/outbox.cif.g08.bks.cpg/sg13_44_cif.got.tgz:87854.got - 2010.06.03 16:44:36.
