data_PCOD9231156
_publ_section_title
;
Structure prediction by ZEFSAII (Michael W. Deem and Ramdas Pophale) SiO2 
 PCOD9231156
Probable space group: P 2/C
;
_chemical_formula_sum "Si O2"
_cell_formula_units_Z 20
_cell_length_a 35.440987
_cell_length_b 5.466110
_cell_length_c 12.426378
_cell_angle_alpha 90.000000
_cell_angle_beta 20.626879
_cell_angle_gamma 90.000000
_cell_volume 848.042536
_symmetry_space_group_name_H-M "P 2/C"
_symmetry_group_IT_number 13
_symmetry_cell_setting 'monoclinic'
loop_
_space_group_symop_operation_xyz
x,y,z
-x,y,1/2-z
-x,-y,-z
x,-y,1/2+z
loop_
_atom_site_type_symbol
_atom_site_label
_atom_site_fract_x
_atom_site_fract_y
_atom_site_fract_z
Si Si1 0.659624 0.055755 0.643837
Si Si2 0.055755 0.709544 0.781854
Si Si3 0.500000 0.262882 0.250000
Si Si4 0.000000 0.441739 0.750000
Si Si5 0.384998 0.453021 0.359226
Si Si6 0.139203 0.928818 0.743847
O O1 0.674752 0.298684 0.525927
O O2 0.759003 0.011864 0.458900
O O3 0.647413 0.809493 0.605942
O O4 0.562001 0.110660 0.990166
O O5 0.083749 0.600795 0.593488
O O6 0.153634 0.825075 0.584596
O O7 0.000000 0.500000 0.000000
O O8 0.954090 0.876951 0.027142
O O9 0.411427 0.419061 0.417016
O O10 0.074675 0.275966 0.479645
O O11 0.500000 0.500000 0.000000
#
# Coordination Sequence:
#
# PCOD9231156 Si02
#       6
#     4   4   2   2   4   4
#     4  11  25  41  69 101 134 168 225 271 323 398
#     4   9  20  39  63  86 129 172 208 266 322 380
#     4  10  22  46  68  94 136 176 208 274 340 388
#     4  10  20  38  66  82 130 174 212 264 330 368
#     4  10  23  43  68  95 132 173 218 273 328 395
#     4  10  22  40  60  97 128 166 222 269 311 395
#
# _framework density 23.583721000000001
#
# number of rings (size 3 to 8) (size 9 to 14) (size 15 to 20)
#    0.000    2.000    0.000    3.000    5.600    8.800 
#   10.800    0.000    0.000    0.000    0.000    0.000 
#    0.000    0.000    0.000    0.000    0.000    0.000 
#
# Total GULP energy -111385.500006 kJ/mol
# GULP energy per Si atom -5569.275000 kJ/mol
# Density = 2.353004 g / cm^3
# Si number density = 23.583721 Si / 1000 Ang^3
#
#
#
# Elastic Constant Matrix: (Units=GPa)
#
#
# Indices 1 2 3 4 5 6 
#
# 1 198.5858 108.7266 37.5853 0.0000 -36.8160 0.0000
# 2 108.7266 153.1171 21.6322 0.0000 -16.2546 0.0000
# 3 37.5853 21.6322 55.6087 0.0000 -16.6802 0.0000
# 4 0.0000 0.0000 0.0000 12.0962 0.0000 -13.1201
# 5 -36.8160 -16.2546 -16.6802 0.0000 49.0977 0.0000
# 6 0.0000 0.0000 0.0000 -13.1201 0.0000 83.8710
#
#
#
# Elastic Compliance Matrix: (Units=1/GPa)
#
#
# Indices 1 2 3 4 5 6 
#
# 1 0.009662 -0.005995 -0.002918 0.000000 0.004269 0.000000
# 2 -0.005995 0.010736 -0.000453 0.000000 -0.001095 0.000000
# 3 -0.002918 -0.000453 0.021634 0.000000 0.005012 0.000000
# 4 0.000000 0.000000 0.000000 0.099564 0.000000 0.015575
# 5 0.004269 -0.001095 0.005012 0.000000 0.024909 0.000000
# 6 0.000000 0.000000 0.000000 0.015575 0.000000 0.014360
#
#
# Mechanical properties :
#
#
# Convention : Reuss Voigt Hill
#
# Bulk Modulus (GPa) = 42.91689 82.57776 62.74733
# Shear Modulus (GPa) = 24.11247 44.97082 34.54165
#
# Velocity S-wave (km/s) = 3.20100 4.37150 3.83121
# Velocity P-wave (km/s) = 5.64792 7.78272 6.79962
#
# Compressibility (1/GPa) = 0.02330085
#
# Stress axis : x y z
#
# Youngs Moduli (GPa) = 103.50240 93.14629 46.22286
#
# Poissons Ratio (x) = 0.55843 0.13486
# Poissons Ratio (y) = 0.62052 0.02092
# Poissons Ratio (z) = 0.30197 0.04216
#
# Static dielectric constant tensor:
#      x y z
#    x 2.162550 0.000000 -0.042170 
#    y 0.000000 2.149270 0.000000 
#    z -0.042170 0.000000 1.918380 
# 
# From -- ./inp_files/35157.got.cif
#   From: 2010.05.17/outbox.cif.g08.bks.cpg/sg13_18_cif.got.tgz:35157.got - 2010.06.03 16:44:36.
