data_PCOD9231204
_publ_section_title
;
Structure prediction by ZEFSAII (Michael W. Deem and Ramdas Pophale) SiO2 
 PCOD9231204
Probable space group: P 2/C
;
_chemical_formula_sum "Si O2"
_cell_formula_units_Z 20
_cell_length_a 10.501381
_cell_length_b 13.906823
_cell_length_c 9.798372
_cell_angle_alpha 90.000000
_cell_angle_beta 138.438881
_cell_angle_gamma 90.000000
_cell_volume 949.327172
_symmetry_space_group_name_H-M "P 2/C"
_symmetry_group_IT_number 13
_symmetry_cell_setting 'monoclinic'
loop_
_space_group_symop_operation_xyz
x,y,z
-x,y,1/2-z
-x,-y,-z
x,-y,1/2+z
loop_
_atom_site_type_symbol
_atom_site_label
_atom_site_fract_x
_atom_site_fract_y
_atom_site_fract_z
Si Si1 0.479991 0.597099 0.897724
Si Si2 0.891704 0.708806 0.792981
Si Si3 0.355749 0.096358 0.015152
Si Si4 0.854323 0.277917 0.739246
Si Si5 0.632082 0.880234 0.479591
O O1 0.500000 0.583286 0.750000
O O2 0.278256 0.646115 0.776856
O O3 0.500000 0.500000 0.000000
O O4 0.653871 0.666344 0.082917
O O5 0.791533 0.805508 0.654803
O O6 0.000000 0.662413 0.750000
O O7 0.045050 0.730178 0.034138
O O8 0.500000 0.127353 0.250000
O O9 0.290582 0.987261 0.993449
O O10 0.193808 0.174300 0.863245
O O11 0.483695 0.101647 0.982522
O O12 0.000000 0.327899 0.750000
O O13 0.500000 0.843287 0.250000
#
# Coordination Sequence:
#
# PCOD9231204 Si02
#       5
#     4   4   4   4   4
#     4  12  29  52  77 103 138 180 228 293 359 417
#     4  12  27  43  72 108 143 184 234 285 350 418
#     4  10  20  38  68  97 139 191 237 279 338 402
#     4  12  24  44  73 103 140 183 236 287 344 424
#     4  10  21  39  64 100 143 190 233 281 334 405
#
# _framework density 21.067554000000001
#
# number of rings (size 3 to 8) (size 9 to 14) (size 15 to 20)
#    0.000    0.800    4.000    3.000    2.800    3.200 
#    0.000    0.000    0.000    0.000    0.000    0.000 
#    0.000    0.000    0.000    0.000    0.000    0.000 
#
# Total GULP energy -111835.877297 kJ/mol
# GULP energy per Si atom -5591.793865 kJ/mol
# Density = 2.101960 g / cm^3
# Si number density = 21.067554 Si / 1000 Ang^3
#
#
#
# Elastic Constant Matrix: (Units=GPa)
#
#
# Indices 1 2 3 4 5 6 
#
# 1 127.0171 30.5019 68.6292 0.0000 -9.0105 0.0000
# 2 30.5019 103.0676 77.6840 0.0000 3.2533 0.0000
# 3 68.6292 77.6840 183.1849 0.0000 -32.3628 0.0000
# 4 0.0000 0.0000 0.0000 7.5404 0.0000 -15.7637
# 5 -9.0105 3.2533 -32.3628 0.0000 49.1330 0.0000
# 6 0.0000 0.0000 0.0000 -15.7637 0.0000 9.9071
#
#
#
# Elastic Compliance Matrix: (Units=1/GPa)
#
#
# Indices 1 2 3 4 5 6 
#
# 1 0.009893 -0.000028 -0.003818 0.000000 -0.000699 0.000000
# 2 -0.000028 0.015752 -0.007757 0.000000 -0.006158 0.000000
# 3 -0.003818 -0.007757 0.011482 0.000000 0.007377 0.000000
# 4 0.000000 0.000000 0.000000 -0.057005 0.000000 -0.090704
# 5 -0.000699 -0.006158 0.007377 0.000000 0.025491 0.000000
# 6 0.000000 0.000000 0.000000 -0.090704 0.000000 -0.043387
#
#
# Mechanical properties :
#
#
# Convention : Reuss Voigt Hill
#
# Bulk Modulus (GPa) = 71.83639 85.21109 78.52374
# Shear Modulus (GPa) = -503.64930 29.07974 -237.28478
#
# Velocity S-wave (km/s) = -15.47847 3.71928 -10.62426
# Velocity P-wave (km/s) = 16.88999 7.67974 10.63704
#
# Compressibility (1/GPa) = 0.01392052
#
# Stress axis : x y z
#
# Youngs Moduli (GPa) = 101.08171 63.48444 87.09151
#
# Poissons Ratio (x) = 0.00178 0.33250
# Poissons Ratio (y) = 0.00284 0.67560
# Poissons Ratio (z) = 0.38592 0.49247
#
# Static dielectric constant tensor:
#      x y z
#    x 1.774950 0.000000 0.024660 
#    y 0.000000 1.807920 0.000000 
#    z 0.024660 0.000000 1.717250 
# 
# From -- ./inp_files/34621.got.cif
#   From: 2010.05.17/outbox.cif.g08.bks.cpg/sg13_18_cif.got.tgz:34621.got - 2010.06.03 16:44:36.
