data_PCOD9231695
_publ_section_title
;
Structure prediction by ZEFSAII (Michael W. Deem and Ramdas Pophale) SiO2 
 PCOD9231695
Probable space group: P 2/C
;
_chemical_formula_sum "Si O2"
_cell_formula_units_Z 32
_cell_length_a 17.291670
_cell_length_b 9.459263
_cell_length_c 10.689370
_cell_angle_alpha 90.000000
_cell_angle_beta 50.416325
_cell_angle_gamma 90.000000
_cell_volume 1347.500064
_symmetry_space_group_name_H-M "P 2/C"
_symmetry_group_IT_number 13
_symmetry_cell_setting 'monoclinic'
loop_
_space_group_symop_operation_xyz
x,y,z
-x,y,1/2-z
-x,-y,-z
x,-y,1/2+z
loop_
_atom_site_type_symbol
_atom_site_label
_atom_site_fract_x
_atom_site_fract_y
_atom_site_fract_z
Si Si1 0.189343 0.452656 0.022936
Si Si2 0.095579 0.365779 0.383012
Si Si3 0.916380 0.908430 0.746598
Si Si4 0.730257 0.720477 0.526095
Si Si5 0.368837 0.109331 0.167902
Si Si6 0.088674 0.794953 0.322609
Si Si7 0.575046 0.920112 0.561967
Si Si8 0.763262 0.138929 0.603007
O O1 0.144825 0.538690 0.945052
O O2 0.278784 0.553971 0.974576
O O3 0.236556 0.302018 0.939155
O O4 0.118080 0.430914 0.220197
O O5 0.121025 0.199653 0.321281
O O6 0.016870 0.672436 0.450562
O O7 0.000000 0.834549 0.750000
O O8 0.963832 0.056939 0.656467
O O9 0.824856 0.941341 0.932322
O O10 0.697650 0.775299 0.696231
O O11 0.844436 0.747078 0.363991
O O12 0.653450 0.800862 0.516178
O O13 0.488007 0.136251 0.058572
O O14 0.331149 0.958290 0.265636
O O15 0.363675 0.062492 0.030907
O O16 0.166554 0.847011 0.347207
O O17 0.500000 0.952138 0.750000
#
# Coordination Sequence:
#
# PCOD9231695 Si02
#       8
#     4   4   4   4   4   4   4   4
#     4  11  28  48  67 107 150 210 255 308 369 450
#     4  11  27  46  68 100 154 205 262 305 369 436
#     4  11  24  42  64 104 143 191 254 321 372 429
#     4  11  23  39  69 101 138 188 244 293 375 452
#     4  10  20  40  71 104 136 173 239 304 380 453
#     4  12  24  38  70  98 144 195 253 310 367 435
#     4   9  20  39  70 106 131 171 227 304 379 454
#     4  11  23  42  64  99 146 188 247 310 369 440
#
# _framework density 23.747681
#
# number of rings (size 3 to 8) (size 9 to 14) (size 15 to 20)
#    0.000    1.250    3.750    1.125    3.500    3.000 
#    2.250    0.000    0.000   13.500    0.000    0.000 
#    0.000    0.000    0.000    0.000    0.000    0.000 
#
# Total GULP energy -178148.132090 kJ/mol
# GULP energy per Si atom -5567.129128 kJ/mol
# Density = 2.369363 g / cm^3
# Si number density = 23.747681 Si / 1000 Ang^3
#
#
#
# Elastic Constant Matrix: (Units=GPa)
#
#
# Indices 1 2 3 4 5 6 
#
# 1 72.7728 15.7772 10.8303 0.0000 -6.0913 0.0000
# 2 15.7772 136.4482 43.1424 0.0000 -3.0637 0.0000
# 3 10.8303 43.1424 108.7452 0.0000 -15.4296 0.0000
# 4 0.0000 0.0000 0.0000 45.1386 0.0000 5.3426
# 5 -6.0913 -3.0637 -15.4296 0.0000 31.6619 0.0000
# 6 0.0000 0.0000 0.0000 5.3426 0.0000 33.5214
#
#
#
# Elastic Compliance Matrix: (Units=1/GPa)
#
#
# Indices 1 2 3 4 5 6 
#
# 1 0.014329 -0.001439 -0.000521 0.000000 0.002364 0.000000
# 2 -0.001439 0.008547 -0.003405 0.000000 -0.001109 0.000000
# 3 -0.000521 -0.003405 0.011320 0.000000 0.005087 0.000000
# 4 0.000000 0.000000 0.000000 0.022580 0.000000 -0.003599
# 5 0.002364 -0.001109 0.005087 0.000000 0.034410 0.000000
# 6 0.000000 0.000000 0.000000 -0.003599 0.000000 0.030405
#
#
# Mechanical properties :
#
#
# Convention : Reuss Voigt Hill
#
# Bulk Modulus (GPa) = 42.61395 50.82955 46.72175
# Shear Modulus (GPa) = 35.67795 38.61213 37.14504
#
# Velocity S-wave (km/s) = 3.88025 4.03666 3.95923
# Velocity P-wave (km/s) = 6.16916 6.57089 6.37320
#
# Compressibility (1/GPa) = 0.02346650
#
# Stress axis : x y z
#
# Youngs Moduli (GPa) = 69.78989 117.00256 88.33737
#
# Poissons Ratio (x) = 0.16838 0.04600
# Poissons Ratio (y) = 0.10043 0.30077
# Poissons Ratio (z) = 0.03634 0.39837
#
# Static dielectric constant tensor:
#      x y z
#    x 2.108280 0.000000 0.169700 
#    y 0.000000 1.940260 0.000000 
#    z 0.169700 0.000000 2.093230 
# 
# From -- ./inp_files/40513.got.cif
#   From: 2010.05.17/outbox.cif.g08.bks.cpg/sg13_21_cif.got.tgz:40513.got - 2010.06.03 16:44:36.
