data_PCOD9231044
_publ_section_title
;
Structure prediction by ZEFSAII (Michael W. Deem and Ramdas Pophale) SiO2 
 PCOD9231044
Probable space group: P 2/C
;
_chemical_formula_sum "Si O2"
_cell_formula_units_Z 30
_cell_length_a 17.983494
_cell_length_b 11.062989
_cell_length_c 14.262658
_cell_angle_alpha 90.000000
_cell_angle_beta 31.447438
_cell_angle_gamma 90.000000
_cell_volume 1480.407594
_symmetry_space_group_name_H-M "P 2/C"
_symmetry_group_IT_number 13
_symmetry_cell_setting 'monoclinic'
loop_
_space_group_symop_operation_xyz
x,y,z
-x,y,1/2-z
-x,-y,-z
x,-y,1/2+z
loop_
_atom_site_type_symbol
_atom_site_label
_atom_site_fract_x
_atom_site_fract_y
_atom_site_fract_z
Si Si1 0.054593 0.061891 0.533964
Si Si2 0.554108 0.651429 0.539602
Si Si3 0.294826 0.253737 0.999920
Si Si4 0.521911 0.385754 0.857261
Si Si5 0.570252 0.996764 0.080116
Si Si6 0.331994 0.869227 0.792276
Si Si7 0.218739 0.187726 0.619352
Si Si8 0.000000 0.860619 0.750000
O O1 0.945178 0.166658 0.682856
O O2 0.207421 0.121246 0.351784
O O3 0.000000 0.000000 0.500000
O O4 0.058244 0.953806 0.607741
O O5 0.485909 0.528782 0.652366
O O6 0.574268 0.632742 0.406852
O O7 0.441254 0.759935 0.667977
O O8 0.697575 0.692346 0.439389
O O9 0.130965 0.220060 0.151093
O O10 0.358880 0.339753 0.013403
O O11 0.372941 0.312404 0.824970
O O12 0.366342 0.127382 0.953749
O O13 0.500000 0.056106 0.250000
O O14 0.426832 0.008666 0.175327
O O15 0.697241 0.082848 0.913566
O O16 0.245935 0.847191 0.981831
#
# Coordination Sequence:
#
# PCOD9231044 Si02
#       8
#     4   4   4   4   4   4   4   2
#     4  12  25  38  61  94 133 170 202 248 327 384
#     4  10  23  42  64  93 123 154 224 270 301 365
#     4  11  22  37  66  85 126 165 203 253 328 370
#     4  10  24  41  64  93 118 165 217 269 305 357
#     4   9  15  33  57  88 111 150 195 249 299 372
#     4  10  21  37  65  87 125 164 202 257 312 374
#     4  10  20  38  63  86 125 165 199 254 314 372
#     4  12  24  44  58  90 140 158 206 258 300 414
#
# _framework density 20.264690000000002
#
# number of rings (size 3 to 8) (size 9 to 14) (size 15 to 20)
#    0.000    1.600    4.000    2.000    7.467    0.000 
#    0.000    4.000    0.000    3.200    0.000    0.000 
#    0.000    0.000    0.000    0.000    0.000    0.000 
#
# Total GULP energy -167071.348164 kJ/mol
# GULP energy per Si atom -5569.044939 kJ/mol
# Density = 2.021857 g / cm^3
# Si number density = 20.264690 Si / 1000 Ang^3
#
#
#
# Elastic Constant Matrix: (Units=GPa)
#
#
# Indices 1 2 3 4 5 6 
#
# 1 74.9478 25.4162 17.4059 0.0000 -17.7869 0.0000
# 2 25.4162 97.4496 23.9063 0.0000 -17.3409 0.0000
# 3 17.4059 23.9063 56.9682 0.0000 -28.9616 0.0000
# 4 0.0000 0.0000 0.0000 12.2543 0.0000 -2.3530
# 5 -17.7869 -17.3409 -28.9616 0.0000 48.9905 0.0000
# 6 0.0000 0.0000 0.0000 -2.3530 0.0000 30.9308
#
#
#
# Elastic Compliance Matrix: (Units=1/GPa)
#
#
# Indices 1 2 3 4 5 6 
#
# 1 0.015611 -0.003020 -0.001665 0.000000 0.003615 0.000000
# 2 -0.003020 0.012127 -0.003634 0.000000 0.001048 0.000000
# 3 -0.001665 -0.003634 0.026629 0.000000 0.013852 0.000000
# 4 0.000000 0.000000 0.000000 0.082814 0.000000 0.006300
# 5 0.003615 0.001048 0.013852 0.000000 0.030284 0.000000
# 6 0.000000 0.000000 0.000000 0.006300 0.000000 0.032810
#
#
# Mechanical properties :
#
#
# Convention : Reuss Voigt Hill
#
# Bulk Modulus (GPa) = 26.50350 40.31361 33.40856
# Shear Modulus (GPa) = 21.78757 29.27760 25.53258
#
# Velocity S-wave (km/s) = 3.28250 3.80512 3.55343
# Velocity P-wave (km/s) = 5.24152 6.26434 5.77562
#
# Compressibility (1/GPa) = 0.03773086
#
# Stress axis : x y z
#
# Youngs Moduli (GPa) = 64.05629 82.45885 37.55298
#
# Poissons Ratio (x) = 0.24902 0.06252
# Poissons Ratio (y) = 0.19345 0.13645
# Poissons Ratio (z) = 0.10664 0.29962
#
# Static dielectric constant tensor:
#      x y z
#    x 1.947390 0.000000 -0.026780 
#    y 0.000000 1.742720 0.000000 
#    z -0.026780 0.000000 1.747090 
# 
# From -- ./inp_files/55661.got.cif
#   From: 2010.05.17/outbox.cif.g08.bks.cpg/sg13_28_cif.got.tgz:55661.got - 2010.06.03 16:44:36.
