data_PCOD9231422
_publ_section_title
;
Structure prediction by ZEFSAII (Michael W. Deem and Ramdas Pophale) SiO2 
 PCOD9231422
Probable space group: P 2/C
;
_chemical_formula_sum "Si O2"
_cell_formula_units_Z 24
_cell_length_a 21.750937
_cell_length_b 4.937280
_cell_length_c 20.840266
_cell_angle_alpha 90.000000
_cell_angle_beta 155.707422
_cell_angle_gamma 90.000000
_cell_volume 920.723781
_symmetry_space_group_name_H-M "P 2/C"
_symmetry_group_IT_number 13
_symmetry_cell_setting 'monoclinic'
loop_
_space_group_symop_operation_xyz
x,y,z
-x,y,1/2-z
-x,-y,-z
x,-y,1/2+z
loop_
_atom_site_type_symbol
_atom_site_label
_atom_site_fract_x
_atom_site_fract_y
_atom_site_fract_z
Si Si1 0.143006 0.564631 0.432982
Si Si2 0.168789 0.118647 0.258253
Si Si3 0.852334 0.054487 0.979211
Si Si4 0.353582 0.866943 0.329264
Si Si5 0.338472 0.063258 0.031821
Si Si6 0.443324 0.566428 0.061795
O O1 0.097953 0.765045 0.446959
O O2 0.279209 0.742255 0.531936
O O3 0.189806 0.271295 0.504961
O O4 0.000000 0.529592 0.250000
O O5 0.229895 0.899816 0.266385
O O6 0.188060 0.012437 0.349685
O O7 0.292140 0.356776 0.378470
O O8 0.998301 0.186780 0.085058
O O9 0.431935 0.216166 0.610595
O O10 0.724870 0.001530 0.806908
O O11 0.420433 0.603224 0.357412
O O12 0.500000 0.000000 0.500000
O O13 0.432693 0.270358 0.078619
#
# Coordination Sequence:
#
# PCOD9231422 Si02
#       6
#     4   4   4   4   4   4
#     4  12  23  43  69 100 141 173 221 289 339 409
#     4   9  21  41  68  98 130 172 223 276 342 394
#     4  12  25  42  68 108 129 181 229 274 349 409
#     4  10  23  48  68  98 140 181 224 289 333 410
#     4  10  20  39  67  96 127 180 216 271 342 395
#     4   9  20  39  65  95 127 178 219 265 345 392
#
# _framework density 26.066451000000001
#
# number of rings (size 3 to 8) (size 9 to 14) (size 15 to 20)
#    1.000    0.667    1.667    3.000    0.000    2.000 
#    6.000    6.667    0.000    0.000    0.000    0.000 
#    0.000    0.000    0.000    0.000    0.000    0.000 
#
# Total GULP energy -133837.928315 kJ/mol
# GULP energy per Si atom -5576.580346 kJ/mol
# Density = 2.600712 g / cm^3
# Si number density = 26.066451 Si / 1000 Ang^3
#
#
#
# Elastic Constant Matrix: (Units=GPa)
#
#
# Indices 1 2 3 4 5 6 
#
# 1 65.4660 10.6997 36.4232 0.0000 3.1301 0.0000
# 2 10.6997 134.2145 21.6651 0.0000 -14.7136 0.0000
# 3 36.4232 21.6651 113.2223 0.0000 -17.3745 0.0000
# 4 0.0000 0.0000 0.0000 11.9044 0.0000 7.5972
# 5 3.1301 -14.7136 -17.3745 0.0000 41.4816 0.0000
# 6 0.0000 0.0000 0.0000 7.5972 0.0000 24.1512
#
#
#
# Elastic Compliance Matrix: (Units=1/GPa)
#
#
# Indices 1 2 3 4 5 6 
#
# 1 0.019426 -0.000964 -0.006778 0.000000 -0.004647 0.000000
# 2 -0.000964 0.007939 -0.000818 0.000000 0.002546 0.000000
# 3 -0.006778 -0.000818 0.011973 0.000000 0.005236 0.000000
# 4 0.000000 0.000000 0.000000 0.105102 0.000000 -0.033062
# 5 -0.004647 0.002546 0.005236 0.000000 0.027554 0.000000
# 6 0.000000 0.000000 0.000000 -0.033062 0.000000 0.051806
#
#
# Mechanical properties :
#
#
# Convention : Reuss Voigt Hill
#
# Bulk Modulus (GPa) = 45.01038 50.05320 47.53179
# Shear Modulus (GPa) = 20.13493 31.78178 25.95835
#
# Velocity S-wave (km/s) = 2.78231 3.49558 3.15914
# Velocity P-wave (km/s) = 5.25611 5.96120 5.61972
#
# Compressibility (1/GPa) = 0.02221710
#
# Stress axis : x y z
#
# Youngs Moduli (GPa) = 51.47797 125.96366 83.52384
#
# Poissons Ratio (x) = 0.12142 0.56611
# Poissons Ratio (y) = 0.04962 0.06835
# Poissons Ratio (z) = 0.34891 0.10308
#
# Static dielectric constant tensor:
#      x y z
#    x 2.188290 0.000000 0.010690 
#    y 0.000000 2.041620 0.000000 
#    z 0.010690 0.000000 2.059750 
# 
# From -- ./inp_files/88790.got.cif
#   From: 2010.05.17/outbox.cif.g08.bks.cpg/sg13_45_cif.got.tgz:88790.got - 2010.06.03 16:44:36.
