data_PCOD9231706
_publ_section_title
;
Structure prediction by ZEFSAII (Michael W. Deem and Ramdas Pophale) SiO2 
 PCOD9231706
Probable space group: P 2/C
;
_chemical_formula_sum "Si O2"
_cell_formula_units_Z 26
_cell_length_a 15.542438
_cell_length_b 9.485656
_cell_length_c 8.248145
_cell_angle_alpha 90.000000
_cell_angle_beta 62.132481
_cell_angle_gamma 90.000000
_cell_volume 1075.004240
_symmetry_space_group_name_H-M "P 2/C"
_symmetry_group_IT_number 13
_symmetry_cell_setting 'monoclinic'
loop_
_space_group_symop_operation_xyz
x,y,z
-x,y,1/2-z
-x,-y,-z
x,-y,1/2+z
loop_
_atom_site_type_symbol
_atom_site_label
_atom_site_fract_x
_atom_site_fract_y
_atom_site_fract_z
Si Si1 0.267037 0.180616 0.147926
Si Si2 0.000000 0.630248 0.750000
Si Si3 0.213218 0.550431 0.544537
Si Si4 0.011285 0.196164 0.909916
Si Si5 0.345062 0.396626 0.626121
Si Si6 0.463512 0.316824 0.964148
Si Si7 0.160708 0.972489 0.446760
O O1 0.227006 0.340841 0.183265
O O2 0.241438 0.081558 0.318455
O O3 0.382583 0.196138 0.027038
O O4 0.204049 0.111127 0.058769
O O5 0.099009 0.547837 0.619629
O O6 0.984757 0.725090 0.601070
O O7 0.269205 0.409575 0.546612
O O8 0.278041 0.616477 0.343628
O O9 0.000000 0.277104 0.750000
O O10 0.120125 0.139080 0.850121
O O11 0.935578 0.067858 0.946275
O O12 0.434974 0.289459 0.532331
O O13 0.405687 0.544947 0.578883
O O14 0.500000 0.348921 0.750000
#
# Coordination Sequence:
#
# PCOD9231706 Si02
#       7
#     4   2   4   4   4   4   4
#     4  11  21  38  64  94 139 174 221 292 337 406
#     4  12  24  44  66 102 148 186 222 302 344 402
#     4  11  23  42  69  98 135 176 225 291 346 411
#     4  11  21  36  62  96 131 195 246 262 330 440
#     4  10  21  42  69  94 123 176 228 286 351 411
#     4  10  20  40  72  96 119 172 236 283 352 412
#     4  11  20  36  61  95 136 181 227 278 340 408
#
# _framework density 24.185949999999998
#
# number of rings (size 3 to 8) (size 9 to 14) (size 15 to 20)
#    0.000    1.231    7.692    0.000    2.154    0.615 
#    2.769    3.846    3.385    0.000    0.000    0.000 
#    0.000    0.000    0.000    0.000    0.000    0.000 
#
# Total GULP energy -145081.382233 kJ/mol
# GULP energy per Si atom -5580.053163 kJ/mol
# Density = 2.413090 g / cm^3
# Si number density = 24.185950 Si / 1000 Ang^3
#
#
#
# Elastic Constant Matrix: (Units=GPa)
#
#
# Indices 1 2 3 4 5 6 
#
# 1 169.3334 37.7308 43.4902 0.0000 -39.6435 0.0000
# 2 37.7308 47.8913 22.1251 0.0000 -13.8088 0.0000
# 3 43.4902 22.1251 91.6372 0.0000 -24.8300 0.0000
# 4 0.0000 0.0000 0.0000 29.7257 0.0000 -11.1557
# 5 -39.6435 -13.8088 -24.8300 0.0000 52.5949 0.0000
# 6 0.0000 0.0000 0.0000 -11.1557 0.0000 34.3116
#
#
#
# Elastic Compliance Matrix: (Units=1/GPa)
#
#
# Indices 1 2 3 4 5 6 
#
# 1 0.008368 -0.004565 -0.001703 0.000000 0.004305 0.000000
# 2 -0.004565 0.026751 -0.003809 0.000000 0.001785 0.000000
# 3 -0.001703 -0.003809 0.013785 0.000000 0.004224 0.000000
# 4 0.000000 0.000000 0.000000 0.038316 0.000000 0.012458
# 5 0.004305 0.001785 0.004224 0.000000 0.024721 0.000000
# 6 0.000000 0.000000 0.000000 0.012458 0.000000 0.033195
#
#
# Mechanical properties :
#
#
# Convention : Reuss Voigt Hill
#
# Bulk Modulus (GPa) = 34.78097 57.28378 46.03238
# Shear Modulus (GPa) = 28.59230 37.02749 32.80990
#
# Velocity S-wave (km/s) = 3.44202 3.91698 3.68716
# Velocity P-wave (km/s) = 5.49623 6.64779 6.09925
#
# Compressibility (1/GPa) = 0.02875136
#
# Stress axis : x y z
#
# Youngs Moduli (GPa) = 119.50653 37.38164 72.54272
#
# Poissons Ratio (x) = 0.17063 0.12352
# Poissons Ratio (y) = 0.54550 0.27631
# Poissons Ratio (z) = 0.20349 0.14238
#
# Static dielectric constant tensor:
#      x y z
#    x 2.028860 0.000000 0.076170 
#    y 0.000000 2.008680 0.000000 
#    z 0.076170 0.000000 2.024680 
# 
# From -- ./inp_files/18678.got.cif
#   From: 2010.05.17/outbox.cif.g08.bks.cpg/sg13_10_cif.got.tgz:18678.got - 2010.06.03 16:44:36.
