data_PCOD9231937
_publ_section_title
;
Structure prediction by ZEFSAII (Michael W. Deem and Ramdas Pophale) SiO2 
 PCOD9231937
Probable space group: P 2/C
;
_chemical_formula_sum "Si O2"
_cell_formula_units_Z 20
_cell_length_a 5.601630
_cell_length_b 5.586764
_cell_length_c 25.810353
_cell_angle_alpha 90.000000
_cell_angle_beta 101.109001
_cell_angle_gamma 90.000000
_cell_volume 792.599603
_symmetry_space_group_name_H-M "P 2/C"
_symmetry_group_IT_number 13
_symmetry_cell_setting 'monoclinic'
loop_
_space_group_symop_operation_xyz
x,y,z
-x,y,1/2-z
-x,-y,-z
x,-y,1/2+z
loop_
_atom_site_type_symbol
_atom_site_label
_atom_site_fract_x
_atom_site_fract_y
_atom_site_fract_z
Si Si1 0.325656 0.412983 0.352202
Si Si2 0.000000 0.434744 0.250000
Si Si3 0.718891 0.963518 0.902027
Si Si4 0.656796 0.781204 0.300711
Si Si5 0.000000 0.000000 0.000000
Si Si6 0.392443 0.316202 0.953656
O O1 0.147465 0.303232 0.301370
O O2 0.478952 0.610456 0.326363
O O3 0.249427 0.558457 0.400091
O O4 0.497112 0.208231 0.381211
O O5 0.167823 0.607759 0.222915
O O6 0.790329 0.061342 0.849018
O O7 0.625869 0.173648 0.937840
O O8 0.925849 0.843933 0.944333
O O9 0.500000 0.916721 0.250000
O O10 0.791433 0.858205 0.025386
O O11 0.500000 0.500000 0.000000
#
# Coordination Sequence:
#
# PCOD9231937 Si02
#       6
#     4   2   4   4   2   4
#     4  10  22  42  64  97 137 174 225 293 350 422
#     4  10  20  42  70  94 128 178 224 284 360 412
#     4  11  24  43  65  99 135 177 232 283 351 433
#     4   9  21  41  65  92 132 173 221 288 347 417
#     4  12  24  40  68  98 132 190 226 280 368 410
#     4  11  24  45  66  98 141 176 234 297 345 436
#
# _framework density 25.233425
#
# number of rings (size 3 to 8) (size 9 to 14) (size 15 to 20)
#    0.000    1.600    2.000    1.800    0.000    4.800 
#    0.000   10.000    0.000    0.000    0.000    0.000 
#    0.000    0.000    0.000    0.000    0.000    0.000 
#
# Total GULP energy -111380.104982 kJ/mol
# GULP energy per Si atom -5569.005249 kJ/mol
# Density = 2.517599 g / cm^3
# Si number density = 25.233425 Si / 1000 Ang^3
#
#
#
# Elastic Constant Matrix: (Units=GPa)
#
#
# Indices 1 2 3 4 5 6 
#
# 1 60.3431 14.4901 43.6806 0.0000 -23.4446 0.0000
# 2 14.4901 36.2760 42.1833 0.0000 -13.1784 0.0000
# 3 43.6806 42.1833 229.0197 0.0000 6.0864 0.0000
# 4 0.0000 0.0000 0.0000 -4.5052 0.0000 -27.8476
# 5 -23.4446 -13.1784 6.0864 0.0000 42.7040 0.0000
# 6 0.0000 0.0000 0.0000 -27.8476 0.0000 32.5857
#
#
#
# Elastic Compliance Matrix: (Units=1/GPa)
#
#
# Indices 1 2 3 4 5 6 
#
# 1 0.026567 0.002047 -0.005871 0.000000 0.016054 0.000000
# 2 0.002047 0.042352 -0.008601 0.000000 0.015419 0.000000
# 3 -0.005871 -0.008601 0.007254 0.000000 -0.006911 0.000000
# 4 0.000000 0.000000 0.000000 -0.035331 0.000000 -0.030194
# 5 0.016054 0.015419 -0.006911 0.000000 0.037974 0.000000
# 6 0.000000 0.000000 0.000000 -0.030194 0.000000 0.004885
#
#
# Mechanical properties :
#
#
# Convention : Reuss Voigt Hill
#
# Bulk Modulus (GPa) = 19.48425 58.48297 38.98361
# Shear Modulus (GPa) = 39.79022 29.17589 34.48306
#
# Velocity S-wave (km/s) = 3.97531 3.40404 3.70072
# Velocity P-wave (km/s) = 5.36742 6.21909 5.80888
#
# Compressibility (1/GPa) = 0.05132350
#
# Stress axis : x y z
#
# Youngs Moduli (GPa) = 37.64017 23.61163 137.85370
#
# Poissons Ratio (x) = -0.04833 0.80931
# Poissons Ratio (y) = -0.07704 1.18568
# Poissons Ratio (z) = 0.22098 0.20308
#
# Static dielectric constant tensor:
#      x y z
#    x -7.771830 0.000000 -5.765800 
#    y 0.000000 2.251030 0.000000 
#    z -5.765800 0.000000 -1.436110 
# 
# From -- ./inp_files/89982.got.cif
#   From: 2010.05.17/outbox.cif.g08.bks.cpg/sg13_45_cif.got.tgz:89982.got - 2010.06.03 16:44:36.
