data_PCOD9231303
_publ_section_title
;
Structure prediction by ZEFSAII (Michael W. Deem and Ramdas Pophale) SiO2 
 PCOD9231303
Probable space group: P 2/C
;
_chemical_formula_sum "Si O2"
_cell_formula_units_Z 32
_cell_length_a 12.190953
_cell_length_b 7.029042
_cell_length_c 24.363538
_cell_angle_alpha 90.000000
_cell_angle_beta 136.674010
_cell_angle_gamma 90.000000
_cell_volume 1432.492018
_symmetry_space_group_name_H-M "P 2/C"
_symmetry_group_IT_number 13
_symmetry_cell_setting 'monoclinic'
loop_
_space_group_symop_operation_xyz
x,y,z
-x,y,1/2-z
-x,-y,-z
x,-y,1/2+z
loop_
_atom_site_type_symbol
_atom_site_label
_atom_site_fract_x
_atom_site_fract_y
_atom_site_fract_z
Si Si1 0.427287 0.666595 0.588273
Si Si2 0.278537 0.977123 0.089462
Si Si3 0.962348 0.075723 0.412719
Si Si4 0.918143 0.338146 0.859056
Si Si5 0.655658 0.426786 0.841899
Si Si6 0.758184 0.470921 0.580095
Si Si7 0.756995 0.540903 0.201707
Si Si8 0.023247 0.778513 0.814979
O O1 0.385467 0.883741 0.590179
O O2 0.331521 0.537648 0.596694
O O3 0.381112 0.601214 0.509964
O O4 0.606914 0.591353 0.660975
O O5 0.189395 0.107020 0.103154
O O6 0.362524 0.798351 0.149532
O O7 0.132813 0.880558 0.002176
O O8 0.961234 0.141817 0.349734
O O9 0.960943 0.848510 0.407299
O O10 0.812957 0.461174 0.862355
O O11 0.798713 0.307221 0.763870
O O12 0.084882 0.412688 0.897097
O O13 0.500000 0.485133 0.750000
O O14 0.745672 0.380153 0.636030
O O15 0.798531 0.693137 0.608763
O O16 0.905886 0.397785 0.259491
O O17 0.000000 0.897830 0.750000
#
# Coordination Sequence:
#
# PCOD9231303 Si02
#       8
#     4   4   4   4   4   4   4   4
#     4  12  23  40  67  90 127 174 202 252 336 376
#     4  10  24  39  61  95 130 161 211 265 312 381
#     4  10  20  40  60  92 125 160 213 267 307 371
#     4  10  20  39  62  88 124 159 211 258 312 370
#     4  11  24  40  60  96 131 161 206 268 320 377
#     4  10  21  39  62  89 122 163 215 258 300 379
#     4  10  22  39  60  93 124 163 212 258 310 379
#     4   9  20  37  62  88 119 161 210 258 304 364
#
# _framework density 22.338692999999999
#
# number of rings (size 3 to 8) (size 9 to 14) (size 15 to 20)
#    0.000    1.750    2.500    2.250    3.500    4.000 
#    0.000    0.000    0.000    3.000    0.000    0.000 
#    0.000    0.000    0.000    0.000    0.000    0.000 
#
# Total GULP energy -178316.806377 kJ/mol
# GULP energy per Si atom -5572.400199 kJ/mol
# Density = 2.228785 g / cm^3
# Si number density = 22.338693 Si / 1000 Ang^3
#
#
#
# Elastic Constant Matrix: (Units=GPa)
#
#
# Indices 1 2 3 4 5 6 
#
# 1 63.2968 -4.4183 0.3664 0.0000 -16.5891 0.0000
# 2 -4.4183 23.9989 -5.6447 0.0000 -7.0279 0.0000
# 3 0.3664 -5.6447 78.6467 0.0000 -29.6653 0.0000
# 4 0.0000 0.0000 0.0000 7.7644 0.0000 -5.4455
# 5 -16.5891 -7.0279 -29.6653 0.0000 45.0651 0.0000
# 6 0.0000 0.0000 0.0000 -5.4455 0.0000 21.0182
#
#
#
# Elastic Compliance Matrix: (Units=1/GPa)
#
#
# Indices 1 2 3 4 5 6 
#
# 1 0.019377 0.008110 0.004868 0.000000 0.011603 0.000000
# 2 0.008110 0.050747 0.010264 0.000000 0.017656 0.000000
# 3 0.004868 0.010264 0.019567 0.000000 0.016274 0.000000
# 4 0.000000 0.000000 0.000000 0.157390 0.000000 0.040777
# 5 0.011603 0.017656 0.016274 0.000000 0.039927 0.000000
# 6 0.000000 0.000000 0.000000 0.040777 0.000000 0.058142
#
#
# Mechanical properties :
#
#
# Convention : Reuss Voigt Hill
#
# Bulk Modulus (GPa) = 7.34337 16.28323 11.81330
# Shear Modulus (GPa) = 14.53243 26.47883 20.50563
#
# Velocity S-wave (km/s) = 2.55335 3.44660 3.03304
# Velocity P-wave (km/s) = 3.46226 4.81080 4.19113
#
# Compressibility (1/GPa) = 0.13617728
#
# Stress axis : x y z
#
# Youngs Moduli (GPa) = 51.60658 19.70577 51.10518
#
# Poissons Ratio (x) = -0.15982 -0.24879
# Poissons Ratio (y) = -0.41854 -0.52456
# Poissons Ratio (z) = -0.25124 -0.20227
#
# Static dielectric constant tensor:
#      x y z
#    x 1.935140 0.000000 -0.076640 
#    y 0.000000 1.853330 0.000000 
#    z -0.076640 0.000000 1.900910 
# 
# From -- ./inp_files/78310.got.cif
#   From: 2010.05.17/outbox.cif.g08.bks.cpg/sg13_40_cif.got.tgz:78310.got - 2010.06.03 16:44:36.
