data_PCOD9231014
_publ_section_title
;
Structure prediction by ZEFSAII (Michael W. Deem and Ramdas Pophale) SiO2 
 PCOD9231014
Probable space group: P 2/C
;
_chemical_formula_sum "Si O2"
_cell_formula_units_Z 32
_cell_length_a 9.624765
_cell_length_b 13.993068
_cell_length_c 24.212892
_cell_angle_alpha 90.000000
_cell_angle_beta 150.669933
_cell_angle_gamma 90.000000
_cell_volume 1597.364421
_symmetry_space_group_name_H-M "P 2/C"
_symmetry_group_IT_number 13
_symmetry_cell_setting 'monoclinic'
loop_
_space_group_symop_operation_xyz
x,y,z
-x,y,1/2-z
-x,-y,-z
x,-y,1/2+z
loop_
_atom_site_type_symbol
_atom_site_label
_atom_site_fract_x
_atom_site_fract_y
_atom_site_fract_z
Si Si1 0.602739 0.277328 0.723295
Si Si2 0.438924 0.257701 0.505432
Si Si3 0.859168 0.855461 0.090262
Si Si4 0.228740 0.026469 0.188515
Si Si5 0.331831 0.358707 0.354006
Si Si6 0.681216 0.427623 0.662808
Si Si7 0.904715 0.181647 0.020613
Si Si8 0.570799 0.189644 0.372978
O O1 0.500000 0.283974 0.750000
O O2 0.641223 0.381568 0.709184
O O3 0.375858 0.210750 0.611136
O O4 0.909252 0.228579 0.827560
O O5 0.642263 0.166434 0.565043
O O6 0.431725 0.304648 0.443140
O O7 0.547887 0.344647 0.579783
O O8 0.160600 0.223082 0.441097
O O9 0.704499 0.851856 0.976598
O O10 0.045205 0.951136 0.158773
O O11 0.500000 0.981598 0.250000
O O12 0.375428 0.110032 0.275706
O O13 0.006951 0.073605 0.068186
O O14 0.445693 0.466148 0.386054
O O15 0.404185 0.286010 0.330349
O O16 0.000000 0.367076 0.250000
O O17 0.000000 0.433115 0.750000
O O18 0.173036 0.218650 0.079107
#
# Coordination Sequence:
#
# PCOD9231014 Si02
#       8
#     4   4   4   4   4   4   4   4
#     4  11  21  38  61  91 125 158 207 258 307 367
#     4  10  21  39  62  89 125 157 205 255 310 370
#     4  11  22  37  64  88 122 167 203 257 306 363
#     4  10  23  38  61  91 123 164 216 252 308 376
#     4  10  21  39  65  88 120 165 200 252 310 374
#     4  10  20  38  62  91 121 159 207 248 315 367
#     4  10  22  38  62  88 125 163 199 261 306 359
#     4  10  22  41  62  90 128 161 210 253 311 368
#
# _framework density 20.033000000000001
#
# number of rings (size 3 to 8) (size 9 to 14) (size 15 to 20)
#    0.000    1.750    2.500    1.500    1.750    1.500 
#    0.000    6.875   11.000    0.000    0.000    0.000 
#    0.000    0.000    0.000    0.000    0.000    0.000 
#
# Total GULP energy -178304.281418 kJ/mol
# GULP energy per Si atom -5572.008794 kJ/mol
# Density = 1.998740 g / cm^3
# Si number density = 20.033000 Si / 1000 Ang^3
#
#
#
# Elastic Constant Matrix: (Units=GPa)
#
#
# Indices 1 2 3 4 5 6 
#
# 1 103.2179 47.2807 25.7380 0.0000 3.2476 0.0000
# 2 47.2807 82.8579 28.9669 0.0000 11.0318 0.0000
# 3 25.7380 28.9669 66.4819 0.0000 4.9679 0.0000
# 4 0.0000 0.0000 0.0000 13.0364 0.0000 -9.1252
# 5 3.2476 11.0318 4.9679 0.0000 20.7629 0.0000
# 6 0.0000 0.0000 0.0000 -9.1252 0.0000 16.0029
#
#
#
# Elastic Compliance Matrix: (Units=1/GPa)
#
#
# Indices 1 2 3 4 5 6 
#
# 1 0.013478 -0.007206 -0.002247 0.000000 0.002258 0.000000
# 2 -0.007206 0.018917 -0.004873 0.000000 -0.007758 0.000000
# 3 -0.002247 -0.004873 0.018139 0.000000 -0.001400 0.000000
# 4 0.000000 0.000000 0.000000 0.127665 0.000000 0.072797
# 5 0.002258 -0.007758 -0.001400 0.000000 0.052267 0.000000
# 6 0.000000 0.000000 0.000000 0.072797 0.000000 0.103999
#
#
# Mechanical properties :
#
#
# Convention : Reuss Voigt Hill
#
# Bulk Modulus (GPa) = 45.69783 50.72542 48.21162
# Shear Modulus (GPa) = 13.49845 19.99860 16.74852
#
# Velocity S-wave (km/s) = 2.59860 3.16299 2.89458
# Velocity P-wave (km/s) = 5.64486 6.22216 5.94052
#
# Compressibility (1/GPa) = 0.02188288
#
# Stress axis : x y z
#
# Youngs Moduli (GPa) = 74.19269 52.86142 55.12869
#
# Poissons Ratio (x) = 0.38093 0.12387
# Poissons Ratio (y) = 0.53465 0.26864
# Poissons Ratio (z) = 0.16671 0.25759
#
# Static dielectric constant tensor:
#      x y z
#    x 1.905690 0.000000 -0.618510 
#    y 0.000000 1.732720 0.000000 
#    z -0.618510 0.000000 3.822710 
# 
# From -- ./inp_files/85367.got.cif
#   From: 2010.05.17/outbox.cif.g08.bks.cpg/sg13_43_cif.got.tgz:85367.got - 2010.06.03 16:44:36.
