data_PCOD9231713
_publ_section_title
;
Structure prediction by ZEFSAII (Michael W. Deem and Ramdas Pophale) SiO2 
 PCOD9231713
Probable space group: P 2/C
;
_chemical_formula_sum "Si O2"
_cell_formula_units_Z 22
_cell_length_a 28.045893
_cell_length_b 8.205597
_cell_length_c 9.138233
_cell_angle_alpha 90.000000
_cell_angle_beta 30.269178
_cell_angle_gamma 90.000000
_cell_volume 1060.050566
_symmetry_space_group_name_H-M "P 2/C"
_symmetry_group_IT_number 13
_symmetry_cell_setting 'monoclinic'
loop_
_space_group_symop_operation_xyz
x,y,z
-x,y,1/2-z
-x,-y,-z
x,-y,1/2+z
loop_
_atom_site_type_symbol
_atom_site_label
_atom_site_fract_x
_atom_site_fract_y
_atom_site_fract_z
Si Si1 0.103925 0.858953 0.418687
Si Si2 0.223286 0.642025 0.315994
Si Si3 0.369809 0.393880 0.844300
Si Si4 0.196656 0.795343 0.689857
Si Si5 0.916932 0.622644 0.279863
Si Si6 0.500000 0.482873 0.750000
O O1 0.152220 0.715810 0.385193
O O2 0.086477 0.787904 0.303606
O O3 0.166697 0.018030 0.272748
O O4 0.000000 0.897744 0.750000
O O5 0.225848 0.761399 0.445422
O O6 0.175205 0.482696 0.513070
O O7 0.318324 0.571451 0.994986
O O8 0.432516 0.378215 0.823046
O O9 0.436257 0.407811 0.526745
O O10 0.288404 0.259922 0.038453
O O11 0.108459 0.683809 0.986352
O O12 0.000000 0.500000 0.000000
#
# Coordination Sequence:
#
# PCOD9231713 Si02
#       6
#     4   4   4   4   4   2
#     4  12  26  42  63  96 136 187 226 271 328 385
#     4  11  23  41  65  97 131 177 226 274 325 390
#     4  10  21  42  70 106 126 172 216 284 333 405
#     4  11  25  40  63  95 141 175 215 281 334 389
#     4  11  23  41  64  90 127 178 237 275 310 381
#     4  10  20  40  78 104 124 160 236 276 338 412
#
# _framework density 20.753726
#
# number of rings (size 3 to 8) (size 9 to 14) (size 15 to 20)
#    0.000    1.091    3.636    3.273    5.091    1.455 
#    0.000    0.000    0.000    6.545    0.000    0.000 
#    0.000    0.000    0.000    0.000    0.000    0.000 
#
# Total GULP energy -122679.658811 kJ/mol
# GULP energy per Si atom -5576.348128 kJ/mol
# Density = 2.070649 g / cm^3
# Si number density = 20.753726 Si / 1000 Ang^3
#
#
#
# Elastic Constant Matrix: (Units=GPa)
#
#
# Indices 1 2 3 4 5 6 
#
# 1 82.6160 22.8432 41.6431 0.0000 3.9764 0.0000
# 2 22.8432 91.6842 43.3726 0.0000 4.1936 0.0000
# 3 41.6431 43.3726 121.5275 0.0000 -1.4390 0.0000
# 4 0.0000 0.0000 0.0000 17.8201 0.0000 -8.8464
# 5 3.9764 4.1936 -1.4390 0.0000 30.0884 0.0000
# 6 0.0000 0.0000 0.0000 -8.8464 0.0000 25.7255
#
#
#
# Elastic Compliance Matrix: (Units=1/GPa)
#
#
# Indices 1 2 3 4 5 6 
#
# 1 0.014930 -0.001440 -0.004625 0.000000 -0.001994 0.000000
# 2 -0.001440 0.013390 -0.004307 0.000000 -0.001882 0.000000
# 3 -0.004625 -0.004307 0.011372 0.000000 0.001755 0.000000
# 4 0.000000 0.000000 0.000000 0.067668 0.000000 0.023269
# 5 -0.001994 -0.001882 0.001755 0.000000 0.033845 0.000000
# 6 0.000000 0.000000 0.000000 0.023269 0.000000 0.046874
#
#
# Mechanical properties :
#
#
# Convention : Reuss Voigt Hill
#
# Bulk Modulus (GPa) = 52.78557 56.83839 54.81198
# Shear Modulus (GPa) = 23.24073 27.25806 25.24940
#
# Velocity S-wave (km/s) = 3.35002 3.62803 3.49179
# Velocity P-wave (km/s) = 6.36027 6.70795 6.53642
#
# Compressibility (1/GPa) = 0.01894457
#
# Stress axis : x y z
#
# Youngs Moduli (GPa) = 66.97956 74.68459 87.93806
#
# Poissons Ratio (x) = 0.10758 0.40675
# Poissons Ratio (y) = 0.09648 0.37878
# Poissons Ratio (z) = 0.30981 0.32170
#
# Static dielectric constant tensor:
#      x y z
#    x 1.827080 0.000000 0.021090 
#    y 0.000000 1.727130 0.000000 
#    z 0.021090 0.000000 1.784780 
# 
# From -- ./inp_files/18182.got.cif
#   From: 2010.05.17/outbox.cif.g08.bks.cpg/sg13_10_cif.got.tgz:18182.got - 2010.06.03 16:44:36.
