data_PCOD9231502
_publ_section_title
;
Structure prediction by ZEFSAII (Michael W. Deem and Ramdas Pophale) SiO2 
 PCOD9231502
Probable space group: P 2/C
;
_chemical_formula_sum "Si O2"
_cell_formula_units_Z 24
_cell_length_a 8.009392
_cell_length_b 16.703714
_cell_length_c 18.125407
_cell_angle_alpha 90.000000
_cell_angle_beta 31.657427
_cell_angle_gamma 90.000000
_cell_volume 1272.702000
_symmetry_space_group_name_H-M "P 2/C"
_symmetry_group_IT_number 13
_symmetry_cell_setting 'monoclinic'
loop_
_space_group_symop_operation_xyz
x,y,z
-x,y,1/2-z
-x,-y,-z
x,-y,1/2+z
loop_
_atom_site_type_symbol
_atom_site_label
_atom_site_fract_x
_atom_site_fract_y
_atom_site_fract_z
Si Si1 0.228779 0.241093 0.958328
Si Si2 0.861054 0.919415 0.085637
Si Si3 0.177861 0.676290 0.015473
Si Si4 0.960076 0.811802 0.183118
Si Si5 0.109681 0.348309 0.293578
Si Si6 0.134398 0.484545 0.868809
O O1 0.115850 0.150101 0.985042
O O2 0.609270 0.229374 0.811006
O O3 0.083171 0.291654 0.944936
O O4 0.091527 0.285172 0.081931
O O5 0.500000 0.931611 0.250000
O O6 0.012920 0.879560 0.101647
O O7 0.000000 0.000000 0.000000
O O8 0.514097 0.670993 0.848048
O O9 0.197570 0.740114 0.073637
O O10 0.055662 0.591375 0.090594
O O11 0.000000 0.843519 0.250000
O O12 0.085891 0.436641 0.338136
O O13 0.000000 0.348722 0.250000
O O14 0.500000 0.466526 0.750000
O O15 0.000000 0.500000 0.000000
#
# Coordination Sequence:
#
# PCOD9231502 Si02
#       6
#     4   4   4   4   4   4
#     4  10  20  40  61  82 115 155 194 232 287 360
#     4   9  20  38  61  88 115 153 195 229 280 357
#     4  11  22  38  61  81 111 158 200 238 292 357
#     4  10  21  38  61  90 119 148 192 247 294 335
#     4  12  25  38  55  86 118 148 198 254 295 338
#     4  12  22  40  59  81 112 156 204 243 294 357
#
# _framework density 18.857516
#
# number of rings (size 3 to 8) (size 9 to 14) (size 15 to 20)
#    0.000    1.333    3.333    4.000    0.000    4.000 
#    0.000    4.167    0.000    0.000    0.000    0.000 
#    0.000    0.000    0.000    0.000    0.000    0.000 
#
# Total GULP energy -133880.517687 kJ/mol
# GULP energy per Si atom -5578.354904 kJ/mol
# Density = 1.881460 g / cm^3
# Si number density = 18.857516 Si / 1000 Ang^3
#
#
#
# Elastic Constant Matrix: (Units=GPa)
#
#
# Indices 1 2 3 4 5 6 
#
# 1 65.2512 27.7818 28.3507 0.0000 17.0592 0.0000
# 2 27.7818 158.8149 63.5653 0.0000 18.6454 0.0000
# 3 28.3507 63.5653 100.4089 0.0000 8.5962 0.0000
# 4 0.0000 0.0000 0.0000 47.3103 0.0000 9.4046
# 5 17.0592 18.6454 8.5962 0.0000 35.4169 0.0000
# 6 0.0000 0.0000 0.0000 9.4046 0.0000 12.0224
#
#
#
# Elastic Compliance Matrix: (Units=1/GPa)
#
#
# Indices 1 2 3 4 5 6 
#
# 1 0.019641 -0.000737 -0.004393 0.000000 -0.008006 0.000000
# 2 -0.000737 0.008835 -0.005123 0.000000 -0.003052 0.000000
# 3 -0.004393 -0.005123 0.014329 0.000000 0.001336 0.000000
# 4 0.000000 0.000000 0.000000 0.025029 0.000000 -0.019579
# 5 -0.008006 -0.003052 0.001336 0.000000 0.033374 0.000000
# 6 0.000000 0.000000 0.000000 -0.019579 0.000000 0.098494
#
#
# Mechanical properties :
#
#
# Convention : Reuss Voigt Hill
#
# Bulk Modulus (GPa) = 44.85071 62.65228 53.75150
# Shear Modulus (GPa) = 21.96422 32.60173 27.28297
#
# Velocity S-wave (km/s) = 3.41654 4.16245 3.80780
# Velocity P-wave (km/s) = 6.27689 7.50983 6.92087
#
# Compressibility (1/GPa) = 0.02229619
#
# Stress axis : x y z
#
# Youngs Moduli (GPa) = 50.91295 113.19138 69.78932
#
# Poissons Ratio (x) = 0.08348 0.30662
# Poissons Ratio (y) = 0.03755 0.35755
# Poissons Ratio (z) = 0.22369 0.57992
#
# Static dielectric constant tensor:
#      x y z
#    x 1.687260 0.000000 -0.005570 
#    y 0.000000 1.386320 0.000000 
#    z -0.005570 0.000000 1.641470 
# 
# From -- ./inp_files/12426.got.cif
#   From: 2010.05.17/outbox.cif.g08.bks.cpg/sg13_7_cif.got.tgz:12426.got - 2010.06.03 16:44:36.
