data_PCOD9231079
_publ_section_title
;
Structure prediction by ZEFSAII (Michael W. Deem and Ramdas Pophale) SiO2 
 PCOD9231079
Probable space group: P 2/C
;
_chemical_formula_sum "Si O2"
_cell_formula_units_Z 32
_cell_length_a 11.472193
_cell_length_b 12.799603
_cell_length_c 12.481658
_cell_angle_alpha 90.000000
_cell_angle_beta 65.671148
_cell_angle_gamma 90.000000
_cell_volume 1670.040479
_symmetry_space_group_name_H-M "P 2/C"
_symmetry_group_IT_number 13
_symmetry_cell_setting 'monoclinic'
loop_
_space_group_symop_operation_xyz
x,y,z
-x,y,1/2-z
-x,-y,-z
x,-y,1/2+z
loop_
_atom_site_type_symbol
_atom_site_label
_atom_site_fract_x
_atom_site_fract_y
_atom_site_fract_z
Si Si1 0.183468 0.620726 0.491911
Si Si2 0.366181 0.730586 0.247709
Si Si3 0.446595 0.384886 0.502595
Si Si4 0.127897 0.127257 0.771535
Si Si5 0.793332 0.387608 0.062340
Si Si6 0.708946 0.313325 0.331187
Si Si7 0.974774 0.214589 0.011788
Si Si8 0.861909 0.887822 0.749937
O O1 0.290278 0.667832 0.370163
O O2 0.150815 0.504524 0.464628
O O3 0.234212 0.617825 0.593700
O O4 0.066182 0.702124 0.537107
O O5 0.500000 0.773089 0.250000
O O6 0.409416 0.658287 0.132941
O O7 0.258352 0.806066 0.234461
O O8 0.500000 0.500000 0.500000
O O9 0.329669 0.388743 0.465814
O O10 0.557867 0.318002 0.404167
O O11 0.000000 0.157714 0.750000
O O12 0.164895 0.009616 0.726020
O O13 0.065812 0.138364 0.912218
O O14 0.755982 0.356324 0.198506
O O15 0.885274 0.296364 0.982850
O O16 0.760103 0.195712 0.329542
O O17 0.884731 0.143690 0.118406
O O18 0.000000 0.867672 0.750000
#
# Coordination Sequence:
#
# PCOD9231079 Si02
#       8
#     4   4   4   4   4   4   4   4
#     4  11  21  38  60  90 119 162 197 241 295 359
#     4  11  22  39  63  87 120 161 206 244 298 365
#     4  12  22  39  60  83 124 161 202 241 295 357
#     4  10  22  40  61  90 119 153 199 254 306 353
#     4  11  23  36  58  91 122 161 195 243 299 357
#     4  11  22  38  60  88 119 154 204 244 288 356
#     4  10  21  38  60  88 120 152 196 246 299 354
#     4  10  20  38  64  86 114 153 201 245 302 351
#
# _framework density 19.161211999999999
#
# number of rings (size 3 to 8) (size 9 to 14) (size 15 to 20)
#    0.000    1.250    3.750    2.625    0.000    0.000 
#    0.000    3.125    0.000    0.000    0.000    0.000 
#    0.000    0.000    0.000    0.000    0.000    0.000 
#
# Total GULP energy -178339.864557 kJ/mol
# GULP energy per Si atom -5573.120767 kJ/mol
# Density = 1.911760 g / cm^3
# Si number density = 19.161212 Si / 1000 Ang^3
#
#
#
# Elastic Constant Matrix: (Units=GPa)
#
#
# Indices 1 2 3 4 5 6 
#
# 1 120.7448 49.3508 15.4311 0.0000 5.0326 0.0000
# 2 49.3508 90.3928 33.5512 0.0000 -2.7235 0.0000
# 3 15.4311 33.5512 66.1173 0.0000 0.8516 0.0000
# 4 0.0000 0.0000 0.0000 19.5459 0.0000 -1.1502
# 5 5.0326 -2.7235 0.8516 0.0000 32.0258 0.0000
# 6 0.0000 0.0000 0.0000 -1.1502 0.0000 27.4214
#
#
#
# Elastic Compliance Matrix: (Units=1/GPa)
#
#
# Indices 1 2 3 4 5 6 
#
# 1 0.010838 -0.006230 0.000661 0.000000 -0.002250 0.000000
# 2 -0.006230 0.017269 -0.007343 0.000000 0.002643 0.000000
# 3 0.000661 -0.007343 0.018713 0.000000 -0.001226 0.000000
# 4 0.000000 0.000000 0.000000 0.051288 0.000000 0.002151
# 5 -0.002250 0.002643 -0.001226 0.000000 0.031836 0.000000
# 6 0.000000 0.000000 0.000000 0.002151 0.000000 0.036558
#
#
# Mechanical properties :
#
#
# Convention : Reuss Voigt Hill
#
# Bulk Modulus (GPa) = 47.63084 52.65789 50.14436
# Shear Modulus (GPa) = 25.08470 27.72676 26.40573
#
# Velocity S-wave (km/s) = 3.62213 3.80811 3.71628
# Velocity P-wave (km/s) = 6.51191 6.84666 6.68138
#
# Compressibility (1/GPa) = 0.02099480
#
# Stress axis : x y z
#
# Youngs Moduli (GPa) = 92.27148 57.90575 53.44009
#
# Poissons Ratio (x) = 0.36075 -0.03533
# Poissons Ratio (y) = 0.57485 0.39243
# Poissons Ratio (z) = -0.06099 0.42522
#
# Static dielectric constant tensor:
#      x y z
#    x 1.721320 0.000000 0.018650 
#    y 0.000000 1.659940 0.000000 
#    z 0.018650 0.000000 1.684890 
# 
# From -- ./inp_files/34143.got.cif
#   From: 2010.05.17/outbox.cif.g08.bks.cpg/sg13_18_cif.got.tgz:34143.got - 2010.06.03 16:44:36.
