data_PCOD9231055
_publ_section_title
;
Structure prediction by ZEFSAII (Michael W. Deem and Ramdas Pophale) SiO2 
 PCOD9231055
Probable space group: P 2/C
;
_chemical_formula_sum "Si O2"
_cell_formula_units_Z 28
_cell_length_a 25.204171
_cell_length_b 12.115781
_cell_length_c 31.009827
_cell_angle_alpha 90.000000
_cell_angle_beta 8.438976
_cell_angle_gamma 90.000000
_cell_volume 1389.693138
_symmetry_space_group_name_H-M "P 2/C"
_symmetry_group_IT_number 13
_symmetry_cell_setting 'monoclinic'
loop_
_space_group_symop_operation_xyz
x,y,z
-x,y,1/2-z
-x,-y,-z
x,-y,1/2+z
loop_
_atom_site_type_symbol
_atom_site_label
_atom_site_fract_x
_atom_site_fract_y
_atom_site_fract_z
Si Si1 0.163415 0.108796 0.664795
Si Si2 0.747661 0.474140 0.588282
Si Si3 0.016552 0.195382 0.498279
Si Si4 0.715817 0.426348 0.201798
Si Si5 0.860025 0.324224 0.771248
Si Si6 0.642547 0.929107 0.926083
Si Si7 0.154053 0.263271 0.292474
O O1 0.980406 0.220407 0.831114
O O2 0.000000 0.082981 0.750000
O O3 0.141446 0.009549 0.716005
O O4 0.593597 0.135149 0.314213
O O5 0.500000 0.424483 0.750000
O O6 0.579638 0.512459 0.768698
O O7 0.898491 0.586576 0.446310
O O8 0.037141 0.382302 0.369261
O O9 0.077931 0.311259 0.473670
O O10 0.957840 0.229332 0.495096
O O11 0.697621 0.123687 0.774763
O O12 0.386278 0.392344 0.497101
O O13 0.000000 0.500000 0.000000
O O14 0.574927 0.270818 0.967268
O O15 0.880138 0.830409 0.715653
O O16 0.500000 0.000000 0.000000
#
# Coordination Sequence:
#
# PCOD9231055 Si02
#       7
#     4   4   4   4   4   4   4
#     4  10  23  43  61  95 127 155 206 267 316 357
#     4  12  25  38  60  98 130 160 204 261 314 366
#     4  10  22  39  68  87 124 160 210 257 301 380
#     4  10  20  38  63  90 116 165 205 243 314 368
#     4  10  22  39  67  86 125 159 206 261 298 384
#     4  12  22  41  68  92 115 171 216 251 304 368
#     4  10  22  42  62  91 123 162 217 249 300 384
#
# _framework density 20.148332
#
# number of rings (size 3 to 8) (size 9 to 14) (size 15 to 20)
#    0.000    1.714    5.714    1.714    6.000    0.000 
#    2.571    0.714    0.000    0.000    0.000    0.000 
#    0.000    0.000    0.000    0.000    0.000    0.000 
#
# Total GULP energy -156319.241573 kJ/mol
# GULP energy per Si atom -5582.830056 kJ/mol
# Density = 2.010247 g / cm^3
# Si number density = 20.148332 Si / 1000 Ang^3
#
#
#
# Elastic Constant Matrix: (Units=GPa)
#
#
# Indices 1 2 3 4 5 6 
#
# 1 134.7867 43.7325 19.0435 0.0000 -9.7650 0.0000
# 2 43.7325 91.7061 7.7812 0.0000 3.6259 0.0000
# 3 19.0435 7.7812 14.5378 0.0000 7.9999 0.0000
# 4 0.0000 0.0000 0.0000 16.8557 0.0000 5.2850
# 5 -9.7650 3.6259 7.9999 0.0000 25.3673 0.0000
# 6 0.0000 0.0000 0.0000 5.2850 0.0000 38.9666
#
#
#
# Elastic Compliance Matrix: (Units=1/GPa)
#
#
# Indices 1 2 3 4 5 6 
#
# 1 0.012834 -0.004825 -0.020965 0.000000 0.012241 0.000000
# 2 -0.004825 0.013240 0.001570 0.000000 -0.004245 0.000000
# 3 -0.020965 0.001570 0.120965 0.000000 -0.046443 0.000000
# 4 0.000000 0.000000 0.000000 0.061962 0.000000 -0.008404
# 5 0.012241 -0.004245 -0.046443 0.000000 0.059386 0.000000
# 6 0.000000 0.000000 0.000000 -0.008404 0.000000 0.026803
#
#
# Mechanical properties :
#
#
# Convention : Reuss Voigt Hill
#
# Bulk Modulus (GPa) = 10.14212 42.46059 26.30135
# Shear Modulus (GPa) = 13.28036 27.60281 20.44159
#
# Velocity S-wave (km/s) = 2.57014 3.70534 3.18866
# Velocity P-wave (km/s) = 3.72185 6.27900 5.16129
#
# Compressibility (1/GPa) = 0.09859868
#
# Stress axis : x y z
#
# Youngs Moduli (GPa) = 77.92041 75.52844 8.26686
#
# Poissons Ratio (x) = 0.36444 0.17331
# Poissons Ratio (y) = 0.37598 -0.01298
# Poissons Ratio (z) = 1.63358 -0.11858
#
# Static dielectric constant tensor:
#      x y z
#    x 1.296690 0.000000 -0.272230 
#    y 0.000000 1.732980 0.000000 
#    z -0.272230 0.000000 1.545980 
# 
# From -- ./inp_files/97703.got.cif
#   From: 2010.05.17/outbox.cif.g08.bks.cpg/sg13_49_cif.got.tgz:97703.got - 2010.06.03 16:44:36.
