data_PCOD9231465
_publ_section_title
;
Structure prediction by ZEFSAII (Michael W. Deem and Ramdas Pophale) SiO2 
 PCOD9231465
Probable space group: P 2/C
;
_chemical_formula_sum "Si O2"
_cell_formula_units_Z 26
_cell_length_a 21.032468
_cell_length_b 13.035760
_cell_length_c 14.237301
_cell_angle_alpha 90.000000
_cell_angle_beta 159.714094
_cell_angle_gamma 90.000000
_cell_volume 1353.362943
_symmetry_space_group_name_H-M "P 2/C"
_symmetry_group_IT_number 13
_symmetry_cell_setting 'monoclinic'
loop_
_space_group_symop_operation_xyz
x,y,z
-x,y,1/2-z
-x,-y,-z
x,-y,1/2+z
loop_
_atom_site_type_symbol
_atom_site_label
_atom_site_fract_x
_atom_site_fract_y
_atom_site_fract_z
Si Si1 0.500000 0.562714 0.250000
Si Si2 0.578035 0.765070 0.574045
Si Si3 0.479956 0.376774 0.351103
Si Si4 0.189663 0.891352 0.454855
Si Si5 0.333228 0.887609 0.094245
Si Si6 0.179050 0.713255 0.766996
Si Si7 0.208398 0.711600 0.340169
O O1 0.528927 0.488382 0.379720
O O2 0.678440 0.633902 0.489010
O O3 0.522051 0.657876 0.544933
O O4 0.417441 0.824583 0.298052
O O5 0.731013 0.741969 0.708238
O O6 0.662500 0.836264 0.772542
O O7 0.625640 0.299572 0.503352
O O8 0.280609 0.355684 0.028172
O O9 0.175947 0.822702 0.341341
O O10 0.000000 0.892370 0.250000
O O11 0.254081 0.004502 0.516844
O O12 0.500000 0.901032 0.250000
O O13 0.184208 0.815552 0.837056
O O14 0.975923 0.674809 0.465075
#
# Coordination Sequence:
#
# PCOD9231465 Si02
#       7
#     2   4   4   4   4   4   4
#     4  10  20  40  62  88 114 156 188 244 298 354
#     4  10  20  40  57  85 116 153 193 245 283 342
#     4   9  22  37  61  89 112 149 201 237 293 340
#     4  11  21  35  58  85 114 150 205 231 280 346
#     4  10  23  37  54  85 117 160 188 235 292 340
#     4  11  20  39  61  81 124 151 192 238 300 336
#     4   9  20  38  57  87 117 153 183 248 286 342
#
# _framework density 19.211403000000001
#
# number of rings (size 3 to 8) (size 9 to 14) (size 15 to 20)
#    0.000    2.154    3.846    0.462    4.308    4.923 
#    0.000    0.000    0.000    3.692    0.000    0.000 
#    0.000    0.000    0.000    0.000    0.000    0.000 
#
# Total GULP energy -144956.900857 kJ/mol
# GULP energy per Si atom -5575.265418 kJ/mol
# Density = 1.916768 g / cm^3
# Si number density = 19.211403 Si / 1000 Ang^3
#
#
#
# Elastic Constant Matrix: (Units=GPa)
#
#
# Indices 1 2 3 4 5 6 
#
# 1 58.2867 35.9502 30.5692 0.0000 -15.2097 0.0000
# 2 35.9502 88.6915 19.7365 0.0000 -2.7133 0.0000
# 3 30.5692 19.7365 90.1868 0.0000 8.1549 0.0000
# 4 0.0000 0.0000 0.0000 12.9244 0.0000 -15.6329
# 5 -15.2097 -2.7133 8.1549 0.0000 21.2116 0.0000
# 6 0.0000 0.0000 0.0000 -15.6329 0.0000 16.9084
#
#
#
# Elastic Compliance Matrix: (Units=1/GPa)
#
#
# Indices 1 2 3 4 5 6 
#
# 1 0.040878 -0.012409 -0.014139 0.000000 0.033160 0.000000
# 2 -0.012409 0.015759 0.001429 0.000000 -0.007431 0.000000
# 3 -0.014139 0.001429 0.017061 0.000000 -0.016514 0.000000
# 4 0.000000 0.000000 0.000000 -0.653893 0.000000 -0.604569
# 5 0.033160 -0.007431 -0.016514 0.000000 0.076320 0.000000
# 6 0.000000 0.000000 0.000000 -0.604569 0.000000 -0.499823
#
#
# Mechanical properties :
#
#
# Convention : Reuss Voigt Hill
#
# Bulk Modulus (GPa) = 42.62215 45.51962 44.07089
# Shear Modulus (GPa) = -5.28742 20.26949 7.49103
#
# Velocity S-wave (km/s) = -1.66079 3.25172 1.97680
# Velocity P-wave (km/s) = 4.30772 6.15173 5.31037
#
# Compressibility (1/GPa) = 0.02346198
#
# Stress axis : x y z
#
# Youngs Moduli (GPa) = 24.46278 63.45382 58.61322
#
# Poissons Ratio (x) = 0.78739 0.82872
# Poissons Ratio (y) = 0.30356 -0.08377
# Poissons Ratio (z) = 0.34587 -0.09069
#
# Static dielectric constant tensor:
#      x y z
#    x 1.673920 0.000000 -0.016370 
#    y 0.000000 1.678500 0.000000 
#    z -0.016370 0.000000 1.681920 
# 
# From -- ./inp_files/58941.got.cif
#   From: 2010.05.17/outbox.cif.g08.bks.cpg/sg13_30_cif.got.tgz:58941.got - 2010.06.03 16:44:36.
