data_PCOD9231849
_publ_section_title
;
Structure prediction by ZEFSAII (Michael W. Deem and Ramdas Pophale) SiO2 
 PCOD9231849
Probable space group: P 2/C
;
_chemical_formula_sum "Si O2"
_cell_formula_units_Z 32
_cell_length_a 20.747737
_cell_length_b 8.025392
_cell_length_c 11.422763
_cell_angle_alpha 90.000000
_cell_angle_beta 131.820385
_cell_angle_gamma 90.000000
_cell_volume 1417.436522
_symmetry_space_group_name_H-M "P 2/C"
_symmetry_group_IT_number 13
_symmetry_cell_setting 'monoclinic'
loop_
_space_group_symop_operation_xyz
x,y,z
-x,y,1/2-z
-x,-y,-z
x,-y,1/2+z
loop_
_atom_site_type_symbol
_atom_site_label
_atom_site_fract_x
_atom_site_fract_y
_atom_site_fract_z
Si Si1 0.246394 0.804381 0.076501
Si Si2 0.116270 0.805519 0.706852
Si Si3 0.838855 0.172765 0.776092
Si Si4 0.919664 0.524755 0.226084
Si Si5 0.683722 0.146857 0.409097
Si Si6 0.517814 0.668688 0.654795
Si Si7 0.208298 0.390198 0.122967
Si Si8 0.361843 0.431826 0.839765
O O1 0.183496 0.815069 0.113777
O O2 0.317254 0.661350 0.178274
O O3 0.300193 0.973831 0.134877
O O4 0.194129 0.796050 0.893818
O O5 0.056736 0.653892 0.685637
O O6 0.147869 0.732652 0.622101
O O7 0.103229 0.005363 0.678733
O O8 0.884749 0.336752 0.775918
O O9 0.744679 0.149296 0.598786
O O10 0.000000 0.592694 0.250000
O O11 0.848379 0.503998 0.036731
O O12 0.581876 0.189541 0.282641
O O13 0.730309 0.283700 0.385481
O O14 0.500000 0.559255 0.750000
O O15 0.574658 0.575593 0.626760
O O16 0.423063 0.692530 0.485118
O O17 0.274478 0.488884 0.289287
#
# Coordination Sequence:
#
# PCOD9231849 Si02
#       8
#     4   4   4   4   4   4   4   4
#     4  11  20  38  63  95 115 167 222 256 324 384
#     4  11  23  40  68  95 127 171 216 270 322 389
#     4  10  22  42  67  94 128 171 216 271 325 390
#     4  11  25  43  67  98 133 168 215 268 333 395
#     4   9  20  37  61  85 122 162 210 267 317 375
#     4  10  21  36  52  83 124 165 202 264 330 366
#     4  10  20  42  63  90 124 165 218 267 313 394
#     4  10  21  34  59  86 119 164 210 265 311 393
#
# _framework density 22.575965
#
# number of rings (size 3 to 8) (size 9 to 14) (size 15 to 20)
#    0.000    1.750    2.500    1.500    1.750    1.500 
#    0.000    1.250    0.000    0.000    0.000    0.000 
#    0.000    0.000    0.000    0.000    0.000    0.000 
#
# Total GULP energy -178188.026227 kJ/mol
# GULP energy per Si atom -5568.375820 kJ/mol
# Density = 2.252458 g / cm^3
# Si number density = 22.575965 Si / 1000 Ang^3
#
#
#
# Elastic Constant Matrix: (Units=GPa)
#
#
# Indices 1 2 3 4 5 6 
#
# 1 65.8011 10.3994 9.3267 0.0000 1.1093 0.0000
# 2 10.3994 96.1234 -1.5438 0.0000 -1.4582 0.0000
# 3 9.3267 -1.5438 59.8031 0.0000 -2.1901 0.0000
# 4 0.0000 0.0000 0.0000 4.1010 0.0000 -5.3125
# 5 1.1093 -1.4582 -2.1901 0.0000 29.6092 0.0000
# 6 0.0000 0.0000 0.0000 -5.3125 0.0000 25.9819
#
#
#
# Elastic Compliance Matrix: (Units=1/GPa)
#
#
# Indices 1 2 3 4 5 6 
#
# 1 0.015853 -0.001769 -0.002550 0.000000 -0.000870 0.000000
# 2 -0.001769 0.010613 0.000573 0.000000 0.000631 0.000000
# 3 -0.002550 0.000573 0.017185 0.000000 0.001395 0.000000
# 4 0.000000 0.000000 0.000000 0.331706 0.000000 0.067824
# 5 -0.000870 0.000631 0.001395 0.000000 0.033940 0.000000
# 6 0.000000 0.000000 0.000000 0.067824 0.000000 0.052356
#
#
# Mechanical properties :
#
#
# Convention : Reuss Voigt Hill
#
# Bulk Modulus (GPa) = 27.65535 28.67689 28.16612
# Shear Modulus (GPa) = 10.39071 25.50811 17.94941
#
# Velocity S-wave (km/s) = 2.14768 3.36501 2.82275
# Velocity P-wave (km/s) = 4.29262 5.27520 4.80907
#
# Compressibility (1/GPa) = 0.03615937
#
# Stress axis : x y z
#
# Youngs Moduli (GPa) = 63.07948 94.21971 58.18995
#
# Poissons Ratio (x) = 0.16670 0.14838
# Poissons Ratio (y) = 0.11160 -0.03334
# Poissons Ratio (z) = 0.16085 -0.05399
#
# Static dielectric constant tensor:
#      x y z
#    x 1.856280 0.000000 0.023620 
#    y 0.000000 1.954600 0.000000 
#    z 0.023620 0.000000 1.885470 
# 
# From -- ./inp_files/40532.got.cif
#   From: 2010.05.17/outbox.cif.g08.bks.cpg/sg13_21_cif.got.tgz:40532.got - 2010.06.03 16:44:36.
