data_PCOD9231246
_publ_section_title
;
Structure prediction by ZEFSAII (Michael W. Deem and Ramdas Pophale) SiO2 
 PCOD9231246
Probable space group: P 2/C
;
_chemical_formula_sum "Si O2"
_cell_formula_units_Z 24
_cell_length_a 10.345392
_cell_length_b 12.859199
_cell_length_c 9.285473
_cell_angle_alpha 90.000000
_cell_angle_beta 80.766744
_cell_angle_gamma 90.000000
_cell_volume 1219.273415
_symmetry_space_group_name_H-M "P 2/C"
_symmetry_group_IT_number 13
_symmetry_cell_setting 'monoclinic'
loop_
_space_group_symop_operation_xyz
x,y,z
-x,y,1/2-z
-x,-y,-z
x,-y,1/2+z
loop_
_atom_site_type_symbol
_atom_site_label
_atom_site_fract_x
_atom_site_fract_y
_atom_site_fract_z
Si Si1 0.146665 0.073279 0.776496
Si Si2 0.125004 0.425320 0.828197
Si Si3 0.297276 0.042587 0.020688
Si Si4 0.041240 0.658174 0.897892
Si Si5 0.242601 0.720943 0.101783
Si Si6 0.532615 0.837190 0.578254
O O1 0.176086 0.066305 0.939026
O O2 0.194788 0.184387 0.710072
O O3 0.000000 0.057672 0.750000
O O4 0.239919 0.989043 0.684338
O O5 0.116484 0.548565 0.853779
O O6 0.238377 0.379039 0.707880
O O7 0.000000 0.400244 0.750000
O O8 0.088859 0.370930 0.986017
O O9 0.378923 0.942298 0.949954
O O10 0.399621 0.135804 0.017299
O O11 0.000000 0.703173 0.750000
O O12 0.139743 0.717758 0.986396
O O13 0.382895 0.747758 0.011108
O O14 0.500000 0.816499 0.750000
#
# Coordination Sequence:
#
# PCOD9231246 Si02
#       6
#     4   4   4   4   4   4
#     4  11  21  37  57  88 119 147 183 249 298 351
#     4   8  15  31  54  83 117 150 185 233 299 359
#     4  10  21  37  62  80 111 156 198 232 295 350
#     4   9  16  31  56  84 119 151 182 234 300 357
#     4  10  21  34  55  86 118 150 198 246 281 343
#     4  10  20  39  59  81 111 156 211 245 267 340
#
# _framework density 19.683855000000001
#
# number of rings (size 3 to 8) (size 9 to 14) (size 15 to 20)
#    0.000    2.333    1.667    3.000    0.000    0.000 
#    6.000    1.667    0.000    1.000    0.000    0.000 
#    0.000    0.000    0.000    0.000    0.000    0.000 
#
# Total GULP energy -133811.760566 kJ/mol
# GULP energy per Si atom -5575.490024 kJ/mol
# Density = 1.963905 g / cm^3
# Si number density = 19.683855 Si / 1000 Ang^3
#
#
#
# Elastic Constant Matrix: (Units=GPa)
#
#
# Indices 1 2 3 4 5 6 
#
# 1 52.9075 10.8332 -0.0502 0.0000 -3.5138 0.0000
# 2 10.8332 24.9013 15.7349 0.0000 -8.9385 0.0000
# 3 -0.0502 15.7349 80.8085 0.0000 2.6626 0.0000
# 4 0.0000 0.0000 0.0000 -8.6411 0.0000 -4.1343
# 5 -3.5138 -8.9385 2.6626 0.0000 39.3926 0.0000
# 6 0.0000 0.0000 0.0000 -4.1343 0.0000 24.5971
#
#
#
# Elastic Compliance Matrix: (Units=1/GPa)
#
#
# Indices 1 2 3 4 5 6 
#
# 1 0.021060 -0.010763 0.002132 0.000000 -0.000708 0.000000
# 2 -0.010763 0.056620 -0.011449 0.000000 0.012661 0.000000
# 3 0.002132 -0.011449 0.014718 0.000000 -0.003402 0.000000
# 4 0.000000 0.000000 0.000000 -0.107112 0.000000 -0.018003
# 5 -0.000708 0.012661 -0.003402 0.000000 0.028425 0.000000
# 6 0.000000 0.000000 0.000000 -0.018003 0.000000 0.037629
#
#
# Mechanical properties :
#
#
# Convention : Reuss Voigt Hill
#
# Bulk Modulus (GPa) = 19.14326 23.51702 21.33014
# Shear Modulus (GPa) = 45.90830 19.87636 32.89233
#
# Velocity S-wave (km/s) = 4.83461 3.18115 4.09226
# Velocity P-wave (km/s) = 6.39618 5.04641 5.76096
#
# Compressibility (1/GPa) = 0.05223771
#
# Stress axis : x y z
#
# Youngs Moduli (GPa) = 47.48381 17.66149 67.94547
#
# Poissons Ratio (x) = 0.19010 -0.14488
# Poissons Ratio (y) = 0.51109 0.77790
# Poissons Ratio (z) = -0.10125 0.20221
#
# Static dielectric constant tensor:
#      x y z
#    x 1.696420 0.000000 -0.018440 
#    y 0.000000 1.731330 0.000000 
#    z -0.018440 0.000000 1.705710 
# 
# From -- ./inp_files/12504.got.cif
#   From: 2010.05.17/outbox.cif.g08.bks.cpg/sg13_7_cif.got.tgz:12504.got - 2010.06.03 16:44:36.
