data_PCOD9231002
_publ_section_title
;
Structure prediction by ZEFSAII (Michael W. Deem and Ramdas Pophale) SiO2 
 PCOD9231002
Probable space group: P 2/C
;
_chemical_formula_sum "Si O2"
_cell_formula_units_Z 22
_cell_length_a 10.546334
_cell_length_b 11.871846
_cell_length_c 11.633769
_cell_angle_alpha 90.000000
_cell_angle_beta 141.376068
_cell_angle_gamma 90.000000
_cell_volume 909.218230
_symmetry_space_group_name_H-M "P 2/C"
_symmetry_group_IT_number 13
_symmetry_cell_setting 'monoclinic'
loop_
_space_group_symop_operation_xyz
x,y,z
-x,y,1/2-z
-x,-y,-z
x,-y,1/2+z
loop_
_atom_site_type_symbol
_atom_site_label
_atom_site_fract_x
_atom_site_fract_y
_atom_site_fract_z
Si Si1 0.205182 0.725696 0.039217
Si Si2 0.769770 0.318460 0.210390
Si Si3 0.316223 0.769800 0.438999
Si Si4 0.292672 0.441178 0.804125
Si Si5 0.500000 0.892845 0.750000
Si Si6 0.221723 0.057598 0.669924
O O1 0.301394 0.636233 0.196381
O O2 0.277988 0.852143 0.109885
O O3 0.228787 0.681877 0.927264
O O4 0.966001 0.746440 0.892015
O O5 0.824023 0.443282 0.295244
O O6 0.554178 0.265462 0.089516
O O7 0.213629 0.649775 0.340224
O O8 0.319420 0.818642 0.568004
O O9 0.241261 0.865340 0.298008
O O10 0.500000 0.500000 0.000000
O O11 0.397850 0.965251 0.778932
O O12 0.000000 0.000000 0.500000
#
# Coordination Sequence:
#
# PCOD9231002 Si02
#       6
#     4   4   4   4   2   4
#     4  10  21  37  60  88 119 162 205 251 314 374
#     4  10  20  38  62  89 121 157 201 256 312 379
#     4  10  23  40  59  89 119 156 206 251 306 374
#     4   9  20  36  57  85 121 158 200 252 309 378
#     4  12  24  40  64  88 120 162 204 260 310 358
#     4  11  24  42  62  88 124 164 209 259 308 374
#
# _framework density 24.196611999999998
#
# number of rings (size 3 to 8) (size 9 to 14) (size 15 to 20)
#    0.000    1.818    0.000    3.273    0.000   12.364 
#    0.000    7.273    0.000    0.000    0.000    0.000 
#    0.000    0.000    0.000    0.000    0.000    0.000 
#
# Total GULP energy -122694.320109 kJ/mol
# GULP energy per Si atom -5577.014550 kJ/mol
# Density = 2.414154 g / cm^3
# Si number density = 24.196612 Si / 1000 Ang^3
#
#
#
# Elastic Constant Matrix: (Units=GPa)
#
#
# Indices 1 2 3 4 5 6 
#
# 1 58.5102 25.5893 23.9413 0.0000 17.3595 0.0000
# 2 25.5893 158.8039 38.9480 0.0000 -10.0988 0.0000
# 3 23.9413 38.9480 98.3597 0.0000 13.3335 0.0000
# 4 0.0000 0.0000 0.0000 50.6718 0.0000 -4.0934
# 5 17.3595 -10.0988 13.3335 0.0000 31.2709 0.0000
# 6 0.0000 0.0000 0.0000 -4.0934 0.0000 -0.8260
#
#
#
# Elastic Compliance Matrix: (Units=1/GPa)
#
#
# Indices 1 2 3 4 5 6 
#
# 1 0.023895 -0.004144 -0.002330 0.000000 -0.013610 0.000000
# 2 -0.004144 0.008107 -0.003044 0.000000 0.006217 0.000000
# 3 -0.002330 -0.003044 0.012627 0.000000 -0.005073 0.000000
# 4 0.000000 0.000000 0.000000 0.014093 0.000000 -0.069843
# 5 -0.013610 0.006217 -0.005073 0.000000 0.043705 0.000000
# 6 0.000000 0.000000 0.000000 -0.069843 0.000000 -0.864572
#
#
# Mechanical properties :
#
#
# Convention : Reuss Voigt Hill
#
# Bulk Modulus (GPa) = 39.07530 54.73678 46.90604
# Shear Modulus (GPa) = -6.80663 31.36969 12.28153
#
# Velocity S-wave (km/s) = -1.67903 3.60453 2.25538
# Velocity P-wave (km/s) = 3.52495 6.32411 5.11955
#
# Compressibility (1/GPa) = 0.02559161
#
# Stress axis : x y z
#
# Youngs Moduli (GPa) = 41.84989 123.35330 79.19497
#
# Poissons Ratio (x) = 0.51122 0.18454
# Poissons Ratio (y) = 0.17344 0.24107
# Poissons Ratio (z) = 0.09752 0.37549
#
# Static dielectric constant tensor:
#      x y z
#    x 2.033870 0.000000 0.007800 
#    y 0.000000 2.028820 0.000000 
#    z 0.007800 0.000000 1.985330 
# 
# From -- ./inp_files/34036.got.cif
#   From: 2010.05.17/outbox.cif.g08.bks.cpg/sg13_18_cif.got.tgz:34036.got - 2010.06.03 16:44:36.
