data_PCOD9231202
_publ_section_title
;
Structure prediction by ZEFSAII (Michael W. Deem and Ramdas Pophale) SiO2 
 PCOD9231202
Probable space group: P 2/C
;
_chemical_formula_sum "Si O2"
_cell_formula_units_Z 26
_cell_length_a 15.441872
_cell_length_b 15.902468
_cell_length_c 9.094013
_cell_angle_alpha 90.000000
_cell_angle_beta 142.944092
_cell_angle_gamma 90.000000
_cell_volume 1345.689527
_symmetry_space_group_name_H-M "P 2/C"
_symmetry_group_IT_number 13
_symmetry_cell_setting 'monoclinic'
loop_
_space_group_symop_operation_xyz
x,y,z
-x,y,1/2-z
-x,-y,-z
x,-y,1/2+z
loop_
_atom_site_type_symbol
_atom_site_label
_atom_site_fract_x
_atom_site_fract_y
_atom_site_fract_z
Si Si1 0.609676 0.510790 0.783809
Si Si2 0.043525 0.280609 0.139805
Si Si3 0.351039 0.243965 0.966247
Si Si4 0.878654 0.114207 0.838445
Si Si5 0.130683 0.366596 0.814880
Si Si6 0.642133 0.314415 0.857961
Si Si7 0.000000 0.991840 0.250000
O O1 0.500000 0.554099 0.750000
O O2 0.500000 0.500000 0.500000
O O3 0.645429 0.415472 0.875593
O O4 0.761948 0.559291 0.986511
O O5 0.214255 0.284088 0.366971
O O6 0.000000 0.275551 0.250000
O O7 0.986315 0.194677 0.989493
O O8 0.962115 0.362517 0.962647
O O9 0.276494 0.154025 0.844881
O O10 0.245410 0.294131 0.933829
O O11 0.358132 0.288104 0.814803
O O12 0.500000 0.238225 0.250000
O O13 0.897745 0.066486 0.710761
O O14 0.918799 0.051280 0.024156
O O15 0.000000 0.351327 0.750000
O O16 0.500000 0.284553 0.750000
#
# Coordination Sequence:
#
# PCOD9231202 Si02
#       7
#     4   4   4   4   4   4   2
#     4  11  25  43  60  86 127 172 219 270 336 383
#     4  11  22  42  64  91 132 157 222 268 317 379
#     4  11  23  43  65  92 132 166 215 265 318 383
#     4  10  21  39  65  99 125 170 204 253 320 377
#     4  11  25  40  65  94 124 168 224 270 321 383
#     4  11  24  40  63  86 123 175 214 271 327 377
#     4  10  20  38  68  96 134 158 206 254 312 390
#
# _framework density 19.32095
#
# number of rings (size 3 to 8) (size 9 to 14) (size 15 to 20)
#    0.000    1.231    3.846    2.308   10.769    1.231 
#    0.000    0.769    0.000    3.692    0.000    0.000 
#    0.000    0.000    0.000    0.000    0.000    0.000 
#
# Total GULP energy -144873.255091 kJ/mol
# GULP energy per Si atom -5572.048273 kJ/mol
# Density = 1.927697 g / cm^3
# Si number density = 19.320950 Si / 1000 Ang^3
#
#
#
# Elastic Constant Matrix: (Units=GPa)
#
#
# Indices 1 2 3 4 5 6 
#
# 1 121.7539 42.7298 52.2479 0.0000 22.1158 0.0000
# 2 42.7298 69.8009 44.5169 0.0000 2.9787 0.0000
# 3 52.2479 44.5169 147.0879 0.0000 32.6165 0.0000
# 4 0.0000 0.0000 0.0000 -44.9759 0.0000 85.8868
# 5 22.1158 2.9787 32.6165 0.0000 35.4660 0.0000
# 6 0.0000 0.0000 0.0000 85.8868 0.0000 -91.9994
#
#
#
# Elastic Compliance Matrix: (Units=1/GPa)
#
#
# Indices 1 2 3 4 5 6 
#
# 1 0.011997 -0.006474 -0.000960 0.000000 -0.006055 0.000000
# 2 -0.006474 0.021793 -0.006012 0.000000 0.007735 0.000000
# 3 -0.000960 -0.006012 0.010947 0.000000 -0.008964 0.000000
# 4 0.000000 0.000000 0.000000 0.028406 0.000000 0.026518
# 5 -0.006055 0.007735 -0.008964 0.000000 0.039566 0.000000
# 6 0.000000 0.000000 0.000000 0.026518 0.000000 0.013887
#
#
# Mechanical properties :
#
#
# Convention : Reuss Voigt Hill
#
# Bulk Modulus (GPa) = 56.03095 68.62576 62.32835
# Shear Modulus (GPa) = 31.36108 -7.02531 12.16789
#
# Velocity S-wave (km/s) = 4.03322 -1.90893 2.51226
# Velocity P-wave (km/s) = 7.12406 5.54412 6.38316
#
# Compressibility (1/GPa) = 0.01784728
#
# Stress axis : x y z
#
# Youngs Moduli (GPa) = 83.35539 45.88558 91.35237
#
# Poissons Ratio (x) = 0.29705 0.08765
# Poissons Ratio (y) = 0.53962 0.54917
# Poissons Ratio (z) = 0.07998 0.27584
#
# Static dielectric constant tensor:
#      x y z
#    x 1.723120 0.000000 -0.007810 
#    y 0.000000 1.696090 0.000000 
#    z -0.007810 0.000000 1.973290 
# 
# From -- ./inp_files/19932.got.cif
#   From: 2010.05.17/outbox.cif.g08.bks.cpg/sg13_10_cif.got.tgz:19932.got - 2010.06.03 16:44:36.
