data_PCOD9231567
_publ_section_title
;
Structure prediction by ZEFSAII (Michael W. Deem and Ramdas Pophale) SiO2 
 PCOD9231567
Probable space group: P 2/C
;
_chemical_formula_sum "Si O2"
_cell_formula_units_Z 26
_cell_length_a 25.999011
_cell_length_b 11.747104
_cell_length_c 9.224731
_cell_angle_alpha 90.000000
_cell_angle_beta 29.551482
_cell_angle_gamma 90.000000
_cell_volume 1389.533998
_symmetry_space_group_name_H-M "P 2/C"
_symmetry_group_IT_number 13
_symmetry_cell_setting 'monoclinic'
loop_
_space_group_symop_operation_xyz
x,y,z
-x,y,1/2-z
-x,-y,-z
x,-y,1/2+z
loop_
_atom_site_type_symbol
_atom_site_label
_atom_site_fract_x
_atom_site_fract_y
_atom_site_fract_z
Si Si1 0.578767 0.132985 0.820702
Si Si2 0.672739 0.048478 0.287496
Si Si3 0.719420 0.695539 0.158539
Si Si4 0.870041 0.884889 0.806973
Si Si5 0.645302 0.248173 0.164217
Si Si6 0.416310 0.486250 0.077447
Si Si7 0.000000 0.018968 0.250000
O O1 0.624865 0.098661 0.551656
O O2 0.650890 0.226485 0.720116
O O3 0.588646 0.025050 0.903015
O O4 0.466100 0.188853 0.088831
O O5 0.708970 0.151969 0.094960
O O6 0.766915 0.962205 0.087389
O O7 0.688062 0.713512 0.403885
O O8 0.682443 0.570267 0.199642
O O9 0.833112 0.754899 0.871844
O O10 0.940840 0.905143 0.774839
O O11 0.924575 0.938311 0.531182
O O12 0.626436 0.358303 0.309382
O O13 0.500000 0.510834 0.750000
O O14 0.500000 0.500000 0.000000
#
# Coordination Sequence:
#
# PCOD9231567 Si02
#       7
#     4   4   4   4   4   4   2
#     4  11  21  35  50  77 121 162 196 229 275 327
#     4  11  22  34  54  84 117 151 195 238 280 350
#     4  11  22  38  56  81 116 153 198 249 275 345
#     4  10  21  38  61  88 113 141 184 237 312 362
#     4  12  23  35  54  78 119 168 201 233 273 319
#     4  12  22  39  56  81 120 167 209 235 270 316
#     4  10  20  40  64  86 114 140 176 248 318 390
#
# _framework density 18.711309
#
# number of rings (size 3 to 8) (size 9 to 14) (size 15 to 20)
#    0.000    0.923    3.077    6.923    0.000    2.462 
#    0.000    0.000    0.000    0.000    0.000   18.308 
#    0.000    0.000    0.000    0.000    0.000    0.000 
#
# Total GULP energy -145061.303068 kJ/mol
# GULP energy per Si atom -5579.280887 kJ/mol
# Density = 1.866872 g / cm^3
# Si number density = 18.711309 Si / 1000 Ang^3
#
#
#
# Elastic Constant Matrix: (Units=GPa)
#
#
# Indices 1 2 3 4 5 6 
#
# 1 173.7500 146.8269 118.7223 0.0000 93.6800 0.0000
# 2 146.8269 270.9619 140.8937 0.0000 98.6526 0.0000
# 3 118.7223 140.8937 169.0574 0.0000 99.7339 0.0000
# 4 0.0000 0.0000 0.0000 24.2901 0.0000 0.2164
# 5 93.6800 98.6526 99.7339 0.0000 104.6469 0.0000
# 6 0.0000 0.0000 0.0000 0.2164 0.0000 14.7767
#
#
#
# Elastic Compliance Matrix: (Units=1/GPa)
#
#
# Indices 1 2 3 4 5 6 
#
# 1 0.014824 -0.003986 -0.003373 0.000000 -0.006299 0.000000
# 2 -0.003986 0.007816 -0.003365 0.000000 -0.000593 0.000000
# 3 -0.003373 -0.003365 0.016985 0.000000 -0.009997 0.000000
# 4 0.000000 0.000000 0.000000 0.041174 0.000000 -0.000603
# 5 -0.006299 -0.000593 -0.009997 0.000000 0.025281 0.000000
# 6 0.000000 0.000000 0.000000 -0.000603 0.000000 0.067683
#
#
# Mechanical properties :
#
#
# Convention : Reuss Voigt Hill
#
# Bulk Modulus (GPa) = 55.00910 158.51724 106.76317
# Shear Modulus (GPa) = 24.84218 42.56450 33.70334
#
# Velocity S-wave (km/s) = 3.64765 4.77466 4.24869
# Velocity P-wave (km/s) = 6.87046 10.73768 9.01391
#
# Compressibility (1/GPa) = 0.01817881
#
# Stress axis : x y z
#
# Youngs Moduli (GPa) = 67.45676 127.94247 58.87442
#
# Poissons Ratio (x) = 0.50996 0.19857
# Poissons Ratio (y) = 0.26887 0.19810
# Poissons Ratio (z) = 0.22752 0.43050
#
# Static dielectric constant tensor:
#      x y z
#    x 1.678100 0.000000 -0.011240 
#    y 0.000000 1.687280 0.000000 
#    z -0.011240 0.000000 1.653900 
# 
# From -- ./inp_files/23389.got.cif
#   From: 2010.05.17/outbox.cif.g08.bks.cpg/sg13_12_cif.got.tgz:23389.got - 2010.06.03 16:44:36.
