data_PCOD9231294
_publ_section_title
;
Structure prediction by ZEFSAII (Michael W. Deem and Ramdas Pophale) SiO2 
 PCOD9231294
Probable space group: P 2/C
;
_chemical_formula_sum "Si O2"
_cell_formula_units_Z 28
_cell_length_a 18.282720
_cell_length_b 6.543994
_cell_length_c 17.265836
_cell_angle_alpha 90.000000
_cell_angle_beta 45.085085
_cell_angle_gamma 90.000000
_cell_volume 1462.851666
_symmetry_space_group_name_H-M "P 2/C"
_symmetry_group_IT_number 13
_symmetry_cell_setting 'monoclinic'
loop_
_space_group_symop_operation_xyz
x,y,z
-x,y,1/2-z
-x,-y,-z
x,-y,1/2+z
loop_
_atom_site_type_symbol
_atom_site_label
_atom_site_fract_x
_atom_site_fract_y
_atom_site_fract_z
Si Si1 0.836104 0.402629 0.189904
Si Si2 0.217793 0.508333 0.001887
Si Si3 0.457546 0.799755 0.072937
Si Si4 0.269282 0.257245 0.823980
Si Si5 0.017824 0.782736 0.648317
Si Si6 0.654899 0.547584 0.938125
Si Si7 0.136043 0.115716 0.478674
O O1 0.812746 0.628108 0.172354
O O2 0.926501 0.359720 0.183565
O O3 0.728233 0.358429 0.315440
O O4 0.868679 0.260593 0.093166
O O5 0.275646 0.494465 0.039503
O O6 0.119845 0.357088 0.072941
O O7 0.286933 0.425067 0.878353
O O8 0.176646 0.734440 0.015143
O O9 0.371567 0.812257 0.203420
O O10 0.400072 0.655057 0.053497
O O11 0.559976 0.692800 0.028670
O O12 0.500000 0.000000 0.000000
O O13 0.219026 0.056715 0.896733
O O14 0.000000 0.847441 0.750000
O O15 0.037841 0.983493 0.580485
#
# Coordination Sequence:
#
# PCOD9231294 Si02
#       7
#     4   4   4   4   4   4   4
#     4  10  20  39  62  84 121 161 196 240 293 354
#     4  10  22  40  58  83 124 156 194 245 302 353
#     4  10  21  38  62  88 114 151 204 247 294 357
#     4   9  21  39  59  87 118 156 197 247 295 353
#     4  11  22  38  59  92 122 156 200 243 291 356
#     4  10  21  39  61  86 116 158 196 243 302 355
#     4  10  22  38  60  89 119 158 199 244 295 353
#
# _framework density 19.140695999999998
#
# number of rings (size 3 to 8) (size 9 to 14) (size 15 to 20)
#    0.000    2.000    1.429    1.286    0.000   10.857 
#    5.143    0.000    0.000    0.000    0.000    0.000 
#    0.000    0.000    0.000    0.000    0.000    0.000 
#
# Total GULP energy -156094.574020 kJ/mol
# GULP energy per Si atom -5574.806215 kJ/mol
# Density = 1.909713 g / cm^3
# Si number density = 19.140696 Si / 1000 Ang^3
#
#
#
# Elastic Constant Matrix: (Units=GPa)
#
#
# Indices 1 2 3 4 5 6 
#
# 1 91.5384 15.0130 23.0028 0.0000 -6.2596 0.0000
# 2 15.0130 72.1684 42.0677 0.0000 -10.5103 0.0000
# 3 23.0028 42.0677 110.8717 0.0000 -7.5707 0.0000
# 4 0.0000 0.0000 0.0000 30.9980 0.0000 -3.7627
# 5 -6.2596 -10.5103 -7.5707 0.0000 24.0240 0.0000
# 6 0.0000 0.0000 0.0000 -3.7627 0.0000 9.8379
#
#
#
# Elastic Compliance Matrix: (Units=1/GPa)
#
#
# Indices 1 2 3 4 5 6 
#
# 1 0.011708 -0.001038 -0.001899 0.000000 0.001998 0.000000
# 2 -0.001038 0.018705 -0.006481 0.000000 0.005871 0.000000
# 3 -0.001899 -0.006481 0.011901 0.000000 0.000420 0.000000
# 4 0.000000 0.000000 0.000000 0.033831 0.000000 0.012939
# 5 0.001998 0.005871 0.000420 0.000000 0.044846 0.000000
# 6 0.000000 0.000000 0.000000 0.012939 0.000000 0.106596
#
#
# Mechanical properties :
#
#
# Convention : Reuss Voigt Hill
#
# Bulk Modulus (GPa) = 42.59078 48.30506 45.44792
# Shear Modulus (GPa) = 19.66564 25.93832 22.80198
#
# Velocity S-wave (km/s) = 3.20883 3.68522 3.45524
# Velocity P-wave (km/s) = 6.00237 6.58782 6.30190
#
# Compressibility (1/GPa) = 0.02347926
#
# Stress axis : x y z
#
# Youngs Moduli (GPa) = 85.40867 53.46099 84.02497
#
# Poissons Ratio (x) = 0.05548 0.15956
# Poissons Ratio (y) = 0.08863 0.54458
# Poissons Ratio (z) = 0.16219 0.34649
#
# Static dielectric constant tensor:
#      x y z
#    x 1.644380 0.000000 0.023920 
#    y 0.000000 1.665700 0.000000 
#    z 0.023920 0.000000 1.702440 
# 
# From -- ./inp_files/70252.got.cif
#   From: 2010.05.17/outbox.cif.g08.bks.cpg/sg13_36_cif.got.tgz:70252.got - 2010.06.03 16:44:36.
