data_PCOD9231252
_publ_section_title
;
Structure prediction by ZEFSAII (Michael W. Deem and Ramdas Pophale) SiO2 
 PCOD9231252
Probable space group: P 2/C
;
_chemical_formula_sum "Si O2"
_cell_formula_units_Z 24
_cell_length_a 23.098546
_cell_length_b 11.137946
_cell_length_c 8.863181
_cell_angle_alpha 90.000000
_cell_angle_beta 32.697557
_cell_angle_gamma 90.000000
_cell_volume 1231.792394
_symmetry_space_group_name_H-M "P 2/C"
_symmetry_group_IT_number 13
_symmetry_cell_setting 'monoclinic'
loop_
_space_group_symop_operation_xyz
x,y,z
-x,y,1/2-z
-x,-y,-z
x,-y,1/2+z
loop_
_atom_site_type_symbol
_atom_site_label
_atom_site_fract_x
_atom_site_fract_y
_atom_site_fract_z
Si Si1 0.624138 0.154833 0.995199
Si Si2 0.806948 0.330230 0.678964
Si Si3 0.000000 0.718361 0.250000
Si Si4 0.726526 0.032063 0.482813
Si Si5 0.118134 0.077459 0.626784
Si Si6 0.881352 0.542645 0.711497
Si Si7 0.000000 0.143609 0.250000
O O1 0.695483 0.260748 0.908452
O O2 0.674532 0.117529 0.722345
O O3 0.500000 0.183336 0.250000
O O4 0.641625 0.041384 0.068970
O O5 0.816682 0.430470 0.786701
O O6 0.829563 0.394197 0.468813
O O7 0.901888 0.233494 0.494812
O O8 0.956743 0.806731 0.214764
O O9 0.906431 0.636176 0.522277
O O10 0.807861 0.090570 0.185109
O O11 0.801164 0.940813 0.413793
O O12 0.050871 0.953872 0.754679
O O13 0.000000 0.500000 0.500000
#
# Coordination Sequence:
#
# PCOD9231252 Si02
#       7
#     4   4   2   4   4   4   2
#     4  11  24  43  65  87 122 165 206 257 305 358
#     4  12  24  41  62  87 126 161 212 250 302 355
#     4  11  23  32  56  84 137 157 200 232 304 371
#     4  10  20  39  59  93 123 154 202 239 302 376
#     4  10  23  32  58  97 124 165 185 243 312 378
#     4  12  23  38  57  87 118 167 202 247 295 365
#     4  11  19  36  60  90 135 155 190 238 316 379
#
# _framework density 19.483802000000001
#
# number of rings (size 3 to 8) (size 9 to 14) (size 15 to 20)
#    0.000    1.000    6.667    1.500    4.667    1.333 
#    0.000    0.833    0.000    0.000    0.000    0.000 
#    0.000    0.000    0.000    0.000    0.000    0.000 
#
# Total GULP energy -134153.929382 kJ/mol
# GULP energy per Si atom -5589.747058 kJ/mol
# Density = 1.943946 g / cm^3
# Si number density = 19.483802 Si / 1000 Ang^3
#
#
#
# Elastic Constant Matrix: (Units=GPa)
#
#
# Indices 1 2 3 4 5 6 
#
# 1 94.6303 36.8350 50.1329 0.0000 -10.7226 0.0000
# 2 36.8350 106.4035 40.1130 0.0000 -9.4232 0.0000
# 3 50.1329 40.1130 71.7274 0.0000 -13.5187 0.0000
# 4 0.0000 0.0000 0.0000 17.6654 0.0000 6.9649
# 5 -10.7226 -9.4232 -13.5187 0.0000 47.2324 0.0000
# 6 0.0000 0.0000 0.0000 6.9649 0.0000 44.9920
#
#
#
# Elastic Compliance Matrix: (Units=1/GPa)
#
#
# Indices 1 2 3 4 5 6 
#
# 1 0.017052 -0.001778 -0.010847 0.000000 0.000412 0.000000
# 2 -0.001778 0.012105 -0.005442 0.000000 0.000454 0.000000
# 3 -0.010847 -0.005442 0.025260 0.000000 0.003682 0.000000
# 4 0.000000 0.000000 0.000000 0.060287 0.000000 -0.009333
# 5 0.000412 0.000454 0.003682 0.000000 0.022410 0.000000
# 6 0.000000 0.000000 0.000000 -0.009333 0.000000 0.023671
#
#
# Mechanical properties :
#
#
# Convention : Reuss Voigt Hill
#
# Bulk Modulus (GPa) = 54.68840 58.54701 56.61771
# Shear Modulus (GPa) = 24.62891 31.68997 28.15944
#
# Velocity S-wave (km/s) = 3.55923 4.03734 3.80580
# Velocity P-wave (km/s) = 6.70973 7.20054 6.95946
#
# Compressibility (1/GPa) = 0.01828541
#
# Stress axis : x y z
#
# Youngs Moduli (GPa) = 58.64258 82.60863 39.58811
#
# Poissons Ratio (x) = 0.14685 0.42940
# Poissons Ratio (y) = 0.10424 0.21543
# Poissons Ratio (z) = 0.63608 0.44954
#
# Static dielectric constant tensor:
#      x y z
#    x 1.714430 0.000000 0.060610 
#    y 0.000000 1.695530 0.000000 
#    z 0.060610 0.000000 1.706260 
# 
# From -- ./inp_files/23187.got.cif
#   From: 2010.05.17/outbox.cif.g08.bks.cpg/sg13_12_cif.got.tgz:23187.got - 2010.06.03 16:44:36.
