data_PCOD9231447
_publ_section_title
;
Structure prediction by ZEFSAII (Michael W. Deem and Ramdas Pophale) SiO2 
 PCOD9231447
Probable space group: P 2/C
;
_chemical_formula_sum "Si O2"
_cell_formula_units_Z 30
_cell_length_a 5.023891
_cell_length_b 8.901267
_cell_length_c 26.315672
_cell_angle_alpha 90.000000
_cell_angle_beta 106.754519
_cell_angle_gamma 90.000000
_cell_volume 1126.853192
_symmetry_space_group_name_H-M "P 2/C"
_symmetry_group_IT_number 13
_symmetry_cell_setting 'monoclinic'
loop_
_space_group_symop_operation_xyz
x,y,z
-x,y,1/2-z
-x,-y,-z
x,-y,1/2+z
loop_
_atom_site_type_symbol
_atom_site_label
_atom_site_fract_x
_atom_site_fract_y
_atom_site_fract_z
Si Si1 0.053257 0.882991 0.353631
Si Si2 0.116321 0.619797 0.466577
Si Si3 0.279897 0.595092 0.191664
Si Si4 0.769721 0.090952 0.417574
Si Si5 0.761529 0.167134 0.177478
Si Si6 0.000000 0.603136 0.750000
Si Si7 0.054145 0.622672 0.610013
Si Si8 0.562825 0.192655 0.944998
O O1 0.822433 0.759497 0.329070
O O2 0.344078 0.807694 0.385887
O O3 0.981718 0.985774 0.398592
O O4 0.093468 0.004617 0.311309
O O5 0.151967 0.506437 0.420337
O O6 0.846583 0.724778 0.446317
O O7 0.000000 0.500000 0.500000
O O8 0.395701 0.720390 0.480266
O O9 0.500000 0.598486 0.250000
O O10 0.024544 0.510731 0.205200
O O11 0.312203 0.477188 0.146504
O O12 0.529757 0.128462 0.363629
O O13 0.884640 0.257939 0.432503
O O14 0.650675 0.983365 0.454909
O O15 0.757631 0.274844 0.226069
O O16 0.930334 0.266356 0.145544
#
# Coordination Sequence:
#
# PCOD9231447 Si02
#       8
#     4   4   4   4   4   2   4   4
#     4  10  21  39  63  95 126 184 218 283 331 407
#     4  12  26  45  73 103 137 175 223 282 348 412
#     4  11  22  37  60  93 134 172 232 278 341 392
#     4  10  20  39  69  90 129 178 226 270 344 399
#     4   9  21  37  61  86 131 174 225 275 343 398
#     4  10  22  36  50  90 130 174 222 286 328 400
#     4  10  22  41  64  98 131 175 226 276 347 400
#     4  11  22  45  68  98 138 172 221 277 337 408
#
# _framework density 26.622812
#
# number of rings (size 3 to 8) (size 9 to 14) (size 15 to 20)
#    0.000    1.600    2.667    1.200    1.867    4.800 
#    0.000    2.667    0.000    0.000    0.000    0.000 
#    0.000    0.000    0.000    0.000    0.000    0.000 
#
# Total GULP energy -167378.604286 kJ/mol
# GULP energy per Si atom -5579.286810 kJ/mol
# Density = 2.656222 g / cm^3
# Si number density = 26.622812 Si / 1000 Ang^3
#
#
#
# Elastic Constant Matrix: (Units=GPa)
#
#
# Indices 1 2 3 4 5 6 
#
# 1 99.2446 51.7960 2.3434 0.0000 -2.3215 0.0000
# 2 51.7960 212.6855 35.7081 0.0000 4.1543 0.0000
# 3 2.3434 35.7081 35.4784 0.0000 -8.4781 0.0000
# 4 0.0000 0.0000 0.0000 43.9709 0.0000 12.2141
# 5 -2.3215 4.1543 -8.4781 0.0000 30.0019 0.0000
# 6 0.0000 0.0000 0.0000 12.2141 0.0000 31.1060
#
#
#
# Elastic Compliance Matrix: (Units=1/GPa)
#
#
# Indices 1 2 3 4 5 6 
#
# 1 0.011874 -0.003488 0.003283 0.000000 0.002330 0.000000
# 2 -0.003488 0.006873 -0.007485 0.000000 -0.003337 0.000000
# 3 0.003283 -0.007485 0.038404 0.000000 0.012143 0.000000
# 4 0.000000 0.000000 0.000000 0.025527 0.000000 -0.010023
# 5 0.002330 -0.003337 0.012143 0.000000 0.037405 0.000000
# 6 0.000000 0.000000 0.000000 -0.010023 0.000000 0.036084
#
#
# Mechanical properties :
#
#
# Convention : Reuss Voigt Hill
#
# Bulk Modulus (GPa) = 23.93962 58.56707 41.25335
# Shear Modulus (GPa) = 26.95869 38.18650 32.57260
#
# Velocity S-wave (km/s) = 3.18562 3.79139 3.50163
# Velocity P-wave (km/s) = 4.74790 6.41972 5.64603
#
# Compressibility (1/GPa) = 0.04177176
#
# Stress axis : x y z
#
# Youngs Moduli (GPa) = 84.21989 145.49527 26.03896
#
# Poissons Ratio (x) = 0.50755 -0.08550
# Poissons Ratio (y) = 0.29379 0.19489
# Poissons Ratio (z) = -0.27653 1.08896
#
# Static dielectric constant tensor:
#      x y z
#    x 2.145660 0.000000 -0.079730 
#    y 0.000000 2.105820 0.000000 
#    z -0.079730 0.000000 2.309380 
# 
# From -- ./inp_files/95086.got.cif
#   From: 2010.05.17/outbox.cif.g08.bks.cpg/sg13_48_cif.got.tgz:95086.got - 2010.06.03 16:44:36.
