data_PCOD9231177
_publ_section_title
;
Structure prediction by ZEFSAII (Michael W. Deem and Ramdas Pophale) SiO2 
 PCOD9231177
Probable space group: P 2/C
;
_chemical_formula_sum "Si O2"
_cell_formula_units_Z 18
_cell_length_a 19.799058
_cell_length_b 7.072594
_cell_length_c 14.359424
_cell_angle_alpha 90.000000
_cell_angle_beta 22.299693
_cell_angle_gamma 90.000000
_cell_volume 762.985366
_symmetry_space_group_name_H-M "P 2/C"
_symmetry_group_IT_number 13
_symmetry_cell_setting 'monoclinic'
loop_
_space_group_symop_operation_xyz
x,y,z
-x,y,1/2-z
-x,-y,-z
x,-y,1/2+z
loop_
_atom_site_type_symbol
_atom_site_label
_atom_site_fract_x
_atom_site_fract_y
_atom_site_fract_z
Si Si1 0.176930 0.787664 0.072272
Si Si2 0.537010 0.131219 0.041614
Si Si3 0.134409 0.217525 0.153698
Si Si4 0.500000 0.826778 0.250000
Si Si5 0.895383 0.697080 0.122072
O O1 0.150091 0.752415 0.214816
O O2 0.000000 0.712349 0.250000
O O3 0.177423 0.013651 0.056346
O O4 0.367973 0.739728 0.786138
O O5 0.567486 0.973604 0.084326
O O6 0.705636 0.268795 0.814394
O O7 0.500000 0.000000 0.000000
O O8 0.000000 0.309336 0.250000
O O9 0.029706 0.189571 0.383993
O O10 0.331120 0.293246 0.928569
O O11 0.000000 0.500000 0.000000
#
# Coordination Sequence:
#
# PCOD9231177 Si02
#       5
#     4   4   4   2   4
#     4  10  21  40  67  97 126 177 238 299 341 416
#     4  11  21  40  70  99 131 176 246 295 346 417
#     4  10  21  40  66  95 124 173 246 288 339 417
#     4  10  20  38  66  98 124 170 242 302 330 400
#     4  12  24  40  62  98 145 182 218 292 377 435
#
# _framework density 23.591539000000001
#
# number of rings (size 3 to 8) (size 9 to 14) (size 15 to 20)
#    0.000    1.333    4.444    4.667    3.111    0.889 
#    4.000    1.111    0.000    0.000    0.000    0.000 
#    0.000    0.000    0.000    0.000    0.000    0.000 
#
# Total GULP energy -100362.368762 kJ/mol
# GULP energy per Si atom -5575.687153 kJ/mol
# Density = 2.353784 g / cm^3
# Si number density = 23.591539 Si / 1000 Ang^3
#
#
#
# Elastic Constant Matrix: (Units=GPa)
#
#
# Indices 1 2 3 4 5 6 
#
# 1 140.6343 21.7601 67.1401 0.0000 -21.0413 0.0000
# 2 21.7601 68.8221 33.2625 0.0000 -11.7644 0.0000
# 3 67.1401 33.2625 216.8638 0.0000 -41.1258 0.0000
# 4 0.0000 0.0000 0.0000 14.5574 0.0000 -7.0350
# 5 -21.0413 -11.7644 -41.1258 0.0000 55.7421 0.0000
# 6 0.0000 0.0000 0.0000 -7.0350 0.0000 -5.3206
#
#
#
# Elastic Compliance Matrix: (Units=1/GPa)
#
#
# Indices 1 2 3 4 5 6 
#
# 1 0.008572 -0.001429 -0.002184 0.000000 0.001323 0.000000
# 2 -0.001429 0.016086 -0.001725 0.000000 0.001583 0.000000
# 3 -0.002184 -0.001725 0.006193 0.000000 0.003381 0.000000
# 4 0.000000 0.000000 0.000000 0.041913 0.000000 -0.055417
# 5 0.001323 0.001583 0.003381 0.000000 0.021268 0.000000
# 6 0.000000 0.000000 0.000000 -0.055417 0.000000 -0.114674
#
#
# Mechanical properties :
#
#
# Convention : Reuss Voigt Hill
#
# Bulk Modulus (GPa) = 49.56206 74.51618 62.03912
# Shear Modulus (GPa) = -1542.12833 33.27292 -754.42771
#
# Velocity S-wave (km/s) = -25.59488 3.75957 -17.90200
# Velocity P-wave (km/s) = 29.19605 7.10636 20.02385
#
# Compressibility (1/GPa) = 0.02017672
#
# Stress axis : x y z
#
# Youngs Moduli (GPa) = 116.65522 62.16520 161.47335
#
# Poissons Ratio (x) = 0.08882 0.35264
# Poissons Ratio (y) = 0.16667 0.27850
# Poissons Ratio (z) = 0.25476 0.10722
#
# Static dielectric constant tensor:
#      x y z
#    x 1.659070 0.000000 -0.323750 
#    y 0.000000 1.897640 0.000000 
#    z -0.323750 0.000000 1.836980 
# 
# From -- ./inp_files/57005.got.cif
#   From: 2010.05.17/outbox.cif.g08.bks.cpg/sg13_29_cif.got.tgz:57005.got - 2010.06.03 16:44:36.
