data_PCOD9231439
_publ_section_title
;
Structure prediction by ZEFSAII (Michael W. Deem and Ramdas Pophale) SiO2 
 PCOD9231439
Probable space group: P 2/C
;
_chemical_formula_sum "Si O2"
_cell_formula_units_Z 22
_cell_length_a 11.948520
_cell_length_b 11.597077
_cell_length_c 14.128999
_cell_angle_alpha 90.000000
_cell_angle_beta 148.934021
_cell_angle_gamma 90.000000
_cell_volume 1010.286683
_symmetry_space_group_name_H-M "P 2/C"
_symmetry_group_IT_number 13
_symmetry_cell_setting 'monoclinic'
loop_
_space_group_symop_operation_xyz
x,y,z
-x,y,1/2-z
-x,-y,-z
x,-y,1/2+z
loop_
_atom_site_type_symbol
_atom_site_label
_atom_site_fract_x
_atom_site_fract_y
_atom_site_fract_z
Si Si1 0.399389 0.696501 0.781303
Si Si2 0.206101 0.531954 0.213071
Si Si3 0.453153 0.132886 0.950093
Si Si4 0.292611 0.250661 0.534009
Si Si5 0.904864 0.776776 0.424129
Si Si6 0.000000 0.544673 0.750000
O O1 0.500000 0.683646 0.750000
O O2 0.375947 0.570127 0.814403
O O3 0.154718 0.745640 0.591078
O O4 0.522576 0.785378 0.939962
O O5 0.240334 0.662374 0.207140
O O6 0.120918 0.527288 0.258040
O O7 0.000000 0.500000 0.000000
O O8 0.627894 0.181527 0.999774
O O9 0.212018 0.135568 0.729883
O O10 0.500000 0.000000 0.000000
O O11 0.500000 0.267132 0.750000
O O12 0.127471 0.191799 0.489036
O O13 0.178174 0.369805 0.423651
#
# Coordination Sequence:
#
# PCOD9231439 Si02
#       6
#     4   4   4   4   4   2
#     4  11  24  41  64  96 138 176 218 272 346 404
#     4  10  21  39  65 101 136 170 218 277 338 409
#     4  11  25  44  67  97 127 175 236 277 337 394
#     4  10  20  39  68  94 121 168 228 270 330 395
#     4  10  23  45  65  99 139 168 223 283 332 408
#     4  12  18  40  70  90 136 174 216 268 332 400
#
# _framework density 21.775998999999999
#
# number of rings (size 3 to 8) (size 9 to 14) (size 15 to 20)
#    0.000    1.455    5.455    0.000    0.000    9.455 
#    0.000    3.636    0.000    0.000    0.000    0.000 
#    0.000    0.000    0.000    0.000    0.000    0.000 
#
# Total GULP energy -122849.820965 kJ/mol
# GULP energy per Si atom -5584.082771 kJ/mol
# Density = 2.172644 g / cm^3
# Si number density = 21.775999 Si / 1000 Ang^3
#
#
#
# Elastic Constant Matrix: (Units=GPa)
#
#
# Indices 1 2 3 4 5 6 
#
# 1 184.9153 14.0331 20.0121 0.0000 -3.9577 0.0000
# 2 14.0331 46.6354 3.4472 0.0000 -10.4335 0.0000
# 3 20.0121 3.4472 46.0998 0.0000 2.4102 0.0000
# 4 0.0000 0.0000 0.0000 33.4124 0.0000 -0.6194
# 5 -3.9577 -10.4335 2.4102 0.0000 35.9563 0.0000
# 6 0.0000 0.0000 0.0000 -0.6194 0.0000 2.6683
#
#
#
# Elastic Compliance Matrix: (Units=1/GPa)
#
#
# Indices 1 2 3 4 5 6 
#
# 1 0.005790 -0.001481 -0.002422 0.000000 0.000370 0.000000
# 2 -0.001481 0.023509 -0.001469 0.000000 0.006757 0.000000
# 3 -0.002422 -0.001469 0.022970 0.000000 -0.002232 0.000000
# 4 0.000000 0.000000 0.000000 0.030058 0.000000 0.006977
# 5 0.000370 0.006757 -0.002232 0.000000 0.029963 0.000000
# 6 0.000000 0.000000 0.000000 0.006977 0.000000 0.376389
#
#
# Mechanical properties :
#
#
# Convention : Reuss Voigt Hill
#
# Bulk Modulus (GPa) = 24.08095 39.18170 31.63132
# Shear Modulus (GPa) = 9.74158 30.41794 20.07976
#
# Velocity S-wave (km/s) = 2.11737 3.74151 3.03991
# Velocity P-wave (km/s) = 4.13039 6.05783 5.18447
#
# Compressibility (1/GPa) = 0.04152661
#
# Stress axis : x y z
#
# Youngs Moduli (GPa) = 172.70268 42.53746 43.53483
#
# Poissons Ratio (x) = 0.06298 0.10545
# Poissons Ratio (y) = 0.25569 0.06393
# Poissons Ratio (z) = 0.41833 0.06247
#
# Static dielectric constant tensor:
#      x y z
#    x 1.840470 0.000000 -0.011770 
#    y 0.000000 1.754340 0.000000 
#    z -0.011770 0.000000 1.861050 
# 
# From -- ./inp_files/51269.got.cif
#   From: 2010.05.17/outbox.cif.g08.bks.cpg/sg13_26_cif.got.tgz:51269.got - 2010.06.03 16:44:36.
