data_PCOD9231604
_publ_section_title
;
Structure prediction by ZEFSAII (Michael W. Deem and Ramdas Pophale) SiO2 
 PCOD9231604
Probable space group: P 2/C
;
_chemical_formula_sum "Si O2"
_cell_formula_units_Z 26
_cell_length_a 7.766203
_cell_length_b 7.851256
_cell_length_c 17.094556
_cell_angle_alpha 90.000000
_cell_angle_beta 86.619234
_cell_angle_gamma 90.000000
_cell_volume 1040.517125
_symmetry_space_group_name_H-M "P 2/C"
_symmetry_group_IT_number 13
_symmetry_cell_setting 'monoclinic'
loop_
_space_group_symop_operation_xyz
x,y,z
-x,y,1/2-z
-x,-y,-z
x,-y,1/2+z
loop_
_atom_site_type_symbol
_atom_site_label
_atom_site_fract_x
_atom_site_fract_y
_atom_site_fract_z
Si Si1 0.104201 0.545070 0.420332
Si Si2 0.653757 0.836894 0.902687
Si Si3 0.500000 0.805828 0.750000
Si Si4 0.198367 0.220579 0.640271
Si Si5 0.765225 0.920456 0.191834
Si Si6 0.981544 0.779647 0.657755
Si Si7 0.454444 0.276705 0.929483
O O1 0.126941 0.381741 0.364597
O O2 0.298387 0.590932 0.437991
O O3 0.000000 0.500000 0.500000
O O4 0.982997 0.693594 0.383286
O O5 0.543250 0.746279 0.836251
O O6 0.840338 0.750637 0.892195
O O7 0.719868 0.036398 0.891410
O O8 0.552237 0.811845 0.985709
O O9 0.334034 0.922930 0.766187
O O10 0.193153 0.199478 0.735078
O O11 0.358150 0.335446 0.604680
O O12 0.628507 0.842688 0.136130
O O13 0.914255 0.028189 0.144218
O O14 0.000000 0.773386 0.750000
#
# Coordination Sequence:
#
# PCOD9231604 Si02
#       7
#     4   4   2   4   4   4   4
#     4  12  30  48  68 108 159 199 246 292 382 463
#     4  11  23  45  73 111 135 190 251 310 364 434
#     4  10  20  40  66 106 138 158 242 306 360 420
#     4  11  25  48  74 109 146 192 252 309 367 440
#     4  11  23  45  76 107 140 185 251 313 363 428
#     4  12  25  47  69 103 150 195 241 302 372 449
#     4  12  25  46  78 106 147 192 249 311 371 426
#
# _framework density 24.987577000000002
#
# number of rings (size 3 to 8) (size 9 to 14) (size 15 to 20)
#    0.000    0.615    7.692    1.385    4.308    1.846 
#    2.769    0.000    0.000    0.000    0.000    0.000 
#    0.000    0.000    0.000    0.000    0.000    0.000 
#
# Total GULP energy -144975.102579 kJ/mol
# GULP energy per Si atom -5575.965484 kJ/mol
# Density = 2.493070 g / cm^3
# Si number density = 24.987577 Si / 1000 Ang^3
#
#
#
# Elastic Constant Matrix: (Units=GPa)
#
#
# Indices 1 2 3 4 5 6 
#
# 1 85.3177 -6.4815 7.8781 0.0000 -26.6651 0.0000
# 2 -6.4815 81.6539 30.6696 0.0000 1.6491 0.0000
# 3 7.8781 30.6696 90.0217 0.0000 8.2261 0.0000
# 4 0.0000 0.0000 0.0000 27.1540 0.0000 1.0517
# 5 -26.6651 1.6491 8.2261 0.0000 30.9514 0.0000
# 6 0.0000 0.0000 0.0000 1.0517 0.0000 23.9167
#
#
#
# Elastic Compliance Matrix: (Units=1/GPa)
#
#
# Indices 1 2 3 4 5 6 
#
# 1 0.017144 0.002460 -0.003768 0.000000 0.015640 0.000000
# 2 0.002460 0.014406 -0.005377 0.000000 0.002781 0.000000
# 3 -0.003768 -0.005377 0.013878 0.000000 -0.006648 0.000000
# 4 0.000000 0.000000 0.000000 0.036890 0.000000 -0.001622
# 5 0.015640 0.002781 -0.006648 0.000000 0.047401 0.000000
# 6 0.000000 0.000000 0.000000 -0.001622 0.000000 0.041883
#
#
# Mechanical properties :
#
#
# Convention : Reuss Voigt Hill
#
# Bulk Modulus (GPa) = 31.19402 35.68061 33.43732
# Shear Modulus (GPa) = 25.55494 31.39955 28.47725
#
# Velocity S-wave (km/s) = 3.20145 3.54871 3.37954
# Velocity P-wave (km/s) = 5.11631 5.57687 5.35154
#
# Compressibility (1/GPa) = 0.03205743
#
# Stress axis : x y z
#
# Youngs Moduli (GPa) = 58.33021 69.41720 72.05852
#
# Poissons Ratio (x) = -0.17077 0.27149
# Poissons Ratio (y) = -0.14350 0.38748
# Poissons Ratio (z) = 0.21977 0.37328
#
# Static dielectric constant tensor:
#      x y z
#    x 2.394910 0.000000 -0.110090 
#    y 0.000000 2.155710 0.000000 
#    z -0.110090 0.000000 2.086040 
# 
# From -- ./inp_files/63866.got.cif
#   From: 2010.05.17/outbox.cif.g08.bks.cpg/sg13_32_cif.got.tgz:63866.got - 2010.06.03 16:44:36.
