data_PCOD9231239
_publ_section_title
;
Structure prediction by ZEFSAII (Michael W. Deem and Ramdas Pophale) SiO2 
 PCOD9231239
Probable space group: P 2/C
;
_chemical_formula_sum "Si O2"
_cell_formula_units_Z 28
_cell_length_a 20.799144
_cell_length_b 13.991643
_cell_length_c 9.668583
_cell_angle_alpha 90.000000
_cell_angle_beta 34.745235
_cell_angle_gamma 90.000000
_cell_volume 1603.604726
_symmetry_space_group_name_H-M "P 2/C"
_symmetry_group_IT_number 13
_symmetry_cell_setting 'monoclinic'
loop_
_space_group_symop_operation_xyz
x,y,z
-x,y,1/2-z
-x,-y,-z
x,-y,1/2+z
loop_
_atom_site_type_symbol
_atom_site_label
_atom_site_fract_x
_atom_site_fract_y
_atom_site_fract_z
Si Si1 0.098336 0.585283 0.185356
Si Si2 0.694848 0.725891 0.735942
Si Si3 0.276741 0.731097 0.493225
Si Si4 0.481651 0.406824 0.622528
Si Si5 0.638569 0.905697 0.662365
Si Si6 0.944213 0.368202 0.210684
Si Si7 0.633371 0.095420 0.846587
O O1 0.113624 0.470740 0.151116
O O2 0.000000 0.608915 0.250000
O O3 0.045622 0.608906 0.426967
O O4 0.208107 0.647509 0.961407
O O5 0.699064 0.815533 0.626171
O O6 0.703155 0.758307 0.881628
O O7 0.575613 0.673134 0.924735
O O8 0.359996 0.641416 0.320059
O O9 0.149373 0.698148 0.692242
O O10 0.311334 0.814772 0.327910
O O11 0.500000 0.432930 0.750000
O O12 0.500000 0.500000 0.500000
O O13 0.664895 0.913747 0.452719
O O14 0.663792 0.001137 0.704987
O O15 0.502756 0.892489 0.916157
O O16 0.000000 0.327365 0.250000
#
# Coordination Sequence:
#
# PCOD9231239 Si02
#       7
#     4   4   4   4   4   4   4
#     4  10  20  39  57  81 113 154 202 238 279 328
#     4  11  21  36  59  83 116 153 189 235 288 341
#     4  11  21  37  57  84 117 150 190 237 287 343
#     4  10  22  36  52  81 118 153 184 228 290 342
#     4  10  21  37  59  87 114 151 186 235 286 346
#     4  10  22  37  59  83 112 154 201 244 277 328
#     4  10  21  37  59  86 117 146 191 233 285 347
#
# _framework density 17.460661999999999
#
# number of rings (size 3 to 8) (size 9 to 14) (size 15 to 20)
#    0.000    1.714    2.857    1.714    2.000    2.286 
#    0.000    0.000    0.000    1.714    0.000    0.000 
#    0.000    0.000    0.000    0.000    0.000    0.000 
#
# Total GULP energy -156293.907580 kJ/mol
# GULP energy per Si atom -5581.925271 kJ/mol
# Density = 1.742092 g / cm^3
# Si number density = 17.460662 Si / 1000 Ang^3
#
#
#
# Elastic Constant Matrix: (Units=GPa)
#
#
# Indices 1 2 3 4 5 6 
#
# 1 84.5846 34.9200 19.0985 0.0000 17.5079 0.0000
# 2 34.9200 69.7738 17.9083 0.0000 22.9588 0.0000
# 3 19.0985 17.9083 48.6905 0.0000 14.6468 0.0000
# 4 0.0000 0.0000 0.0000 21.1678 0.0000 3.2714
# 5 17.5079 22.9588 14.6468 0.0000 30.2338 0.0000
# 6 0.0000 0.0000 0.0000 3.2714 0.0000 20.6320
#
#
#
# Elastic Compliance Matrix: (Units=1/GPa)
#
#
# Indices 1 2 3 4 5 6 
#
# 1 0.015622 -0.006066 -0.002998 0.000000 -0.002988 0.000000
# 2 -0.006066 0.021874 -0.002020 0.000000 -0.012119 0.000000
# 3 -0.002998 -0.002020 0.025136 0.000000 -0.008907 0.000000
# 4 0.000000 0.000000 0.000000 0.048428 0.000000 -0.007679
# 5 -0.002988 -0.012119 -0.008907 0.000000 0.048324 0.000000
# 6 0.000000 0.000000 0.000000 -0.007679 0.000000 0.049686
#
#
# Mechanical properties :
#
#
# Convention : Reuss Voigt Hill
#
# Bulk Modulus (GPa) = 24.71303 38.54472 31.62888
# Shear Modulus (GPa) = 20.43094 23.14820 21.78957
#
# Velocity S-wave (km/s) = 3.42440 3.64501 3.53643
# Velocity P-wave (km/s) = 5.46074 6.31173 5.90159
#
# Compressibility (1/GPa) = 0.04046448
#
# Stress axis : x y z
#
# Youngs Moduli (GPa) = 64.01209 45.71597 39.78320
#
# Poissons Ratio (x) = 0.27730 0.11926
# Poissons Ratio (y) = 0.38829 0.08038
# Poissons Ratio (z) = 0.19190 0.09236
#
# Static dielectric constant tensor:
#      x y z
#    x 1.591030 0.000000 0.016550 
#    y 0.000000 1.573270 0.000000 
#    z 0.016550 0.000000 1.596310 
# 
# From -- ./inp_files/21945.got.cif
#   From: 2010.05.17/outbox.cif.g08.bks.cpg/sg13_11_cif.got.tgz:21945.got - 2010.06.03 16:44:36.
