data_PCOD9231795
_publ_section_title
;
Structure prediction by ZEFSAII (Michael W. Deem and Ramdas Pophale) SiO2 
 PCOD9231795
Probable space group: P 2/C
;
_chemical_formula_sum "Si O2"
_cell_formula_units_Z 26
_cell_length_a 15.768378
_cell_length_b 7.625861
_cell_length_c 16.124329
_cell_angle_alpha 90.000000
_cell_angle_beta 35.666653
_cell_angle_gamma 90.000000
_cell_volume 1130.517042
_symmetry_space_group_name_H-M "P 2/C"
_symmetry_group_IT_number 13
_symmetry_cell_setting 'monoclinic'
loop_
_space_group_symop_operation_xyz
x,y,z
-x,y,1/2-z
-x,-y,-z
x,-y,1/2+z
loop_
_atom_site_type_symbol
_atom_site_label
_atom_site_fract_x
_atom_site_fract_y
_atom_site_fract_z
Si Si1 0.537819 0.386741 0.637432
Si Si2 0.262963 0.210370 0.779969
Si Si3 0.347400 0.297630 0.533665
Si Si4 0.664217 0.835754 0.824250
Si Si5 0.000000 0.731136 0.750000
Si Si6 0.022344 0.343344 0.417643
Si Si7 0.295660 0.062359 0.018641
O O1 0.500000 0.493035 0.750000
O O2 0.387038 0.342557 0.712847
O O3 0.653223 0.501670 0.494608
O O4 0.612553 0.204251 0.604591
O O5 0.250761 0.260036 0.691903
O O6 0.323026 0.013246 0.738494
O O7 0.111696 0.218693 0.948729
O O8 0.518315 0.267898 0.419258
O O9 0.308886 0.145762 0.497882
O O10 0.649570 0.900813 0.930720
O O11 0.816358 0.733963 0.697156
O O12 0.995712 0.624385 0.666843
O O13 0.135150 0.863413 0.641253
O O14 0.000000 0.500000 0.500000
#
# Coordination Sequence:
#
# PCOD9231795 Si02
#       7
#     4   4   4   4   2   4   4
#     4  12  24  37  63  96 135 173 224 275 341 401
#     4  11  21  41  67  97 126 174 228 277 339 406
#     4  11  22  41  70  99 125 173 231 278 338 413
#     4  10  20  41  68  96 126 174 227 274 341 417
#     4  10  24  44  68  94 142 188 222 280 366 404
#     4  11  24  40  69 100 140 182 232 284 341 416
#     4  10  21  42  65  92 131 175 215 284 341 406
#
# _framework density 22.998328000000001
#
# number of rings (size 3 to 8) (size 9 to 14) (size 15 to 20)
#    0.000    1.231    3.077    3.692    4.308    0.615 
#    2.769    0.769   10.154    0.000    0.000    0.000 
#    0.000    0.000    0.000    0.000    0.000    0.000 
#
# Total GULP energy -145283.471690 kJ/mol
# GULP energy per Si atom -5587.825834 kJ/mol
# Density = 2.294598 g / cm^3
# Si number density = 22.998328 Si / 1000 Ang^3
#
#
#
# Elastic Constant Matrix: (Units=GPa)
#
#
# Indices 1 2 3 4 5 6 
#
# 1 60.8469 27.7107 24.9083 0.0000 -0.9757 0.0000
# 2 27.7107 82.5978 23.4956 0.0000 14.7008 0.0000
# 3 24.9083 23.4956 138.4283 0.0000 -3.0590 0.0000
# 4 0.0000 0.0000 0.0000 26.7054 0.0000 -4.1818
# 5 -0.9757 14.7008 -3.0590 0.0000 33.4011 0.0000
# 6 0.0000 0.0000 0.0000 -4.1818 0.0000 12.5807
#
#
#
# Elastic Compliance Matrix: (Units=1/GPa)
#
#
# Indices 1 2 3 4 5 6 
#
# 1 0.020603 -0.006807 -0.002477 0.000000 0.003371 0.000000
# 2 -0.006807 0.016204 -0.001691 0.000000 -0.007486 0.000000
# 3 -0.002477 -0.001691 0.007988 0.000000 0.001403 0.000000
# 4 0.000000 0.000000 0.000000 0.039502 0.000000 0.013130
# 5 0.003371 -0.007486 0.001403 0.000000 0.033461 0.000000
# 6 0.000000 0.000000 0.000000 0.013130 0.000000 0.083852
#
#
# Mechanical properties :
#
#
# Convention : Reuss Voigt Hill
#
# Bulk Modulus (GPa) = 43.77594 48.23357 46.00476
# Shear Modulus (GPa) = 21.62870 28.25466 24.94168
#
# Velocity S-wave (km/s) = 3.07000 3.50887 3.29675
# Velocity P-wave (km/s) = 5.62514 6.11837 5.87693
#
# Compressibility (1/GPa) = 0.02284360
#
# Stress axis : x y z
#
# Youngs Moduli (GPa) = 48.53643 61.71343 125.19228
#
# Poissons Ratio (x) = 0.42011 0.31014
# Poissons Ratio (y) = 0.33041 0.21168
# Poissons Ratio (z) = 0.12024 0.10435
#
# Static dielectric constant tensor:
#      x y z
#    x 1.916100 0.000000 0.078280 
#    y 0.000000 1.939250 0.000000 
#    z 0.078280 0.000000 1.968440 
# 
# From -- ./inp_files/53285.got.cif
#   From: 2010.05.17/outbox.cif.g08.bks.cpg/sg13_27_cif.got.tgz:53285.got - 2010.06.03 16:44:36.
