data_PCOD9231144
_publ_section_title
;
Structure prediction by ZEFSAII (Michael W. Deem and Ramdas Pophale) SiO2 
 PCOD9231144
Probable space group: P 2/C
;
_chemical_formula_sum "Si O2"
_cell_formula_units_Z 28
_cell_length_a 9.078611
_cell_length_b 9.469601
_cell_length_c 27.700542
_cell_angle_alpha 90.000000
_cell_angle_beta 142.972520
_cell_angle_gamma 90.000000
_cell_volume 1434.097434
_symmetry_space_group_name_H-M "P 2/C"
_symmetry_group_IT_number 13
_symmetry_cell_setting 'monoclinic'
loop_
_space_group_symop_operation_xyz
x,y,z
-x,y,1/2-z
-x,-y,-z
x,-y,1/2+z
loop_
_atom_site_type_symbol
_atom_site_label
_atom_site_fract_x
_atom_site_fract_y
_atom_site_fract_z
Si Si1 0.736300 0.486422 0.785965
Si Si2 0.229111 0.827503 0.159834
Si Si3 0.722434 0.418473 0.674485
Si Si4 0.289458 0.202589 0.560146
Si Si5 0.691208 0.946750 0.008561
Si Si6 0.495807 0.647438 0.548086
Si Si7 0.169749 0.396927 0.451059
O O1 0.500000 0.541638 0.750000
O O2 0.787869 0.326918 0.819065
O O3 0.671769 0.478838 0.713658
O O4 0.951993 0.588769 0.857041
O O5 0.500000 0.882168 0.250000
O O6 0.244419 0.813217 0.105324
O O7 0.969125 0.909838 0.100468
O O8 0.543844 0.287606 0.619732
O O9 0.678554 0.546975 0.626014
O O10 0.000000 0.369728 0.750000
O O11 0.111856 0.306356 0.483053
O O12 0.288787 0.059781 0.529255
O O13 0.572735 0.804330 0.955623
O O14 0.500000 0.000000 0.000000
O O15 0.250817 0.554167 0.486421
O O16 0.601474 0.657663 0.521230
#
# Coordination Sequence:
#
# PCOD9231144 Si02
#       7
#     4   4   4   4   4   4   4
#     4  11  21  39  66  96 128 168 220 272 337 390
#     4  11  24  45  66  96 135 174 222 278 329 401
#     4  11  22  38  68  97 130 172 225 281 337 389
#     4  11  24  41  67  98 130 177 221 267 339 399
#     4  12  25  43  69  98 131 180 229 267 327 406
#     4  10  21  38  63  96 133 161 216 281 322 385
#     4  10  20  38  65  97 126 164 214 276 329 384
#
# _framework density 19.524474000000001
#
# number of rings (size 3 to 8) (size 9 to 14) (size 15 to 20)
#    0.000    1.143    7.143    0.429    2.000    1.714 
#    0.000    4.286    0.000    0.000    0.000    0.000 
#    0.000    0.000    0.000    0.000    0.000    0.000 
#
# Total GULP energy -155950.802442 kJ/mol
# GULP energy per Si atom -5569.671516 kJ/mol
# Density = 1.948004 g / cm^3
# Si number density = 19.524474 Si / 1000 Ang^3
#
#
#
# Elastic Constant Matrix: (Units=GPa)
#
#
# Indices 1 2 3 4 5 6 
#
# 1 93.3683 15.1418 33.7350 0.0000 -12.1008 0.0000
# 2 15.1418 74.3775 29.9319 0.0000 2.6477 0.0000
# 3 33.7350 29.9319 102.9887 0.0000 -0.4491 0.0000
# 4 0.0000 0.0000 0.0000 25.4880 0.0000 -4.1831
# 5 -12.1008 2.6477 -0.4491 0.0000 41.3079 0.0000
# 6 0.0000 0.0000 0.0000 -4.1831 0.0000 17.3201
#
#
#
# Elastic Compliance Matrix: (Units=1/GPa)
#
#
# Indices 1 2 3 4 5 6 
#
# 1 0.012774 -0.001198 -0.003820 0.000000 0.003777 0.000000
# 2 -0.001198 0.015382 -0.004084 0.000000 -0.001381 0.000000
# 3 -0.003820 -0.004084 0.012145 0.000000 -0.000725 0.000000
# 4 0.000000 0.000000 0.000000 0.040854 0.000000 0.009867
# 5 0.003777 -0.001381 -0.000725 0.000000 0.025396 0.000000
# 6 0.000000 0.000000 0.000000 0.009867 0.000000 0.060120
#
#
# Mechanical properties :
#
#
# Convention : Reuss Voigt Hill
#
# Bulk Modulus (GPa) = 45.25440 47.59462 46.42451
# Shear Modulus (GPa) = 26.00942 29.61823 27.81382
#
# Velocity S-wave (km/s) = 3.65381 3.89907 3.77843
# Velocity P-wave (km/s) = 6.40540 6.68582 6.54711
#
# Compressibility (1/GPa) = 0.02209730
#
# Stress axis : x y z
#
# Youngs Moduli (GPa) = 78.28288 65.01316 82.33995
#
# Poissons Ratio (x) = 0.07788 0.31451
# Poissons Ratio (y) = 0.09377 0.33628
# Poissons Ratio (z) = 0.29902 0.26551
#
# Static dielectric constant tensor:
#      x y z
#    x 1.709640 0.000000 0.042220 
#    y 0.000000 1.696260 0.000000 
#    z 0.042220 0.000000 1.712690 
# 
# From -- ./inp_files/69699.got.cif
#   From: 2010.05.17/outbox.cif.g08.bks.cpg/sg13_35_cif.got.tgz:69699.got - 2010.06.03 16:44:36.
