data_PCOD9231905
_publ_section_title
;
Structure prediction by ZEFSAII (Michael W. Deem and Ramdas Pophale) SiO2 
 PCOD9231905
Probable space group: P 2/C
;
_chemical_formula_sum "Si O2"
_cell_formula_units_Z 28
_cell_length_a 9.153581
_cell_length_b 10.929919
_cell_length_c 14.872504
_cell_angle_alpha 90.000000
_cell_angle_beta 112.944844
_cell_angle_gamma 90.000000
_cell_volume 1370.236003
_symmetry_space_group_name_H-M "P 2/C"
_symmetry_group_IT_number 13
_symmetry_cell_setting 'monoclinic'
loop_
_space_group_symop_operation_xyz
x,y,z
-x,y,1/2-z
-x,-y,-z
x,-y,1/2+z
loop_
_atom_site_type_symbol
_atom_site_label
_atom_site_fract_x
_atom_site_fract_y
_atom_site_fract_z
Si Si1 0.350586 0.320340 0.598318
Si Si2 0.296590 0.647231 0.290469
Si Si3 0.429492 0.965471 0.133357
Si Si4 0.761415 0.917736 0.165500
Si Si5 0.000000 0.894103 0.750000
Si Si6 0.123983 0.107615 0.006362
Si Si7 0.045303 0.702380 0.913198
Si Si8 0.000000 0.486398 0.250000
O O1 0.529950 0.365603 0.622277
O O2 0.311083 0.373921 0.687118
O O3 0.360569 0.171965 0.607217
O O4 0.209561 0.343822 0.495211
O O5 0.254015 0.789925 0.288448
O O6 0.156979 0.567603 0.298322
O O7 0.500000 0.977330 0.250000
O O8 0.585599 0.969938 0.108351
O O9 0.295144 0.064622 0.083603
O O10 0.858570 0.017084 0.245025
O O11 0.852567 0.890281 0.095055
O O12 0.066869 0.812435 0.846500
O O13 0.061667 0.234133 0.035081
O O14 0.000000 0.000000 0.000000
O O15 0.975156 0.596783 0.832834
#
# Coordination Sequence:
#
# PCOD9231905 Si02
#       8
#     4   4   4   4   2   4   4   2
#     4  10  20  42  68  94 123 165 215 276 331 382
#     4  10  23  42  69  91 122 166 229 279 319 384
#     4  11  20  37  62  98 135 165 207 268 324 393
#     4  11  22  36  66  96 128 171 220 263 323 390
#     4  11  21  38  60  94 135 175 198 264 328 395
#     4  12  23  37  62  96 134 175 212 256 330 404
#     4  11  25  40  63  93 137 170 212 268 333 391
#     4  11  27  46  64  92 127 173 230 280 330 379
#
# _framework density 20.434436000000002
#
# number of rings (size 3 to 8) (size 9 to 14) (size 15 to 20)
#    0.000    1.143    5.714    1.714    4.000    2.286 
#    0.000    0.000   18.857    0.000    0.000    0.000 
#    0.000    0.000    0.000    0.000    0.000    0.000 
#
# Total GULP energy -156360.345035 kJ/mol
# GULP energy per Si atom -5584.298037 kJ/mol
# Density = 2.038793 g / cm^3
# Si number density = 20.434436 Si / 1000 Ang^3
#
#
#
# Elastic Constant Matrix: (Units=GPa)
#
#
# Indices 1 2 3 4 5 6 
#
# 1 119.9133 42.3185 29.6121 0.0000 2.4717 0.0000
# 2 42.3185 55.5076 10.1406 0.0000 17.6807 0.0000
# 3 29.6121 10.1406 87.2358 0.0000 16.0154 0.0000
# 4 0.0000 0.0000 0.0000 -65.4512 0.0000 -81.3197
# 5 2.4717 17.6807 16.0154 0.0000 32.5800 0.0000
# 6 0.0000 0.0000 0.0000 -81.3197 0.0000 -57.7221
#
#
#
# Elastic Compliance Matrix: (Units=1/GPa)
#
#
# Indices 1 2 3 4 5 6 
#
# 1 0.013533 -0.011932 -0.004624 0.000000 0.007722 0.000000
# 2 -0.011932 0.032314 0.003679 0.000000 -0.018440 0.000000
# 3 -0.004624 0.003679 0.014188 0.000000 -0.008620 0.000000
# 4 0.000000 0.000000 0.000000 0.020361 0.000000 -0.028685
# 5 0.007722 -0.018440 -0.008620 0.000000 0.044352 0.000000
# 6 0.000000 0.000000 0.000000 -0.028685 0.000000 0.023088
#
#
# Mechanical properties :
#
#
# Convention : Reuss Voigt Hill
#
# Bulk Modulus (GPa) = 29.17129 47.42213 38.29671
# Shear Modulus (GPa) = 27.02438 -6.07964 10.47237
#
# Velocity S-wave (km/s) = 3.64055 -1.72675 2.26627
# Velocity P-wave (km/s) = 5.65491 4.39111 5.06260
#
# Compressibility (1/GPa) = 0.03428028
#
# Stress axis : x y z
#
# Youngs Moduli (GPa) = 73.89200 30.94620 70.48300
#
# Poissons Ratio (x) = 0.36927 0.32595
# Poissons Ratio (y) = 0.88172 -0.25934
# Poissons Ratio (z) = 0.34171 -0.11387
#
# Static dielectric constant tensor:
#      x y z
#    x 1.765970 0.000000 -0.014380 
#    y 0.000000 1.698180 0.000000 
#    z -0.014380 0.000000 1.746280 
# 
# From -- ./inp_files/47015.got.cif
#   From: 2010.05.17/outbox.cif.g08.bks.cpg/sg13_24_cif.got.tgz:47015.got - 2010.06.03 16:44:36.
