data_PCOD9231899
_publ_section_title
;
Structure prediction by ZEFSAII (Michael W. Deem and Ramdas Pophale) SiO2 
 PCOD9231899
Probable space group: P 2/C
;
_chemical_formula_sum "Si O2"
_cell_formula_units_Z 30
_cell_length_a 17.228018
_cell_length_b 9.307102
_cell_length_c 27.481726
_cell_angle_alpha 90.000000
_cell_angle_beta 20.167657
_cell_angle_gamma 90.000000
_cell_volume 1519.221907
_symmetry_space_group_name_H-M "P 2/C"
_symmetry_group_IT_number 13
_symmetry_cell_setting 'monoclinic'
loop_
_space_group_symop_operation_xyz
x,y,z
-x,y,1/2-z
-x,-y,-z
x,-y,1/2+z
loop_
_atom_site_type_symbol
_atom_site_label
_atom_site_fract_x
_atom_site_fract_y
_atom_site_fract_z
Si Si1 0.726056 0.043475 0.556059
Si Si2 0.204776 0.933994 0.729950
Si Si3 0.623859 0.720467 0.627479
Si Si4 0.271883 0.323705 0.260834
Si Si5 0.000000 0.153040 0.250000
Si Si6 0.141245 0.651422 0.336830
Si Si7 0.080616 0.160588 0.966908
Si Si8 0.540393 0.827673 0.065591
O O1 0.741175 0.140175 0.594883
O O2 0.614431 0.120105 0.575759
O O3 0.990082 0.012686 0.387905
O O4 0.606882 0.893235 0.635633
O O5 0.258859 0.775141 0.720205
O O6 0.105754 0.931079 0.733804
O O7 0.421168 0.034876 0.610000
O O8 0.500000 0.669476 0.750000
O O9 0.515365 0.662326 0.641853
O O10 0.885286 0.683658 0.473767
O O11 0.167942 0.480802 0.320130
O O12 0.133034 0.237376 0.383448
O O13 0.772817 0.226429 0.404479
O O14 0.164960 0.738660 0.373852
O O15 0.340682 0.713544 0.186244
O O16 0.000000 0.000000 0.000000
#
# Coordination Sequence:
#
# PCOD9231899 Si02
#       8
#     4   4   4   4   2   4   4   4
#     4  10  21  35  61  92 123 170 210 256 316 377
#     4  10  20  42  68  91 125 161 214 276 331 382
#     4  12  22  36  62  88 131 176 216 253 307 370
#     4  11  24  40  62  92 136 176 212 260 313 389
#     4  10  24  40  70 100 122 150 222 284 338 374
#     4  12  25  40  61  94 135 175 217 259 314 387
#     4  11  20  38  60  91 129 174 216 260 302 362
#     4  11  22  41  65  93 125 163 213 272 327 384
#
# _framework density 19.746950999999999
#
# number of rings (size 3 to 8) (size 9 to 14) (size 15 to 20)
#    0.000    1.067    5.333    1.600    1.867    3.200 
#    0.000    0.667    0.000    1.600    0.000    0.000 
#    0.000    0.000    0.000    0.000    0.000    0.000 
#
# Total GULP energy -167369.796092 kJ/mol
# GULP energy per Si atom -5578.993203 kJ/mol
# Density = 1.970201 g / cm^3
# Si number density = 19.746951 Si / 1000 Ang^3
#
#
#
# Elastic Constant Matrix: (Units=GPa)
#
#
# Indices 1 2 3 4 5 6 
#
# 1 109.1796 21.1849 27.7288 0.0000 -12.5603 0.0000
# 2 21.1849 104.3052 27.5112 0.0000 4.7771 0.0000
# 3 27.7288 27.5112 140.4346 0.0000 -10.9461 0.0000
# 4 0.0000 0.0000 0.0000 11.6505 0.0000 -3.9034
# 5 -12.5603 4.7771 -10.9461 0.0000 25.5280 0.0000
# 6 0.0000 0.0000 0.0000 -3.9034 0.0000 8.3134
#
#
#
# Elastic Compliance Matrix: (Units=1/GPa)
#
#
# Indices 1 2 3 4 5 6 
#
# 1 0.010446 -0.002011 -0.001282 0.000000 0.004967 0.000000
# 2 -0.002011 0.010699 -0.001999 0.000000 -0.003849 0.000000
# 3 -0.001282 -0.001999 0.008013 0.000000 0.003179 0.000000
# 4 0.000000 0.000000 0.000000 0.101856 0.000000 0.047824
# 5 0.004967 -0.003849 0.003179 0.000000 0.043700 0.000000
# 6 0.000000 0.000000 0.000000 0.047824 0.000000 0.142743
#
#
# Mechanical properties :
#
#
# Convention : Reuss Voigt Hill
#
# Bulk Modulus (GPa) = 53.83396 56.30769 55.07082
# Shear Modulus (GPa) = 14.95963 27.59802 21.27883
#
# Velocity S-wave (km/s) = 2.75538 3.74248 3.28621
# Velocity P-wave (km/s) = 6.11914 6.87397 6.50751
#
# Compressibility (1/GPa) = 0.01857563
#
# Stress axis : x y z
#
# Youngs Moduli (GPa) = 95.72757 93.46482 124.79424
#
# Poissons Ratio (x) = 0.18797 0.15993
# Poissons Ratio (y) = 0.19252 0.24945
# Poissons Ratio (z) = 0.12268 0.18682
#
# Static dielectric constant tensor:
#      x y z
#    x 1.741020 0.000000 -0.019030 
#    y 0.000000 1.699310 0.000000 
#    z -0.019030 0.000000 1.811030 
# 
# From -- ./inp_files/97339.got.cif
#   From: 2010.05.17/outbox.cif.g08.bks.cpg/sg13_49_cif.got.tgz:97339.got - 2010.06.03 16:44:36.
