data_PCOD9231920
_publ_section_title
;
Structure prediction by ZEFSAII (Michael W. Deem and Ramdas Pophale) SiO2 
 PCOD9231920
Probable space group: P 2/C
;
_chemical_formula_sum "Si O2"
_cell_formula_units_Z 28
_cell_length_a 9.009543
_cell_length_b 14.265336
_cell_length_c 11.571421
_cell_angle_alpha 90.000000
_cell_angle_beta 58.167073
_cell_angle_gamma 90.000000
_cell_volume 1263.515898
_symmetry_space_group_name_H-M "P 2/C"
_symmetry_group_IT_number 13
_symmetry_cell_setting 'monoclinic'
loop_
_space_group_symop_operation_xyz
x,y,z
-x,y,1/2-z
-x,-y,-z
x,-y,1/2+z
loop_
_atom_site_type_symbol
_atom_site_label
_atom_site_fract_x
_atom_site_fract_y
_atom_site_fract_z
Si Si1 0.188894 0.822089 0.731124
Si Si2 0.705127 0.453923 0.189141
Si Si3 0.273204 0.355797 0.079586
Si Si4 0.395978 0.647794 0.186547
Si Si5 0.399589 0.989562 0.167317
Si Si6 0.832773 0.803562 0.245934
Si Si7 0.031741 0.316344 0.470367
O O1 0.298921 0.754043 0.601417
O O2 0.156717 0.760983 0.858892
O O3 0.000000 0.834560 0.750000
O O4 0.275152 0.920210 0.718869
O O5 0.500000 0.432974 0.250000
O O6 0.755988 0.409955 0.290954
O O7 0.714092 0.564987 0.209279
O O8 0.840123 0.402556 0.046678
O O9 0.105178 0.355991 0.067424
O O10 0.447337 0.395689 0.951138
O O11 0.500000 0.698385 0.250000
O O12 0.287664 0.719986 0.155001
O O13 0.500000 0.992745 0.250000
O O14 0.288366 0.893561 0.218720
O O15 0.500000 0.000000 0.000000
O O16 0.000000 0.831861 0.250000
O O17 0.914821 0.745955 0.104543
#
# Coordination Sequence:
#
# PCOD9231920 Si02
#       7
#     4   4   4   4   4   4   4
#     4   9  21  41  71  96 131 178 229 289 349 419
#     4  10  23  39  64 101 134 181 233 288 347 421
#     4  10  20  42  69  94 133 181 231 284 354 414
#     4  11  22  42  64  96 137 182 227 289 354 414
#     4  12  29  48  74 107 142 186 237 293 362 437
#     4  12  28  44  69 100 139 180 233 296 352 423
#     4  10  23  43  69  96 135 184 230 287 349 429
#
# _framework density 22.160385999999999
#
# number of rings (size 3 to 8) (size 9 to 14) (size 15 to 20)
#    0.000    1.429    1.429    3.429    8.000    4.571 
#    0.000    0.000    0.000    0.000    0.000    0.000 
#    0.000    0.000    0.000    0.000    0.000    0.000 
#
# Total GULP energy -156160.662082 kJ/mol
# GULP energy per Si atom -5577.166503 kJ/mol
# Density = 2.210995 g / cm^3
# Si number density = 22.160386 Si / 1000 Ang^3
#
#
#
# Elastic Constant Matrix: (Units=GPa)
#
#
# Indices 1 2 3 4 5 6 
#
# 1 83.9103 62.8356 26.6453 0.0000 -0.8075 0.0000
# 2 62.8356 163.9431 35.1846 0.0000 -16.4187 0.0000
# 3 26.6453 35.1846 92.3892 0.0000 -9.5165 0.0000
# 4 0.0000 0.0000 0.0000 32.0605 0.0000 -12.8288
# 5 -0.8075 -16.4187 -9.5165 0.0000 29.1247 0.0000
# 6 0.0000 0.0000 0.0000 -12.8288 0.0000 46.7263
#
#
#
# Elastic Compliance Matrix: (Units=1/GPa)
#
#
# Indices 1 2 3 4 5 6 
#
# 1 0.017773 -0.006578 -0.003055 0.000000 -0.004214 0.000000
# 2 -0.006578 0.009344 -0.001177 0.000000 0.004701 0.000000
# 3 -0.003055 -0.001177 0.012497 0.000000 0.003335 0.000000
# 4 0.000000 0.000000 0.000000 0.035041 0.000000 0.009620
# 5 -0.004214 0.004701 0.003335 0.000000 0.037958 0.000000
# 6 0.000000 0.000000 0.000000 0.009620 0.000000 0.024042
#
#
# Mechanical properties :
#
#
# Convention : Reuss Voigt Hill
#
# Bulk Modulus (GPa) = 55.57519 65.50817 60.54168
# Shear Modulus (GPa) = 30.43700 35.95411 33.19555
#
# Velocity S-wave (km/s) = 3.71008 4.03233 3.87456
# Velocity P-wave (km/s) = 6.59439 7.16273 6.88443
#
# Compressibility (1/GPa) = 0.01799364
#
# Stress axis : x y z
#
# Youngs Moduli (GPa) = 56.26460 107.01497 80.02204
#
# Poissons Ratio (x) = 0.70400 0.24443
# Poissons Ratio (y) = 0.37014 0.09420
# Poissons Ratio (z) = 0.17186 0.12598
#
# Static dielectric constant tensor:
#      x y z
#    x 1.834350 0.000000 -0.009180 
#    y 0.000000 1.807140 0.000000 
#    z -0.009180 0.000000 1.922020 
# 
# From -- ./inp_files/30260.got.cif
#   From: 2010.05.17/outbox.cif.g08.bks.cpg/sg13_16_cif.got.tgz:30260.got - 2010.06.03 16:44:36.
