data_PCOD9231119
_publ_section_title
;
Structure prediction by ZEFSAII (Michael W. Deem and Ramdas Pophale) SiO2 
 PCOD9231119
Probable space group: P 2/C
;
_chemical_formula_sum "Si O2"
_cell_formula_units_Z 26
_cell_length_a 5.065165
_cell_length_b 13.497537
_cell_length_c 18.791187
_cell_angle_alpha 90.000000
_cell_angle_beta 114.649548
_cell_angle_gamma 90.000000
_cell_volume 1167.634365
_symmetry_space_group_name_H-M "P 2/C"
_symmetry_group_IT_number 13
_symmetry_cell_setting 'monoclinic'
loop_
_space_group_symop_operation_xyz
x,y,z
-x,y,1/2-z
-x,-y,-z
x,-y,1/2+z
loop_
_atom_site_type_symbol
_atom_site_label
_atom_site_fract_x
_atom_site_fract_y
_atom_site_fract_z
Si Si1 0.211327 0.801160 0.951744
Si Si2 0.591590 0.902810 0.889898
Si Si3 0.500000 0.778735 0.750000
Si Si4 0.433087 0.291501 0.615664
Si Si5 0.017967 0.635678 0.666362
Si Si6 0.982368 0.407541 0.661967
Si Si7 0.331714 0.090494 0.804073
O O1 0.485739 0.860729 0.952977
O O2 0.207660 0.703377 0.900804
O O3 0.925450 0.871608 0.912939
O O4 0.237867 0.759575 0.033659
O O5 0.406479 0.851801 0.803616
O O6 0.500280 0.016925 0.875923
O O7 0.697900 0.701053 0.814699
O O8 0.658683 0.370230 0.608138
O O9 0.634486 0.203654 0.668249
O O10 0.228165 0.341901 0.651608
O O11 0.026701 0.522058 0.645361
O O12 0.000000 0.638318 0.750000
O O13 0.000000 0.402728 0.750000
O O14 0.500000 0.079673 0.750000
O O15 0.000000 0.064985 0.750000
#
# Coordination Sequence:
#
# PCOD9231119 Si02
#       7
#     4   4   2   4   4   4   4
#     4  11  25  42  66  98 139 173 207 273 332 399
#     4  11  23  40  68  97 128 165 219 267 332 382
#     4  10  20  38  64  96 126 156 210 284 324 384
#     4  12  26  45  63  95 140 178 216 260 329 394
#     4  10  22  38  66  96 126 167 224 277 330 371
#     4  11  25  42  69  93 126 174 229 276 311 385
#     4  12  25  42  69  98 126 174 222 275 318 382
#
# _framework density 22.267242
#
# number of rings (size 3 to 8) (size 9 to 14) (size 15 to 20)
#    0.000    0.923    2.308    4.615    6.462    2.462 
#    0.000    0.000    0.000    0.000    0.000    0.000 
#    0.000    0.000    0.000    0.000    0.000    0.000 
#
# Total GULP energy -145167.889158 kJ/mol
# GULP energy per Si atom -5583.380352 kJ/mol
# Density = 2.221656 g / cm^3
# Si number density = 22.267242 Si / 1000 Ang^3
#
#
#
# Elastic Constant Matrix: (Units=GPa)
#
#
# Indices 1 2 3 4 5 6 
#
# 1 80.5140 22.0258 1.2057 0.0000 -1.8993 0.0000
# 2 22.0258 99.7350 -6.0690 0.0000 -6.2223 0.0000
# 3 1.2057 -6.0690 29.0580 0.0000 -2.4564 0.0000
# 4 0.0000 0.0000 0.0000 -2.6443 0.0000 -6.1135
# 5 -1.8993 -6.2223 -2.4564 0.0000 26.7735 0.0000
# 6 0.0000 0.0000 0.0000 -6.1135 0.0000 25.8485
#
#
#
# Elastic Compliance Matrix: (Units=1/GPa)
#
#
# Indices 1 2 3 4 5 6 
#
# 1 0.013259 -0.002990 -0.001163 0.000000 0.000139 0.000000
# 2 -0.002990 0.011009 0.002642 0.000000 0.002589 0.000000
# 3 -0.001163 0.002642 0.035333 0.000000 0.003773 0.000000
# 4 0.000000 0.000000 0.000000 -0.244485 0.000000 -0.057824
# 5 0.000139 0.002589 0.003773 0.000000 0.038308 0.000000
# 6 0.000000 0.000000 0.000000 -0.057824 0.000000 0.025011
#
#
# Mechanical properties :
#
#
# Convention : Reuss Voigt Hill
#
# Bulk Modulus (GPa) = 17.67425 27.07022 22.37223
# Shear Modulus (GPa) = -50.15882 22.80517 -13.67682
#
# Velocity S-wave (km/s) = -4.75129 3.20372 -2.48102
# Velocity P-wave (km/s) = 4.70586 5.08610 1.36443
#
# Compressibility (1/GPa) = 0.05657950
#
# Stress axis : x y z
#
# Youngs Moduli (GPa) = 75.42090 90.83270 28.30209
#
# Poissons Ratio (x) = 0.27161 0.03291
# Poissons Ratio (y) = 0.22553 -0.07478
# Poissons Ratio (z) = 0.08771 -0.24001
#
# Static dielectric constant tensor:
#      x y z
#    x 1.836240 0.000000 0.064830 
#    y 0.000000 1.833130 0.000000 
#    z 0.064830 0.000000 1.877110 
# 
# From -- ./inp_files/73724.got.cif
#   From: 2010.05.17/outbox.cif.g08.bks.cpg/sg13_37_cif.got.tgz:73724.got - 2010.06.03 16:44:36.
