data_PCOD9231406
_publ_section_title
;
Structure prediction by ZEFSAII (Michael W. Deem and Ramdas Pophale) SiO2 
 PCOD9231406
Probable space group: P 2/C
;
_chemical_formula_sum "Si O2"
_cell_formula_units_Z 28
_cell_length_a 8.168779
_cell_length_b 6.096794
_cell_length_c 26.570658
_cell_angle_alpha 90.000000
_cell_angle_beta 60.447592
_cell_angle_gamma 90.000000
_cell_volume 1151.152239
_symmetry_space_group_name_H-M "P 2/C"
_symmetry_group_IT_number 13
_symmetry_cell_setting 'monoclinic'
loop_
_space_group_symop_operation_xyz
x,y,z
-x,y,1/2-z
-x,-y,-z
x,-y,1/2+z
loop_
_atom_site_type_symbol
_atom_site_label
_atom_site_fract_x
_atom_site_fract_y
_atom_site_fract_z
Si Si1 0.719816 0.590722 0.579355
Si Si2 0.120062 0.966155 0.096211
Si Si3 0.196635 0.598378 0.158681
Si Si4 0.046476 0.241458 0.975256
Si Si5 0.558301 0.466918 0.291880
Si Si6 0.434141 0.693351 0.547234
Si Si7 0.091575 0.231497 0.288908
O O1 0.941335 0.637181 0.539009
O O2 0.617896 0.605918 0.647391
O O3 0.620949 0.740686 0.552109
O O4 0.740838 0.333398 0.560647
O O5 0.295297 0.114680 0.049200
O O6 0.965955 0.108009 0.150970
O O7 0.203950 0.821450 0.128201
O O8 0.034019 0.790714 0.069709
O O9 0.309612 0.612409 0.192974
O O10 0.310613 0.421607 0.108873
O O11 0.996540 0.478245 0.193357
O O12 0.000000 0.000000 0.000000
O O13 0.500000 0.584729 0.250000
O O14 0.688822 0.263385 0.254953
O O15 0.500000 0.500000 0.500000
O O16 0.000000 0.141899 0.250000
#
# Coordination Sequence:
#
# PCOD9231406 Si02
#       7
#     4   4   4   4   4   4   4
#     4  10  24  43  62  93 137 172 217 275 345 404
#     4  11  23  39  72 102 130 177 239 282 341 412
#     4   9  21  40  64  94 133 170 222 277 336 408
#     4  11  25  42  65  97 135 179 222 282 344 417
#     4  10  22  41  70  92 132 184 217 274 347 402
#     4  10  20  39  66  97 126 171 217 279 335 403
#     4   9  21  42  65  94 132 179 223 279 343 407
#
# _framework density 24.323454000000002
#
# number of rings (size 3 to 8) (size 9 to 14) (size 15 to 20)
#    0.000    2.000    0.000    2.571    4.000    8.571 
#    0.000    1.429    0.000    0.000    0.000    0.000 
#    0.000    0.000    0.000    0.000    0.000    0.000 
#
# Total GULP energy -155930.425927 kJ/mol
# GULP energy per Si atom -5568.943783 kJ/mol
# Density = 2.426809 g / cm^3
# Si number density = 24.323454 Si / 1000 Ang^3
#
#
#
# Elastic Constant Matrix: (Units=GPa)
#
#
# Indices 1 2 3 4 5 6 
#
# 1 89.3542 32.1419 57.0102 0.0000 9.5280 0.0000
# 2 32.1419 46.9354 30.1687 0.0000 4.1422 0.0000
# 3 57.0102 30.1687 164.5622 0.0000 -6.5121 0.0000
# 4 0.0000 0.0000 0.0000 28.2831 0.0000 8.5070
# 5 9.5280 4.1422 -6.5121 0.0000 47.2726 0.0000
# 6 0.0000 0.0000 0.0000 8.5070 0.0000 30.0606
#
#
#
# Elastic Compliance Matrix: (Units=1/GPa)
#
#
# Indices 1 2 3 4 5 6 
#
# 1 0.017700 -0.008830 -0.004649 0.000000 -0.003434 0.000000
# 2 -0.008830 0.028915 -0.002284 0.000000 -0.001069 0.000000
# 3 -0.004649 -0.002284 0.008196 0.000000 0.002266 0.000000
# 4 0.000000 0.000000 0.000000 0.038646 0.000000 -0.010937
# 5 -0.003434 -0.001069 0.002266 0.000000 0.022252 0.000000
# 6 0.000000 0.000000 0.000000 -0.010937 0.000000 0.036361
#
#
# Mechanical properties :
#
#
# Convention : Reuss Voigt Hill
#
# Bulk Modulus (GPa) = 42.94662 59.94370 51.44516
# Shear Modulus (GPa) = 26.12898 33.22531 29.67714
#
# Velocity S-wave (km/s) = 3.28110 3.69992 3.49679
# Velocity P-wave (km/s) = 5.66118 6.55366 6.12370
#
# Compressibility (1/GPa) = 0.02328472
#
# Stress axis : x y z
#
# Youngs Moduli (GPa) = 56.49703 34.58387 122.01393
#
# Poissons Ratio (x) = 0.30537 0.56725
# Poissons Ratio (y) = 0.49886 0.27871
# Poissons Ratio (z) = 0.26266 0.07900
#
# Static dielectric constant tensor:
#      x y z
#    x 2.113210 0.000000 -0.042430 
#    y 0.000000 1.188370 0.000000 
#    z -0.042430 0.000000 1.937780 
# 
# From -- ./inp_files/95602.got.cif
#   From: 2010.05.17/outbox.cif.g08.bks.cpg/sg13_48_cif.got.tgz:95602.got - 2010.06.03 16:44:36.
