data_PCOD9231535
_publ_section_title
;
Structure prediction by ZEFSAII (Michael W. Deem and Ramdas Pophale) SiO2 
 PCOD9231535
Probable space group: P 2/C
;
_chemical_formula_sum "Si O2"
_cell_formula_units_Z 20
_cell_length_a 9.438532
_cell_length_b 7.729903
_cell_length_c 11.944049
_cell_angle_alpha 90.000000
_cell_angle_beta 117.839919
_cell_angle_gamma 90.000000
_cell_volume 770.562731
_symmetry_space_group_name_H-M "P 2/C"
_symmetry_group_IT_number 13
_symmetry_cell_setting 'monoclinic'
loop_
_space_group_symop_operation_xyz
x,y,z
-x,y,1/2-z
-x,-y,-z
x,-y,1/2+z
loop_
_atom_site_type_symbol
_atom_site_label
_atom_site_fract_x
_atom_site_fract_y
_atom_site_fract_z
Si Si1 0.399365 0.671266 0.989224
Si Si2 0.500000 0.413893 0.750000
Si Si3 0.000000 0.849640 0.750000
Si Si4 0.149368 0.922275 0.485453
Si Si5 0.925093 0.470082 0.596655
Si Si6 0.703886 0.249321 0.273583
O O1 0.472270 0.712853 0.135586
O O2 0.500000 0.500000 0.000000
O O3 0.219043 0.607330 0.944700
O O4 0.400495 0.782016 0.876958
O O5 0.355381 0.557023 0.711683
O O6 0.110946 0.749843 0.700754
O O7 0.129454 0.965425 0.865782
O O8 0.135120 0.726273 0.440203
O O9 0.291811 0.896880 0.629247
O O10 0.000000 0.000000 0.500000
O O11 0.000000 0.459897 0.750000
O O12 0.000000 0.500000 0.500000
#
# Coordination Sequence:
#
# PCOD9231535 Si02
#       6
#     4   2   2   4   4   4
#     4  10  23  39  63  95 135 174 215 273 344 397
#     4  10  20  40  62  92 134 174 210 270 338 402
#     4  10  22  40  66  90 126 172 222 274 330 390
#     4  10  21  40  61  91 132 170 213 274 337 385
#     4  12  25  40  67 104 131 170 228 286 336 403
#     4  10  21  39  63  90 127 172 219 269 334 391
#
# _framework density 25.95506
#
# number of rings (size 3 to 8) (size 9 to 14) (size 15 to 20)
#    0.000    1.600    3.000    1.200    9.800    0.000 
#    0.000    1.000    0.000    0.000    0.000    0.000 
#    0.000    0.000    0.000    0.000    0.000    0.000 
#
# Total GULP energy -111360.489347 kJ/mol
# GULP energy per Si atom -5568.024467 kJ/mol
# Density = 2.589598 g / cm^3
# Si number density = 25.955060 Si / 1000 Ang^3
#
#
#
# Elastic Constant Matrix: (Units=GPa)
#
#
# Indices 1 2 3 4 5 6 
#
# 1 122.9888 12.2809 16.1852 0.0000 -4.6822 0.0000
# 2 12.2809 94.7456 48.4855 0.0000 -7.1265 0.0000
# 3 16.1852 48.4855 294.4293 0.0000 -13.7098 0.0000
# 4 0.0000 0.0000 0.0000 23.5808 0.0000 -8.7657
# 5 -4.6822 -7.1265 -13.7098 0.0000 27.0084 0.0000
# 6 0.0000 0.0000 0.0000 -8.7657 0.0000 22.9943
#
#
#
# Elastic Compliance Matrix: (Units=1/GPa)
#
#
# Indices 1 2 3 4 5 6 
#
# 1 0.008292 -0.000859 -0.000264 0.000000 0.001077 0.000000
# 2 -0.000859 0.011735 -0.001790 0.000000 0.002039 0.000000
# 3 -0.000264 -0.001790 0.003771 0.000000 0.001396 0.000000
# 4 0.000000 0.000000 0.000000 0.049409 0.000000 0.018835
# 5 0.001077 0.002039 0.001396 0.000000 0.038459 0.000000
# 6 0.000000 0.000000 0.000000 0.018835 0.000000 0.050669
#
#
# Mechanical properties :
#
#
# Convention : Reuss Voigt Hill
#
# Bulk Modulus (GPa) = 55.64235 74.00744 64.82489
# Shear Modulus (GPa) = 28.71038 43.73083 36.22060
#
# Velocity S-wave (km/s) = 3.32950 4.10917 3.73971
# Velocity P-wave (km/s) = 6.02207 7.14767 6.60888
#
# Compressibility (1/GPa) = 0.01797192
#
# Stress axis : x y z
#
# Youngs Moduli (GPa) = 120.59333 85.21185 265.19813
#
# Poissons Ratio (x) = 0.07316 0.07009
# Poissons Ratio (y) = 0.10354 0.47482
# Poissons Ratio (z) = 0.03187 0.15256
#
# Static dielectric constant tensor:
#      x y z
#    x 2.136940 0.000000 -0.004200 
#    y 0.000000 2.016840 0.000000 
#    z -0.004200 0.000000 2.287820 
# 
# From -- ./inp_files/32301.got.cif
#   From: 2010.05.17/outbox.cif.g08.bks.cpg/sg13_17_cif.got.tgz:32301.got - 2010.06.03 16:44:36.
