data_PCOD9231923
_publ_section_title
;
Structure prediction by ZEFSAII (Michael W. Deem and Ramdas Pophale) SiO2 
 PCOD9231923
Probable space group: P 2/C
;
_chemical_formula_sum "Si O2"
_cell_formula_units_Z 20
_cell_length_a 9.741783
_cell_length_b 10.585862
_cell_length_c 9.203802
_cell_angle_alpha 90.000000
_cell_angle_beta 81.475350
_cell_angle_gamma 90.000000
_cell_volume 938.657683
_symmetry_space_group_name_H-M "P 2/C"
_symmetry_group_IT_number 13
_symmetry_cell_setting 'monoclinic'
loop_
_space_group_symop_operation_xyz
x,y,z
-x,y,1/2-z
-x,-y,-z
x,-y,1/2+z
loop_
_atom_site_type_symbol
_atom_site_label
_atom_site_fract_x
_atom_site_fract_y
_atom_site_fract_z
Si Si1 0.161397 0.344333 0.496323
Si Si2 0.352540 0.870613 0.522024
Si Si3 0.000000 0.526346 0.750000
Si Si4 0.098515 0.059816 0.598812
Si Si5 0.500000 0.985512 0.250000
Si Si6 0.510595 0.631700 0.576647
O O1 0.097457 0.437292 0.631423
O O2 0.129784 0.199405 0.537661
O O3 0.328172 0.335569 0.473861
O O4 0.093095 0.391846 0.352206
O O5 0.384108 0.900111 0.347178
O O6 0.386388 0.722990 0.538117
O O7 0.221503 0.955689 0.590168
O O8 0.461363 0.925347 0.622761
O O9 0.000000 0.074150 0.750000
O O10 0.000000 0.000000 0.500000
O O11 0.500000 0.621560 0.750000
O O12 0.500000 0.500000 0.500000
#
# Coordination Sequence:
#
# PCOD9231923 Si02
#       6
#     4   4   2   4   2   4
#     4  11  24  50  71 112 145 193 249 295 376 427
#     4  11  24  45  71 105 142 188 240 302 364 425
#     4  10  24  46  84 102 152 198 236 308 354 460
#     4  12  28  45  73 107 145 192 247 309 364 446
#     4  10  20  42  70 100 134 186 224 304 352 430
#     4  12  28  47  75 106 148 193 246 305 362 446
#
# _framework density 21.307023999999998
#
# number of rings (size 3 to 8) (size 9 to 14) (size 15 to 20)
#    0.000    0.800    2.000    4.800    5.600    3.200 
#    3.600    0.000    0.000    0.000    0.000    0.000 
#    0.000    0.000    0.000    0.000    0.000    0.000 
#
# Total GULP energy -111360.233072 kJ/mol
# GULP energy per Si atom -5568.011654 kJ/mol
# Density = 2.125853 g / cm^3
# Si number density = 21.307024 Si / 1000 Ang^3
#
#
#
# Elastic Constant Matrix: (Units=GPa)
#
#
# Indices 1 2 3 4 5 6 
#
# 1 74.3219 69.9713 23.4350 0.0000 -16.7042 0.0000
# 2 69.9713 194.9676 66.2628 0.0000 -12.5416 0.0000
# 3 23.4350 66.2628 104.1113 0.0000 -10.8274 0.0000
# 4 0.0000 0.0000 0.0000 342.8551 0.0000 84.6120
# 5 -16.7042 -12.5416 -10.8274 0.0000 27.2894 0.0000
# 6 0.0000 0.0000 0.0000 84.6120 0.0000 53.5130
#
#
#
# Elastic Compliance Matrix: (Units=1/GPa)
#
#
# Indices 1 2 3 4 5 6 
#
# 1 0.023018 -0.007893 0.000970 0.000000 0.010847 0.000000
# 2 -0.007893 0.009304 -0.004384 0.000000 -0.002295 0.000000
# 3 0.000970 -0.004384 0.012547 0.000000 0.003557 0.000000
# 4 0.000000 0.000000 0.000000 0.004783 0.000000 -0.007563
# 5 0.010847 -0.002295 0.003557 0.000000 0.043641 0.000000
# 6 0.000000 0.000000 0.000000 -0.007563 0.000000 0.030645
#
#
# Mechanical properties :
#
#
# Convention : Reuss Voigt Hill
#
# Bulk Modulus (GPa) = 44.93135 76.97102 60.95118
# Shear Modulus (GPa) = 32.47437 98.98029 65.72733
#
# Velocity S-wave (km/s) = 3.90823 6.82313 5.56010
# Velocity P-wave (km/s) = 6.44197 9.91346 8.35989
#
# Compressibility (1/GPa) = 0.02225618
#
# Stress axis : x y z
#
# Youngs Moduli (GPa) = 43.44484 107.48195 79.70274
#
# Poissons Ratio (x) = 0.84833 -0.07734
# Poissons Ratio (y) = 0.34290 0.34938
# Poissons Ratio (z) = -0.04216 0.47115
#
# Static dielectric constant tensor:
#      x y z
#    x 1.847020 0.000000 -0.010500 
#    y 0.000000 1.832420 0.000000 
#    z -0.010500 0.000000 1.744300 
# 
# From -- ./inp_files/11712.got.cif
#   From: 2010.05.17/outbox.cif.g08.bks.cpg/sg13_6_cif.got.tgz:11712.got - 2010.06.03 16:44:36.
