data_PCOD9231468
_publ_section_title
;
Structure prediction by ZEFSAII (Michael W. Deem and Ramdas Pophale) SiO2 
 PCOD9231468
Probable space group: P 2/C
;
_chemical_formula_sum "Si O2"
_cell_formula_units_Z 18
_cell_length_a 5.319082
_cell_length_b 6.446958
_cell_length_c 27.297913
_cell_angle_alpha 90.000000
_cell_angle_beta 68.046435
_cell_angle_gamma 90.000000
_cell_volume 868.218173
_symmetry_space_group_name_H-M "P 2/C"
_symmetry_group_IT_number 13
_symmetry_cell_setting 'monoclinic'
loop_
_space_group_symop_operation_xyz
x,y,z
-x,y,1/2-z
-x,-y,-z
x,-y,1/2+z
loop_
_atom_site_type_symbol
_atom_site_label
_atom_site_fract_x
_atom_site_fract_y
_atom_site_fract_z
Si Si1 0.075987 0.439306 0.439855
Si Si2 0.761415 0.035933 0.296179
Si Si3 0.500000 0.379304 0.250000
Si Si4 0.672442 0.677538 0.887726
Si Si5 0.419305 0.658071 0.344776
O O1 0.347064 0.295372 0.418908
O O2 0.176435 0.638889 0.400961
O O3 0.000000 0.500000 0.500000
O O4 0.829623 0.347042 0.426778
O O5 0.694310 0.225918 0.265190
O O6 0.804823 0.141537 0.345679
O O7 0.000000 0.919341 0.250000
O O8 0.511965 0.881524 0.321367
O O9 0.359794 0.520436 0.301221
O O10 0.662126 0.464194 0.856139
#
# Coordination Sequence:
#
# PCOD9231468 Si02
#       5
#     4   4   2   4   4
#     4  10  20  43  67  86 125 167 208 261 313 365
#     4  11  22  37  61  90 129 169 204 262 312 378
#     4  10  20  40  58  86 130 162 208 250 316 370
#     4   9  22  40  62  90 125 160 211 251 314 369
#     4   9  22  36  61  95 122 161 214 248 313 372
#
# _framework density 20.732119000000001
#
# number of rings (size 3 to 8) (size 9 to 14) (size 15 to 20)
#    1.333    0.889    0.000    2.667    0.000    7.111 
#    0.000    2.222    0.000    0.000    0.000    0.000 
#    0.000    0.000    0.000    0.000    0.000    0.000 
#
# Total GULP energy -100254.308232 kJ/mol
# GULP energy per Si atom -5569.683791 kJ/mol
# Density = 2.068493 g / cm^3
# Si number density = 20.732119 Si / 1000 Ang^3
#
#
#
# Elastic Constant Matrix: (Units=GPa)
#
#
# Indices 1 2 3 4 5 6 
#
# 1 71.0072 3.6387 30.3546 0.0000 14.5502 0.0000
# 2 3.6387 52.3736 35.0003 0.0000 1.2201 0.0000
# 3 30.3546 35.0003 159.4275 0.0000 -0.8588 0.0000
# 4 0.0000 0.0000 0.0000 0.8287 0.0000 -0.1765
# 5 14.5502 1.2201 -0.8588 0.0000 38.9294 0.0000
# 6 0.0000 0.0000 0.0000 -0.1765 0.0000 11.3383
#
#
#
# Elastic Compliance Matrix: (Units=1/GPa)
#
#
# Indices 1 2 3 4 5 6 
#
# 1 0.016840 0.001342 -0.003536 0.000000 -0.006414 0.000000
# 2 0.001342 0.022509 -0.005204 0.000000 -0.001322 0.000000
# 3 -0.003536 -0.005204 0.008097 0.000000 0.001663 0.000000
# 4 0.000000 0.000000 0.000000 1.210662 0.000000 0.018847
# 5 -0.006414 -0.001322 0.001663 0.000000 0.028163 0.000000
# 6 0.000000 0.000000 0.000000 0.018847 0.000000 0.088490
#
#
# Mechanical properties :
#
#
# Convention : Reuss Voigt Hill
#
# Bulk Modulus (GPa) = 30.62697 46.75506 38.69102
# Shear Modulus (GPa) = 3.57031 24.47360 14.02195
#
# Velocity S-wave (km/s) = 1.31372 3.43952 2.60347
# Velocity P-wave (km/s) = 4.13593 6.19473 5.26691
#
# Compressibility (1/GPa) = 0.03265096
#
# Stress axis : x y z
#
# Youngs Moduli (GPa) = 59.38238 44.42661 123.50133
#
# Poissons Ratio (x) = -0.05963 0.43664
# Poissons Ratio (y) = -0.07970 0.64273
# Poissons Ratio (z) = 0.20995 0.23121
#
# Static dielectric constant tensor:
#      x y z
#    x 1.820640 0.000000 -0.015070 
#    y 0.000000 1.754700 0.000000 
#    z -0.015070 0.000000 1.718500 
# 
# From -- ./inp_files/82938.got.cif
#   From: 2010.05.17/outbox.cif.g08.bks.cpg/sg13_42_cif.got.tgz:82938.got - 2010.06.03 16:44:36.
