data_PCOD9231895
_publ_section_title
;
Structure prediction by ZEFSAII (Michael W. Deem and Ramdas Pophale) SiO2 
 PCOD9231895
Probable space group: P 2/C
;
_chemical_formula_sum "Si O2"
_cell_formula_units_Z 16
_cell_length_a 5.100592
_cell_length_b 9.877443
_cell_length_c 13.229187
_cell_angle_alpha 90.000000
_cell_angle_beta 94.455646
_cell_angle_gamma 90.000000
_cell_volume 664.482807
_symmetry_space_group_name_H-M "P 2/C"
_symmetry_group_IT_number 13
_symmetry_cell_setting 'monoclinic'
loop_
_space_group_symop_operation_xyz
x,y,z
-x,y,1/2-z
-x,-y,-z
x,-y,1/2+z
loop_
_atom_site_type_symbol
_atom_site_label
_atom_site_fract_x
_atom_site_fract_y
_atom_site_fract_z
Si Si1 0.500000 0.030281 0.750000
Si Si2 0.239680 0.028791 0.930205
Si Si3 0.852934 0.760941 0.384138
Si Si4 0.000000 0.522057 0.250000
Si Si5 0.242217 0.424194 0.453341
O O1 0.303489 0.958889 0.823644
O O2 0.316146 0.124636 0.675236
O O3 0.152416 0.182856 0.896994
O O4 0.500000 0.000000 0.000000
O O5 0.000000 0.000000 0.000000
O O6 0.837049 0.626559 0.315348
O O7 0.762615 0.722485 0.494369
O O8 0.818969 0.436740 0.167421
O O9 0.500000 0.500000 0.500000
O O10 0.000000 0.500000 0.500000
#
# Coordination Sequence:
#
# PCOD9231895 Si02
#       5
#     2   4   4   2   4
#     4  12  22  44  76  96 142 188 246 296 388 430
#     4  12  26  43  69 106 138 185 254 312 368 440
#     4  11  22  41  72 101 141 190 245 297 367 451
#     4  10  20  42  68 102 140 190 236 292 364 440
#     4  10  23  38  64 102 141 179 239 292 353 440
#
# _framework density 24.078878
#
# number of rings (size 3 to 8) (size 9 to 14) (size 15 to 20)
#    0.000    1.000    5.000    1.500    3.500    3.000 
#    0.000    2.500    0.000    0.000    0.000    0.000 
#    0.000    0.000    0.000    0.000    0.000    0.000 
#
# Total GULP energy -89231.659825 kJ/mol
# GULP energy per Si atom -5576.978739 kJ/mol
# Density = 2.402407 g / cm^3
# Si number density = 24.078878 Si / 1000 Ang^3
#
#
#
# Elastic Constant Matrix: (Units=GPa)
#
#
# Indices 1 2 3 4 5 6 
#
# 1 175.5128 24.3930 71.6172 0.0000 8.5364 0.0000
# 2 24.3930 33.2836 43.2982 0.0000 2.9563 0.0000
# 3 71.6172 43.2982 224.6094 0.0000 -1.5329 0.0000
# 4 0.0000 0.0000 0.0000 60.9447 0.0000 -5.0611
# 5 8.5364 2.9563 -1.5329 0.0000 67.0190 0.0000
# 6 0.0000 0.0000 0.0000 -5.0611 0.0000 33.7102
#
#
#
# Elastic Compliance Matrix: (Units=1/GPa)
#
#
# Indices 1 2 3 4 5 6 
#
# 1 0.006789 -0.002781 -0.001634 0.000000 -0.000779 0.000000
# 2 -0.002781 0.041495 -0.007124 0.000000 -0.001639 0.000000
# 3 -0.001634 -0.007124 0.006351 0.000000 0.000668 0.000000
# 4 0.000000 0.000000 0.000000 0.016615 0.000000 0.002495
# 5 -0.000779 -0.001639 0.000668 0.000000 0.015108 0.000000
# 6 0.000000 0.000000 0.000000 0.002495 0.000000 0.030039
#
#
# Mechanical properties :
#
#
# Convention : Reuss Voigt Hill
#
# Bulk Modulus (GPa) = 31.68703 79.11362 55.40032
# Shear Modulus (GPa) = 33.33480 51.94128 42.63804
#
# Velocity S-wave (km/s) = 3.72479 4.64953 4.21261
# Velocity P-wave (km/s) = 5.62912 7.85821 6.83515
#
# Compressibility (1/GPa) = 0.03155866
#
# Stress axis : x y z
#
# Youngs Moduli (GPa) = 147.30489 24.09908 157.45707
#
# Poissons Ratio (x) = 0.06701 0.25727
# Poissons Ratio (y) = 0.40959 1.12168
# Poissons Ratio (z) = 0.24068 0.17167
#
# Static dielectric constant tensor:
#      x y z
#    x 2.004660 0.000000 -0.071430 
#    y 0.000000 2.005730 0.000000 
#    z -0.071430 0.000000 2.036200 
# 
# From -- ./inp_files/25869.got.cif
#   From: 2010.05.17/outbox.cif.g08.bks.cpg/sg13_13_cif.got.tgz:25869.got - 2010.06.03 16:44:36.
