data_PCOD9231311
_publ_section_title
;
Structure prediction by ZEFSAII (Michael W. Deem and Ramdas Pophale) SiO2 
 PCOD9231311
Probable space group: P 2/C
;
_chemical_formula_sum "Si O2"
_cell_formula_units_Z 30
_cell_length_a 10.906131
_cell_length_b 14.809276
_cell_length_c 11.499763
_cell_angle_alpha 90.000000
_cell_angle_beta 136.303965
_cell_angle_gamma 90.000000
_cell_volume 1283.116564
_symmetry_space_group_name_H-M "P 2/C"
_symmetry_group_IT_number 13
_symmetry_cell_setting 'monoclinic'
loop_
_space_group_symop_operation_xyz
x,y,z
-x,y,1/2-z
-x,-y,-z
x,-y,1/2+z
loop_
_atom_site_type_symbol
_atom_site_label
_atom_site_fract_x
_atom_site_fract_y
_atom_site_fract_z
Si Si1 0.551879 0.633041 0.469269
Si Si2 0.113122 0.418534 0.446275
Si Si3 0.697462 0.086322 0.933126
Si Si4 0.970157 0.773219 0.537747
Si Si5 0.879788 0.908983 0.054060
Si Si6 0.339811 0.190954 0.384893
Si Si7 0.653564 0.470452 0.261296
Si Si8 0.500000 0.842800 0.750000
O O1 0.693506 0.611148 0.467985
O O2 0.531060 0.739789 0.459592
O O3 0.391718 0.564692 0.336932
O O4 0.640713 0.603879 0.652792
O O5 0.053235 0.334569 0.484754
O O6 0.163057 0.510679 0.547434
O O7 0.000000 0.430628 0.250000
O O8 0.500000 0.070385 0.750000
O O9 0.788605 0.180078 0.956099
O O10 0.668069 0.096281 0.052504
O O11 0.844700 0.013150 0.993599
O O12 0.035945 0.834443 0.474229
O O13 0.133683 0.781066 0.740401
O O14 0.000000 0.909347 0.250000
O O15 0.671601 0.886628 0.929996
O O16 0.405183 0.197503 0.297771
O O17 0.500000 0.449908 0.250000
#
# Coordination Sequence:
#
# PCOD9231311 Si02
#       8
#     4   4   4   4   4   4   4   2
#     4  10  20  39  62  92 126 178 214 284 332 404
#     4  11  20  38  65  93 131 170 226 269 335 406
#     4  12  25  40  71 105 132 179 233 290 351 419
#     4  11  23  43  65 100 134 180 227 286 353 404
#     4  11  25  46  68  94 143 177 225 292 355 420
#     4  11  23  42  68  91 141 178 235 283 349 417
#     4   9  22  37  61  95 135 169 227 272 345 409
#     4  10  26  44  62 102 128 186 232 282 346 424
#
# _framework density 23.380573999999999
#
# number of rings (size 3 to 8) (size 9 to 14) (size 15 to 20)
#    0.000    1.333    3.333    1.600    4.667    2.133 
#    0.000    0.000    0.000    0.000    0.000    0.000 
#    0.000    0.000    0.000    0.000    0.000    0.000 
#
# Total GULP energy -167165.625479 kJ/mol
# GULP energy per Si atom -5572.187516 kJ/mol
# Density = 2.332736 g / cm^3
# Si number density = 23.380574 Si / 1000 Ang^3
#
#
#
# Elastic Constant Matrix: (Units=GPa)
#
#
# Indices 1 2 3 4 5 6 
#
# 1 98.4155 36.8462 19.7773 0.0000 0.1056 0.0000
# 2 36.8462 82.2041 43.7687 0.0000 -5.9495 0.0000
# 3 19.7773 43.7687 114.9314 0.0000 7.2601 0.0000
# 4 0.0000 0.0000 0.0000 21.8637 0.0000 5.2445
# 5 0.1056 -5.9495 7.2601 0.0000 25.2430 0.0000
# 6 0.0000 0.0000 0.0000 5.2445 0.0000 28.6977
#
#
#
# Elastic Compliance Matrix: (Units=1/GPa)
#
#
# Indices 1 2 3 4 5 6 
#
# 1 0.012258 -0.005673 0.000141 0.000000 -0.001429 0.000000
# 2 -0.005673 0.018633 -0.006517 0.000000 0.006290 0.000000
# 3 0.000141 -0.006517 0.011464 0.000000 -0.004834 0.000000
# 4 0.000000 0.000000 0.000000 0.047835 0.000000 -0.008742
# 5 -0.001429 0.006290 -0.004834 0.000000 0.042494 0.000000
# 6 0.000000 0.000000 0.000000 -0.008742 0.000000 0.036444
#
#
# Mechanical properties :
#
#
# Convention : Reuss Voigt Hill
#
# Bulk Modulus (GPa) = 54.77291 55.14841 54.96066
# Shear Modulus (GPa) = 25.08663 28.17147 26.62905
#
# Velocity S-wave (km/s) = 3.27917 3.47495 3.37848
# Velocity P-wave (km/s) = 6.14938 6.30387 6.22710
#
# Compressibility (1/GPa) = 0.01825720
#
# Stress axis : x y z
#
# Youngs Moduli (GPa) = 81.57859 53.66895 87.23234
#
# Poissons Ratio (x) = 0.30447 -0.01233
# Poissons Ratio (y) = 0.46281 0.56848
# Poissons Ratio (z) = -0.01153 0.34975
#
# Static dielectric constant tensor:
#      x y z
#    x 1.942380 0.000000 -0.046770 
#    y 0.000000 1.951990 0.000000 
#    z -0.046770 0.000000 1.930130 
# 
# From -- ./inp_files/34780.got.cif
#   From: 2010.05.17/outbox.cif.g08.bks.cpg/sg13_18_cif.got.tgz:34780.got - 2010.06.03 16:44:36.
