data_PCOD9231579
_publ_section_title
;
Structure prediction by ZEFSAII (Michael W. Deem and Ramdas Pophale) SiO2 
 PCOD9231579
Probable space group: P 2/C
;
_chemical_formula_sum "Si O2"
_cell_formula_units_Z 28
_cell_length_a 9.640759
_cell_length_b 14.598090
_cell_length_c 20.358765
_cell_angle_alpha 90.000000
_cell_angle_beta 28.435941
_cell_angle_gamma 90.000000
_cell_volume 1364.350996
_symmetry_space_group_name_H-M "P 2/C"
_symmetry_group_IT_number 13
_symmetry_cell_setting 'monoclinic'
loop_
_space_group_symop_operation_xyz
x,y,z
-x,y,1/2-z
-x,-y,-z
x,-y,1/2+z
loop_
_atom_site_type_symbol
_atom_site_label
_atom_site_fract_x
_atom_site_fract_y
_atom_site_fract_z
Si Si1 0.159477 0.282035 0.399217
Si Si2 0.725569 0.301893 0.906636
Si Si3 0.679428 0.623068 0.038011
Si Si4 0.104212 0.576068 0.041641
Si Si5 0.794903 0.912457 0.586214
Si Si6 0.597968 0.888689 0.520120
Si Si7 0.000000 0.000361 0.250000
Si Si8 0.500000 0.402295 0.750000
O O1 0.500000 0.269378 0.250000
O O2 0.141031 0.346727 0.470884
O O3 0.044324 0.178527 0.453722
O O4 0.999262 0.332623 0.406041
O O5 0.505942 0.349349 0.947070
O O6 0.851150 0.373203 0.907861
O O7 0.000000 0.268566 0.750000
O O8 0.578156 0.214872 0.002055
O O9 0.556975 0.656079 0.160209
O O10 0.698570 0.513780 0.038720
O O11 0.781464 0.540962 0.155263
O O12 0.500000 0.931079 0.750000
O O13 0.707760 0.888528 0.548461
O O14 0.000000 0.000000 0.500000
O O15 0.843913 0.939943 0.372507
O O16 0.280919 0.937835 0.652642
#
# Coordination Sequence:
#
# PCOD9231579 Si02
#       8
#     4   4   4   4   4   4   2   2
#     4  10  23  41  67  95 134 172 222 275 335 404
#     4  12  24  45  66  96 143 175 229 287 351 412
#     4  11  25  39  68  97 131 182 226 281 337 412
#     4  11  23  42  67  96 134 178 226 282 340 402
#     4  11  24  45  68  99 137 174 224 287 342 413
#     4  11  23  45  69 103 135 186 224 295 342 423
#     4  10  24  42  74  96 134 178 234 274 358 412
#     4  10  20  40  64  92 126 172 236 274 334 406
#
# _framework density 20.522576999999998
#
# number of rings (size 3 to 8) (size 9 to 14) (size 15 to 20)
#    0.000    1.143    3.571    3.000    4.000    4.571 
#    7.714    0.000    0.000    0.000    0.000    0.000 
#    0.000    0.000    0.000    0.000    0.000    0.000 
#
# Total GULP energy -156157.603491 kJ/mol
# GULP energy per Si atom -5577.057268 kJ/mol
# Density = 2.047587 g / cm^3
# Si number density = 20.522577 Si / 1000 Ang^3
#
#
#
# Elastic Constant Matrix: (Units=GPa)
#
#
# Indices 1 2 3 4 5 6 
#
# 1 140.2362 42.7253 28.6822 0.0000 -8.1682 0.0000
# 2 42.7253 129.9833 40.5563 0.0000 -2.3260 0.0000
# 3 28.6822 40.5563 80.3647 0.0000 -0.8516 0.0000
# 4 0.0000 0.0000 0.0000 26.4483 0.0000 1.0023
# 5 -8.1682 -2.3260 -0.8516 0.0000 26.0448 0.0000
# 6 0.0000 0.0000 0.0000 1.0023 0.0000 18.2328
#
#
#
# Elastic Compliance Matrix: (Units=1/GPa)
#
#
# Indices 1 2 3 4 5 6 
#
# 1 0.008290 -0.002098 -0.001875 0.000000 0.002351 0.000000
# 2 -0.002098 0.009673 -0.004132 0.000000 0.000071 0.000000
# 3 -0.001875 -0.004132 0.015193 0.000000 -0.000460 0.000000
# 4 0.000000 0.000000 0.000000 0.037889 0.000000 -0.002083
# 5 0.002351 0.000071 -0.000460 0.000000 0.039124 0.000000
# 6 0.000000 0.000000 0.000000 -0.002083 0.000000 0.054961
#
#
# Mechanical properties :
#
#
# Convention : Reuss Voigt Hill
#
# Bulk Modulus (GPa) = 59.01037 63.83466 61.42251
# Shear Modulus (GPa) = 26.73939 30.05318 28.39629
#
# Velocity S-wave (km/s) = 3.61352 3.83089 3.72379
# Velocity P-wave (km/s) = 6.79900 7.12319 6.96298
#
# Compressibility (1/GPa) = 0.01694617
#
# Stress axis : x y z
#
# Youngs Moduli (GPa) = 120.62018 103.37575 65.81965
#
# Poissons Ratio (x) = 0.21687 0.12343
# Poissons Ratio (y) = 0.25305 0.27198
# Poissons Ratio (z) = 0.22619 0.42717
#
# Static dielectric constant tensor:
#      x y z
#    x 1.714020 0.000000 0.045310 
#    y 0.000000 1.766860 0.000000 
#    z 0.045310 0.000000 1.925160 
# 
# From -- ./inp_files/76599.got.cif
#   From: 2010.05.17/outbox.cif.g08.bks.cpg/sg13_39_cif.got.tgz:76599.got - 2010.06.03 16:44:36.
