data_PCOD9231117
_publ_section_title
;
Structure prediction by ZEFSAII (Michael W. Deem and Ramdas Pophale) SiO2 
 PCOD9231117
Probable space group: P 2/C
;
_chemical_formula_sum "Si O2"
_cell_formula_units_Z 28
_cell_length_a 14.590560
_cell_length_b 18.238637
_cell_length_c 5.693705
_cell_angle_alpha 90.000000
_cell_angle_beta 121.688760
_cell_angle_gamma 90.000000
_cell_volume 1289.273518
_symmetry_space_group_name_H-M "P 2/C"
_symmetry_group_IT_number 13
_symmetry_cell_setting 'monoclinic'
loop_
_space_group_symop_operation_xyz
x,y,z
-x,y,1/2-z
-x,-y,-z
x,-y,1/2+z
loop_
_atom_site_type_symbol
_atom_site_label
_atom_site_fract_x
_atom_site_fract_y
_atom_site_fract_z
Si Si1 0.000000 0.164803 0.750000
Si Si2 0.500000 0.753941 0.250000
Si Si3 0.841718 0.776198 0.693099
Si Si4 0.374591 0.525432 0.368946
Si Si5 0.685394 0.687791 0.234717
Si Si6 0.654822 0.188014 0.307533
Si Si7 0.114842 0.077371 0.527461
Si Si8 0.322595 0.020234 0.208413
O O1 0.952779 0.216829 0.483574
O O2 0.916119 0.109507 0.759333
O O3 0.598488 0.701695 0.320597
O O4 0.542057 0.802711 0.520291
O O5 0.804457 0.705493 0.495645
O O6 0.750314 0.788654 0.762583
O O7 0.840887 0.849706 0.538502
O O8 0.500000 0.500000 0.500000
O O9 0.331543 0.482375 0.541911
O O10 0.347208 0.608924 0.404903
O O11 0.662568 0.753798 0.025062
O O12 0.673463 0.103075 0.382058
O O13 0.205021 0.015761 0.609822
O O14 0.000000 0.057147 0.250000
O O15 0.369325 0.021664 0.539938
#
# Coordination Sequence:
#
# PCOD9231117 Si02
#       8
#     2   2   4   4   4   4   4   4
#     4  10  20  38  64  94 130 170 228 292 334 406
#     4  10  24  40  64  88 120 168 234 276 332 400
#     4  10  20  39  60  93 130 172 227 275 334 397
#     4  10  23  39  65 103 141 167 204 261 328 405
#     4  11  23  40  69  94 134 178 215 271 334 406
#     4  11  24  41  63  90 124 176 233 279 339 403
#     4  10  22  39  60  92 126 173 227 290 352 398
#     4  12  25  42  61  84 125 172 227 293 339 395
#
# _framework density 21.717658
#
# number of rings (size 3 to 8) (size 9 to 14) (size 15 to 20)
#    0.000    1.429    1.429    3.857   12.000    0.571 
#    1.286    0.714    0.000    0.000    0.000    1.000 
#    0.000    0.000    0.000    0.000    0.000    0.000 
#
# Total GULP energy -156073.736353 kJ/mol
# GULP energy per Si atom -5574.062013 kJ/mol
# Density = 2.166823 g / cm^3
# Si number density = 21.717658 Si / 1000 Ang^3
#
#
#
# Elastic Constant Matrix: (Units=GPa)
#
#
# Indices 1 2 3 4 5 6 
#
# 1 51.4335 20.4517 19.4397 0.0000 -13.7553 0.0000
# 2 20.4517 96.0584 20.5249 0.0000 11.3394 0.0000
# 3 19.4397 20.5249 96.0432 0.0000 -4.1675 0.0000
# 4 0.0000 0.0000 0.0000 28.3684 0.0000 5.6831
# 5 -13.7553 11.3394 -4.1675 0.0000 43.4268 0.0000
# 6 0.0000 0.0000 0.0000 5.6831 0.0000 20.9232
#
#
#
# Elastic Compliance Matrix: (Units=1/GPa)
#
#
# Indices 1 2 3 4 5 6 
#
# 1 0.025554 -0.005779 -0.003535 0.000000 0.009264 0.000000
# 2 -0.005779 0.012643 -0.001762 0.000000 -0.005301 0.000000
# 3 -0.003535 -0.001762 0.011524 0.000000 0.000446 0.000000
# 4 0.000000 0.000000 0.000000 0.037279 0.000000 -0.010126
# 5 0.009264 -0.005301 0.000446 0.000000 0.027389 0.000000
# 6 0.000000 0.000000 0.000000 -0.010126 0.000000 0.050544
#
#
# Mechanical properties :
#
#
# Convention : Reuss Voigt Hill
#
# Bulk Modulus (GPa) = 36.27420 40.48528 38.37974
# Shear Modulus (GPa) = 25.47450 30.75158 28.11304
#
# Velocity S-wave (km/s) = 3.42860 3.76702 3.60179
# Velocity P-wave (km/s) = 5.69321 6.13211 5.91673
#
# Compressibility (1/GPa) = 0.02756781
#
# Stress axis : x y z
#
# Youngs Moduli (GPa) = 39.13254 79.09520 86.77912
#
# Poissons Ratio (x) = 0.45708 0.30679
# Poissons Ratio (y) = 0.22614 0.15292
# Poissons Ratio (z) = 0.13835 0.13938
#
# Static dielectric constant tensor:
#      x y z
#    x 1.849610 0.000000 0.016670 
#    y 0.000000 1.819960 0.000000 
#    z 0.016670 0.000000 2.020330 
# 
# From -- ./inp_files/5407.got.cif
#   From: 2010.05.17/outbox.cif.g08.bks.cpg/sg13_3_cif.got.tgz:5407.got - 2010.06.03 16:44:36.
