data_PCOD9231049
_publ_section_title
;
Structure prediction by ZEFSAII (Michael W. Deem and Ramdas Pophale) SiO2 
 PCOD9231049
Probable space group: P 2/C
;
_chemical_formula_sum "Si O2"
_cell_formula_units_Z 22
_cell_length_a 28.090566
_cell_length_b 6.386449
_cell_length_c 17.226944
_cell_angle_alpha 90.000000
_cell_angle_beta 23.648399
_cell_angle_gamma 90.000000
_cell_volume 1239.668892
_symmetry_space_group_name_H-M "P 2/C"
_symmetry_group_IT_number 13
_symmetry_cell_setting 'monoclinic'
loop_
_space_group_symop_operation_xyz
x,y,z
-x,y,1/2-z
-x,-y,-z
x,-y,1/2+z
loop_
_atom_site_type_symbol
_atom_site_label
_atom_site_fract_x
_atom_site_fract_y
_atom_site_fract_z
Si Si1 0.935436 0.698160 0.058081
Si Si2 0.778469 0.427839 0.652072
Si Si3 0.333712 0.084085 0.797591
Si Si4 0.000000 0.679928 0.250000
Si Si5 0.896705 0.034099 0.766505
Si Si6 0.439396 0.306490 0.045783
O O1 0.831895 0.642592 0.153581
O O2 0.889758 0.835982 0.197692
O O3 0.000000 0.500000 0.000000
O O4 0.028162 0.829800 0.867879
O O5 0.724211 0.237933 0.681428
O O6 0.673539 0.592253 0.826452
O O7 0.886328 0.539581 0.443970
O O8 0.448574 0.198090 0.662959
O O9 0.383898 0.872224 0.683980
O O10 0.230556 0.028606 0.010777
O O11 0.036976 0.827070 0.267082
O O12 0.500000 0.500000 0.000000
#
# Coordination Sequence:
#
# PCOD9231049 Si02
#       6
#     4   4   4   2   4   4
#     4  11  24  39  56  89 131 163 189 246 321 368
#     4  11  21  36  61  90 124 155 202 254 306 364
#     4  10  20  38  63  89 116 158 212 253 295 354
#     4  12  20  36  62  96 116 154 208 254 304 368
#     4  11  23  37  59  90 124 159 203 248 304 373
#     4   9  20  36  62  90 115 153 207 261 298 344
#
# _framework density 17.746676000000001
#
# number of rings (size 3 to 8) (size 9 to 14) (size 15 to 20)
#    0.000    1.455    3.636    2.182    0.000    0.000 
#    0.000    0.000    0.000   26.182    0.000    0.000 
#    0.000    0.000    0.000    0.000    0.000    0.000 
#
# Total GULP energy -122711.188319 kJ/mol
# GULP energy per Si atom -5577.781287 kJ/mol
# Density = 1.770628 g / cm^3
# Si number density = 17.746676 Si / 1000 Ang^3
#
#
#
# Elastic Constant Matrix: (Units=GPa)
#
#
# Indices 1 2 3 4 5 6 
#
# 1 67.5040 32.5840 62.0041 0.0000 -14.0719 0.0000
# 2 32.5840 102.9923 63.5495 0.0000 -14.5932 0.0000
# 3 62.0041 63.5495 146.4417 0.0000 -20.5751 0.0000
# 4 0.0000 0.0000 0.0000 22.9360 0.0000 -22.9027
# 5 -14.0719 -14.5932 -20.5751 0.0000 22.6657 0.0000
# 6 0.0000 0.0000 0.0000 -22.9027 0.0000 23.9594
#
#
#
# Elastic Compliance Matrix: (Units=1/GPa)
#
#
# Indices 1 2 3 4 5 6 
#
# 1 0.025274 -0.001418 -0.009180 0.000000 0.006445 0.000000
# 2 -0.001418 0.013631 -0.004820 0.000000 0.003520 0.000000
# 3 -0.009180 -0.004820 0.013262 0.000000 0.003236 0.000000
# 4 0.000000 0.000000 0.000000 0.958471 0.000000 0.916202
# 5 0.006445 0.003520 0.003236 0.000000 0.053324 0.000000
# 6 0.000000 0.000000 0.000000 0.916202 0.000000 0.917534
#
#
# Mechanical properties :
#
#
# Convention : Reuss Voigt Hill
#
# Bulk Modulus (GPa) = 46.88289 70.35702 58.61995
# Shear Modulus (GPa) = 2.47593 24.49892 13.48742
#
# Velocity S-wave (km/s) = 1.18245 3.71951 2.75980
# Velocity P-wave (km/s) = 5.32348 7.62742 6.57712
#
# Compressibility (1/GPa) = 0.02132974
#
# Stress axis : x y z
#
# Youngs Moduli (GPa) = 39.56577 73.36098 75.40327
#
# Poissons Ratio (x) = 0.10406 0.69222
# Poissons Ratio (y) = 0.05612 0.36346
# Poissons Ratio (z) = 0.36322 0.35362
#
# Static dielectric constant tensor:
#      x y z
#    x 1.578590 0.000000 -0.022820 
#    y 0.000000 1.649280 0.000000 
#    z -0.022820 0.000000 1.599790 
# 
# From -- ./inp_files/52355.got.cif
#   From: 2010.05.17/outbox.cif.g08.bks.cpg/sg13_27_cif.got.tgz:52355.got - 2010.06.03 16:44:36.
