data_PCOD9231545
_publ_section_title
;
Structure prediction by ZEFSAII (Michael W. Deem and Ramdas Pophale) SiO2 
 PCOD9231545
Probable space group: P 2/C
;
_chemical_formula_sum "Si O2"
_cell_formula_units_Z 20
_cell_length_a 15.026716
_cell_length_b 6.863105
_cell_length_c 14.807461
_cell_angle_alpha 90.000000
_cell_angle_beta 141.874451
_cell_angle_gamma 90.000000
_cell_volume 942.806574
_symmetry_space_group_name_H-M "P 2/C"
_symmetry_group_IT_number 13
_symmetry_cell_setting 'monoclinic'
loop_
_space_group_symop_operation_xyz
x,y,z
-x,y,1/2-z
-x,-y,-z
x,-y,1/2+z
loop_
_atom_site_type_symbol
_atom_site_label
_atom_site_fract_x
_atom_site_fract_y
_atom_site_fract_z
Si Si1 0.014447 0.628566 0.660802
Si Si2 0.232150 0.613357 0.577444
Si Si3 0.377986 0.321788 0.825930
Si Si4 0.321353 0.446170 0.452376
Si Si5 0.856576 0.962326 0.445323
O O1 0.929762 0.470707 0.534551
O O2 0.921047 0.822727 0.574678
O O3 0.000000 0.549492 0.750000
O O4 0.184775 0.650196 0.791367
O O5 0.332920 0.512374 0.731655
O O6 0.285307 0.532586 0.522513
O O7 0.214756 0.842792 0.573293
O O8 0.364225 0.377220 0.919837
O O9 0.265830 0.156746 0.706505
O O10 0.546104 0.295880 0.937276
O O11 0.000000 0.000000 0.500000
#
# Coordination Sequence:
#
# PCOD9231545 Si02
#       5
#     4   4   4   4   4
#     4   9  20  37  58  83 115 155 201 248 296 358
#     4  10  21  40  62  87 121 163 203 250 308 365
#     4  10  22  40  61  89 123 161 202 252 307 365
#     4  10  20  40  63  85 123 163 201 251 308 366
#     4  11  22  37  61  90 121 158 202 253 308 364
#
# _framework density 21.213259000000001
#
# number of rings (size 3 to 8) (size 9 to 14) (size 15 to 20)
#    0.000    2.000    0.000    3.000    0.000    7.200 
#    0.000   25.000    0.000    0.000    0.000    0.000 
#    0.000    0.000    0.000    0.000    0.000    0.000 
#
# Total GULP energy -111489.328494 kJ/mol
# GULP energy per Si atom -5574.466425 kJ/mol
# Density = 2.116498 g / cm^3
# Si number density = 21.213259 Si / 1000 Ang^3
#
#
#
# Elastic Constant Matrix: (Units=GPa)
#
#
# Indices 1 2 3 4 5 6 
#
# 1 100.6105 6.3495 31.0936 0.0000 -0.8624 0.0000
# 2 6.3495 80.2199 26.0160 0.0000 12.6968 0.0000
# 3 31.0936 26.0160 137.2530 0.0000 32.6725 0.0000
# 4 0.0000 0.0000 0.0000 3.5729 0.0000 3.1171
# 5 -0.8624 12.6968 32.6725 0.0000 40.4533 0.0000
# 6 0.0000 0.0000 0.0000 3.1171 0.0000 11.0295
#
#
#
# Elastic Compliance Matrix: (Units=1/GPa)
#
#
# Indices 1 2 3 4 5 6 
#
# 1 0.010939 -0.000311 -0.003093 0.000000 0.002828 0.000000
# 2 -0.000311 0.013523 -0.001834 0.000000 -0.002770 0.000000
# 3 -0.003093 -0.001834 0.010167 0.000000 -0.007702 0.000000
# 4 0.000000 0.000000 0.000000 0.371471 0.000000 -0.104982
# 5 0.002828 -0.002770 -0.007702 0.000000 0.031870 0.000000
# 6 0.000000 0.000000 0.000000 -0.104982 0.000000 0.120335
#
#
# Mechanical properties :
#
#
# Convention : Reuss Voigt Hill
#
# Bulk Modulus (GPa) = 41.39671 49.44462 45.42067
# Shear Modulus (GPa) = 8.66804 27.98610 18.32707
#
# Velocity S-wave (km/s) = 2.02361 3.63612 2.94248
# Velocity P-wave (km/s) = 5.00169 6.40215 5.74475
#
# Compressibility (1/GPa) = 0.02415651
#
# Stress axis : x y z
#
# Youngs Moduli (GPa) = 91.41676 73.94582 98.35312
#
# Poissons Ratio (x) = 0.02296 0.30416
# Poissons Ratio (y) = 0.02839 0.18033
# Poissons Ratio (z) = 0.28271 0.13558
#
# Static dielectric constant tensor:
#      x y z
#    x 1.870850 0.000000 0.059320 
#    y 0.000000 1.757120 0.000000 
#    z 0.059320 0.000000 1.816920 
# 
# From -- ./inp_files/69203.got.cif
#   From: 2010.05.17/outbox.cif.g08.bks.cpg/sg13_35_cif.got.tgz:69203.got - 2010.06.03 16:44:36.
