data_PCOD9231387
_publ_section_title
;
Structure prediction by ZEFSAII (Michael W. Deem and Ramdas Pophale) SiO2 
 PCOD9231387
Probable space group: P 2/C
;
_chemical_formula_sum "Si O2"
_cell_formula_units_Z 24
_cell_length_a 10.955620
_cell_length_b 5.255430
_cell_length_c 18.324672
_cell_angle_alpha 90.000000
_cell_angle_beta 62.903735
_cell_angle_gamma 90.000000
_cell_volume 939.268481
_symmetry_space_group_name_H-M "P 2/C"
_symmetry_group_IT_number 13
_symmetry_cell_setting 'monoclinic'
loop_
_space_group_symop_operation_xyz
x,y,z
-x,y,1/2-z
-x,-y,-z
x,-y,1/2+z
loop_
_atom_site_type_symbol
_atom_site_label
_atom_site_fract_x
_atom_site_fract_y
_atom_site_fract_z
Si Si1 0.317190 0.731426 0.154254
Si Si2 0.422827 0.375537 0.836830
Si Si3 0.052819 0.306064 0.065053
Si Si4 0.723122 0.296966 0.999598
Si Si5 0.845133 0.785779 0.812221
Si Si6 0.817493 0.047989 0.598399
O O1 0.455118 0.784341 0.160432
O O2 0.345671 0.747455 0.059282
O O3 0.255676 0.446272 0.180111
O O4 0.205773 0.946043 0.204102
O O5 0.500000 0.525601 0.750000
O O6 0.297679 0.220831 0.834008
O O7 0.360323 0.515964 0.923914
O O8 0.125584 0.579945 0.057151
O O9 0.140018 0.166997 0.104727
O O10 0.900034 0.181786 0.114771
O O11 0.081725 0.238892 0.972565
O O12 0.740022 0.067291 0.050038
O O13 0.000000 0.711649 0.750000
#
# Coordination Sequence:
#
# PCOD9231387 Si02
#       6
#     4   4   4   4   4   4
#     4  11  25  46  70  99 140 181 242 280 348 430
#     4  11  27  42  62 101 139 184 229 285 359 415
#     4   9  20  38  62  99 127 170 229 283 342 401
#     4  10  21  42  68  97 131 184 233 287 341 419
#     4  11  24  43  70 102 134 181 230 296 353 407
#     4  10  20  39  65  92 131 174 226 280 340 414
#
# _framework density 25.5518
#
# number of rings (size 3 to 8) (size 9 to 14) (size 15 to 20)
#    0.000    1.667    1.667    1.500    4.667    2.667 
#    0.000    0.000    0.000    0.000    0.000    0.000 
#    0.000    0.000    0.000    0.000    0.000    0.000 
#
# Total GULP energy -133786.485920 kJ/mol
# GULP energy per Si atom -5574.436913 kJ/mol
# Density = 2.549364 g / cm^3
# Si number density = 25.551800 Si / 1000 Ang^3
#
#
#
# Elastic Constant Matrix: (Units=GPa)
#
#
# Indices 1 2 3 4 5 6 
#
# 1 88.9122 -5.0002 14.1874 0.0000 -8.5024 0.0000
# 2 -5.0002 48.2525 7.6331 0.0000 -12.3785 0.0000
# 3 14.1874 7.6331 58.6537 0.0000 -12.1238 0.0000
# 4 0.0000 0.0000 0.0000 15.4883 0.0000 6.9996
# 5 -8.5024 -12.3785 -12.1238 0.0000 30.0537 0.0000
# 6 0.0000 0.0000 0.0000 6.9996 0.0000 21.5064
#
#
#
# Elastic Compliance Matrix: (Units=1/GPa)
#
#
# Indices 1 2 3 4 5 6 
#
# 1 0.012127 0.002545 -0.002552 0.000000 0.003450 0.000000
# 2 0.002545 0.023777 -0.001677 0.000000 0.009837 0.000000
# 3 -0.002552 -0.001677 0.019193 0.000000 0.006330 0.000000
# 4 0.000000 0.000000 0.000000 0.075699 0.000000 -0.024638
# 5 0.003450 0.009837 0.006330 0.000000 0.040855 0.000000
# 6 0.000000 0.000000 0.000000 -0.024638 0.000000 0.054517
#
#
# Mechanical properties :
#
#
# Convention : Reuss Voigt Hill
#
# Bulk Modulus (GPa) = 19.33060 25.49545 22.41302
# Shear Modulus (GPa) = 20.26115 25.34287 22.80201
#
# Velocity S-wave (km/s) = 2.81898 3.15274 2.99052
# Velocity P-wave (km/s) = 4.26348 4.82210 4.55137
#
# Compressibility (1/GPa) = 0.05173146
#
# Stress axis : x y z
#
# Youngs Moduli (GPa) = 82.45900 42.05775 52.10224
#
# Poissons Ratio (x) = -0.10705 0.13294
# Poissons Ratio (y) = -0.20989 0.08736
# Poissons Ratio (z) = 0.21040 0.07052
#
# Static dielectric constant tensor:
#      x y z
#    x 2.022670 0.000000 -0.076220 
#    y 0.000000 2.117580 0.000000 
#    z -0.076220 0.000000 2.154320 
# 
# From -- ./inp_files/77149.got.cif
#   From: 2010.05.17/outbox.cif.g08.bks.cpg/sg13_39_cif.got.tgz:77149.got - 2010.06.03 16:44:36.
