data_PCOD9231404
_publ_section_title
;
Structure prediction by ZEFSAII (Michael W. Deem and Ramdas Pophale) SiO2 
 PCOD9231404
Probable space group: P 2/C
;
_chemical_formula_sum "Si O2"
_cell_formula_units_Z 24
_cell_length_a 13.777409
_cell_length_b 6.569785
_cell_length_c 21.743292
_cell_angle_alpha 90.000000
_cell_angle_beta 29.376612
_cell_angle_gamma 90.000000
_cell_volume 965.440674
_symmetry_space_group_name_H-M "P 2/C"
_symmetry_group_IT_number 13
_symmetry_cell_setting 'monoclinic'
loop_
_space_group_symop_operation_xyz
x,y,z
-x,y,1/2-z
-x,-y,-z
x,-y,1/2+z
loop_
_atom_site_type_symbol
_atom_site_label
_atom_site_fract_x
_atom_site_fract_y
_atom_site_fract_z
Si Si1 0.184649 0.439003 0.110930
Si Si2 0.474248 0.282323 0.403197
Si Si3 0.918847 0.701261 0.967798
Si Si4 0.288652 0.574277 0.302216
Si Si5 0.174568 0.956939 0.282176
Si Si6 0.277967 0.011811 0.595101
O O1 0.128215 0.407013 0.070841
O O2 0.213759 0.216465 0.120888
O O3 0.000000 0.528607 0.250000
O O4 0.394298 0.554504 0.997106
O O5 0.526750 0.426611 0.316291
O O6 0.667051 0.143157 0.303531
O O7 0.299942 0.121415 0.516481
O O8 0.103564 0.576715 0.893386
O O9 0.742155 0.675950 0.114200
O O10 0.987541 0.934327 0.918002
O O11 0.261822 0.761635 0.269128
O O12 0.151480 0.906921 0.222714
O O13 0.500000 0.000000 0.500000
#
# Coordination Sequence:
#
# PCOD9231404 Si02
#       6
#     4   4   4   4   4   4
#     4  12  25  42  63  98 134 167 215 285 331 384
#     4  10  23  39  62  94 125 171 212 260 334 393
#     4  10  23  42  64  96 130 169 219 268 331 388
#     4  10  22  43  68  91 127 176 218 264 325 410
#     4  10  20  39  66  95 125 168 217 264 327 403
#     4  10  22  39  63  93 131 165 213 262 325 393
#
# _framework density 24.859113000000001
#
# number of rings (size 3 to 8) (size 9 to 14) (size 15 to 20)
#    0.000    1.667    1.667    2.500    2.333    6.000 
#    0.000    1.667    0.000    0.000    0.000    0.000 
#    0.000    0.000    0.000    0.000    0.000    0.000 
#
# Total GULP energy -133756.917124 kJ/mol
# GULP energy per Si atom -5573.204880 kJ/mol
# Density = 2.480253 g / cm^3
# Si number density = 24.859113 Si / 1000 Ang^3
#
#
#
# Elastic Constant Matrix: (Units=GPa)
#
#
# Indices 1 2 3 4 5 6 
#
# 1 31.0711 6.6947 12.5238 0.0000 6.2347 0.0000
# 2 6.6947 110.6977 44.0011 0.0000 5.0323 0.0000
# 3 12.5238 44.0011 153.4693 0.0000 10.6037 0.0000
# 4 0.0000 0.0000 0.0000 102.0123 0.0000 106.2245
# 5 6.2347 5.0323 10.6037 0.0000 30.8499 0.0000
# 6 0.0000 0.0000 0.0000 106.2245 0.0000 213.8130
#
#
#
# Elastic Compliance Matrix: (Units=1/GPa)
#
#
# Indices 1 2 3 4 5 6 
#
# 1 0.034465 -0.000967 -0.002115 0.000000 -0.006081 0.000000
# 2 -0.000967 0.010236 -0.002821 0.000000 -0.000505 0.000000
# 3 -0.002115 -0.002821 0.007617 0.000000 -0.001730 0.000000
# 4 0.000000 0.000000 0.000000 0.020309 0.000000 -0.010090
# 5 -0.006081 -0.000505 -0.001730 0.000000 0.034321 0.000000
# 6 0.000000 0.000000 0.000000 -0.010090 0.000000 0.009690
#
#
# Mechanical properties :
#
#
# Convention : Reuss Voigt Hill
#
# Bulk Modulus (GPa) = 24.68410 46.85304 35.76857
# Shear Modulus (GPa) = 35.22386 84.80295 60.01340
#
# Velocity S-wave (km/s) = 3.76831 5.84701 4.91872
# Velocity P-wave (km/s) = 5.37445 8.02942 6.83214
#
# Compressibility (1/GPa) = 0.04051192
#
# Stress axis : x y z
#
# Youngs Moduli (GPa) = 29.01466 97.69069 131.28613
#
# Poissons Ratio (x) = 0.09449 0.27768
# Poissons Ratio (y) = 0.02806 0.37037
# Poissons Ratio (z) = 0.06137 0.27559
#
# Static dielectric constant tensor:
#      x y z
#    x 2.008380 0.000000 -0.006160 
#    y 0.000000 1.993260 0.000000 
#    z -0.006160 0.000000 2.017570 
# 
# From -- ./inp_files/87683.got.cif
#   From: 2010.05.17/outbox.cif.g08.bks.cpg/sg13_44_cif.got.tgz:87683.got - 2010.06.03 16:44:36.
