data_PCOD9231533
_publ_section_title
;
Structure prediction by ZEFSAII (Michael W. Deem and Ramdas Pophale) SiO2 
 PCOD9231533
Probable space group: P 2/C
;
_chemical_formula_sum "Si O2"
_cell_formula_units_Z 24
_cell_length_a 10.429114
_cell_length_b 16.908799
_cell_length_c 10.435146
_cell_angle_alpha 90.000000
_cell_angle_beta 35.961412
_cell_angle_gamma 90.000000
_cell_volume 1080.623793
_symmetry_space_group_name_H-M "P 2/C"
_symmetry_group_IT_number 13
_symmetry_cell_setting 'monoclinic'
loop_
_space_group_symop_operation_xyz
x,y,z
-x,y,1/2-z
-x,-y,-z
x,-y,1/2+z
loop_
_atom_site_type_symbol
_atom_site_label
_atom_site_fract_x
_atom_site_fract_y
_atom_site_fract_z
Si Si1 0.506136 0.895205 0.599772
Si Si2 0.366388 0.429304 0.540733
Si Si3 0.000000 0.494106 0.250000
Si Si4 0.939193 0.633285 0.997441
Si Si5 0.363868 0.272374 0.143513
Si Si6 0.857800 0.995751 0.741468
Si Si7 0.500000 0.294409 0.750000
O O1 0.500000 0.928635 0.750000
O O2 0.441946 0.804027 0.655800
O O3 0.335902 0.935736 0.639459
O O4 0.745316 0.919379 0.358254
O O5 0.500000 0.500000 0.500000
O O6 0.230154 0.463060 0.531445
O O7 0.513218 0.351892 0.410200
O O8 0.155883 0.399335 0.793577
O O9 0.051342 0.435820 0.326428
O O10 0.108161 0.706021 0.864161
O O11 0.717379 0.656110 0.102966
O O12 0.437986 0.254699 0.935877
O O13 0.000000 0.972646 0.750000
O O14 0.000000 0.000000 0.500000
#
# Coordination Sequence:
#
# PCOD9231533 Si02
#       7
#     4   4   2   4   4   4   2
#     4  11  26  47  73 113 153 189 243 302 366 458
#     4  11  24  40  59  94 127 181 240 300 357 436
#     4  12  20  38  62  80 122 178 234 300 356 420
#     4  11  21  41  62  86 130 177 241 301 366 420
#     4  11  24  41  64  97 142 183 237 302 375 428
#     4  11  24  48  81 110 149 199 241 295 373 452
#     4  10  20  40  62  92 128 178 242 302 352 430
#
# _framework density 22.209395000000001
#
# number of rings (size 3 to 8) (size 9 to 14) (size 15 to 20)
#    0.000    1.000    5.000    1.500    0.000    6.667 
#    1.500    0.000    0.000    0.000    0.000    0.000 
#    0.000    0.000    0.000    0.000    0.000    0.000 
#
# Total GULP energy -133954.475697 kJ/mol
# GULP energy per Si atom -5581.436487 kJ/mol
# Density = 2.215885 g / cm^3
# Si number density = 22.209395 Si / 1000 Ang^3
#
#
#
# Elastic Constant Matrix: (Units=GPa)
#
#
# Indices 1 2 3 4 5 6 
#
# 1 132.2312 35.6309 30.6027 0.0000 -21.0441 0.0000
# 2 35.6309 95.5585 21.2967 0.0000 -25.2058 0.0000
# 3 30.6027 21.2967 116.9625 0.0000 -10.5932 0.0000
# 4 0.0000 0.0000 0.0000 16.2561 0.0000 -4.5393
# 5 -21.0441 -25.2058 -10.5932 0.0000 43.6245 0.0000
# 6 0.0000 0.0000 0.0000 -4.5393 0.0000 32.3097
#
#
#
# Elastic Compliance Matrix: (Units=1/GPa)
#
#
# Indices 1 2 3 4 5 6 
#
# 1 0.008986 -0.002286 -0.001699 0.000000 0.002601 0.000000
# 2 -0.002286 0.013243 -0.001248 0.000000 0.006246 0.000000
# 3 -0.001699 -0.001248 0.009286 0.000000 0.000714 0.000000
# 4 0.000000 0.000000 0.000000 0.064027 0.000000 0.008995
# 5 0.002601 0.006246 0.000714 0.000000 0.027960 0.000000
# 6 0.000000 0.000000 0.000000 0.008995 0.000000 0.032214
#
#
# Mechanical properties :
#
#
# Convention : Reuss Voigt Hill
#
# Bulk Modulus (GPa) = 47.50675 57.75697 52.63186
# Shear Modulus (GPa) = 28.86879 35.58616 32.22747
#
# Velocity S-wave (km/s) = 3.60925 4.00722 3.81343
# Velocity P-wave (km/s) = 6.22942 6.89003 6.56804
#
# Compressibility (1/GPa) = 0.02104964
#
# Stress axis : x y z
#
# Youngs Moduli (GPa) = 111.28841 75.51406 107.68648
#
# Poissons Ratio (x) = 0.17259 0.18299
# Poissons Ratio (y) = 0.25436 0.13434
# Poissons Ratio (z) = 0.18911 0.09421
#
# Static dielectric constant tensor:
#      x y z
#    x 1.979820 0.000000 0.049040 
#    y 0.000000 1.865390 0.000000 
#    z 0.049040 0.000000 1.967110 
# 
# From -- ./inp_files/34749.got.cif
#   From: 2010.05.17/outbox.cif.g08.bks.cpg/sg13_18_cif.got.tgz:34749.got - 2010.06.03 16:44:36.
