data_PCOD9231617
_publ_section_title
;
Structure prediction by ZEFSAII (Michael W. Deem and Ramdas Pophale) SiO2 
 PCOD9231617
Probable space group: P 2/C
;
_chemical_formula_sum "Si O2"
_cell_formula_units_Z 20
_cell_length_a 13.217773
_cell_length_b 7.883919
_cell_length_c 8.423141
_cell_angle_alpha 90.000000
_cell_angle_beta 93.690469
_cell_angle_gamma 90.000000
_cell_volume 875.937257
_symmetry_space_group_name_H-M "P 2/C"
_symmetry_group_IT_number 13
_symmetry_cell_setting 'monoclinic'
loop_
_space_group_symop_operation_xyz
x,y,z
-x,y,1/2-z
-x,-y,-z
x,-y,1/2+z
loop_
_atom_site_type_symbol
_atom_site_label
_atom_site_fract_x
_atom_site_fract_y
_atom_site_fract_z
Si Si1 0.161481 0.413255 0.009547
Si Si2 0.500000 0.597528 0.250000
Si Si3 0.948607 0.755614 0.448596
Si Si4 0.466153 0.180861 0.433557
Si Si5 0.000000 0.055266 0.250000
Si Si6 0.698830 0.618752 0.707719
O O1 0.114205 0.585389 0.081793
O O2 0.231224 0.317690 0.142810
O O3 0.235214 0.486535 0.884735
O O4 0.066284 0.303006 0.943312
O O5 0.495593 0.696894 0.418374
O O6 0.397829 0.485833 0.236174
O O7 0.939238 0.821991 0.627239
O O8 0.932188 0.923893 0.344067
O O9 0.500000 0.186036 0.250000
O O10 0.347910 0.232588 0.404743
O O11 0.500000 0.000000 0.500000
#
# Coordination Sequence:
#
# PCOD9231617 Si02
#       6
#     4   2   4   4   2   4
#     4  11  23  41  71 103 133 187 249 291 352 444
#     4  12  24  48  74 100 140 192 246 314 352 436
#     4  10  22  42  66 100 143 185 234 297 357 434
#     4  12  25  46  71 102 144 189 233 307 382 428
#     4  10  20  40  66  90 146 190 214 292 376 410
#     4  12  23  43  72  99 133 186 247 301 360 432
#
# _framework density 22.832685000000001
#
# number of rings (size 3 to 8) (size 9 to 14) (size 15 to 20)
#    0.000    0.800    4.000    4.200    0.000    3.200 
#    0.000   20.000    0.000    0.000    0.000    0.000 
#    0.000    0.000    0.000    0.000    0.000    0.000 
#
# Total GULP energy -111602.991213 kJ/mol
# GULP energy per Si atom -5580.149561 kJ/mol
# Density = 2.278072 g / cm^3
# Si number density = 22.832685 Si / 1000 Ang^3
#
#
#
# Elastic Constant Matrix: (Units=GPa)
#
#
# Indices 1 2 3 4 5 6 
#
# 1 111.7552 34.9762 33.9170 0.0000 -0.3540 0.0000
# 2 34.9762 109.8304 35.8869 0.0000 10.0421 0.0000
# 3 33.9170 35.8869 129.0277 0.0000 2.4060 0.0000
# 4 0.0000 0.0000 0.0000 37.5166 0.0000 -0.9211
# 5 -0.3540 10.0421 2.4060 0.0000 35.4522 0.0000
# 6 0.0000 0.0000 0.0000 -0.9211 0.0000 16.0172
#
#
#
# Elastic Compliance Matrix: (Units=1/GPa)
#
#
# Indices 1 2 3 4 5 6 
#
# 1 0.010420 -0.002761 -0.001990 0.000000 0.001021 0.000000
# 2 -0.002761 0.011002 -0.002278 0.000000 -0.002989 0.000000
# 3 -0.001990 -0.002278 0.008907 0.000000 0.000021 0.000000
# 4 0.000000 0.000000 0.000000 0.026693 0.000000 0.001535
# 5 0.001021 -0.002989 0.000021 0.000000 0.029063 0.000000
# 6 0.000000 0.000000 0.000000 0.001535 0.000000 0.062521
#
#
# Mechanical properties :
#
#
# Convention : Reuss Voigt Hill
#
# Bulk Modulus (GPa) = 61.46719 62.24151 61.85435
# Shear Modulus (GPa) = 29.74649 34.18607 31.96628
#
# Velocity S-wave (km/s) = 3.61335 3.87362 3.74575
# Velocity P-wave (km/s) = 6.66240 6.87936 6.77175
#
# Compressibility (1/GPa) = 0.01626884
#
# Stress axis : x y z
#
# Youngs Moduli (GPa) = 95.97374 90.89165 112.27510
#
# Poissons Ratio (x) = 0.25098 0.22342
# Poissons Ratio (y) = 0.26501 0.25581
# Poissons Ratio (z) = 0.19098 0.20709
#
# Static dielectric constant tensor:
#      x y z
#    x 1.849960 0.000000 -0.047560 
#    y 0.000000 1.840730 0.000000 
#    z -0.047560 0.000000 1.979970 
# 
# From -- ./inp_files/15019.got.cif
#   From: 2010.05.17/outbox.cif.g08.bks.cpg/sg13_8_cif.got.tgz:15019.got - 2010.06.03 16:44:36.
