data_PCOD9231076
_publ_section_title
;
Structure prediction by ZEFSAII (Michael W. Deem and Ramdas Pophale) SiO2 
 PCOD9231076
Probable space group: P 2/C
;
_chemical_formula_sum "Si O2"
_cell_formula_units_Z 28
_cell_length_a 15.231870
_cell_length_b 12.280155
_cell_length_c 9.116943
_cell_angle_alpha 90.000000
_cell_angle_beta 52.365584
_cell_angle_gamma 90.000000
_cell_volume 1350.483463
_symmetry_space_group_name_H-M "P 2/C"
_symmetry_group_IT_number 13
_symmetry_cell_setting 'monoclinic'
loop_
_space_group_symop_operation_xyz
x,y,z
-x,y,1/2-z
-x,-y,-z
x,-y,1/2+z
loop_
_atom_site_type_symbol
_atom_site_label
_atom_site_fract_x
_atom_site_fract_y
_atom_site_fract_z
Si Si1 0.500000 0.014564 0.750000
Si Si2 0.653376 0.975041 0.342283
Si Si3 0.554777 0.653753 0.467053
Si Si4 0.500000 0.520776 0.250000
Si Si5 0.112975 0.615507 0.435417
Si Si6 0.686858 0.231787 0.260041
Si Si7 0.239877 0.208719 0.649090
Si Si8 0.150086 0.603936 0.739793
O O1 0.563893 0.949057 0.560575
O O2 0.400899 0.066231 0.755138
O O3 0.668667 0.105531 0.324793
O O4 0.761573 0.913506 0.287302
O O5 0.561827 0.597694 0.301497
O O6 0.568783 0.559677 0.575223
O O7 0.433156 0.707935 0.613914
O O8 0.651071 0.739060 0.388513
O O9 0.141077 0.722117 0.314508
O O10 0.157476 0.609560 0.556383
O O11 0.169124 0.515749 0.289104
O O12 0.979911 0.615651 0.585565
O O13 0.769851 0.305237 0.272113
O O14 0.739630 0.221960 0.044052
#
# Coordination Sequence:
#
# PCOD9231076 Si02
#       8
#     2   4   4   2   4   4   4   4
#     4  10  20  38  64  82 134 174 218 258 302 384
#     4  11  24  40  63  94 126 178 227 265 320 376
#     4  11  24  38  59  92 131 172 204 258 321 386
#     4  10  24  40  54  86 136 166 210 248 322 384
#     4  10  24  45  70  98 128 168 217 268 326 388
#     4  12  25  41  65  93 133 171 215 270 318 388
#     4  12  25  41  65  93 133 171 215 270 318 388
#     4  10  24  45  70  98 128 168 217 268 326 388
#
# _framework density 20.733317
#
# number of rings (size 3 to 8) (size 9 to 14) (size 15 to 20)
#    0.000    1.143    2.857    2.571    8.000    2.857 
#    0.000    0.714    0.000    0.000    0.000    0.000 
#    0.000    0.000    0.000    0.000    0.000    0.000 
#
# Total GULP energy -156291.550408 kJ/mol
# GULP energy per Si atom -5581.841086 kJ/mol
# Density = 2.068613 g / cm^3
# Si number density = 20.733317 Si / 1000 Ang^3
#
#
#
# Elastic Constant Matrix: (Units=GPa)
#
#
# Indices 1 2 3 4 5 6 
#
# 1 51.9160 13.2813 16.6246 0.0000 5.0540 0.0000
# 2 13.2813 89.6060 18.2942 0.0000 -3.1620 0.0000
# 3 16.6246 18.2942 76.6582 0.0000 3.7734 0.0000
# 4 0.0000 0.0000 0.0000 10.5744 0.0000 0.8244
# 5 5.0540 -3.1620 3.7734 0.0000 23.2986 0.0000
# 6 0.0000 0.0000 0.0000 0.8244 0.0000 31.7546
#
#
#
# Elastic Compliance Matrix: (Units=1/GPa)
#
#
# Indices 1 2 3 4 5 6 
#
# 1 0.021581 -0.002568 -0.003850 0.000000 -0.004406 0.000000
# 2 -0.002568 0.012136 -0.002468 0.000000 0.002604 0.000000
# 3 -0.003850 -0.002468 0.014560 0.000000 -0.001858 0.000000
# 4 0.000000 0.000000 0.000000 0.094760 0.000000 -0.002460
# 5 -0.004406 0.002604 -0.001858 0.000000 0.044531 0.000000
# 6 0.000000 0.000000 0.000000 -0.002460 0.000000 0.031555
#
#
# Mechanical properties :
#
#
# Convention : Reuss Voigt Hill
#
# Bulk Modulus (GPa) = 32.78116 34.95340 33.86728
# Shear Modulus (GPa) = 20.23768 24.45753 22.34761
#
# Velocity S-wave (km/s) = 3.12764 3.43829 3.28664
# Velocity P-wave (km/s) = 5.37476 5.71469 5.54733
#
# Compressibility (1/GPa) = 0.03050533
#
# Stress axis : x y z
#
# Youngs Moduli (GPa) = 46.33755 82.39774 68.68017
#
# Poissons Ratio (x) = 0.21160 0.26445
# Poissons Ratio (y) = 0.11900 0.16947
# Poissons Ratio (z) = 0.17842 0.20332
#
# Static dielectric constant tensor:
#      x y z
#    x 1.793350 0.000000 0.004070 
#    y 0.000000 1.786480 0.000000 
#    z 0.004070 0.000000 1.715860 
# 
# From -- ./inp_files/18725.got.cif
#   From: 2010.05.17/outbox.cif.g08.bks.cpg/sg13_10_cif.got.tgz:18725.got - 2010.06.03 16:44:36.
