data_PCOD9231484
_publ_section_title
;
Structure prediction by ZEFSAII (Michael W. Deem and Ramdas Pophale) SiO2 
 PCOD9231484
Probable space group: P 2/C
;
_chemical_formula_sum "Si O2"
_cell_formula_units_Z 26
_cell_length_a 23.861182
_cell_length_b 8.157569
_cell_length_c 9.390527
_cell_angle_alpha 90.000000
_cell_angle_beta 140.879615
_cell_angle_gamma 90.000000
_cell_volume 1153.291017
_symmetry_space_group_name_H-M "P 2/C"
_symmetry_group_IT_number 13
_symmetry_cell_setting 'monoclinic'
loop_
_space_group_symop_operation_xyz
x,y,z
-x,y,1/2-z
-x,-y,-z
x,-y,1/2+z
loop_
_atom_site_type_symbol
_atom_site_label
_atom_site_fract_x
_atom_site_fract_y
_atom_site_fract_z
Si Si1 0.500000 0.340894 0.250000
Si Si2 0.347179 0.474000 0.316086
Si Si3 0.196084 0.033020 0.891045
Si Si4 0.757415 0.209429 0.240578
Si Si5 0.683604 0.298127 0.522701
Si Si6 0.080048 0.411517 0.019851
Si Si7 0.967390 0.769558 0.524829
O O1 0.553729 0.459590 0.462752
O O2 0.580858 0.240524 0.339992
O O3 0.290640 0.618674 0.278425
O O4 0.326946 0.306181 0.363132
O O5 0.323847 0.442545 0.108412
O O6 0.216564 0.066290 0.096264
O O7 0.252821 0.166797 0.916193
O O8 0.093914 0.084353 0.656867
O O9 0.235199 0.867379 0.901333
O O10 0.836245 0.340911 0.396311
O O11 0.090450 0.599803 0.088291
O O12 0.000000 0.413260 0.750000
O O13 0.048934 0.291268 0.086308
O O14 0.000000 0.805371 0.750000
#
# Coordination Sequence:
#
# PCOD9231484 Si02
#       7
#     2   4   4   4   4   4   4
#     4   8  18  36  64  94 108 140 192 236 298 332
#     4   9  19  36  61  88 115 142 187 240 284 341
#     4  11  24  40  54  85 120 158 191 233 284 346
#     4  11  24  39  56  83 121 158 192 232 286 339
#     4   9  19  36  62  87 115 140 191 238 286 337
#     4  10  20  40  60  83 113 150 193 249 279 326
#     4  10  22  38  62  86 112 149 199 242 289 328
#
# _framework density 22.544181999999999
#
# number of rings (size 3 to 8) (size 9 to 14) (size 15 to 20)
#    0.923    1.231    1.538    1.385    2.154    2.462 
#    0.000    0.769    0.000    3.692    0.000    0.000 
#    0.000    0.000    0.000    0.000    0.000    0.000 
#
# Total GULP energy -144995.570477 kJ/mol
# GULP energy per Si atom -5576.752711 kJ/mol
# Density = 2.249287 g / cm^3
# Si number density = 22.544182 Si / 1000 Ang^3
#
#
#
# Elastic Constant Matrix: (Units=GPa)
#
#
# Indices 1 2 3 4 5 6 
#
# 1 84.0584 -3.3177 13.6043 0.0000 0.8716 0.0000
# 2 -3.3177 28.0192 5.2661 0.0000 -4.2348 0.0000
# 3 13.6043 5.2661 39.8498 0.0000 -5.4022 0.0000
# 4 0.0000 0.0000 0.0000 2.4496 0.0000 -2.5773
# 5 0.8716 -4.2348 -5.4022 0.0000 35.5967 0.0000
# 6 0.0000 0.0000 0.0000 -2.5773 0.0000 35.9088
#
#
#
# Elastic Compliance Matrix: (Units=1/GPa)
#
#
# Indices 1 2 3 4 5 6 
#
# 1 0.012766 0.002292 -0.004764 0.000000 -0.000763 0.000000
# 2 0.002292 0.037493 -0.005248 0.000000 0.003608 0.000000
# 3 -0.004764 -0.005248 0.027920 0.000000 0.003730 0.000000
# 4 0.000000 0.000000 0.000000 0.441574 0.000000 0.031693
# 5 -0.000763 0.003608 0.003730 0.000000 0.029106 0.000000
# 6 0.000000 0.000000 0.000000 0.031693 0.000000 0.030123
#
#
# Mechanical properties :
#
#
# Convention : Reuss Voigt Hill
#
# Bulk Modulus (GPa) = 15.93946 20.33698 18.13822
# Shear Modulus (GPa) = 8.12564 23.88265 16.00414
#
# Velocity S-wave (km/s) = 1.90056 3.25833 2.66729
# Velocity P-wave (km/s) = 3.44991 4.81624 4.18915
#
# Compressibility (1/GPa) = 0.06273737
#
# Stress axis : x y z
#
# Youngs Moduli (GPa) = 78.33340 26.67175 35.81677
#
# Poissons Ratio (x) = -0.06112 0.17065
# Poissons Ratio (y) = -0.17952 0.18796
# Poissons Ratio (z) = 0.37321 0.13997
#
# Static dielectric constant tensor:
#      x y z
#    x 1.871320 0.000000 0.019970 
#    y 0.000000 1.870260 0.000000 
#    z 0.019970 0.000000 1.846480 
# 
# From -- ./inp_files/22829.got.cif
#   From: 2010.05.17/outbox.cif.g08.bks.cpg/sg13_12_cif.got.tgz:22829.got - 2010.06.03 16:44:36.
