data_PCOD9231948
_publ_section_title
;
Structure prediction by ZEFSAII (Michael W. Deem and Ramdas Pophale) SiO2 
 PCOD9231948
Probable space group: P 2/C
;
_chemical_formula_sum "Si O2"
_cell_formula_units_Z 20
_cell_length_a 9.161759
_cell_length_b 11.801317
_cell_length_c 10.384062
_cell_angle_alpha 90.000000
_cell_angle_beta 58.582446
_cell_angle_gamma 90.000000
_cell_volume 958.130661
_symmetry_space_group_name_H-M "P 2/C"
_symmetry_group_IT_number 13
_symmetry_cell_setting 'monoclinic'
loop_
_space_group_symop_operation_xyz
x,y,z
-x,y,1/2-z
-x,-y,-z
x,-y,1/2+z
loop_
_atom_site_type_symbol
_atom_site_label
_atom_site_fract_x
_atom_site_fract_y
_atom_site_fract_z
Si Si1 0.000000 0.137159 0.250000
Si Si2 0.729744 0.703426 0.815508
Si Si3 0.500000 0.146585 0.250000
Si Si4 0.301630 0.271259 0.863780
Si Si5 0.884346 0.526582 0.176109
Si Si6 0.193232 0.024155 0.957386
O O1 0.099766 0.223096 0.299337
O O2 0.848658 0.059922 0.375958
O O3 0.571413 0.771886 0.829740
O O4 0.751054 0.576834 0.754126
O O5 0.730525 0.701244 0.970331
O O6 0.659682 0.068544 0.130201
O O7 0.500000 0.286933 0.750000
O O8 0.202937 0.354678 0.814736
O O9 0.253979 0.140543 0.864153
O O10 0.000000 0.529293 0.250000
O O11 0.000000 0.500000 0.000000
O O12 0.000000 0.000000 0.000000
#
# Coordination Sequence:
#
# PCOD9231948 Si02
#       6
#     2   4   2   4   4   4
#     4  10  20  42  72  92 146 190 230 304 376 420
#     4  11  24  45  69 104 143 192 242 303 372 435
#     4  12  26  42  78 106 142 194 254 296 378 442
#     4  11  26  46  69 105 150 185 241 314 363 431
#     4  12  24  47  75 104 143 194 247 297 370 443
#     4  11  23  45  69 105 142 194 242 304 362 443
#
# _framework density 20.873981000000001
#
# number of rings (size 3 to 8) (size 9 to 14) (size 15 to 20)
#    0.000    0.800    6.000    1.200    1.400    7.200 
#    1.800    0.000    0.000    0.000    0.000    0.000 
#    0.000    0.000    0.000    0.000    0.000    0.000 
#
# Total GULP energy -111665.023711 kJ/mol
# GULP energy per Si atom -5583.251186 kJ/mol
# Density = 2.082647 g / cm^3
# Si number density = 20.873981 Si / 1000 Ang^3
#
#
#
# Elastic Constant Matrix: (Units=GPa)
#
#
# Indices 1 2 3 4 5 6 
#
# 1 125.9725 70.6742 35.2318 0.0000 -6.8202 0.0000
# 2 70.6742 138.7151 36.8108 0.0000 4.2704 0.0000
# 3 35.2318 36.8108 82.4797 0.0000 -6.7843 0.0000
# 4 0.0000 0.0000 0.0000 24.0906 0.0000 -1.1996
# 5 -6.8202 4.2704 -6.7843 0.0000 31.2126 0.0000
# 6 0.0000 0.0000 0.0000 -1.1996 0.0000 49.2454
#
#
#
# Elastic Compliance Matrix: (Units=1/GPa)
#
#
# Indices 1 2 3 4 5 6 
#
# 1 0.011832 -0.005485 -0.002374 0.000000 0.002820 0.000000
# 2 -0.005485 0.010838 -0.002764 0.000000 -0.003282 0.000000
# 3 -0.002374 -0.002764 0.014622 0.000000 0.003038 0.000000
# 4 0.000000 0.000000 0.000000 0.041560 0.000000 0.001012
# 5 0.002820 -0.003282 0.003038 0.000000 0.033764 0.000000
# 6 0.000000 0.000000 0.000000 0.001012 0.000000 0.020331
#
#
# Mechanical properties :
#
#
# Convention : Reuss Voigt Hill
#
# Bulk Modulus (GPa) = 62.32339 70.28898 66.30619
# Shear Modulus (GPa) = 31.33947 34.53974 32.93960
#
# Velocity S-wave (km/s) = 3.87895 4.07219 3.97674
# Velocity P-wave (km/s) = 7.06990 7.47371 7.27461
#
# Compressibility (1/GPa) = 0.01604534
#
# Stress axis : x y z
#
# Youngs Moduli (GPa) = 84.51439 92.26598 68.39095
#
# Poissons Ratio (x) = 0.50610 0.16238
# Poissons Ratio (y) = 0.46358 0.18904
# Poissons Ratio (z) = 0.20066 0.25503
#
# Static dielectric constant tensor:
#      x y z
#    x 1.773030 0.000000 0.033620 
#    y 0.000000 1.798000 0.000000 
#    z 0.033620 0.000000 1.774130 
# 
# From -- ./inp_files/28960.got.cif
#   From: 2010.05.17/outbox.cif.g08.bks.cpg/sg13_15_cif.got.tgz:28960.got - 2010.06.03 16:44:36.
