data_PCOD9231194
_publ_section_title
;
Structure prediction by ZEFSAII (Michael W. Deem and Ramdas Pophale) SiO2 
 PCOD9231194
Probable space group: P 2/C
;
_chemical_formula_sum "Si O2"
_cell_formula_units_Z 24
_cell_length_a 15.546253
_cell_length_b 8.344340
_cell_length_c 15.810321
_cell_angle_alpha 90.000000
_cell_angle_beta 142.689982
_cell_angle_gamma 90.000000
_cell_volume 1243.146703
_symmetry_space_group_name_H-M "P 2/C"
_symmetry_group_IT_number 13
_symmetry_cell_setting 'monoclinic'
loop_
_space_group_symop_operation_xyz
x,y,z
-x,y,1/2-z
-x,-y,-z
x,-y,1/2+z
loop_
_atom_site_type_symbol
_atom_site_label
_atom_site_fract_x
_atom_site_fract_y
_atom_site_fract_z
Si Si1 0.467772 0.156973 0.415822
Si Si2 0.188201 0.365425 0.969985
Si Si3 0.500000 0.250467 0.250000
Si Si4 0.000000 0.638583 0.750000
Si Si5 0.229171 0.214528 0.823315
Si Si6 0.834393 0.841453 0.752429
Si Si7 0.002489 0.313361 0.526198
O O1 0.476311 0.147975 0.319070
O O2 0.605510 0.259703 0.546393
O O3 0.314483 0.219140 0.324209
O O4 0.500000 0.000000 0.500000
O O5 0.170228 0.281062 0.865233
O O6 0.106605 0.280579 0.982506
O O7 0.100881 0.530185 0.888894
O O8 0.356359 0.355078 0.123093
O O9 0.889171 0.744645 0.715181
O O10 0.156373 0.284431 0.684234
O O11 0.194701 0.025658 0.792537
O O12 0.956107 0.805594 0.916107
O O13 0.000000 0.500000 0.500000
#
# Coordination Sequence:
#
# PCOD9231194 Si02
#       7
#     4   4   2   2   4   4   4
#     4   9  20  40  61  95 122 159 207 254 310 373
#     4  11  21  40  61  87 123 161 204 247 314 363
#     4  10  20  38  68  84 120 172 202 254 314 374
#     4  12  24  40  60  92 128 162 202 264 298 368
#     4  10  22  40  64  88 121 161 201 253 307 364
#     4  11  23  40  62  91 125 159 209 251 307 366
#     4  12  21  39  61  89 123 159 200 256 299 367
#
# _framework density 19.305845999999999
#
# number of rings (size 3 to 8) (size 9 to 14) (size 15 to 20)
#    0.000    1.333    5.000    0.500    2.333    0.000 
#    3.000    2.500    0.000    1.000    0.000    0.000 
#    0.000    0.000    0.000    0.000    0.000    0.000 
#
# Total GULP energy -133637.221126 kJ/mol
# GULP energy per Si atom -5568.217547 kJ/mol
# Density = 1.926191 g / cm^3
# Si number density = 19.305846 Si / 1000 Ang^3
#
#
#
# Elastic Constant Matrix: (Units=GPa)
#
#
# Indices 1 2 3 4 5 6 
#
# 1 101.9417 14.6848 28.0290 0.0000 1.0057 0.0000
# 2 14.6848 53.2668 19.6205 0.0000 -0.2848 0.0000
# 3 28.0290 19.6205 125.8562 0.0000 3.2779 0.0000
# 4 0.0000 0.0000 0.0000 5.8232 0.0000 -11.4715
# 5 1.0057 -0.2848 3.2779 0.0000 24.8974 0.0000
# 6 0.0000 0.0000 0.0000 -11.4715 0.0000 21.8547
#
#
#
# Elastic Compliance Matrix: (Units=1/GPa)
#
#
# Indices 1 2 3 4 5 6 
#
# 1 0.010687 -0.002199 -0.002032 0.000000 -0.000189 0.000000
# 2 -0.002199 0.020380 -0.002705 0.000000 0.000678 0.000000
# 3 -0.002032 -0.002705 0.008849 0.000000 -0.001114 0.000000
# 4 0.000000 0.000000 0.000000 -5.047149 0.000000 -2.649233
# 5 -0.000189 0.000678 -0.001114 0.000000 0.040327 0.000000
# 6 0.000000 0.000000 0.000000 -2.649233 0.000000 -1.344818
#
#
# Mechanical properties :
#
#
# Convention : Reuss Voigt Hill
#
# Bulk Modulus (GPa) = 38.39770 45.08150 41.73960
# Shear Modulus (GPa) = -0.79502 25.09709 12.15103
#
# Velocity S-wave (km/s) = -0.64241 3.60943 2.51150
# Velocity P-wave (km/s) = 4.40251 6.38534 5.48428
#
# Compressibility (1/GPa) = 0.02604323
#
# Stress axis : x y z
#
# Youngs Moduli (GPa) = 93.57247 49.06874 113.00807
#
# Poissons Ratio (x) = 0.10788 0.22967
# Poissons Ratio (y) = 0.20573 0.30570
# Poissons Ratio (z) = 0.19017 0.13274
#
# Static dielectric constant tensor:
#      x y z
#    x 1.753420 0.000000 0.014230 
#    y 0.000000 1.672180 0.000000 
#    z 0.014230 0.000000 1.716990 
# 
# From -- ./inp_files/53265.got.cif
#   From: 2010.05.17/outbox.cif.g08.bks.cpg/sg13_27_cif.got.tgz:53265.got - 2010.06.03 16:44:36.
