data_PCOD9231234
_publ_section_title
;
Structure prediction by ZEFSAII (Michael W. Deem and Ramdas Pophale) SiO2 
 PCOD9231234
Probable space group: P 2/C
;
_chemical_formula_sum "Si O2"
_cell_formula_units_Z 22
_cell_length_a 9.465274
_cell_length_b 7.037692
_cell_length_c 18.258924
_cell_angle_alpha 90.000000
_cell_angle_beta 129.082695
_cell_angle_gamma 90.000000
_cell_volume 944.132366
_symmetry_space_group_name_H-M "P 2/C"
_symmetry_group_IT_number 13
_symmetry_cell_setting 'monoclinic'
loop_
_space_group_symop_operation_xyz
x,y,z
-x,y,1/2-z
-x,-y,-z
x,-y,1/2+z
loop_
_atom_site_type_symbol
_atom_site_label
_atom_site_fract_x
_atom_site_fract_y
_atom_site_fract_z
Si Si1 0.676519 0.918005 0.095685
Si Si2 0.940477 0.173341 0.091377
Si Si3 0.090711 0.598955 0.358629
Si Si4 0.134927 0.660015 0.078786
Si Si5 0.648103 0.092353 0.243843
Si Si6 0.500000 0.457226 0.250000
O O1 0.843715 0.031100 0.114688
O O2 0.665601 0.969377 0.177172
O O3 0.715398 0.700404 0.087608
O O4 0.500000 0.000000 0.000000
O O5 0.907444 0.381126 0.116048
O O6 0.154483 0.129772 0.157263
O O7 0.857527 0.182625 0.982360
O O8 0.000000 0.614914 0.250000
O O9 0.968189 0.705470 0.379671
O O10 0.330308 0.574587 0.163740
O O11 0.000000 0.500000 0.000000
O O12 0.500000 0.001980 0.250000
O O13 0.568812 0.308120 0.209737
#
# Coordination Sequence:
#
# PCOD9231234 Si02
#       6
#     4   4   4   4   4   2
#     4  12  29  44  66 111 141 189 245 295 364 435
#     4  11  24  47  77  98 146 190 235 303 373 418
#     4  11  23  43  71  97 141 180 239 292 359 432
#     4  10  21  41  68 110 132 188 239 293 360 436
#     4  10  21  44  76  99 143 195 235 292 372 435
#     4  10  20  38  78 104 144 184 254 284 372 438
#
# _framework density 23.301818999999998
#
# number of rings (size 3 to 8) (size 9 to 14) (size 15 to 20)
#    0.545    0.727    3.636    2.727    7.636    2.909 
#    3.273    0.000    0.000    1.091    0.000    0.000 
#    0.000    0.000    0.000    0.000    0.000    0.000 
#
# Total GULP energy -123039.468601 kJ/mol
# GULP energy per Si atom -5592.703118 kJ/mol
# Density = 2.324878 g / cm^3
# Si number density = 23.301819 Si / 1000 Ang^3
#
#
#
# Elastic Constant Matrix: (Units=GPa)
#
#
# Indices 1 2 3 4 5 6 
#
# 1 161.0446 62.0403 69.9799 0.0000 -12.9473 0.0000
# 2 62.0403 78.4021 31.4414 0.0000 3.5533 0.0000
# 3 69.9799 31.4414 118.8451 0.0000 -0.8943 0.0000
# 4 0.0000 0.0000 0.0000 6.2336 0.0000 8.9577
# 5 -12.9473 3.5533 -0.8943 0.0000 59.2066 0.0000
# 6 0.0000 0.0000 0.0000 8.9577 0.0000 30.7189
#
#
#
# Elastic Compliance Matrix: (Units=1/GPa)
#
#
# Indices 1 2 3 4 5 6 
#
# 1 0.011223 -0.007122 -0.004703 0.000000 0.002811 0.000000
# 2 -0.007122 0.018838 -0.000810 0.000000 -0.002700 0.000000
# 3 -0.004703 -0.000810 0.011392 0.000000 -0.000808 0.000000
# 4 0.000000 0.000000 0.000000 0.276125 0.000000 -0.080518
# 5 0.002811 -0.002700 -0.000808 0.000000 0.017654 0.000000
# 6 0.000000 0.000000 0.000000 -0.080518 0.000000 0.056033
#
#
# Mechanical properties :
#
#
# Convention : Reuss Voigt Hill
#
# Bulk Modulus (GPa) = 61.79789 76.13501 68.96645
# Shear Modulus (GPa) = 11.85034 32.22051 22.03542
#
# Velocity S-wave (km/s) = 2.25757 3.72256 3.07848
# Velocity P-wave (km/s) = 5.77700 7.15688 6.50364
#
# Compressibility (1/GPa) = 0.01618178
#
# Stress axis : x y z
#
# Youngs Moduli (GPa) = 89.10528 53.08478 87.78181
#
# Poissons Ratio (x) = 0.37807 0.41283
# Poissons Ratio (y) = 0.63461 0.07113
# Poissons Ratio (z) = 0.41906 0.04302
#
# Static dielectric constant tensor:
#      x y z
#    x 1.827130 0.000000 -0.020910 
#    y 0.000000 1.963230 0.000000 
#    z -0.020910 0.000000 1.851890 
# 
# From -- ./inp_files/63947.got.cif
#   From: 2010.05.17/outbox.cif.g08.bks.cpg/sg13_32_cif.got.tgz:63947.got - 2010.06.03 16:44:36.
