data_PCOD9231219
_publ_section_title
;
Structure prediction by ZEFSAII (Michael W. Deem and Ramdas Pophale) SiO2 
 PCOD9231219
Probable space group: P 2/C
;
_chemical_formula_sum "Si O2"
_cell_formula_units_Z 20
_cell_length_a 6.940980
_cell_length_b 5.782419
_cell_length_c 21.185828
_cell_angle_alpha 90.000000
_cell_angle_beta 96.645184
_cell_angle_gamma 90.000000
_cell_volume 844.594556
_symmetry_space_group_name_H-M "P 2/C"
_symmetry_group_IT_number 13
_symmetry_cell_setting 'monoclinic'
loop_
_space_group_symop_operation_xyz
x,y,z
-x,y,1/2-z
-x,-y,-z
x,-y,1/2+z
loop_
_atom_site_type_symbol
_atom_site_label
_atom_site_fract_x
_atom_site_fract_y
_atom_site_fract_z
Si Si1 0.500000 0.927576 0.250000
Si Si2 0.781389 0.491629 0.463763
Si Si3 0.827990 0.007965 0.658500
Si Si4 0.000000 0.341812 0.250000
Si Si5 0.770951 0.007614 0.010256
Si Si6 0.185697 0.643404 0.173678
O O1 0.331214 0.013511 0.291908
O O2 0.364252 0.809818 0.191883
O O3 0.698006 0.242429 0.482122
O O4 0.786596 0.502127 0.388675
O O5 0.000000 0.500000 0.500000
O O6 0.698248 0.745036 0.480595
O O7 0.751018 0.986476 0.585078
O O8 0.977567 0.225182 0.663932
O O9 0.965380 0.799883 0.685519
O O10 0.181939 0.495672 0.237566
O O11 0.000000 0.000000 0.000000
#
# Coordination Sequence:
#
# PCOD9231219 Si02
#       6
#     2   4   4   2   4   4
#     4  12  26  46  60 110 142 184 230 296 356 424
#     4  10  20  38  70  99 128 182 236 286 352 418
#     4  12  24  44  69  98 143 180 234 291 353 424
#     4  12  22  42  72  98 130 204 230 288 350 424
#     4  10  20  38  70  99 128 182 236 286 352 418
#     4  12  24  44  69  98 143 180 234 291 353 424
#
# _framework density 23.680002999999999
#
# number of rings (size 3 to 8) (size 9 to 14) (size 15 to 20)
#    0.000    0.800    8.000    2.400    0.000    0.800 
#    0.000    2.000    0.000    0.000    0.000    0.000 
#    0.000    0.000    0.000    0.000    0.000    0.000 
#
# Total GULP energy -111398.999434 kJ/mol
# GULP energy per Si atom -5569.949972 kJ/mol
# Density = 2.362611 g / cm^3
# Si number density = 23.680003 Si / 1000 Ang^3
#
#
#
# Elastic Constant Matrix: (Units=GPa)
#
#
# Indices 1 2 3 4 5 6 
#
# 1 78.2393 10.4334 11.6946 0.0000 -23.2242 0.0000
# 2 10.4334 162.3666 49.0732 0.0000 -4.7261 0.0000
# 3 11.6946 49.0732 136.1993 0.0000 8.6972 0.0000
# 4 0.0000 0.0000 0.0000 58.7061 0.0000 -10.8114
# 5 -23.2242 -4.7261 8.6972 0.0000 12.2175 0.0000
# 6 0.0000 0.0000 0.0000 -10.8114 0.0000 -16.5730
#
#
#
# Elastic Compliance Matrix: (Units=1/GPa)
#
#
# Indices 1 2 3 4 5 6 
#
# 1 0.036690 0.002615 -0.009021 0.000000 0.077176 0.000000
# 2 0.002615 0.007361 -0.003537 0.000000 0.010336 0.000000
# 3 -0.009021 -0.003537 0.011077 0.000000 -0.026401 0.000000
# 4 0.000000 0.000000 0.000000 0.015207 0.000000 -0.009920
# 5 0.077176 0.010336 -0.026401 0.000000 0.251346 0.000000
# 6 0.000000 0.000000 0.000000 -0.009920 0.000000 -0.053868
#
#
# Mechanical properties :
#
#
# Convention : Reuss Voigt Hill
#
# Bulk Modulus (GPa) = 28.37476 57.68973 43.03224
# Shear Modulus (GPa) = 16.69758 31.24370 23.97064
#
# Velocity S-wave (km/s) = 2.65832 3.63631 3.18508
# Velocity P-wave (km/s) = 4.62934 6.48425 5.63366
#
# Compressibility (1/GPa) = 0.03524259
#
# Stress axis : x y z
#
# Youngs Moduli (GPa) = 27.25575 135.85790 90.27796
#
# Poissons Ratio (x) = -0.35530 0.81438
# Poissons Ratio (y) = -0.07128 0.31928
# Poissons Ratio (z) = 0.24587 0.48048
#
# Static dielectric constant tensor:
#      x y z
#    x 1.862820 0.000000 -0.025820 
#    y 0.000000 1.959860 0.000000 
#    z -0.025820 0.000000 1.795430 
# 
# From -- ./inp_files/74208.got.cif
#   From: 2010.05.17/outbox.cif.g08.bks.cpg/sg13_38_cif.got.tgz:74208.got - 2010.06.03 16:44:36.
