data_PCOD9231829
_publ_section_title
;
Structure prediction by ZEFSAII (Michael W. Deem and Ramdas Pophale) SiO2 
 PCOD9231829
Probable space group: P 2/C
;
_chemical_formula_sum "Si O2"
_cell_formula_units_Z 20
_cell_length_a 10.311886
_cell_length_b 4.888331
_cell_length_c 19.777470
_cell_angle_alpha 90.000000
_cell_angle_beta 114.222418
_cell_angle_gamma 90.000000
_cell_volume 909.169942
_symmetry_space_group_name_H-M "P 2/C"
_symmetry_group_IT_number 13
_symmetry_cell_setting 'monoclinic'
loop_
_space_group_symop_operation_xyz
x,y,z
-x,y,1/2-z
-x,-y,-z
x,-y,1/2+z
loop_
_atom_site_type_symbol
_atom_site_label
_atom_site_fract_x
_atom_site_fract_y
_atom_site_fract_z
Si Si1 0.819517 0.194394 0.949135
Si Si2 0.160982 0.319419 0.806332
Si Si3 0.406294 0.546922 0.672758
Si Si4 0.312503 0.177980 0.280068
Si Si5 0.112646 0.703167 0.450755
O O1 0.681239 0.338443 0.890030
O O2 0.947721 0.206595 0.922277
O O3 0.873988 0.392339 0.021300
O O4 0.805797 0.895386 0.977942
O O5 0.203719 0.626405 0.796204
O O6 0.170281 0.268412 0.888102
O O7 0.000000 0.265009 0.750000
O O8 0.267579 0.124948 0.788318
O O9 0.500000 0.389273 0.750000
O O10 0.527345 0.733905 0.664241
O O11 0.309133 0.742267 0.699648
#
# Coordination Sequence:
#
# PCOD9231829 Si02
#       5
#     4   4   4   4   4
#     4  10  20  42  58  90 117 158 200 247 287 358
#     4  12  22  39  59  88 123 154 197 250 300 356
#     4   8  21  42  65  85 119 160 205 244 288 358
#     4   9  23  37  60  89 113 154 208 235 301 346
#     4  10  23  35  63  87 121 154 199 243 306 341
#
# _framework density 21.998090000000001
#
# number of rings (size 3 to 8) (size 9 to 14) (size 15 to 20)
#    1.200    0.800    0.000    3.000    0.000   11.200 
#    0.000    6.000    0.000    0.000    0.000    0.000 
#    0.000    0.000    0.000    0.000    0.000    0.000 
#
# Total GULP energy -111744.923628 kJ/mol
# GULP energy per Si atom -5587.246181 kJ/mol
# Density = 2.194802 g / cm^3
# Si number density = 21.998090 Si / 1000 Ang^3
#
#
#
# Elastic Constant Matrix: (Units=GPa)
#
#
# Indices 1 2 3 4 5 6 
#
# 1 88.4067 5.3038 28.2447 0.0000 -9.2573 0.0000
# 2 5.3038 70.9146 -3.2201 0.0000 -5.1320 0.0000
# 3 28.2447 -3.2201 45.3485 0.0000 -2.0226 0.0000
# 4 0.0000 0.0000 0.0000 14.2217 0.0000 -4.3459
# 5 -9.2573 -5.1320 -2.0226 0.0000 33.1969 0.0000
# 6 0.0000 0.0000 0.0000 -4.3459 0.0000 30.6879
#
#
#
# Elastic Compliance Matrix: (Units=1/GPa)
#
#
# Indices 1 2 3 4 5 6 
#
# 1 0.014628 -0.001264 -0.009052 0.000000 0.003332 0.000000
# 2 -0.001264 0.014427 0.001901 0.000000 0.001994 0.000000
# 3 -0.009052 0.001901 0.027800 0.000000 -0.000537 0.000000
# 4 0.000000 0.000000 0.000000 0.073496 0.000000 0.010408
# 5 0.003332 0.001994 -0.000537 0.000000 0.031328 0.000000
# 6 0.000000 0.000000 0.000000 0.010408 0.000000 0.034060
#
#
# Mechanical properties :
#
#
# Convention : Reuss Voigt Hill
#
# Bulk Modulus (GPa) = 24.98489 29.48074 27.23281
# Shear Modulus (GPa) = 22.13258 27.24407 24.68832
#
# Velocity S-wave (km/s) = 3.17537 3.52301 3.35370
# Velocity P-wave (km/s) = 4.98261 5.47535 5.23478
#
# Compressibility (1/GPa) = 0.04002420
#
# Stress axis : x y z
#
# Youngs Moduli (GPa) = 68.36144 69.31651 35.97071
#
# Poissons Ratio (x) = 0.08761 0.32561
# Poissons Ratio (y) = 0.08640 -0.06836
# Poissons Ratio (z) = 0.61881 -0.13174
#
# Static dielectric constant tensor:
#      x y z
#    x 1.794590 0.000000 0.027490 
#    y 0.000000 1.787990 0.000000 
#    z 0.027490 0.000000 1.821150 
# 
# From -- ./inp_files/74623.got.cif
#   From: 2010.05.17/outbox.cif.g08.bks.cpg/sg13_38_cif.got.tgz:74623.got - 2010.06.03 16:44:36.
