data_PCOD9231610
_publ_section_title
;
Structure prediction by ZEFSAII (Michael W. Deem and Ramdas Pophale) SiO2 
 PCOD9231610
Probable space group: P 2/C
;
_chemical_formula_sum "Si O2"
_cell_formula_units_Z 26
_cell_length_a 9.483888
_cell_length_b 17.398510
_cell_length_c 10.861199
_cell_angle_alpha 90.000000
_cell_angle_beta 139.087014
_cell_angle_gamma 90.000000
_cell_volume 1173.705840
_symmetry_space_group_name_H-M "P 2/C"
_symmetry_group_IT_number 13
_symmetry_cell_setting 'monoclinic'
loop_
_space_group_symop_operation_xyz
x,y,z
-x,y,1/2-z
-x,-y,-z
x,-y,1/2+z
loop_
_atom_site_type_symbol
_atom_site_label
_atom_site_fract_x
_atom_site_fract_y
_atom_site_fract_z
Si Si1 0.804223 0.204648 0.446920
Si Si2 0.500000 0.933202 0.250000
Si Si3 0.779658 0.431482 0.248525
Si Si4 0.242521 0.944747 0.441708
Si Si5 0.476850 0.723604 0.924383
Si Si6 0.284495 0.179813 0.757081
Si Si7 0.732236 0.446528 0.936838
O O1 0.712529 0.224237 0.254572
O O2 0.771753 0.114525 0.453213
O O3 0.673991 0.256551 0.460411
O O4 0.054872 0.218208 0.620174
O O5 0.688912 0.873369 0.342861
O O6 0.592930 0.988855 0.416229
O O7 0.744500 0.485212 0.343860
O O8 0.032853 0.405446 0.421395
O O9 0.612156 0.361602 0.141019
O O10 0.307896 0.885268 0.378548
O O11 0.000000 0.972160 0.250000
O O12 0.543385 0.754660 0.101029
O O13 0.261369 0.530216 0.913567
O O14 0.500000 0.408933 0.750000
#
# Coordination Sequence:
#
# PCOD9231610 Si02
#       7
#     4   2   4   4   4   4   4
#     4   9  20  39  63  89 121 162 226 275 305 386
#     4  12  22  34  58  90 124 172 204 266 344 386
#     4  10  23  42  71 101 132 177 224 264 341 398
#     4   9  19  36  60  84 118 165 219 270 319 377
#     4  10  20  40  66  88 118 169 214 267 317 392
#     4  10  22  39  56  92 129 161 219 272 320 396
#     4  10  22  44  67 101 140 170 212 280 323 402
#
# _framework density 22.152058
#
# number of rings (size 3 to 8) (size 9 to 14) (size 15 to 20)
#    0.000    2.154    0.000    4.154    2.154    4.923 
#    6.923    0.000    3.385    0.000    0.000    0.000 
#    0.000    0.000    0.000    0.000    0.000    0.000 
#
# Total GULP energy -144865.368909 kJ/mol
# GULP energy per Si atom -5571.744958 kJ/mol
# Density = 2.210164 g / cm^3
# Si number density = 22.152058 Si / 1000 Ang^3
#
#
#
# Elastic Constant Matrix: (Units=GPa)
#
#
# Indices 1 2 3 4 5 6 
#
# 1 55.6007 34.5433 40.2109 0.0000 3.0228 0.0000
# 2 34.5433 59.5470 60.0605 0.0000 16.4342 0.0000
# 3 40.2109 60.0605 132.4354 0.0000 7.7229 0.0000
# 4 0.0000 0.0000 0.0000 -88.9052 0.0000 16.6363
# 5 3.0228 16.4342 7.7229 0.0000 22.2310 0.0000
# 6 0.0000 0.0000 0.0000 16.6363 0.0000 17.4582
#
#
#
# Elastic Compliance Matrix: (Units=1/GPa)
#
#
# Indices 1 2 3 4 5 6 
#
# 1 0.030211 -0.019508 -0.000947 0.000000 0.010642 0.000000
# 2 -0.019508 0.053196 -0.016395 0.000000 -0.030977 0.000000
# 3 -0.000947 -0.016395 0.014860 0.000000 0.007086 0.000000
# 4 0.000000 0.000000 0.000000 -0.009546 0.000000 0.009096
# 5 0.010642 -0.030977 0.007086 0.000000 0.063973 0.000000
# 6 0.000000 0.000000 0.000000 0.009096 0.000000 0.048611
#
#
# Mechanical properties :
#
#
# Convention : Reuss Voigt Hill
#
# Bulk Modulus (GPa) = 40.70330 57.46805 49.08568
# Shear Modulus (GPa) = 17.65571 -2.32530 7.66521
#
# Velocity S-wave (km/s) = 2.82622 -1.02566 1.86220
# Velocity P-wave (km/s) = 5.39114 4.95946 5.17980
#
# Compressibility (1/GPa) = 0.02456803
#
# Stress axis : x y z
#
# Youngs Moduli (GPa) = 33.10043 18.79850 67.29321
#
# Poissons Ratio (x) = 0.36672 0.06369
# Poissons Ratio (y) = 0.64572 1.10328
# Poissons Ratio (z) = 0.03133 0.30820
#
# Static dielectric constant tensor:
#      x y z
#    x 1.916850 0.000000 -0.024960 
#    y 0.000000 1.799170 0.000000 
#    z -0.024960 0.000000 1.818180 
# 
# From -- ./inp_files/51546.got.cif
#   From: 2010.05.17/outbox.cif.g08.bks.cpg/sg13_26_cif.got.tgz:51546.got - 2010.06.03 16:44:36.
