data_PCOD9231498
_publ_section_title
;
Structure prediction by ZEFSAII (Michael W. Deem and Ramdas Pophale) SiO2 
 PCOD9231498
Probable space group: P 2/C
;
_chemical_formula_sum "Si O2"
_cell_formula_units_Z 28
_cell_length_a 9.169371
_cell_length_b 16.777113
_cell_length_c 18.807043
_cell_angle_alpha 90.000000
_cell_angle_beta 152.665837
_cell_angle_gamma 90.000000
_cell_volume 1328.494039
_symmetry_space_group_name_H-M "P 2/C"
_symmetry_group_IT_number 13
_symmetry_cell_setting 'monoclinic'
loop_
_space_group_symop_operation_xyz
x,y,z
-x,y,1/2-z
-x,-y,-z
x,-y,1/2+z
loop_
_atom_site_type_symbol
_atom_site_label
_atom_site_fract_x
_atom_site_fract_y
_atom_site_fract_z
Si Si1 0.896933 0.833448 0.567094
Si Si2 0.891508 0.250441 0.918999
Si Si3 0.000000 0.735598 0.750000
Si Si4 0.000000 0.467138 0.750000
Si Si5 0.337315 0.604356 0.982902
Si Si6 0.849988 0.989115 0.617981
Si Si7 0.136044 0.166241 0.735834
Si Si8 0.161907 0.585263 0.066223
O O1 0.997754 0.797150 0.535289
O O2 0.514124 0.823288 0.405490
O O3 0.058062 0.788610 0.704183
O O4 0.915143 0.929476 0.581759
O O5 0.500000 0.252395 0.750000
O O6 0.984801 0.207925 0.887115
O O7 0.010665 0.341215 0.970348
O O8 0.733132 0.674380 0.603914
O O9 0.292074 0.414847 0.849745
O O10 0.847559 0.525890 0.625331
O O11 0.208169 0.618002 0.006065
O O12 0.000000 0.944876 0.750000
O O13 0.020026 0.073979 0.681201
O O14 0.500000 0.000000 0.500000
O O15 0.000000 0.199481 0.750000
O O16 0.500000 0.574939 0.250000
O O17 0.000000 0.500000 0.000000
#
# Coordination Sequence:
#
# PCOD9231498 Si02
#       8
#     4   4   2   2   4   4   4   4
#     4  11  20  38  64  93 130 171 206 266 328 379
#     4   9  21  40  64  92 128 168 214 268 322 385
#     4  11  22  36  64  92 131 168 210 269 326 392
#     4   9  20  38  66  90 133 160 224 277 312 398
#     4  10  20  40  60  98 126 172 220 265 334 388
#     4  11  20  36  65  96 129 166 214 260 316 392
#     4  10  21  40  64  95 126 167 223 260 320 395
#     4  11  22  40  68  88 129 175 219 267 334 390
#
# _framework density 21.076495999999999
#
# number of rings (size 3 to 8) (size 9 to 14) (size 15 to 20)
#    0.000    1.714    5.000    0.857    0.000    0.571 
#    1.286    4.286    4.714    0.000    0.000    0.000 
#    0.000    0.000    0.000    0.000    0.000    0.000 
#
# Total GULP energy -156098.722294 kJ/mol
# GULP energy per Si atom -5574.954368 kJ/mol
# Density = 2.102852 g / cm^3
# Si number density = 21.076496 Si / 1000 Ang^3
#
#
#
# Elastic Constant Matrix: (Units=GPa)
#
#
# Indices 1 2 3 4 5 6 
#
# 1 92.2585 61.7401 33.0664 0.0000 -36.2360 0.0000
# 2 61.7401 142.1962 35.0393 0.0000 -21.5129 0.0000
# 3 33.0664 35.0393 74.5421 0.0000 -17.4687 0.0000
# 4 0.0000 0.0000 0.0000 28.8513 0.0000 -7.0223
# 5 -36.2360 -21.5129 -17.4687 0.0000 34.0418 0.0000
# 6 0.0000 0.0000 0.0000 -7.0223 0.0000 24.4653
#
#
#
# Elastic Compliance Matrix: (Units=1/GPa)
#
#
# Indices 1 2 3 4 5 6 
#
# 1 0.024330 -0.006811 -0.002876 0.000000 0.020117 0.000000
# 2 -0.006811 0.010253 -0.002249 0.000000 -0.001925 0.000000
# 3 -0.002876 -0.002249 0.016707 0.000000 0.004090 0.000000
# 4 0.000000 0.000000 0.000000 0.037264 0.000000 0.010696
# 5 0.020117 -0.001925 0.004090 0.000000 0.051672 0.000000
# 6 0.000000 0.000000 0.000000 0.010696 0.000000 0.043944
#
#
# Mechanical properties :
#
#
# Convention : Reuss Voigt Hill
#
# Bulk Modulus (GPa) = 36.47531 63.18759 49.83145
# Shear Modulus (GPa) = 23.02220 29.41508 26.21864
#
# Velocity S-wave (km/s) = 3.30861 3.73987 3.53083
# Velocity P-wave (km/s) = 5.65151 6.97811 6.34955
#
# Compressibility (1/GPa) = 0.02741580
#
# Stress axis : x y z
#
# Youngs Moduli (GPa) = 41.10212 97.53310 59.85551
#
# Poissons Ratio (x) = 0.66433 0.17216
# Poissons Ratio (y) = 0.27996 0.13463
# Poissons Ratio (z) = 0.11822 0.21937
#
# Static dielectric constant tensor:
#      x y z
#    x 1.809060 0.000000 -0.005310 
#    y 0.000000 1.806620 0.000000 
#    z -0.005310 0.000000 1.787020 
# 
# From -- ./inp_files/64758.got.cif
#   From: 2010.05.17/outbox.cif.g08.bks.cpg/sg13_33_cif.got.tgz:64758.got - 2010.06.03 16:44:36.
