data_PCOD9231421
_publ_section_title
;
Structure prediction by ZEFSAII (Michael W. Deem and Ramdas Pophale) SiO2 
 PCOD9231421
Probable space group: P 2/C
;
_chemical_formula_sum "Si O2"
_cell_formula_units_Z 16
_cell_length_a 13.172677
_cell_length_b 8.313439
_cell_length_c 15.178275
_cell_angle_alpha 90.000000
_cell_angle_beta 21.158131
_cell_angle_gamma 90.000000
_cell_volume 599.951316
_symmetry_space_group_name_H-M "P 2/C"
_symmetry_group_IT_number 13
_symmetry_cell_setting 'monoclinic'
loop_
_space_group_symop_operation_xyz
x,y,z
-x,y,1/2-z
-x,-y,-z
x,-y,1/2+z
loop_
_atom_site_type_symbol
_atom_site_label
_atom_site_fract_x
_atom_site_fract_y
_atom_site_fract_z
Si Si1 0.500000 0.624865 0.750000
Si Si2 0.457516 0.374513 0.939859
Si Si3 0.940805 0.223314 0.634855
Si Si4 0.500000 0.130684 0.750000
Si Si5 0.095396 0.109947 0.314804
O O1 0.449729 0.525159 0.881434
O O2 0.794188 0.715276 0.525422
O O3 0.717766 0.368811 0.798020
O O4 0.542537 0.237993 0.800726
O O5 0.192033 0.280164 0.195119
O O6 0.073082 0.158423 0.435565
O O7 0.760745 0.067112 0.811768
O O8 0.804581 0.055267 0.501791
#
# Coordination Sequence:
#
# PCOD9231421 Si02
#       5
#     2   4   4   2   4
#     4  11  23  42  66 102 143 175 220 287 349 408
#     4  10  21  39  64  95 135 179 221 276 348 408
#     4  10  22  40  63  97 134 173 229 287 333 400
#     4   9  19  36  64  94 127 171 222 275 327 396
#     4  10  20  39  67  95 131 179 230 279 334 404
#
# _framework density 26.66883
#
# number of rings (size 3 to 8) (size 9 to 14) (size 15 to 20)
#    0.000    2.000    0.000    3.000    0.000    1.000 
#    0.000   11.250    0.000    4.500    0.000   14.000 
#    0.000    0.000    0.000    0.000    0.000    0.000 
#
# Total GULP energy -89166.159395 kJ/mol
# GULP energy per Si atom -5572.884962 kJ/mol
# Density = 2.660813 g / cm^3
# Si number density = 26.668830 Si / 1000 Ang^3
#
#
#
# Elastic Constant Matrix: (Units=GPa)
#
#
# Indices 1 2 3 4 5 6 
#
# 1 107.5982 55.0554 49.5233 0.0000 -36.7953 0.0000
# 2 55.0554 140.0431 58.2617 0.0000 -34.0827 0.0000
# 3 49.5233 58.2617 99.4670 0.0000 -36.9987 0.0000
# 4 0.0000 0.0000 0.0000 -2.6183 0.0000 16.3135
# 5 -36.7953 -34.0827 -36.9987 0.0000 61.7002 0.0000
# 6 0.0000 0.0000 0.0000 16.3135 0.0000 6.8229
#
#
#
# Elastic Compliance Matrix: (Units=1/GPa)
#
#
# Indices 1 2 3 4 5 6 
#
# 1 0.013989 -0.002900 -0.003551 0.000000 0.004611 0.000000
# 2 -0.002900 0.010338 -0.004029 0.000000 0.001565 0.000000
# 3 -0.003551 -0.004029 0.016174 0.000000 0.005355 0.000000
# 4 0.000000 0.000000 0.000000 -0.024025 0.000000 0.057443
# 5 0.004611 0.001565 0.005355 0.000000 0.023033 0.000000
# 6 0.000000 0.000000 0.000000 0.057443 0.000000 0.009220
#
#
# Mechanical properties :
#
#
# Convention : Reuss Voigt Hill
#
# Bulk Modulus (GPa) = 51.17776 74.75433 62.96605
# Shear Modulus (GPa) = 65.61470 25.46549 45.54009
#
# Velocity S-wave (km/s) = 4.96557 3.09346 4.13681
# Velocity P-wave (km/s) = 7.21856 6.39146 6.81757
#
# Compressibility (1/GPa) = 0.01953974
#
# Stress axis : x y z
#
# Youngs Moduli (GPa) = 71.48505 96.73136 61.82866
#
# Poissons Ratio (x) = 0.28051 0.21956
# Poissons Ratio (y) = 0.20730 0.24913
# Poissons Ratio (z) = 0.25385 0.38977
#
# Static dielectric constant tensor:
#      x y z
#    x 2.145850 0.000000 -0.145040 
#    y 0.000000 2.120330 0.000000 
#    z -0.145040 0.000000 2.170570 
# 
# From -- ./inp_files/67892.got.cif
#   From: 2010.05.17/outbox.cif.g08.bks.cpg/sg13_34_cif.got.tgz:67892.got - 2010.06.03 16:44:36.
