data_PCOD9231145
_publ_section_title
;
Structure prediction by ZEFSAII (Michael W. Deem and Ramdas Pophale) SiO2 
 PCOD9231145
Probable space group: P 2/C
;
_chemical_formula_sum "Si O2"
_cell_formula_units_Z 28
_cell_length_a 7.546537
_cell_length_b 8.918786
_cell_length_c 26.881634
_cell_angle_alpha 90.000000
_cell_angle_beta 50.572607
_cell_angle_gamma 90.000000
_cell_volume 1397.552907
_symmetry_space_group_name_H-M "P 2/C"
_symmetry_group_IT_number 13
_symmetry_cell_setting 'monoclinic'
loop_
_space_group_symop_operation_xyz
x,y,z
-x,y,1/2-z
-x,-y,-z
x,-y,1/2+z
loop_
_atom_site_type_symbol
_atom_site_label
_atom_site_fract_x
_atom_site_fract_y
_atom_site_fract_z
Si Si1 0.757311 0.554306 0.308343
Si Si2 0.253809 0.137986 0.265183
Si Si3 0.126557 0.638034 0.100883
Si Si4 0.518950 0.170935 0.477653
Si Si5 0.987172 0.697424 0.605013
Si Si6 0.756715 0.804877 0.222539
Si Si7 0.522826 0.264229 0.129912
O O1 0.776121 0.609898 0.361168
O O2 0.747212 0.691064 0.270930
O O3 0.551673 0.436428 0.345932
O O4 0.000000 0.478260 0.250000
O O5 0.500000 0.141038 0.250000
O O6 0.331955 0.178035 0.196165
O O7 0.097127 0.251488 0.324747
O O8 0.152478 0.971099 0.282896
O O9 0.042361 0.479463 0.094257
O O10 0.904459 0.737393 0.151482
O O11 0.319724 0.725500 0.036441
O O12 0.771730 0.224347 0.448649
O O13 0.496712 0.204241 0.422551
O O14 0.500000 0.000000 0.500000
O O15 0.780975 0.747329 0.605393
O O16 0.500000 0.821074 0.250000
#
# Coordination Sequence:
#
# PCOD9231145 Si02
#       7
#     4   4   4   4   4   4   4
#     4  10  21  38  63  97 127 165 213 268 329 381
#     4   9  20  38  64  98 128 163 215 271 326 382
#     4  11  23  43  61  95 132 167 219 269 323 398
#     4  12  28  45  63  93 134 176 217 270 330 397
#     4  11  23  45  69  93 132 167 223 275 317 398
#     4  10  20  38  65  97 129 163 211 272 327 386
#     4  11  24  42  69  97 125 178 218 264 335 383
#
# _framework density 20.035022000000001
#
# number of rings (size 3 to 8) (size 9 to 14) (size 15 to 20)
#    0.000    1.429    1.429    3.857    2.000    2.286 
#    5.143    0.000    0.000    0.000    0.000    0.000 
#    0.000    0.000    0.000    0.000    0.000    0.000 
#
# Total GULP energy -156277.435200 kJ/mol
# GULP energy per Si atom -5581.336971 kJ/mol
# Density = 1.998942 g / cm^3
# Si number density = 20.035022 Si / 1000 Ang^3
#
#
#
# Elastic Constant Matrix: (Units=GPa)
#
#
# Indices 1 2 3 4 5 6 
#
# 1 66.1012 23.2207 31.5475 0.0000 -8.3158 0.0000
# 2 23.2207 131.0197 61.5035 0.0000 -13.1103 0.0000
# 3 31.5475 61.5035 120.5395 0.0000 -9.6674 0.0000
# 4 0.0000 0.0000 0.0000 31.4517 0.0000 -4.6400
# 5 -8.3158 -13.1103 -9.6674 0.0000 37.8073 0.0000
# 6 0.0000 0.0000 0.0000 -4.6400 0.0000 18.7529
#
#
#
# Elastic Compliance Matrix: (Units=1/GPa)
#
#
# Indices 1 2 3 4 5 6 
#
# 1 0.017671 -0.001056 -0.003883 0.000000 0.002528 0.000000
# 2 -0.001056 0.010285 -0.004802 0.000000 0.002106 0.000000
# 3 -0.003883 -0.004802 0.011803 0.000000 0.000499 0.000000
# 4 0.000000 0.000000 0.000000 0.032999 0.000000 0.008165
# 5 0.002528 0.002106 0.000499 0.000000 0.027864 0.000000
# 6 0.000000 0.000000 0.000000 0.008165 0.000000 0.055345
#
#
# Mechanical properties :
#
#
# Convention : Reuss Voigt Hill
#
# Bulk Modulus (GPa) = 49.32222 61.13376 55.22799
# Shear Modulus (GPa) = 27.44127 31.02831 29.23479
#
# Velocity S-wave (km/s) = 3.70491 3.93963 3.82407
# Velocity P-wave (km/s) = 6.55540 7.16058 6.86466
#
# Compressibility (1/GPa) = 0.02027484
#
# Stress axis : x y z
#
# Youngs Moduli (GPa) = 56.59135 97.23236 84.72693
#
# Poissons Ratio (x) = 0.10268 0.32901
# Poissons Ratio (y) = 0.05976 0.40688
# Poissons Ratio (z) = 0.21976 0.46694
#
# Static dielectric constant tensor:
#      x y z
#    x 1.735920 0.000000 -0.009160 
#    y 0.000000 1.801660 0.000000 
#    z -0.009160 0.000000 1.698120 
# 
# From -- ./inp_files/95918.got.cif
#   From: 2010.05.17/outbox.cif.g08.bks.cpg/sg13_48_cif.got.tgz:95918.got - 2010.06.03 16:44:36.
