data_PCOD9231150
_publ_section_title
;
Structure prediction by ZEFSAII (Michael W. Deem and Ramdas Pophale) SiO2 
 PCOD9231150
Probable space group: P 2/C
;
_chemical_formula_sum "Si O2"
_cell_formula_units_Z 32
_cell_length_a 22.572138
_cell_length_b 8.652820
_cell_length_c 14.612749
_cell_angle_alpha 90.000000
_cell_angle_beta 33.206056
_cell_angle_gamma 90.000000
_cell_volume 1563.027800
_symmetry_space_group_name_H-M "P 2/C"
_symmetry_group_IT_number 13
_symmetry_cell_setting 'monoclinic'
loop_
_space_group_symop_operation_xyz
x,y,z
-x,y,1/2-z
-x,-y,-z
x,-y,1/2+z
loop_
_atom_site_type_symbol
_atom_site_label
_atom_site_fract_x
_atom_site_fract_y
_atom_site_fract_z
Si Si1 0.099504 0.165249 0.677168
Si Si2 0.958775 0.248274 0.546997
Si Si3 0.099508 0.841287 0.570635
Si Si4 0.719075 0.647971 0.643651
Si Si5 0.175146 0.567625 0.798787
Si Si6 0.323087 0.304321 0.825206
Si Si7 0.384810 0.695376 0.435116
Si Si8 0.533724 0.828588 0.983729
O O1 0.068587 0.164606 0.822884
O O2 0.206061 0.263535 0.523739
O O3 0.000000 0.241478 0.750000
O O4 0.113854 0.000592 0.607936
O O5 0.934332 0.143382 0.490753
O O6 0.881813 0.400933 0.637951
O O7 0.082489 0.310215 0.387893
O O8 0.210104 0.749752 0.432083
O O9 0.000000 0.756185 0.750000
O O10 0.790182 0.605972 0.641966
O O11 0.678624 0.486581 0.656666
O O12 0.620564 0.754452 0.803735
O O13 0.287256 0.587991 0.597756
O O14 0.340597 0.223364 0.900754
O O15 0.422516 0.267076 0.631087
O O16 0.500000 0.626035 0.250000
O O17 0.415196 0.806858 0.480555
O O18 0.500000 0.000000 0.000000
#
# Coordination Sequence:
#
# PCOD9231150 Si02
#       8
#     4   4   4   4   4   4   4   4
#     4  11  24  41  61  93 135 176 222 278 336 401
#     4  11  22  42  65  96 139 176 234 275 341 407
#     4  11  25  41  63  96 135 179 224 276 338 406
#     4  11  21  40  68  96 129 175 222 279 340 393
#     4  10  20  38  66 101 129 178 221 290 333 398
#     4  11  21  41  64  96 127 169 226 274 330 403
#     4   9  20  38  65  95 130 167 218 275 339 397
#     4  10  22  41  67  94 133 171 216 273 342 405
#
# _framework density 20.473084
#
# number of rings (size 3 to 8) (size 9 to 14) (size 15 to 20)
#    0.000    1.500    2.500    2.625    0.000    3.500 
#    6.750    0.000    0.000    0.000    0.000    0.000 
#    0.000    0.000    0.000    0.000    0.000    0.000 
#
# Total GULP energy -178634.031195 kJ/mol
# GULP energy per Si atom -5582.313475 kJ/mol
# Density = 2.042649 g / cm^3
# Si number density = 20.473084 Si / 1000 Ang^3
#
#
#
# Elastic Constant Matrix: (Units=GPa)
#
#
# Indices 1 2 3 4 5 6 
#
# 1 112.5772 33.2680 62.5218 0.0000 4.0013 0.0000
# 2 33.2680 100.1721 47.6105 0.0000 -7.0674 0.0000
# 3 62.5218 47.6105 148.0747 0.0000 -4.8204 0.0000
# 4 0.0000 0.0000 0.0000 -11.2405 0.0000 -34.4623
# 5 4.0013 -7.0674 -4.8204 0.0000 38.5902 0.0000
# 6 0.0000 0.0000 0.0000 -34.4623 0.0000 6.3197
#
#
#
# Elastic Compliance Matrix: (Units=1/GPa)
#
#
# Indices 1 2 3 4 5 6 
#
# 1 0.012064 -0.002014 -0.004518 0.000000 -0.002184 0.000000
# 2 -0.002014 0.012231 -0.003015 0.000000 0.002072 0.000000
# 3 -0.004518 -0.003015 0.009667 0.000000 0.001124 0.000000
# 4 0.000000 0.000000 0.000000 -0.005021 0.000000 -0.027380
# 5 -0.002184 0.002072 0.001124 0.000000 0.026660 0.000000
# 6 0.000000 0.000000 0.000000 -0.027380 0.000000 0.008930
#
#
# Mechanical properties :
#
#
# Convention : Reuss Voigt Hill
#
# Bulk Modulus (GPa) = 67.25102 71.95827 69.60464
# Shear Modulus (GPa) = 56.44632 21.22880 38.83756
#
# Velocity S-wave (km/s) = 5.25650 3.22361 4.36019
# Velocity P-wave (km/s) = 8.35230 7.00568 7.70845
#
# Compressibility (1/GPa) = 0.01486966
#
# Stress axis : x y z
#
# Youngs Moduli (GPa) = 82.88839 81.76163 103.44693
#
# Poissons Ratio (x) = 0.16464 0.46734
# Poissons Ratio (y) = 0.16690 0.31188
# Poissons Ratio (z) = 0.37446 0.24650
#
# Static dielectric constant tensor:
#      x y z
#    x 1.752640 0.000000 -0.005000 
#    y 0.000000 1.730280 0.000000 
#    z -0.005000 0.000000 1.735820 
# 
# From -- ./inp_files/58802.got.cif
#   From: 2010.05.17/outbox.cif.g08.bks.cpg/sg13_30_cif.got.tgz:58802.got - 2010.06.03 16:44:36.
