data_PCOD9231536
_publ_section_title
;
Structure prediction by ZEFSAII (Michael W. Deem and Ramdas Pophale) SiO2 
 PCOD9231536
Probable space group: P 2/C
;
_chemical_formula_sum "Si O2"
_cell_formula_units_Z 22
_cell_length_a 5.238665
_cell_length_b 8.088926
_cell_length_c 22.675716
_cell_angle_alpha 90.000000
_cell_angle_beta 118.156931
_cell_angle_gamma 90.000000
_cell_volume 847.174465
_symmetry_space_group_name_H-M "P 2/C"
_symmetry_group_IT_number 13
_symmetry_cell_setting 'monoclinic'
loop_
_space_group_symop_operation_xyz
x,y,z
-x,y,1/2-z
-x,-y,-z
x,-y,1/2+z
loop_
_atom_site_type_symbol
_atom_site_label
_atom_site_fract_x
_atom_site_fract_y
_atom_site_fract_z
Si Si1 0.780447 0.223040 0.324201
Si Si2 0.221173 0.350112 0.006714
Si Si3 0.000000 0.032410 0.250000
Si Si4 0.033018 0.095699 0.593288
Si Si5 0.349158 0.218268 0.837740
Si Si6 0.228160 0.477328 0.384903
O O1 0.500000 0.230062 0.250000
O O2 0.916780 0.394760 0.358977
O O3 0.817200 0.082870 0.378580
O O4 0.024571 0.157357 0.305653
O O5 0.297975 0.404547 0.948135
O O6 0.115273 0.161868 0.983018
O O7 0.501106 0.353745 0.079131
O O8 0.000000 0.500000 0.000000
O O9 0.258260 0.900274 0.274016
O O10 0.308055 0.218214 0.624049
O O11 0.813462 0.129498 0.624258
O O12 0.242610 0.406242 0.829507
#
# Coordination Sequence:
#
# PCOD9231536 Si02
#       6
#     4   4   2   4   4   4
#     4  11  23  42  62  98 138 170 219 290 343 402
#     4  10  20  41  65  87 129 176 225 277 335 414
#     4  10  22  40  66  84 134 178 216 260 340 426
#     4  10  21  40  67  90 129 175 217 263 343 399
#     4  10  20  40  62  93 123 180 216 259 330 414
#     4  10  23  39  63  97 129 167 229 285 333 396
#
# _framework density 25.968675999999999
#
# number of rings (size 3 to 8) (size 9 to 14) (size 15 to 20)
#    0.000    1.818    3.636    0.000    0.000    2.909 
#    6.545    0.909    0.000    0.000    0.000    0.000 
#    0.000    0.000    0.000    0.000    0.000    0.000 
#
# Total GULP energy -122468.861163 kJ/mol
# GULP energy per Si atom -5566.766417 kJ/mol
# Density = 2.590957 g / cm^3
# Si number density = 25.968676 Si / 1000 Ang^3
#
#
#
# Elastic Constant Matrix: (Units=GPa)
#
#
# Indices 1 2 3 4 5 6 
#
# 1 75.8308 13.0231 15.0393 0.0000 2.2440 0.0000
# 2 13.0231 95.4341 34.4354 0.0000 8.1752 0.0000
# 3 15.0393 34.4354 109.4864 0.0000 13.7404 0.0000
# 4 0.0000 0.0000 0.0000 30.7468 0.0000 34.9648
# 5 2.2440 8.1752 13.7404 0.0000 28.1048 0.0000
# 6 0.0000 0.0000 0.0000 34.9648 0.0000 -26.7540
#
#
#
# Elastic Compliance Matrix: (Units=1/GPa)
#
#
# Indices 1 2 3 4 5 6 
#
# 1 0.013708 -0.001344 -0.001462 0.000000 0.000011 0.000000
# 2 -0.001344 0.012031 -0.003381 0.000000 -0.001739 0.000000
# 3 -0.001462 -0.003381 0.010930 0.000000 -0.004244 0.000000
# 4 0.000000 0.000000 0.000000 0.013082 0.000000 0.017097
# 5 0.000011 -0.001739 -0.004244 0.000000 0.038161 0.000000
# 6 0.000000 0.000000 0.000000 0.017097 0.000000 -0.015034
#
#
# Mechanical properties :
#
#
# Convention : Reuss Voigt Hill
#
# Bulk Modulus (GPa) = 41.16012 45.08296 43.12154
# Shear Modulus (GPa) = 53.56243 20.96976 37.26609
#
# Velocity S-wave (km/s) = 4.54649 2.84474 3.79230
# Velocity P-wave (km/s) = 6.59129 5.30926 5.98470
#
# Compressibility (1/GPa) = 0.02429536
#
# Stress axis : x y z
#
# Youngs Moduli (GPa) = 72.95205 83.11991 91.48909
#
# Poissons Ratio (x) = 0.11173 0.13371
# Poissons Ratio (y) = 0.09806 0.30932
# Poissons Ratio (z) = 0.10662 0.28103
#
# Static dielectric constant tensor:
#      x y z
#    x 2.138250 0.000000 -0.026670 
#    y 0.000000 2.193150 0.000000 
#    z -0.026670 0.000000 2.164990 
# 
# From -- ./inp_files/83412.got.cif
#   From: 2010.05.17/outbox.cif.g08.bks.cpg/sg13_42_cif.got.tgz:83412.got - 2010.06.03 16:44:36.
