data_PCOD9231175
_publ_section_title
;
Structure prediction by ZEFSAII (Michael W. Deem and Ramdas Pophale) SiO2 
 PCOD9231175
Probable space group: P 2/C
;
_chemical_formula_sum "Si O2"
_cell_formula_units_Z 20
_cell_length_a 8.641902
_cell_length_b 5.579406
_cell_length_c 16.172813
_cell_angle_alpha 90.000000
_cell_angle_beta 88.777088
_cell_angle_gamma 90.000000
_cell_volume 779.621731
_symmetry_space_group_name_H-M "P 2/C"
_symmetry_group_IT_number 13
_symmetry_cell_setting 'monoclinic'
loop_
_space_group_symop_operation_xyz
x,y,z
-x,y,1/2-z
-x,-y,-z
x,-y,1/2+z
loop_
_atom_site_type_symbol
_atom_site_label
_atom_site_fract_x
_atom_site_fract_y
_atom_site_fract_z
Si Si1 0.465326 0.215688 0.090252
Si Si2 0.669253 0.453099 0.274363
Si Si3 0.252156 0.960281 0.974357
Si Si4 0.000000 0.574591 0.750000
Si Si5 0.009722 0.306278 0.575610
Si Si6 0.500000 0.105060 0.750000
O O1 0.362581 0.430494 0.128115
O O2 0.647971 0.245831 0.071887
O O3 0.464441 0.004625 0.159550
O O4 0.378370 0.142044 0.008541
O O5 0.500000 0.346194 0.250000
O O6 0.825602 0.316758 0.248050
O O7 0.649685 0.716759 0.238078
O O8 0.129813 0.114683 0.925056
O O9 0.158948 0.850711 0.051733
O O10 0.015440 0.428530 0.664544
O O11 0.000000 0.500000 0.500000
#
# Coordination Sequence:
#
# PCOD9231175 Si02
#       6
#     4   4   4   2   4   2
#     4  11  21  43  65  96 135 176 229 283 343 418
#     4  10  24  40  67 102 130 178 234 281 352 405
#     4  10  25  41  66  97 137 183 223 286 351 409
#     4  12  24  46  72 100 138 186 230 294 350 410
#     4  11  25  46  68 104 141 179 235 286 348 420
#     4  10  20  38  66  96 132 174 230 284 342 412
#
# _framework density 25.653466999999999
#
# number of rings (size 3 to 8) (size 9 to 14) (size 15 to 20)
#    0.600    0.800    1.000    3.600    2.800    0.000 
#    0.000   10.000    0.000    0.000    0.000    0.000 
#    0.000    0.000    0.000    0.000    0.000    0.000 
#
# Total GULP energy -111359.666927 kJ/mol
# GULP energy per Si atom -5567.983346 kJ/mol
# Density = 2.559508 g / cm^3
# Si number density = 25.653467 Si / 1000 Ang^3
#
#
#
# Elastic Constant Matrix: (Units=GPa)
#
#
# Indices 1 2 3 4 5 6 
#
# 1 189.3979 8.3550 26.9916 0.0000 -26.3710 0.0000
# 2 8.3550 18.2842 17.7209 0.0000 0.0514 0.0000
# 3 26.9916 17.7209 96.6521 0.0000 -11.0886 0.0000
# 4 0.0000 0.0000 0.0000 24.0471 0.0000 -5.9072
# 5 -26.3710 0.0514 -11.0886 0.0000 38.1565 0.0000
# 6 0.0000 0.0000 0.0000 -5.9072 0.0000 19.1683
#
#
#
# Elastic Compliance Matrix: (Units=1/GPa)
#
#
# Indices 1 2 3 4 5 6 
#
# 1 0.006036 -0.001910 -0.000886 0.000000 0.003917 0.000000
# 2 -0.001910 0.067641 -0.012445 0.000000 -0.005028 0.000000
# 3 -0.000886 -0.012445 0.013249 0.000000 0.003255 0.000000
# 4 0.000000 0.000000 0.000000 0.044991 0.000000 0.013865
# 5 0.003917 -0.005028 0.003255 0.000000 0.029867 0.000000
# 6 0.000000 0.000000 0.000000 0.013865 0.000000 0.056442
#
#
# Mechanical properties :
#
#
# Convention : Reuss Voigt Hill
#
# Bulk Modulus (GPa) = 17.71707 45.60767 31.66237
# Shear Modulus (GPa) = 18.68993 33.02549 25.85771
#
# Velocity S-wave (km/s) = 2.70210 3.59189 3.17829
# Velocity P-wave (km/s) = 4.08123 5.91770 5.08309
#
# Compressibility (1/GPa) = 0.05644275
#
# Stress axis : x y z
#
# Youngs Moduli (GPa) = 165.67940 14.78392 75.47733
#
# Poissons Ratio (x) = 0.02824 0.06687
# Poissons Ratio (y) = 0.31651 0.93933
# Poissons Ratio (z) = 0.14679 0.18399
#
# Static dielectric constant tensor:
#      x y z
#    x 2.221140 0.000000 -0.042410 
#    y 0.000000 2.183180 0.000000 
#    z -0.042410 0.000000 2.732210 
# 
# From -- ./inp_files/62433.got.cif
#   From: 2010.05.17/outbox.cif.g08.bks.cpg/sg13_32_cif.got.tgz:62433.got - 2010.06.03 16:44:36.
