data_PCOD9231643
_publ_section_title
;
Structure prediction by ZEFSAII (Michael W. Deem and Ramdas Pophale) SiO2 
 PCOD9231643
Probable space group: P 2/C
;
_chemical_formula_sum "Si O2"
_cell_formula_units_Z 20
_cell_length_a 7.784367
_cell_length_b 12.114961
_cell_length_c 18.128520
_cell_angle_alpha 90.000000
_cell_angle_beta 32.382500
_cell_angle_gamma 90.000000
_cell_volume 915.636319
_symmetry_space_group_name_H-M "P 2/C"
_symmetry_group_IT_number 13
_symmetry_cell_setting 'monoclinic'
loop_
_space_group_symop_operation_xyz
x,y,z
-x,y,1/2-z
-x,-y,-z
x,-y,1/2+z
loop_
_atom_site_type_symbol
_atom_site_label
_atom_site_fract_x
_atom_site_fract_y
_atom_site_fract_z
Si Si1 0.592450 0.918480 0.630290
Si Si2 0.596001 0.631588 0.037406
Si Si3 0.285074 0.524885 0.760078
Si Si4 0.626779 0.285853 0.370873
Si Si5 0.307358 0.162685 0.892614
O O1 0.500000 0.904947 0.750000
O O2 0.409931 0.839138 0.640695
O O3 0.956644 0.875931 0.494012
O O4 0.550465 0.047511 0.627789
O O5 0.333742 0.562262 0.177016
O O6 0.694730 0.739961 0.047810
O O7 0.471607 0.672926 0.002945
O O8 0.919068 0.556458 0.912095
O O9 0.500000 0.484559 0.750000
O O10 0.456495 0.636731 0.667876
O O11 0.000000 0.307333 0.250000
O O12 0.500000 0.196977 0.750000
#
# Coordination Sequence:
#
# PCOD9231643 Si02
#       5
#     4   4   4   4   4
#     4  10  20  40  67  90 120 161 198 242 301 366
#     4  11  23  39  58  87 122 156 201 253 302 353
#     4  11  22  38  61  83 115 161 207 249 296 356
#     4  10  21  37  61  90 122 157 199 248 303 363
#     4  10  22  40  63  92 122 154 202 251 297 359
#
# _framework density 21.842734
#
# number of rings (size 3 to 8) (size 9 to 14) (size 15 to 20)
#    0.000    1.600    0.000    6.000    0.000    2.400 
#    0.000    3.000    0.000    0.000    0.000    0.000 
#    0.000    0.000    0.000    0.000    0.000    0.000 
#
# Total GULP energy -111763.996349 kJ/mol
# GULP energy per Si atom -5588.199817 kJ/mol
# Density = 2.179302 g / cm^3
# Si number density = 21.842734 Si / 1000 Ang^3
#
#
#
# Elastic Constant Matrix: (Units=GPa)
#
#
# Indices 1 2 3 4 5 6 
#
# 1 40.9861 26.1403 30.9246 0.0000 14.1838 0.0000
# 2 26.1403 122.7609 44.3439 0.0000 15.4695 0.0000
# 3 30.9246 44.3439 118.0465 0.0000 18.8499 0.0000
# 4 0.0000 0.0000 0.0000 55.3932 0.0000 -36.7044
# 5 14.1838 15.4695 18.8499 0.0000 15.9441 0.0000
# 6 0.0000 0.0000 0.0000 -36.7044 0.0000 100.0444
#
#
#
# Elastic Compliance Matrix: (Units=1/GPa)
#
#
# Indices 1 2 3 4 5 6 
#
# 1 0.039134 -0.003315 -0.004883 0.000000 -0.025824 0.000000
# 2 -0.003315 0.010215 -0.002289 0.000000 -0.004255 0.000000
# 3 -0.004883 -0.002289 0.011787 0.000000 -0.007371 0.000000
# 4 0.000000 0.000000 0.000000 0.023851 0.000000 0.008750
# 5 -0.025824 -0.004255 -0.007371 0.000000 0.098535 0.000000
# 6 0.000000 0.000000 0.000000 0.008750 0.000000 0.013206
#
#
# Mechanical properties :
#
#
# Convention : Reuss Voigt Hill
#
# Bulk Modulus (GPa) = 24.89938 53.84567 39.37253
# Shear Modulus (GPa) = 21.63662 46.30198 33.96930
#
# Velocity S-wave (km/s) = 3.15074 4.60911 3.94785
# Velocity P-wave (km/s) = 4.96592 7.28219 6.23260
#
# Compressibility (1/GPa) = 0.04016164
#
# Stress axis : x y z
#
# Youngs Moduli (GPa) = 25.55334 97.89539 84.83687
#
# Poissons Ratio (x) = 0.32452 0.41425
# Poissons Ratio (y) = 0.08471 0.19422
# Poissons Ratio (z) = 0.12478 0.22411
#
# Static dielectric constant tensor:
#      x y z
#    x 2.103040 0.000000 0.059560 
#    y 0.000000 1.827660 0.000000 
#    z 0.059560 0.000000 1.848170 
# 
# From -- ./inp_files/34010.got.cif
#   From: 2010.05.17/outbox.cif.g08.bks.cpg/sg13_18_cif.got.tgz:34010.got - 2010.06.03 16:44:36.
