data_PCOD9231837
_publ_section_title
;
Structure prediction by ZEFSAII (Michael W. Deem and Ramdas Pophale) SiO2 
 PCOD9231837
Probable space group: P 2/C
;
_chemical_formula_sum "Si O2"
_cell_formula_units_Z 22
_cell_length_a 14.127455
_cell_length_b 6.824686
_cell_length_c 24.067028
_cell_angle_alpha 90.000000
_cell_angle_beta 25.664385
_cell_angle_gamma 90.000000
_cell_volume 1004.977048
_symmetry_space_group_name_H-M "P 2/C"
_symmetry_group_IT_number 13
_symmetry_cell_setting 'monoclinic'
loop_
_space_group_symop_operation_xyz
x,y,z
-x,y,1/2-z
-x,-y,-z
x,-y,1/2+z
loop_
_atom_site_type_symbol
_atom_site_label
_atom_site_fract_x
_atom_site_fract_y
_atom_site_fract_z
Si Si1 0.288612 0.332209 0.766883
Si Si2 0.500000 0.938592 0.250000
Si Si3 0.683933 0.544393 0.975998
Si Si4 0.909436 0.051467 0.986795
Si Si5 0.427308 0.197311 0.068754
Si Si6 0.928027 0.691782 0.659107
O O1 0.389115 0.212412 0.765110
O O2 0.480113 0.364728 0.619784
O O3 0.191902 0.552425 0.822045
O O4 0.067671 0.204947 0.873323
O O5 0.344161 0.084471 0.367440
O O6 0.682081 0.666886 0.920327
O O7 0.913344 0.566095 0.885456
O O8 0.625421 0.322060 0.990424
O O9 0.917724 0.848531 0.950304
O O10 0.000000 0.000000 0.000000
O O11 0.250667 0.187417 0.211256
O O12 0.500000 0.000000 0.000000
#
# Coordination Sequence:
#
# PCOD9231837 Si02
#       6
#     4   2   4   4   4   4
#     4  10  22  41  63  92 131 171 218 274 331 396
#     4  10  20  42  62  90 132 170 224 282 324 396
#     4  10  21  41  63  95 136 164 214 277 322 395
#     4  10  22  40  61  90 129 171 222 273 324 387
#     4  10  22  40  67  97 130 172 217 265 331 400
#     4  11  22  41  65  97 128 177 218 267 337 398
#
# _framework density 21.891048999999999
#
# number of rings (size 3 to 8) (size 9 to 14) (size 15 to 20)
#    0.000    1.818    1.818    1.636    0.000    4.364 
#   13.091    7.273    0.000    0.000    0.000    0.000 
#    0.000    0.000    0.000    0.000    0.000    0.000 
#
# Total GULP energy -122616.969211 kJ/mol
# GULP energy per Si atom -5573.498600 kJ/mol
# Density = 2.184122 g / cm^3
# Si number density = 21.891049 Si / 1000 Ang^3
#
#
#
# Elastic Constant Matrix: (Units=GPa)
#
#
# Indices 1 2 3 4 5 6 
#
# 1 48.6782 20.7040 1.3816 0.0000 -6.9235 0.0000
# 2 20.7040 80.7833 46.9456 0.0000 -1.1799 0.0000
# 3 1.3816 46.9456 91.4685 0.0000 -3.7484 0.0000
# 4 0.0000 0.0000 0.0000 9.3620 0.0000 -4.1128
# 5 -6.9235 -1.1799 -3.7484 0.0000 20.9209 0.0000
# 6 0.0000 0.0000 0.0000 -4.1128 0.0000 19.5237
#
#
#
# Elastic Compliance Matrix: (Units=1/GPa)
#
#
# Indices 1 2 3 4 5 6 
#
# 1 0.025539 -0.009123 0.004656 0.000000 0.008771 0.000000
# 2 -0.009123 0.020907 -0.010747 0.000000 -0.003766 0.000000
# 3 0.004656 -0.010747 0.016538 0.000000 0.003898 0.000000
# 4 0.000000 0.000000 0.000000 0.117708 0.000000 0.024796
# 5 0.008771 -0.003766 0.003898 0.000000 0.051188 0.000000
# 6 0.000000 0.000000 0.000000 0.024796 0.000000 0.056443
#
#
# Mechanical properties :
#
#
# Convention : Reuss Voigt Hill
#
# Bulk Modulus (GPa) = 30.71633 39.88806 35.30220
# Shear Modulus (GPa) = 15.16973 20.08790 17.62881
#
# Velocity S-wave (km/s) = 2.63528 3.03253 2.84086
# Velocity P-wave (km/s) = 4.82923 5.52471 5.18864
#
# Compressibility (1/GPa) = 0.03255597
#
# Stress axis : x y z
#
# Youngs Moduli (GPa) = 39.15626 47.82999 60.46679
#
# Poissons Ratio (x) = 0.43635 -0.28153
# Poissons Ratio (y) = 0.35722 0.64984
# Poissons Ratio (z) = -0.18231 0.51403
#
# Static dielectric constant tensor:
#      x y z
#    x 1.785420 0.000000 -0.032790 
#    y 0.000000 1.786570 0.000000 
#    z -0.032790 0.000000 1.865730 
# 
# From -- ./inp_files/97126.got.cif
#   From: 2010.05.17/outbox.cif.g08.bks.cpg/sg13_49_cif.got.tgz:97126.got - 2010.06.03 16:44:36.
