data_PCOD9231130
_publ_section_title
;
Structure prediction by ZEFSAII (Michael W. Deem and Ramdas Pophale) SiO2 
 PCOD9231130
Probable space group: P 2/C
;
_chemical_formula_sum "Si O2"
_cell_formula_units_Z 32
_cell_length_a 18.627231
_cell_length_b 14.831158
_cell_length_c 12.724366
_cell_angle_alpha 90.000000
_cell_angle_beta 26.960252
_cell_angle_gamma 90.000000
_cell_volume 1593.728971
_symmetry_space_group_name_H-M "P 2/C"
_symmetry_group_IT_number 13
_symmetry_cell_setting 'monoclinic'
loop_
_space_group_symop_operation_xyz
x,y,z
-x,y,1/2-z
-x,-y,-z
x,-y,1/2+z
loop_
_atom_site_type_symbol
_atom_site_label
_atom_site_fract_x
_atom_site_fract_y
_atom_site_fract_z
Si Si1 0.625535 0.924482 0.807391
Si Si2 0.504871 0.421482 0.364858
Si Si3 0.772338 0.509521 0.652155
Si Si4 0.808051 0.671427 0.739627
Si Si5 0.486470 0.263262 0.548765
Si Si6 0.127612 0.013342 0.677527
Si Si7 0.096583 0.874324 0.892806
Si Si8 0.833514 0.329742 0.449007
O O1 0.763837 0.911049 0.713486
O O2 0.712281 0.951615 0.585875
O O3 0.532965 0.830786 0.937092
O O4 0.500000 0.000000 0.000000
O O5 0.500000 0.407151 0.250000
O O6 0.368257 0.489616 0.580720
O O7 0.676821 0.454734 0.176125
O O8 0.472268 0.332849 0.472819
O O9 0.865857 0.591143 0.586069
O O10 0.842366 0.415618 0.518236
O O11 0.902357 0.766050 0.608305
O O12 0.814261 0.641612 0.852651
O O13 0.630214 0.700378 0.934787
O O14 0.319548 0.269536 0.825619
O O15 0.131632 0.918715 0.734072
O O16 0.000000 0.007705 0.750000
O O17 0.062473 0.084529 0.848899
O O18 0.000000 0.280507 0.250000
#
# Coordination Sequence:
#
# PCOD9231130 Si02
#       8
#     4   4   4   4   4   4   4   4
#     4  10  21  38  60  87 121 157 200 252 297 362
#     4   9  16  32  58  82 111 151 194 244 308 347
#     4   9  19  34  56  85 116 152 201 247 302 370
#     4  10  20  38  65  86 117 162 206 250 303 382
#     4   9  21  40  57  86 118 155 207 250 299 376
#     4   9  19  39  62  88 125 162 197 256 309 368
#     4   9  20  39  62  90 119 162 203 240 313 375
#     4  11  23  38  57  88 122 157 205 260 315 360
#
# _framework density 20.078696999999998
#
# number of rings (size 3 to 8) (size 9 to 14) (size 15 to 20)
#    0.000    2.500    0.000    1.875    1.750    1.500 
#    6.750    5.625    0.000    0.000    0.000    0.000 
#    0.000    0.000    0.000    0.000    0.000    0.000 
#
# Total GULP energy -178435.004298 kJ/mol
# GULP energy per Si atom -5576.093884 kJ/mol
# Density = 2.003300 g / cm^3
# Si number density = 20.078697 Si / 1000 Ang^3
#
#
#
# Elastic Constant Matrix: (Units=GPa)
#
#
# Indices 1 2 3 4 5 6 
#
# 1 69.6986 15.2887 26.3803 0.0000 23.3719 0.0000
# 2 15.2887 111.3913 34.6221 0.0000 0.6291 0.0000
# 3 26.3803 34.6221 85.6522 0.0000 5.6481 0.0000
# 4 0.0000 0.0000 0.0000 16.4355 0.0000 -1.9294
# 5 23.3719 0.6291 5.6481 0.0000 15.8808 0.0000
# 6 0.0000 0.0000 0.0000 -1.9294 0.0000 25.3658
#
#
#
# Elastic Compliance Matrix: (Units=1/GPa)
#
#
# Indices 1 2 3 4 5 6 
#
# 1 0.032357 -0.002307 -0.006041 0.000000 -0.045381 0.000000
# 2 -0.002307 0.010450 -0.003799 0.000000 0.004333 0.000000
# 3 -0.006041 -0.003799 0.014823 0.000000 0.003769 0.000000
# 4 0.000000 0.000000 0.000000 0.061392 0.000000 0.004670
# 5 -0.045381 0.004333 0.003769 0.000000 0.128245 0.000000
# 6 0.000000 0.000000 0.000000 0.004670 0.000000 0.039778
#
#
# Mechanical properties :
#
#
# Convention : Reuss Voigt Hill
#
# Bulk Modulus (GPa) = 29.99755 46.59160 38.29458
# Shear Modulus (GPa) = 15.50614 24.23313 19.86963
#
# Velocity S-wave (km/s) = 2.78199 3.47783 3.14918
# Velocity P-wave (km/s) = 5.02908 6.27550 5.68655
#
# Compressibility (1/GPa) = 0.03333605
#
# Stress axis : x y z
#
# Youngs Moduli (GPa) = 30.90479 95.68948 67.46334
#
# Poissons Ratio (x) = 0.22078 0.40753
# Poissons Ratio (y) = 0.07131 0.25632
# Poissons Ratio (z) = 0.18669 0.36356
#
# Static dielectric constant tensor:
#      x y z
#    x 1.699850 0.000000 -0.018960 
#    y 0.000000 1.764630 0.000000 
#    z -0.018960 0.000000 1.744360 
# 
# From -- ./inp_files/39438.got.cif
#   From: 2010.05.17/outbox.cif.g08.bks.cpg/sg13_20_cif.got.tgz:39438.got - 2010.06.03 16:44:36.
