data_PCOD9231429
_publ_section_title
;
Structure prediction by ZEFSAII (Michael W. Deem and Ramdas Pophale) SiO2 
 PCOD9231429
Probable space group: P 2/C
;
_chemical_formula_sum "Si O2"
_cell_formula_units_Z 24
_cell_length_a 7.992258
_cell_length_b 14.914290
_cell_length_c 9.597441
_cell_angle_alpha 90.000000
_cell_angle_beta 115.171738
_cell_angle_gamma 90.000000
_cell_volume 1035.365875
_symmetry_space_group_name_H-M "P 2/C"
_symmetry_group_IT_number 13
_symmetry_cell_setting 'monoclinic'
loop_
_space_group_symop_operation_xyz
x,y,z
-x,y,1/2-z
-x,-y,-z
x,-y,1/2+z
loop_
_atom_site_type_symbol
_atom_site_label
_atom_site_fract_x
_atom_site_fract_y
_atom_site_fract_z
Si Si1 0.198213 0.714283 0.649040
Si Si2 0.340952 0.551634 0.570603
Si Si3 0.355502 0.640719 0.995635
Si Si4 0.818933 0.797044 0.434421
Si Si5 0.000000 0.901749 0.250000
Si Si6 0.307400 0.952946 0.910963
Si Si7 0.500000 0.842000 0.750000
O O1 0.186802 0.618973 0.570318
O O2 0.271482 0.690201 0.829354
O O3 0.356784 0.772997 0.626840
O O4 0.007945 0.765893 0.576219
O O5 0.500000 0.543756 0.750000
O O6 0.443970 0.602604 0.479387
O O7 0.265835 0.454762 0.503084
O O8 0.317877 0.712362 0.103488
O O9 0.886250 0.837914 0.313022
O O10 0.730393 0.878298 0.487948
O O11 0.850410 0.972096 0.136206
O O12 0.352267 0.900875 0.782972
O O13 0.500000 0.000000 0.000000
#
# Coordination Sequence:
#
# PCOD9231429 Si02
#       7
#     4   4   4   4   2   4   2
#     4  11  20  40  68 100 136 177 230 277 344 422
#     4   9  19  40  64 102 136 176 231 281 341 411
#     4  10  20  39  67  99 132 181 223 280 340 415
#     4  12  25  44  66 100 137 181 225 287 347 418
#     4  12  28  48  64 104 144 174 234 296 352 418
#     4  12  25  46  71  98 133 185 230 293 352 416
#     4  12  20  38  70 100 122 176 232 274 340 422
#
# _framework density 23.180211
#
# number of rings (size 3 to 8) (size 9 to 14) (size 15 to 20)
#    0.000    1.000    4.167    4.000    0.000    0.667 
#   12.000    0.000    0.000    0.000    0.000    0.000 
#    0.000    0.000    0.000    0.000    0.000    0.000 
#
# Total GULP energy -133981.618778 kJ/mol
# GULP energy per Si atom -5582.567449 kJ/mol
# Density = 2.312745 g / cm^3
# Si number density = 23.180211 Si / 1000 Ang^3
#
#
#
# Elastic Constant Matrix: (Units=GPa)
#
#
# Indices 1 2 3 4 5 6 
#
# 1 113.9954 65.2114 16.9672 0.0000 -12.9973 0.0000
# 2 65.2114 177.8072 30.1261 0.0000 -17.9387 0.0000
# 3 16.9672 30.1261 12.3746 0.0000 -5.2884 0.0000
# 4 0.0000 0.0000 0.0000 24.8190 0.0000 -16.1613
# 5 -12.9973 -17.9387 -5.2884 0.0000 49.3704 0.0000
# 6 0.0000 0.0000 0.0000 -16.1613 0.0000 49.2114
#
#
#
# Elastic Compliance Matrix: (Units=1/GPa)
#
#
# Indices 1 2 3 4 5 6 
#
# 1 0.011791 -0.002642 -0.009241 0.000000 0.001154 0.000000
# 2 -0.002642 0.010215 -0.020914 0.000000 0.000776 0.000000
# 3 -0.009241 -0.020914 0.146832 0.000000 0.005696 0.000000
# 4 0.000000 0.000000 0.000000 0.051252 0.000000 0.016831
# 5 0.001154 0.000776 0.005696 0.000000 0.021451 0.000000
# 6 0.000000 0.000000 0.000000 0.016831 0.000000 0.025848
#
#
# Mechanical properties :
#
#
# Convention : Reuss Voigt Hill
#
# Bulk Modulus (GPa) = 9.68591 58.75408 34.22000
# Shear Modulus (GPa) = 13.60926 37.47165 25.54045
#
# Velocity S-wave (km/s) = 2.42566 4.02498 3.32297
# Velocity P-wave (km/s) = 3.46882 6.85582 5.43300
#
# Compressibility (1/GPa) = 0.10324272
#
# Stress axis : x y z
#
# Youngs Moduli (GPa) = 84.81197 97.89719 6.81051
#
# Poissons Ratio (x) = 0.25865 0.06294
# Poissons Ratio (y) = 0.22408 0.14243
# Poissons Ratio (z) = 0.78378 2.04741
#
# Static dielectric constant tensor:
#      x y z
#    x 1.878970 0.000000 -0.008700 
#    y 0.000000 1.961070 0.000000 
#    z -0.008700 0.000000 1.845940 
# 
# From -- ./inp_files/29588.got.cif
#   From: 2010.05.17/outbox.cif.g08.bks.cpg/sg13_15_cif.got.tgz:29588.got - 2010.06.03 16:44:36.
