data_PCOD9231227
_publ_section_title
;
Structure prediction by ZEFSAII (Michael W. Deem and Ramdas Pophale) SiO2 
 PCOD9231227
Probable space group: P 2/C
;
_chemical_formula_sum "Si O2"
_cell_formula_units_Z 24
_cell_length_a 9.256981
_cell_length_b 15.941440
_cell_length_c 8.821822
_cell_angle_alpha 90.000000
_cell_angle_beta 91.823414
_cell_angle_gamma 90.000000
_cell_volume 1301.173612
_symmetry_space_group_name_H-M "P 2/C"
_symmetry_group_IT_number 13
_symmetry_cell_setting 'monoclinic'
loop_
_space_group_symop_operation_xyz
x,y,z
-x,y,1/2-z
-x,-y,-z
x,-y,1/2+z
loop_
_atom_site_type_symbol
_atom_site_label
_atom_site_fract_x
_atom_site_fract_y
_atom_site_fract_z
Si Si1 0.481723 0.408774 0.570176
Si Si2 0.855404 0.218712 0.185222
Si Si3 0.151869 0.607661 0.969931
Si Si4 0.398655 0.735733 0.605024
Si Si5 0.610902 0.116838 0.020423
Si Si6 0.500000 0.980995 0.250000
Si Si7 0.000000 0.522076 0.250000
O O1 0.500000 0.412671 0.750000
O O2 0.500000 0.500000 0.500000
O O3 0.320740 0.381748 0.514566
O O4 0.595825 0.341834 0.508340
O O5 0.898567 0.303841 0.099387
O O6 0.753341 0.241995 0.324938
O O7 0.756280 0.163908 0.071241
O O8 0.000000 0.175984 0.250000
O O9 0.116166 0.537846 0.839996
O O10 0.072957 0.576954 0.120227
O O11 0.500000 0.709932 0.750000
O O12 0.479211 0.816686 0.537332
O O13 0.584711 0.041996 0.138883
O O14 0.602552 0.077303 0.854612
#
# Coordination Sequence:
#
# PCOD9231227 Si02
#       7
#     4   4   4   4   4   2   2
#     4  12  25  36  59  87 121 157 209 263 303 352
#     4  11  22  39  63  88 124 167 198 250 314 371
#     4  11  22  41  57  83 119 165 208 252 307 362
#     4  10  20  39  60  87 122 159 207 251 304 361
#     4  10  20  40  66  94 122 160 204 248 306 379
#     4  10  20  38  72  94 122 160 200 252 310 370
#     4  10  24  38  62  84 120 166 214 252 304 372
#
# _framework density 18.444884999999999
#
# number of rings (size 3 to 8) (size 9 to 14) (size 15 to 20)
#    0.000    1.333    6.667    1.500    3.500    1.333 
#    0.000    0.833    0.000    0.000    0.000    0.000 
#    0.000    0.000    0.000    0.000    0.000    0.000 
#
# Total GULP energy -134001.373036 kJ/mol
# GULP energy per Si atom -5583.390543 kJ/mol
# Density = 1.840290 g / cm^3
# Si number density = 18.444885 Si / 1000 Ang^3
#
#
#
# Elastic Constant Matrix: (Units=GPa)
#
#
# Indices 1 2 3 4 5 6 
#
# 1 74.3552 18.7882 19.0516 0.0000 12.6898 0.0000
# 2 18.7882 101.4027 51.9566 0.0000 -2.4523 0.0000
# 3 19.0516 51.9566 95.0509 0.0000 1.0570 0.0000
# 4 0.0000 0.0000 0.0000 29.8413 0.0000 11.4844
# 5 12.6898 -2.4523 1.0570 0.0000 19.9203 0.0000
# 6 0.0000 0.0000 0.0000 11.4844 0.0000 14.3342
#
#
#
# Elastic Compliance Matrix: (Units=1/GPa)
#
#
# Indices 1 2 3 4 5 6 
#
# 1 0.016324 -0.002312 -0.001890 0.000000 -0.010583 0.000000
# 2 -0.002312 0.014113 -0.007291 0.000000 0.003597 0.000000
# 3 -0.001890 -0.007291 0.014890 0.000000 -0.000483 0.000000
# 4 0.000000 0.000000 0.000000 0.048449 0.000000 -0.038817
# 5 -0.010583 0.003597 -0.000483 0.000000 0.057410 0.000000
# 6 0.000000 0.000000 0.000000 -0.038817 0.000000 0.100863
#
#
# Mechanical properties :
#
#
# Convention : Reuss Voigt Hill
#
# Bulk Modulus (GPa) = 44.76215 50.04463 47.40339
# Shear Modulus (GPa) = 17.70028 24.88668 21.29348
#
# Velocity S-wave (km/s) = 3.10115 3.67719 3.40139
# Velocity P-wave (km/s) = 6.09455 6.72457 6.41730
#
# Compressibility (1/GPa) = 0.02234030
#
# Stress axis : x y z
#
# Youngs Moduli (GPa) = 61.26090 70.85824 67.15776
#
# Poissons Ratio (x) = 0.16381 0.12696
# Poissons Ratio (y) = 0.14162 0.48964
# Poissons Ratio (z) = 0.11581 0.51662
#
# Static dielectric constant tensor:
#      x y z
#    x 1.648750 0.000000 -0.000340 
#    y 0.000000 1.641390 0.000000 
#    z -0.000340 0.000000 1.648120 
# 
# From -- ./inp_files/12572.got.cif
#   From: 2010.05.17/outbox.cif.g08.bks.cpg/sg13_7_cif.got.tgz:12572.got - 2010.06.03 16:44:36.
