data_PCOD9231897
_publ_section_title
;
Structure prediction by ZEFSAII (Michael W. Deem and Ramdas Pophale) SiO2 
 PCOD9231897
Probable space group: P 2/C
;
_chemical_formula_sum "Si O2"
_cell_formula_units_Z 28
_cell_length_a 5.346748
_cell_length_b 30.786265
_cell_length_c 7.178443
_cell_angle_alpha 90.000000
_cell_angle_beta 108.255053
_cell_angle_gamma 90.000000
_cell_volume 1122.148626
_symmetry_space_group_name_H-M "P 2/C"
_symmetry_group_IT_number 13
_symmetry_cell_setting 'monoclinic'
loop_
_space_group_symop_operation_xyz
x,y,z
-x,y,1/2-z
-x,-y,-z
x,-y,1/2+z
loop_
_atom_site_type_symbol
_atom_site_label
_atom_site_fract_x
_atom_site_fract_y
_atom_site_fract_z
Si Si1 0.933110 0.866702 0.456718
Si Si2 0.438076 0.646776 0.011559
Si Si3 0.500000 0.194628 0.750000
Si Si4 0.000000 0.517967 0.250000
Si Si5 0.055050 0.303193 0.984311
Si Si6 0.305910 0.447492 0.524925
Si Si7 0.817460 0.039732 0.881694
Si Si8 0.745125 0.214039 0.434086
O O1 0.676353 0.837560 0.413536
O O2 0.855322 0.915259 0.505034
O O3 0.000000 0.866960 0.250000
O O4 0.157320 0.835014 0.587097
O O5 0.500000 0.644930 0.250000
O O6 0.669657 0.670454 0.952970
O O7 0.377401 0.597179 0.944020
O O8 0.171286 0.673807 0.952655
O O9 0.667808 0.218682 0.634696
O O10 0.240074 0.485666 0.363610
O O11 0.034882 0.549275 0.081195
O O12 0.000000 0.303763 0.750000
O O13 0.055098 0.253075 0.048035
O O14 0.500000 0.450977 0.750000
O O15 0.500000 0.032507 0.750000
O O16 0.000000 0.049679 0.750000
O O17 0.000000 0.000000 0.000000
O O18 0.500000 0.223599 0.250000
#
# Coordination Sequence:
#
# PCOD9231897 Si02
#       8
#     4   4   2   2   4   4   4   4
#     4   9  20  40  65  91 128 178 227 275 346 412
#     4   9  21  37  67  89 129 170 224 261 337 403
#     4  10  20  42  68  84 130 178 214 278 344 402
#     4  10  22  38  62  94 124 164 216 270 336 388
#     4  10  21  41  64  95 125 180 217 273 332 413
#     4  10  21  39  62  91 125 167 214 272 327 402
#     4  11  23  43  68 100 140 186 237 293 357 427
#     4  11  25  41  64 102 132 173 231 288 346 416
#
# _framework density 24.95213
#
# number of rings (size 3 to 8) (size 9 to 14) (size 15 to 20)
#    0.000    2.000    0.714    2.143   10.000    1.143 
#    5.143    0.000    0.000    0.000    0.000    0.000 
#    0.000    0.000    0.000    0.000    0.000    0.000 
#
# Total GULP energy -156026.740126 kJ/mol
# GULP energy per Si atom -5572.383576 kJ/mol
# Density = 2.489534 g / cm^3
# Si number density = 24.952130 Si / 1000 Ang^3
#
#
#
# Elastic Constant Matrix: (Units=GPa)
#
#
# Indices 1 2 3 4 5 6 
#
# 1 129.0778 64.2361 22.2169 0.0000 15.8499 0.0000
# 2 64.2361 145.7509 32.7147 0.0000 14.4545 0.0000
# 3 22.2169 32.7147 88.6338 0.0000 25.2170 0.0000
# 4 0.0000 0.0000 0.0000 279.9235 0.0000 -62.2893
# 5 15.8499 14.4545 25.2170 0.0000 40.8527 0.0000
# 6 0.0000 0.0000 0.0000 -62.2893 0.0000 27.5918
#
#
#
# Elastic Compliance Matrix: (Units=1/GPa)
#
#
# Indices 1 2 3 4 5 6 
#
# 1 0.010163 -0.004174 -0.000370 0.000000 -0.002238 0.000000
# 2 -0.004174 0.009239 -0.002298 0.000000 -0.000231 0.000000
# 3 -0.000370 -0.002298 0.014497 0.000000 -0.007992 0.000000
# 4 0.000000 0.000000 0.000000 0.007179 0.000000 0.016206
# 5 -0.002238 -0.000231 -0.007992 0.000000 0.030361 0.000000
# 6 0.000000 0.000000 0.000000 0.016206 0.000000 0.072828
#
#
# Mechanical properties :
#
#
# Convention : Reuss Voigt Hill
#
# Bulk Modulus (GPa) = 49.46926 66.86642 58.16784
# Shear Modulus (GPa) = 30.36000 85.95991 58.15995
#
# Velocity S-wave (km/s) = 3.49195 5.87577 4.83314
# Velocity P-wave (km/s) = 6.01057 8.53751 7.38295
#
# Compressibility (1/GPa) = 0.02021457
#
# Stress axis : x y z
#
# Youngs Moduli (GPa) = 98.39607 108.23187 68.97879
#
# Poissons Ratio (x) = 0.45177 0.02553
# Poissons Ratio (y) = 0.41071 0.15853
# Poissons Ratio (z) = 0.03642 0.24875
#
# Static dielectric constant tensor:
#      x y z
#    x 1.851480 0.000000 -0.014910 
#    y 0.000000 2.082110 0.000000 
#    z -0.014910 0.000000 2.033290 
# 
# From -- ./inp_files/10372.got.cif
#   From: 2010.05.17/outbox.cif.g08.bks.cpg/sg13_6_cif.got.tgz:10372.got - 2010.06.03 16:44:36.
