data_PCOD9231401
_publ_section_title
;
Structure prediction by ZEFSAII (Michael W. Deem and Ramdas Pophale) SiO2 
 PCOD9231401
Probable space group: P 2/C
;
_chemical_formula_sum "Si O2"
_cell_formula_units_Z 18
_cell_length_a 8.539519
_cell_length_b 5.454595
_cell_length_c 20.544317
_cell_angle_alpha 90.000000
_cell_angle_beta 126.544537
_cell_angle_gamma 90.000000
_cell_volume 768.805262
_symmetry_space_group_name_H-M "P 2/C"
_symmetry_group_IT_number 13
_symmetry_cell_setting 'monoclinic'
loop_
_space_group_symop_operation_xyz
x,y,z
-x,y,1/2-z
-x,-y,-z
x,-y,1/2+z
loop_
_atom_site_type_symbol
_atom_site_label
_atom_site_fract_x
_atom_site_fract_y
_atom_site_fract_z
Si Si1 0.500000 0.511392 0.250000
Si Si2 0.185254 0.764820 0.488992
Si Si3 0.261325 0.735030 0.074425
Si Si4 0.202675 0.175271 0.840578
Si Si5 0.763572 0.674027 0.705587
O O1 0.389829 0.676778 0.169673
O O2 0.330496 0.355191 0.245675
O O3 0.274933 0.500901 0.529899
O O4 0.175948 0.819327 0.410407
O O5 0.963049 0.745560 0.457807
O O6 0.285333 0.999542 0.547516
O O7 0.304049 0.427689 0.846632
O O8 0.000000 0.179208 0.750000
O O9 0.302028 0.927041 0.841864
O O10 0.000000 0.675644 0.750000
#
# Coordination Sequence:
#
# PCOD9231401 Si02
#       5
#     2   4   4   4   4
#     4  12  26  46  70 104 134 176 236 276 334 408
#     4  10  21  42  65  97 136 178 220 274 342 397
#     4  10  23  39  67  98 136 177 221 280 333 398
#     4  10  20  39  66  93 127 176 224 270 332 402
#     4  10  23  40  66  96 130 174 220 279 333 394
#
# _framework density 23.412952000000001
#
# number of rings (size 3 to 8) (size 9 to 14) (size 15 to 20)
#    0.000    1.778    0.000    4.000    0.000   14.222 
#    0.000    6.667    0.000    0.000    0.000    0.000 
#    0.000    0.000    0.000    0.000    0.000    0.000 
#
# Total GULP energy -100518.195134 kJ/mol
# GULP energy per Si atom -5584.344174 kJ/mol
# Density = 2.335966 g / cm^3
# Si number density = 23.412952 Si / 1000 Ang^3
#
#
#
# Elastic Constant Matrix: (Units=GPa)
#
#
# Indices 1 2 3 4 5 6 
#
# 1 162.0476 67.2514 70.9051 0.0000 -1.9560 0.0000
# 2 67.2514 268.2653 66.7463 0.0000 -33.9054 0.0000
# 3 70.9051 66.7463 164.5558 0.0000 -2.7739 0.0000
# 4 0.0000 0.0000 0.0000 30.5624 0.0000 -20.2419
# 5 -1.9560 -33.9054 -2.7739 0.0000 60.2959 0.0000
# 6 0.0000 0.0000 0.0000 -20.2419 0.0000 -16.6131
#
#
#
# Elastic Compliance Matrix: (Units=1/GPa)
#
#
# Indices 1 2 3 4 5 6 
#
# 1 0.008000 -0.001364 -0.002905 0.000000 -0.000641 0.000000
# 2 -0.001364 0.004710 -0.001280 0.000000 0.002545 0.000000
# 3 -0.002905 -0.001280 0.007840 0.000000 -0.000453 0.000000
# 4 0.000000 0.000000 0.000000 0.018108 0.000000 -0.022063
# 5 -0.000641 0.002545 -0.000453 0.000000 0.017974 0.000000
# 6 0.000000 0.000000 0.000000 -0.022063 0.000000 -0.033312
#
#
# Mechanical properties :
#
#
# Convention : Reuss Voigt Hill
#
# Bulk Modulus (GPa) = 105.78469 111.63049 108.70759
# Shear Modulus (GPa) = 133.09077 40.84676 86.96877
#
# Velocity S-wave (km/s) = 7.54774 4.18140 6.10133
# Velocity P-wave (km/s) = 11.01081 8.43176 9.80644
#
# Compressibility (1/GPa) = 0.00945316
#
# Stress axis : x y z
#
# Youngs Moduli (GPa) = 124.99450 212.33001 127.54990
#
# Poissons Ratio (x) = 0.28959 0.37051
# Poissons Ratio (y) = 0.17048 0.16323
# Poissons Ratio (z) = 0.36309 0.27172
#
# Static dielectric constant tensor:
#      x y z
#    x 1.804900 0.000000 -0.093680 
#    y 0.000000 1.882510 0.000000 
#    z -0.093680 0.000000 1.720370 
# 
# From -- ./inp_files/62264.got.cif
#   From: 2010.05.17/outbox.cif.g08.bks.cpg/sg13_32_cif.got.tgz:62264.got - 2010.06.03 16:44:36.
