data_PCOD9231559
_publ_section_title
;
Structure prediction by ZEFSAII (Michael W. Deem and Ramdas Pophale) SiO2 
 PCOD9231559
Probable space group: P 2/C
;
_chemical_formula_sum "Si O2"
_cell_formula_units_Z 30
_cell_length_a 10.319640
_cell_length_b 9.718677
_cell_length_c 14.694328
_cell_angle_alpha 90.000000
_cell_angle_beta 74.042090
_cell_angle_gamma 90.000000
_cell_volume 1416.949649
_symmetry_space_group_name_H-M "P 2/C"
_symmetry_group_IT_number 13
_symmetry_cell_setting 'monoclinic'
loop_
_space_group_symop_operation_xyz
x,y,z
-x,y,1/2-z
-x,-y,-z
x,-y,1/2+z
loop_
_atom_site_type_symbol
_atom_site_label
_atom_site_fract_x
_atom_site_fract_y
_atom_site_fract_z
Si Si1 0.493553 0.619747 0.923143
Si Si2 0.098490 0.917978 0.593411
Si Si3 0.729044 0.696424 0.121266
Si Si4 0.000000 0.691733 0.750000
Si Si5 0.211206 0.556597 0.018863
Si Si6 0.593862 0.124998 0.514659
Si Si7 0.011273 0.804934 0.064553
Si Si8 0.261390 0.514790 0.719992
O O1 0.596288 0.591806 0.821956
O O2 0.500000 0.500000 0.000000
O O3 0.333687 0.630329 0.940881
O O4 0.548209 0.755461 0.957326
O O5 0.251449 0.914167 0.530450
O O6 0.078481 0.798238 0.670184
O O7 0.994676 0.870629 0.534871
O O8 0.073267 0.078855 0.618149
O O9 0.606905 0.792633 0.109316
O O10 0.706538 0.598663 0.210979
O O11 0.857565 0.786008 0.122799
O O12 0.783320 0.595078 0.028473
O O13 0.878550 0.597574 0.731540
O O14 0.084270 0.658224 0.040737
O O15 0.235205 0.540756 0.122380
O O16 0.500000 0.000000 0.500000
#
# Coordination Sequence:
#
# PCOD9231559 Si02
#       8
#     4   4   4   2   4   4   4   4
#     4  10  20  40  63  95 125 175 222 268 337 397
#     4  10  22  38  63  89 132 171 217 274 327 412
#     4  11  22  38  65  99 132 164 225 283 330 408
#     4  12  20  38  64  92 130 170 216 282 348 406
#     4  11  21  40  64  93 131 170 219 284 337 396
#     4  11  21  42  67  97 130 181 219 267 348 412
#     4  10  21  39  60  95 125 174 219 268 342 392
#     4  11  22  37  64  95 128 171 218 281 344 390
#
# _framework density 21.172241
#
# number of rings (size 3 to 8) (size 9 to 14) (size 15 to 20)
#    0.000    1.333    4.000    3.600    0.000    1.600 
#    0.000    0.000    0.000    0.000    0.000    0.000 
#    0.000    0.000    0.000    0.000    0.000    0.000 
#
# Total GULP energy -167017.697560 kJ/mol
# GULP energy per Si atom -5567.256585 kJ/mol
# Density = 2.112405 g / cm^3
# Si number density = 21.172241 Si / 1000 Ang^3
#
#
#
# Elastic Constant Matrix: (Units=GPa)
#
#
# Indices 1 2 3 4 5 6 
#
# 1 94.3667 38.8392 15.6369 0.0000 -4.4089 0.0000
# 2 38.8392 117.4117 31.0973 0.0000 8.9124 0.0000
# 3 15.6369 31.0973 52.6972 0.0000 0.1962 0.0000
# 4 0.0000 0.0000 0.0000 18.6044 0.0000 3.7075
# 5 -4.4089 8.9124 0.1962 0.0000 22.2591 0.0000
# 6 0.0000 0.0000 0.0000 3.7075 0.0000 49.8649
#
#
#
# Elastic Compliance Matrix: (Units=1/GPa)
#
#
# Indices 1 2 3 4 5 6 
#
# 1 0.012734 -0.004180 -0.001327 0.000000 0.004208 0.000000
# 2 -0.004180 0.011834 -0.005723 0.000000 -0.005516 0.000000
# 3 -0.001327 -0.005723 0.022740 0.000000 0.001828 0.000000
# 4 0.000000 0.000000 0.000000 0.054559 0.000000 -0.004056
# 5 0.004208 -0.005516 0.001828 0.000000 0.047951 0.000000
# 6 0.000000 0.000000 0.000000 -0.004056 0.000000 0.020356
#
#
# Mechanical properties :
#
#
# Convention : Reuss Voigt Hill
#
# Bulk Modulus (GPa) = 40.24444 48.40249 44.32347
# Shear Modulus (GPa) = 24.88578 30.07248 27.47913
#
# Velocity S-wave (km/s) = 3.43213 3.77287 3.60653
# Velocity P-wave (km/s) = 5.89537 6.47228 6.19055
#
# Compressibility (1/GPa) = 0.02484815
#
# Stress axis : x y z
#
# Youngs Moduli (GPa) = 78.53015 84.50106 43.97458
#
# Poissons Ratio (x) = 0.35323 0.05838
# Poissons Ratio (y) = 0.32827 0.25165
# Poissons Ratio (z) = 0.10425 0.48356
#
# Static dielectric constant tensor:
#      x y z
#    x 1.817420 0.000000 0.061820 
#    y 0.000000 1.805520 0.000000 
#    z 0.061820 0.000000 1.514990 
# 
# From -- ./inp_files/50286.got.cif
#   From: 2010.05.17/outbox.cif.g08.bks.cpg/sg13_26_cif.got.tgz:50286.got - 2010.06.03 16:44:36.
