data_PCOD9231139
_publ_section_title
;
Structure prediction by ZEFSAII (Michael W. Deem and Ramdas Pophale) SiO2 
 PCOD9231139
Probable space group: P 2/C
;
_chemical_formula_sum "Si O2"
_cell_formula_units_Z 32
_cell_length_a 23.073643
_cell_length_b 8.758830
_cell_length_c 14.106745
_cell_angle_alpha 90.000000
_cell_angle_beta 29.843455
_cell_angle_gamma 90.000000
_cell_volume 1418.722141
_symmetry_space_group_name_H-M "P 2/C"
_symmetry_group_IT_number 13
_symmetry_cell_setting 'monoclinic'
loop_
_space_group_symop_operation_xyz
x,y,z
-x,y,1/2-z
-x,-y,-z
x,-y,1/2+z
loop_
_atom_site_type_symbol
_atom_site_label
_atom_site_fract_x
_atom_site_fract_y
_atom_site_fract_z
Si Si1 0.448151 0.723418 0.080688
Si Si2 0.357900 0.427970 0.109947
Si Si3 0.892945 0.061339 0.830674
Si Si4 0.621630 0.267764 0.606404
Si Si5 0.856423 0.118142 0.198500
Si Si6 0.949366 0.648612 0.158245
Si Si7 0.873586 0.416310 0.559083
Si Si8 0.240059 0.901999 0.329929
O O1 0.424340 0.579696 0.047546
O O2 0.386434 0.697189 0.271107
O O3 0.376855 0.860077 0.133851
O O4 0.583483 0.714859 0.918347
O O5 0.225225 0.460056 0.323679
O O6 0.376143 0.405956 0.972240
O O7 0.000000 0.039863 0.750000
O O8 0.882371 0.239728 0.823185
O O9 0.916052 0.974597 0.699434
O O10 0.784826 0.989568 0.037698
O O11 0.500000 0.183926 0.750000
O O12 0.740855 0.186721 0.410164
O O13 0.808355 0.005606 0.185920
O O14 0.941536 0.248297 0.035852
O O15 0.874718 0.610684 0.171376
O O16 0.001243 0.496247 0.132463
O O17 0.834396 0.257237 0.567889
#
# Coordination Sequence:
#
# PCOD9231139 Si02
#       8
#     4   4   4   4   4   4   4   4
#     4   9  19  37  66  97 121 172 222 266 343 409
#     4   9  18  37  64  93 133 161 213 283 328 391
#     4  12  23  39  64  95 132 181 222 269 335 411
#     4  10  20  38  65  94 125 172 220 271 341 408
#     4  12  22  41  67  92 133 178 219 289 334 405
#     4  11  22  39  62  96 132 175 221 274 338 393
#     4  10  21  39  64  95 129 172 217 269 337 400
#     4  11  22  40  68  95 129 178 224 276 344 404
#
# _framework density 22.555508
#
# number of rings (size 3 to 8) (size 9 to 14) (size 15 to 20)
#    0.000    1.500    5.000    1.125    0.000    0.000 
#    0.000    9.375    2.750    9.000    0.000    0.000 
#    0.000    0.000    0.000    0.000    0.000    0.000 
#
# Total GULP energy -178621.050578 kJ/mol
# GULP energy per Si atom -5581.907831 kJ/mol
# Density = 2.250417 g / cm^3
# Si number density = 22.555508 Si / 1000 Ang^3
#
#
#
# Elastic Constant Matrix: (Units=GPa)
#
#
# Indices 1 2 3 4 5 6 
#
# 1 120.2239 38.6715 17.9068 0.0000 7.0094 0.0000
# 2 38.6715 71.4840 31.6103 0.0000 -1.5240 0.0000
# 3 17.9068 31.6103 41.3596 0.0000 -5.3893 0.0000
# 4 0.0000 0.0000 0.0000 34.7378 0.0000 2.6025
# 5 7.0094 -1.5240 -5.3893 0.0000 34.5512 0.0000
# 6 0.0000 0.0000 0.0000 2.6025 0.0000 31.9019
#
#
#
# Elastic Compliance Matrix: (Units=1/GPa)
#
#
# Indices 1 2 3 4 5 6 
#
# 1 0.010268 -0.005288 -0.000721 0.000000 -0.002429 0.000000
# 2 -0.005288 0.023943 -0.016059 0.000000 -0.000376 0.000000
# 3 -0.000721 -0.016059 0.037451 0.000000 0.005279 0.000000
# 4 0.000000 0.000000 0.000000 0.028964 0.000000 -0.002363
# 5 -0.002429 -0.000376 0.005279 0.000000 0.030242 0.000000
# 6 0.000000 0.000000 0.000000 -0.002363 0.000000 0.031539
#
#
# Mechanical properties :
#
#
# Convention : Reuss Voigt Hill
#
# Bulk Modulus (GPa) = 36.32673 45.49387 40.91030
# Shear Modulus (GPa) = 23.17852 29.89678 26.53765
#
# Velocity S-wave (km/s) = 3.20913 3.64466 3.43381
# Velocity P-wave (km/s) = 5.46551 6.15832 5.82223
#
# Compressibility (1/GPa) = 0.02752794
#
# Stress axis : x y z
#
# Youngs Moduli (GPa) = 97.39381 41.76607 26.70122
#
# Poissons Ratio (x) = 0.22085 0.01924
# Poissons Ratio (y) = 0.51499 0.42879
# Poissons Ratio (z) = 0.07017 0.67071
#
# Static dielectric constant tensor:
#      x y z
#    x 1.860770 0.000000 -0.044270 
#    y 0.000000 1.857920 0.000000 
#    z -0.044270 0.000000 1.893610 
# 
# From -- ./inp_files/58789.got.cif
#   From: 2010.05.17/outbox.cif.g08.bks.cpg/sg13_30_cif.got.tgz:58789.got - 2010.06.03 16:44:36.
