data_PCOD9231124
_publ_section_title
;
Structure prediction by ZEFSAII (Michael W. Deem and Ramdas Pophale) SiO2 
 PCOD9231124
Probable space group: P 2/C
;
_chemical_formula_sum "Si O2"
_cell_formula_units_Z 20
_cell_length_a 13.466644
_cell_length_b 9.104279
_cell_length_c 13.397593
_cell_angle_alpha 90.000000
_cell_angle_beta 31.358425
_cell_angle_gamma 90.000000
_cell_volume 854.792647
_symmetry_space_group_name_H-M "P 2/C"
_symmetry_group_IT_number 13
_symmetry_cell_setting 'monoclinic'
loop_
_space_group_symop_operation_xyz
x,y,z
-x,y,1/2-z
-x,-y,-z
x,-y,1/2+z
loop_
_atom_site_type_symbol
_atom_site_label
_atom_site_fract_x
_atom_site_fract_y
_atom_site_fract_z
Si Si1 0.924057 0.792758 0.628664
Si Si2 0.159576 0.454233 0.046988
Si Si3 0.901861 0.128567 0.729117
Si Si4 0.486833 0.173816 0.502875
Si Si5 0.533061 0.430972 0.863404
O O1 0.698686 0.768110 0.806096
O O2 0.034216 0.679786 0.606949
O O3 0.013279 0.792449 0.441441
O O4 0.924673 0.955948 0.677885
O O5 0.000000 0.536964 0.250000
O O6 0.337479 0.427338 0.969114
O O7 0.287274 0.507487 0.844242
O O8 0.000000 0.143944 0.750000
O O9 0.685374 0.189572 0.926758
O O10 0.417694 0.259058 0.661062
O O11 0.500000 0.000000 0.500000
O O12 0.500000 0.500000 0.000000
#
# Coordination Sequence:
#
# PCOD9231124 Si02
#       5
#     4   4   4   4   4
#     4  10  20  38  64  98 132 180 240 277 346 427
#     4  11  22  43  75  98 128 192 240 287 346 434
#     4  10  21  36  59  99 145 175 221 295 354 408
#     4  10  21  40  65  98 136 176 226 291 345 417
#     4  11  25  44  69 104 141 179 240 295 352 424
#
# _framework density 23.397489
#
# number of rings (size 3 to 8) (size 9 to 14) (size 15 to 20)
#    0.000    1.600    4.000    0.600    2.800    1.600 
#    0.000    5.000    0.000    0.000    0.000    0.000 
#    0.000    0.000    0.000    0.000    0.000    0.000 
#
# Total GULP energy -111454.383663 kJ/mol
# GULP energy per Si atom -5572.719183 kJ/mol
# Density = 2.334423 g / cm^3
# Si number density = 23.397489 Si / 1000 Ang^3
#
#
#
# Elastic Constant Matrix: (Units=GPa)
#
#
# Indices 1 2 3 4 5 6 
#
# 1 203.3057 43.4090 97.5815 0.0000 -16.4327 0.0000
# 2 43.4090 80.9339 33.4825 0.0000 6.8135 0.0000
# 3 97.5815 33.4825 188.5656 0.0000 -13.6653 0.0000
# 4 0.0000 0.0000 0.0000 13.7539 0.0000 -2.1505
# 5 -16.4327 6.8135 -13.6653 0.0000 54.0741 0.0000
# 6 0.0000 0.0000 0.0000 -2.1505 0.0000 6.9895
#
#
#
# Elastic Compliance Matrix: (Units=1/GPa)
#
#
# Indices 1 2 3 4 5 6 
#
# 1 0.007108 -0.002684 -0.003077 0.000000 0.001721 0.000000
# 2 -0.002684 0.014641 -0.001430 0.000000 -0.003022 0.000000
# 3 -0.003077 -0.001430 0.007227 0.000000 0.001071 0.000000
# 4 0.000000 0.000000 0.000000 0.076381 0.000000 0.023501
# 5 0.001721 -0.003022 0.001071 0.000000 0.019668 0.000000
# 6 0.000000 0.000000 0.000000 0.023501 0.000000 0.150302
#
#
# Mechanical properties :
#
#
# Convention : Reuss Voigt Hill
#
# Bulk Modulus (GPa) = 68.51931 91.30570 79.91251
# Shear Modulus (GPa) = 16.97373 34.85232 25.91302
#
# Velocity S-wave (km/s) = 2.69634 3.86369 3.33154
# Velocity P-wave (km/s) = 6.24837 7.68196 7.00195
#
# Compressibility (1/GPa) = 0.01459443
#
# Stress axis : x y z
#
# Youngs Moduli (GPa) = 140.69218 68.29996 138.37032
#
# Poissons Ratio (x) = 0.18333 0.42575
# Poissons Ratio (y) = 0.37764 0.19783
# Poissons Ratio (z) = 0.43289 0.09765
#
# Static dielectric constant tensor:
#      x y z
#    x 1.826490 0.000000 -0.000510 
#    y 0.000000 1.992800 0.000000 
#    z -0.000510 0.000000 1.954310 
# 
# From -- ./inp_files/33014.got.cif
#   From: 2010.05.17/outbox.cif.g08.bks.cpg/sg13_17_cif.got.tgz:33014.got - 2010.06.03 16:44:36.
