data_PCOD9231193
_publ_section_title
;
Structure prediction by ZEFSAII (Michael W. Deem and Ramdas Pophale) SiO2 
 PCOD9231193
Probable space group: P 2/C
;
_chemical_formula_sum "Si O2"
_cell_formula_units_Z 18
_cell_length_a 5.394723
_cell_length_b 9.304732
_cell_length_c 14.725845
_cell_angle_alpha 90.000000
_cell_angle_beta 72.537536
_cell_angle_gamma 90.000000
_cell_volume 705.118893
_symmetry_space_group_name_H-M "P 2/C"
_symmetry_group_IT_number 13
_symmetry_cell_setting 'monoclinic'
loop_
_space_group_symop_operation_xyz
x,y,z
-x,y,1/2-z
-x,-y,-z
x,-y,1/2+z
loop_
_atom_site_type_symbol
_atom_site_label
_atom_site_fract_x
_atom_site_fract_y
_atom_site_fract_z
Si Si1 0.925862 0.146620 0.102512
Si Si2 0.500000 0.683552 0.750000
Si Si3 0.195840 0.138035 0.807832
Si Si4 0.666073 0.647508 0.927443
Si Si5 0.858712 0.643131 0.439460
O O1 0.743920 0.216692 0.199276
O O2 0.219527 0.192465 0.092577
O O3 0.847232 0.981346 0.109215
O O4 0.871355 0.241704 0.019857
O O5 0.564541 0.605397 0.838046
O O6 0.500000 0.147203 0.750000
O O7 0.000000 0.084469 0.750000
O O8 0.066842 0.289411 0.848914
O O9 0.883676 0.529783 0.931142
O O10 0.457808 0.646647 0.032153
#
# Coordination Sequence:
#
# PCOD9231193 Si02
#       5
#     4   2   4   4   4
#     4  11  22  43  74  99 143 190 245 295 365 439
#     4  10  20  38  68 108 138 188 236 300 356 440
#     4  12  28  48  71 109 151 192 248 301 369 435
#     4  10  22  43  72 106 144 187 245 296 370 433
#     4  10  25  45  68 108 141 193 238 308 363 435
#
# _framework density 25.527609000000002
#
# number of rings (size 3 to 8) (size 9 to 14) (size 15 to 20)
#    0.000    1.333    1.111    3.333    6.222    2.667 
#    4.000    0.000    0.000    0.000    0.000    0.000 
#    0.000    0.000    0.000    0.000    0.000    0.000 
#
# Total GULP energy -100311.304672 kJ/mol
# GULP energy per Si atom -5572.850260 kJ/mol
# Density = 2.546951 g / cm^3
# Si number density = 25.527609 Si / 1000 Ang^3
#
#
#
# Elastic Constant Matrix: (Units=GPa)
#
#
# Indices 1 2 3 4 5 6 
#
# 1 98.6001 50.3994 47.9206 0.0000 -13.1330 0.0000
# 2 50.3994 149.5355 41.8776 0.0000 -39.5597 0.0000
# 3 47.9206 41.8776 81.4345 0.0000 -32.6232 0.0000
# 4 0.0000 0.0000 0.0000 26.7740 0.0000 -19.7623
# 5 -13.1330 -39.5597 -32.6232 0.0000 47.9788 0.0000
# 6 0.0000 0.0000 0.0000 -19.7623 0.0000 14.2813
#
#
#
# Elastic Compliance Matrix: (Units=1/GPa)
#
#
# Indices 1 2 3 4 5 6 
#
# 1 0.016249 -0.004268 -0.009614 0.000000 -0.005608 0.000000
# 2 -0.004268 0.009960 0.000290 0.000000 0.007242 0.000000
# 3 -0.009614 0.000290 0.023130 0.000000 0.013335 0.000000
# 4 0.000000 0.000000 0.000000 -1.745915 0.000000 -2.415973
# 5 -0.005608 0.007242 0.013335 0.000000 0.034346 0.000000
# 6 0.000000 0.000000 0.000000 -2.415973 0.000000 -3.273168
#
#
# Mechanical properties :
#
#
# Convention : Reuss Voigt Hill
#
# Bulk Modulus (GPa) = 45.13250 67.77393 56.45322
# Shear Modulus (GPa) = -1.02024 30.43166 14.70571
#
# Velocity S-wave (km/s) = -0.63287 3.45644 2.40275
# Velocity P-wave (km/s) = 4.14539 6.52198 5.46445
#
# Compressibility (1/GPa) = 0.02215698
#
# Stress axis : x y z
#
# Youngs Moduli (GPa) = 61.54305 100.39902 43.23435
#
# Poissons Ratio (x) = 0.42848 0.41564
# Poissons Ratio (y) = 0.26265 -0.01256
# Poissons Ratio (z) = 0.59165 -0.02916
#
# Static dielectric constant tensor:
#      x y z
#    x 2.263100 0.000000 0.062890 
#    y 0.000000 2.022990 0.000000 
#    z 0.062890 0.000000 2.090070 
# 
# From -- ./inp_files/60543.got.cif
#   From: 2010.05.17/outbox.cif.g08.bks.cpg/sg13_31_cif.got.tgz:60543.got - 2010.06.03 16:44:36.
