data_PCOD9231628
_publ_section_title
;
Structure prediction by ZEFSAII (Michael W. Deem and Ramdas Pophale) SiO2 
 PCOD9231628
Probable space group: P 2/C
;
_chemical_formula_sum "Si O2"
_cell_formula_units_Z 30
_cell_length_a 20.522704
_cell_length_b 13.417838
_cell_length_c 10.803879
_cell_angle_alpha 90.000000
_cell_angle_beta 29.822227
_cell_angle_gamma 90.000000
_cell_volume 1479.532529
_symmetry_space_group_name_H-M "P 2/C"
_symmetry_group_IT_number 13
_symmetry_cell_setting 'monoclinic'
loop_
_space_group_symop_operation_xyz
x,y,z
-x,y,1/2-z
-x,-y,-z
x,-y,1/2+z
loop_
_atom_site_type_symbol
_atom_site_label
_atom_site_fract_x
_atom_site_fract_y
_atom_site_fract_z
Si Si1 0.410848 0.701737 0.580630
Si Si2 0.024896 0.582610 0.355996
Si Si3 0.695898 0.630236 0.500927
Si Si4 0.126326 0.764704 0.948979
Si Si5 0.500000 0.464426 0.750000
Si Si6 0.705233 0.155586 0.900637
Si Si7 0.083733 0.011727 0.485895
Si Si8 0.522164 0.111041 0.418484
O O1 0.409342 0.670223 0.726734
O O2 0.478992 0.612038 0.397028
O O3 0.480240 0.809137 0.466686
O O4 0.263248 0.723217 0.775890
O O5 0.000000 0.558061 0.250000
O O6 0.000000 0.500000 0.500000
O O7 0.932730 0.677850 0.540240
O O8 0.177112 0.605034 0.127718
O O9 0.627308 0.535813 0.550867
O O10 0.733055 0.726237 0.357789
O O11 0.000000 0.772281 0.250000
O O12 0.148395 0.878028 0.870586
O O13 0.818857 0.081324 0.674362
O O14 0.657628 0.123647 0.117679
O O15 0.589156 0.137912 0.995970
O O16 0.000000 0.008999 0.750000
O O17 0.000000 0.000000 0.500000
O O18 0.500000 0.000000 0.500000
#
# Coordination Sequence:
#
# PCOD9231628 Si02
#       8
#     4   4   4   4   2   4   4   4
#     4  11  22  41  65  94 130 175 227 276 338 417
#     4  11  22  41  67  96 128 177 226 275 340 405
#     4  11  22  42  67  87 138 173 223 279 349 415
#     4  10  20  40  66  93 130 182 223 272 347 417
#     4  12  26  40  66 104 128 178 236 288 346 404
#     4  10  23  42  63  97 128 179 225 274 355 411
#     4  11  25  41  70 102 137 179 230 285 345 419
#     4  10  22  39  67  93 132 177 219 285 343 408
#
# _framework density 20.276674
#
# number of rings (size 3 to 8) (size 9 to 14) (size 15 to 20)
#    0.000    1.333    2.667    4.400    7.467    2.133 
#    0.000    2.667    0.000    0.000    0.000    0.000 
#    0.000    0.000    0.000    0.000    0.000    0.000 
#
# Total GULP energy -167253.393726 kJ/mol
# GULP energy per Si atom -5575.113124 kJ/mol
# Density = 2.023052 g / cm^3
# Si number density = 20.276674 Si / 1000 Ang^3
#
#
#
# Elastic Constant Matrix: (Units=GPa)
#
#
# Indices 1 2 3 4 5 6 
#
# 1 86.3483 60.7695 24.5914 0.0000 -10.2447 0.0000
# 2 60.7695 200.8223 48.8839 0.0000 2.7981 0.0000
# 3 24.5914 48.8839 44.1754 0.0000 -4.8623 0.0000
# 4 0.0000 0.0000 0.0000 14.0351 0.0000 0.6545
# 5 -10.2447 2.7981 -4.8623 0.0000 28.6224 0.0000
# 6 0.0000 0.0000 0.0000 0.6545 0.0000 39.3590
#
#
#
# Elastic Compliance Matrix: (Units=1/GPa)
#
#
# Indices 1 2 3 4 5 6 
#
# 1 0.016186 -0.004009 -0.003968 0.000000 0.005511 0.000000
# 2 -0.004009 0.007921 -0.006906 0.000000 -0.003382 0.000000
# 3 -0.003968 -0.006906 0.033023 0.000000 0.004865 0.000000
# 4 0.000000 0.000000 0.000000 0.071305 0.000000 -0.001186
# 5 0.005511 -0.003382 0.004865 0.000000 0.038067 0.000000
# 6 0.000000 0.000000 0.000000 -0.001186 0.000000 0.025427
#
#
# Mechanical properties :
#
#
# Convention : Reuss Voigt Hill
#
# Bulk Modulus (GPa) = 36.54238 66.64839 51.59539
# Shear Modulus (GPa) = 21.66236 29.54339 25.60288
#
# Velocity S-wave (km/s) = 3.27209 3.82123 3.55727
# Velocity P-wave (km/s) = 5.68651 7.23947 6.50947
#
# Compressibility (1/GPa) = 0.02736548
#
# Stress axis : x y z
#
# Youngs Moduli (GPa) = 61.78076 126.25096 30.28224
#
# Poissons Ratio (x) = 0.50614 0.12015
# Poissons Ratio (y) = 0.24768 0.20911
# Poissons Ratio (z) = 0.24512 0.87183
#
# Static dielectric constant tensor:
#      x y z
#    x 1.709900 0.000000 0.001050 
#    y 0.000000 1.796790 0.000000 
#    z 0.001050 0.000000 1.896370 
# 
# From -- ./inp_files/40888.got.cif
#   From: 2010.05.17/outbox.cif.g08.bks.cpg/sg13_21_cif.got.tgz:40888.got - 2010.06.03 16:44:36.
