data_PCOD9231900
_publ_section_title
;
Structure prediction by ZEFSAII (Michael W. Deem and Ramdas Pophale) SiO2 
 PCOD9231900
Probable space group: P 2/C
;
_chemical_formula_sum "Si O2"
_cell_formula_units_Z 32
_cell_length_a 26.221786
_cell_length_b 8.885969
_cell_length_c 14.270171
_cell_angle_alpha 90.000000
_cell_angle_beta 29.071773
_cell_angle_gamma 90.000000
_cell_volume 1615.650716
_symmetry_space_group_name_H-M "P 2/C"
_symmetry_group_IT_number 13
_symmetry_cell_setting 'monoclinic'
loop_
_space_group_symop_operation_xyz
x,y,z
-x,y,1/2-z
-x,-y,-z
x,-y,1/2+z
loop_
_atom_site_type_symbol
_atom_site_label
_atom_site_fract_x
_atom_site_fract_y
_atom_site_fract_z
Si Si1 0.626204 0.791267 0.653469
Si Si2 0.741626 0.984737 0.106634
Si Si3 0.115436 0.770071 0.019037
Si Si4 0.617911 0.219714 0.945424
Si Si5 0.118477 0.297417 0.160234
Si Si6 0.999083 0.823031 0.484857
Si Si7 0.182196 0.596773 0.166689
Si Si8 0.801963 0.446871 0.638807
O O1 0.676130 0.922994 0.635316
O O2 0.632767 0.821488 0.531198
O O3 0.701595 0.648844 0.546056
O O4 0.505652 0.760639 0.871842
O O5 0.664109 0.911894 0.307244
O O6 0.823981 0.092921 0.028604
O O7 0.803260 0.845174 0.961206
O O8 0.090636 0.794783 0.948790
O O9 0.000000 0.751221 0.250000
O O10 0.182569 0.617542 0.919641
O O11 0.688119 0.367910 0.811080
O O12 0.023110 0.246184 0.377767
O O13 0.153789 0.450624 0.154001
O O14 0.119577 0.344899 0.049725
O O15 0.103233 0.738303 0.280142
O O16 0.000000 0.000000 0.500000
O O17 0.175424 0.557686 0.287331
#
# Coordination Sequence:
#
# PCOD9231900 Si02
#       8
#     4   4   4   4   4   4   4   4
#     4  10  20  42  68  91 131 167 218 274 337 380
#     4  11  24  41  64  96 132 172 216 268 330 397
#     4  12  25  42  61  96 135 175 215 269 324 391
#     4   9  22  41  66  96 124 172 220 275 328 387
#     4  11  23  41  62  94 130 171 215 266 322 391
#     4  12  26  40  63  93 134 172 220 265 332 394
#     4  11  23  42  64  95 125 175 215 275 321 396
#     4  10  23  40  66  92 129 166 224 264 325 390
#
# _framework density 19.806262
#
# number of rings (size 3 to 8) (size 9 to 14) (size 15 to 20)
#    0.000    1.250    1.250    4.500    8.750    0.000 
#    0.000    6.875    0.000    3.000    0.000    0.000 
#    0.000    0.000    0.000    0.000    0.000    0.000 
#
# Total GULP energy -178713.270436 kJ/mol
# GULP energy per Si atom -5584.789701 kJ/mol
# Density = 1.976118 g / cm^3
# Si number density = 19.806262 Si / 1000 Ang^3
#
#
#
# Elastic Constant Matrix: (Units=GPa)
#
#
# Indices 1 2 3 4 5 6 
#
# 1 97.6239 58.2115 48.9272 0.0000 0.0957 0.0000
# 2 58.2115 154.7672 67.9143 0.0000 -8.0351 0.0000
# 3 48.9272 67.9143 140.3523 0.0000 -0.0986 0.0000
# 4 0.0000 0.0000 0.0000 27.2430 0.0000 10.6487
# 5 0.0957 -8.0351 -0.0986 0.0000 25.3616 0.0000
# 6 0.0000 0.0000 0.0000 10.6487 0.0000 24.2511
#
#
#
# Elastic Compliance Matrix: (Units=1/GPa)
#
#
# Indices 1 2 3 4 5 6 
#
# 1 0.014174 -0.004105 -0.002956 0.000000 -0.001366 0.000000
# 2 -0.004105 0.009565 -0.003195 0.000000 0.003033 0.000000
# 3 -0.002956 -0.003195 0.009701 0.000000 -0.000963 0.000000
# 4 0.000000 0.000000 0.000000 0.044312 0.000000 -0.019458
# 5 -0.001366 0.003033 -0.000963 0.000000 0.040392 0.000000
# 6 0.000000 0.000000 0.000000 -0.019458 0.000000 0.049779
#
#
# Mechanical properties :
#
#
# Convention : Reuss Voigt Hill
#
# Bulk Modulus (GPa) = 77.35289 82.53883 79.94586
# Shear Modulus (GPa) = 25.94118 29.88383 27.91250
#
# Velocity S-wave (km/s) = 3.62297 3.88855 3.75811
# Velocity P-wave (km/s) = 7.52600 7.86922 7.69953
#
# Compressibility (1/GPa) = 0.01292777
#
# Stress axis : x y z
#
# Youngs Moduli (GPa) = 70.55284 104.54923 103.08564
#
# Poissons Ratio (x) = 0.42918 0.30468
# Poissons Ratio (y) = 0.28962 0.32937
# Poissons Ratio (z) = 0.20853 0.33405
#
# Static dielectric constant tensor:
#      x y z
#    x 1.741200 0.000000 0.009120 
#    y 0.000000 1.676140 0.000000 
#    z 0.009120 0.000000 1.702600 
# 
# From -- ./inp_files/58682.got.cif
#   From: 2010.05.17/outbox.cif.g08.bks.cpg/sg13_30_cif.got.tgz:58682.got - 2010.06.03 16:44:36.
