data_PCOD9231131
_publ_section_title
;
Structure prediction by ZEFSAII (Michael W. Deem and Ramdas Pophale) SiO2 
 PCOD9231131
Probable space group: P 2/C
;
_chemical_formula_sum "Si O2"
_cell_formula_units_Z 28
_cell_length_a 16.197823
_cell_length_b 12.044753
_cell_length_c 17.358133
_cell_angle_alpha 90.000000
_cell_angle_beta 24.957071
_cell_angle_gamma 90.000000
_cell_volume 1428.918045
_symmetry_space_group_name_H-M "P 2/C"
_symmetry_group_IT_number 13
_symmetry_cell_setting 'monoclinic'
loop_
_space_group_symop_operation_xyz
x,y,z
-x,y,1/2-z
-x,-y,-z
x,-y,1/2+z
loop_
_atom_site_type_symbol
_atom_site_label
_atom_site_fract_x
_atom_site_fract_y
_atom_site_fract_z
Si Si1 0.953201 0.167122 0.986469
Si Si2 0.633245 0.390935 0.710947
Si Si3 0.163515 0.584981 0.892449
Si Si4 0.309339 0.023117 0.860639
Si Si5 0.032231 0.205897 0.094313
Si Si6 0.387374 0.894025 0.125501
Si Si7 0.642908 0.686129 0.920372
O O1 0.919208 0.298771 0.005024
O O2 0.953320 0.154861 0.079710
O O3 0.794345 0.089304 0.080465
O O4 0.168260 0.125452 0.780593
O O5 0.500000 0.371736 0.750000
O O6 0.717382 0.514865 0.645871
O O7 0.812827 0.303487 0.556715
O O8 0.496048 0.373364 0.901187
O O9 0.288956 0.615260 0.710415
O O10 0.000000 0.500000 0.000000
O O11 0.500000 0.003575 0.750000
O O12 0.372756 0.089891 0.730036
O O13 0.150418 0.106111 0.034036
O O14 0.840346 0.263103 0.292273
O O15 0.514763 0.787726 0.998180
O O16 0.500000 0.000000 0.000000
#
# Coordination Sequence:
#
# PCOD9231131 Si02
#       7
#     4   4   4   4   4   4   4
#     4  10  20  38  65  87 125 171 212 256 311 382
#     4  12  24  40  62  98 131 162 212 274 326 369
#     4  11  21  43  63  90 124 171 219 262 311 380
#     4  11  22  39  61  92 135 165 200 272 328 369
#     4  10  20  40  62  92 124 162 209 261 312 381
#     4  11  20  37  63  97 120 161 221 259 308 390
#     4  11  21  38  69  90 122 170 215 257 318 380
#
# _framework density 19.595244999999998
#
# number of rings (size 3 to 8) (size 9 to 14) (size 15 to 20)
#    0.000    1.143    5.714    5.143    0.000    1.143 
#    0.000    2.143    0.000    1.714    0.000    0.000 
#    0.000    0.000    0.000    0.000    0.000    0.000 
#
# Total GULP energy -156332.552215 kJ/mol
# GULP energy per Si atom -5583.305436 kJ/mol
# Density = 1.955065 g / cm^3
# Si number density = 19.595245 Si / 1000 Ang^3
#
#
#
# Elastic Constant Matrix: (Units=GPa)
#
#
# Indices 1 2 3 4 5 6 
#
# 1 44.9597 23.4344 17.1897 0.0000 -31.6970 0.0000
# 2 23.4344 131.2087 43.7809 0.0000 -21.1329 0.0000
# 3 17.1897 43.7809 98.6839 0.0000 -27.2420 0.0000
# 4 0.0000 0.0000 0.0000 46.0483 0.0000 -7.2521
# 5 -31.6970 -21.1329 -27.2420 0.0000 36.8013 0.0000
# 6 0.0000 0.0000 0.0000 -7.2521 0.0000 19.6130
#
#
#
# Elastic Compliance Matrix: (Units=1/GPa)
#
#
# Indices 1 2 3 4 5 6 
#
# 1 0.060081 -0.004124 0.006278 0.000000 0.054027 0.000000
# 2 -0.004124 0.009458 -0.003719 0.000000 -0.000873 0.000000
# 3 0.006278 -0.003719 0.014570 0.000000 0.014058 0.000000
# 4 0.000000 0.000000 0.000000 0.023059 0.000000 0.008526
# 5 0.054027 -0.000873 0.014058 0.000000 0.083611 0.000000
# 6 0.000000 0.000000 0.000000 0.008526 0.000000 0.054139
#
#
# Mechanical properties :
#
#
# Convention : Reuss Voigt Hill
#
# Bulk Modulus (GPa) = 12.34860 49.29583 30.82222
# Shear Modulus (GPa) = 18.17907 33.18898 25.68403
#
# Velocity S-wave (km/s) = 3.04917 4.11996 3.62432
# Velocity P-wave (km/s) = 4.32575 6.91691 5.76870
#
# Compressibility (1/GPa) = 0.08098081
#
# Stress axis : x y z
#
# Youngs Moduli (GPa) = 16.64421 105.72845 68.63295
#
# Poissons Ratio (x) = 0.43601 -0.43091
# Poissons Ratio (y) = 0.06864 0.25524
# Poissons Ratio (z) = -0.10450 0.39319
#
# Static dielectric constant tensor:
#      x y z
#    x 1.688930 0.000000 0.008470 
#    y 0.000000 1.703840 0.000000 
#    z 0.008470 0.000000 1.747110 
# 
# From -- ./inp_files/81031.got.cif
#   From: 2010.05.17/outbox.cif.g08.bks.cpg/sg13_41_cif.got.tgz:81031.got - 2010.06.03 16:44:36.
