data_PCOD9231984
_publ_section_title
;
Structure prediction by ZEFSAII (Michael W. Deem and Ramdas Pophale) SiO2 
 PCOD9231984
Probable space group: P 2/C
;
_chemical_formula_sum "Si O2"
_cell_formula_units_Z 28
_cell_length_a 13.816772
_cell_length_b 6.511846
_cell_length_c 16.383369
_cell_angle_alpha 90.000000
_cell_angle_beta 63.339727
_cell_angle_gamma 90.000000
_cell_volume 1317.338196
_symmetry_space_group_name_H-M "P 2/C"
_symmetry_group_IT_number 13
_symmetry_cell_setting 'monoclinic'
loop_
_space_group_symop_operation_xyz
x,y,z
-x,y,1/2-z
-x,-y,-z
x,-y,1/2+z
loop_
_atom_site_type_symbol
_atom_site_label
_atom_site_fract_x
_atom_site_fract_y
_atom_site_fract_z
Si Si1 0.297078 0.929745 0.141447
Si Si2 0.546597 0.704004 0.523448
Si Si3 0.406421 0.147920 0.227711
Si Si4 0.712108 0.401333 0.096706
Si Si5 0.094924 0.121191 0.507736
Si Si6 0.769594 0.755282 0.969820
Si Si7 0.895896 0.373657 0.841637
O O1 0.197678 0.768278 0.165907
O O2 0.312599 0.000241 0.229034
O O3 0.283650 0.126607 0.086426
O O4 0.411179 0.833857 0.068862
O O5 0.500000 0.500000 0.500000
O O6 0.462996 0.773597 0.623949
O O7 0.656014 0.695899 0.537205
O O8 0.500000 0.052628 0.250000
O O9 0.357400 0.334501 0.299259
O O10 0.829963 0.295434 0.063599
O O11 0.710432 0.635612 0.066552
O O12 0.056149 0.236040 0.603507
O O13 0.171282 0.938910 0.507954
O O14 0.000000 0.000000 0.500000
O O15 0.841188 0.575408 0.901492
O O16 0.000000 0.432948 0.750000
#
# Coordination Sequence:
#
# PCOD9231984 Si02
#       7
#     4   4   4   4   4   4   4
#     4  11  22  44  69  92 130 178 219 273 329 401
#     4  11  21  43  67  92 127 173 222 265 324 396
#     4  10  24  40  62  95 131 164 219 271 323 387
#     4  10  21  43  60  96 130 164 221 272 320 395
#     4  10  22  41  66  92 130 173 208 269 342 393
#     4  10  20  43  70  85 133 170 214 264 332 391
#     4  10  23  41  66 100 126 166 227 268 327 401
#
# _framework density 21.254982999999999
#
# number of rings (size 3 to 8) (size 9 to 14) (size 15 to 20)
#    0.000    1.714    4.286    1.286    2.000    4.571 
#    5.143    0.714    0.000    0.000    0.000    0.000 
#    0.000    0.000    0.000    0.000    0.000    0.000 
#
# Total GULP energy -155905.856585 kJ/mol
# GULP energy per Si atom -5568.066307 kJ/mol
# Density = 2.120661 g / cm^3
# Si number density = 21.254983 Si / 1000 Ang^3
#
#
#
# Elastic Constant Matrix: (Units=GPa)
#
#
# Indices 1 2 3 4 5 6 
#
# 1 83.7078 19.2022 8.2980 0.0000 14.2249 0.0000
# 2 19.2022 93.7577 18.7516 0.0000 7.3725 0.0000
# 3 8.2980 18.7516 66.4070 0.0000 -7.2000 0.0000
# 4 0.0000 0.0000 0.0000 13.5459 0.0000 -0.1395
# 5 14.2249 7.3725 -7.2000 0.0000 28.4491 0.0000
# 6 0.0000 0.0000 0.0000 -0.1395 0.0000 15.0885
#
#
#
# Elastic Compliance Matrix: (Units=1/GPa)
#
#
# Indices 1 2 3 4 5 6 
#
# 1 0.013738 -0.001888 -0.001928 0.000000 -0.006868 0.000000
# 2 -0.001888 0.011988 -0.003479 0.000000 -0.003043 0.000000
# 3 -0.001928 -0.003479 0.016949 0.000000 0.006155 0.000000
# 4 0.000000 0.000000 0.000000 0.073830 0.000000 0.000682
# 5 -0.006868 -0.003043 0.006155 0.000000 0.040931 0.000000
# 6 0.000000 0.000000 0.000000 0.000682 0.000000 0.066282
#
#
# Mechanical properties :
#
#
# Convention : Reuss Voigt Hill
#
# Bulk Modulus (GPa) = 35.60691 37.37511 36.49101
# Shear Modulus (GPa) = 20.18827 24.59143 22.38985
#
# Velocity S-wave (km/s) = 3.08525 3.40512 3.24912
# Velocity P-wave (km/s) = 5.42958 5.75171 5.59296
#
# Compressibility (1/GPa) = 0.02808444
#
# Stress axis : x y z
#
# Youngs Moduli (GPa) = 72.79293 83.42008 58.99941
#
# Poissons Ratio (x) = 0.15749 0.11376
# Poissons Ratio (y) = 0.13743 0.20526
# Poissons Ratio (z) = 0.14035 0.29022
#
# Static dielectric constant tensor:
#      x y z
#    x 1.895510 0.000000 -0.019580 
#    y 0.000000 1.862700 0.000000 
#    z -0.019580 0.000000 1.763090 
# 
# From -- ./inp_files/67468.got.cif
#   From: 2010.05.17/outbox.cif.g08.bks.cpg/sg13_34_cif.got.tgz:67468.got - 2010.06.03 16:44:36.
