data_PCOD9231873
_publ_section_title
;
Structure prediction by ZEFSAII (Michael W. Deem and Ramdas Pophale) SiO2 
 PCOD9231873
Probable space group: P 2/C
;
_chemical_formula_sum "Si O2"
_cell_formula_units_Z 20
_cell_length_a 9.459254
_cell_length_b 12.153768
_cell_length_c 13.536575
_cell_angle_alpha 90.000000
_cell_angle_beta 148.574269
_cell_angle_gamma 90.000000
_cell_volume 811.412580
_symmetry_space_group_name_H-M "P 2/C"
_symmetry_group_IT_number 13
_symmetry_cell_setting 'monoclinic'
loop_
_space_group_symop_operation_xyz
x,y,z
-x,y,1/2-z
-x,-y,-z
x,-y,1/2+z
loop_
_atom_site_type_symbol
_atom_site_label
_atom_site_fract_x
_atom_site_fract_y
_atom_site_fract_z
Si Si1 0.728504 0.121605 0.964885
Si Si2 0.658868 0.242647 0.629434
Si Si3 0.073525 0.414264 0.957614
Si Si4 0.000000 0.060909 0.750000
Si Si5 0.236799 0.728656 0.727357
Si Si6 0.000000 0.562324 0.750000
O O1 0.500000 0.090544 0.750000
O O2 0.584053 0.217929 0.940943
O O3 0.013689 0.173238 0.098406
O O4 0.789363 0.020117 0.072018
O O5 0.861531 0.139457 0.747976
O O6 0.531389 0.241013 0.444000
O O7 0.817470 0.350158 0.758083
O O8 0.186101 0.484245 0.931999
O O9 0.226184 0.323742 0.113412
O O10 0.000000 0.500000 0.000000
O O11 0.147903 0.637974 0.757453
#
# Coordination Sequence:
#
# PCOD9231873 Si02
#       6
#     4   4   4   2   4   2
#     4  12  24  44  76 100 138 190 241 298 361 431
#     4  12  24  46  71 101 150 183 237 302 353 431
#     4  10  24  42  69 105 141 188 239 291 354 427
#     4  12  28  44  68 108 142 190 242 298 364 414
#     4  11  22  44  72 103 139 194 238 291 366 433
#     4  10  20  42  66 104 142 180 240 292 360 414
#
# _framework density 24.648374
#
# number of rings (size 3 to 8) (size 9 to 14) (size 15 to 20)
#    0.000    0.800    6.000    1.200    0.000    5.600 
#    0.000    7.000    0.000    0.000    0.000    0.000 
#    0.000    0.000    0.000    0.000    0.000    0.000 
#
# Total GULP energy -111828.696260 kJ/mol
# GULP energy per Si atom -5591.434813 kJ/mol
# Density = 2.459227 g / cm^3
# Si number density = 24.648374 Si / 1000 Ang^3
#
#
#
# Elastic Constant Matrix: (Units=GPa)
#
#
# Indices 1 2 3 4 5 6 
#
# 1 66.9518 17.4863 24.1243 0.0000 -8.5857 0.0000
# 2 17.4863 89.3706 38.9513 0.0000 4.6336 0.0000
# 3 24.1243 38.9513 162.1411 0.0000 -18.6262 0.0000
# 4 0.0000 0.0000 0.0000 137.6657 0.0000 -114.1478
# 5 -8.5857 4.6336 -18.6262 0.0000 41.9806 0.0000
# 6 0.0000 0.0000 0.0000 -114.1478 0.0000 98.4095
#
#
#
# Elastic Compliance Matrix: (Units=1/GPa)
#
#
# Indices 1 2 3 4 5 6 
#
# 1 0.016573 -0.002769 -0.001450 0.000000 0.003052 0.000000
# 2 -0.002769 0.013294 -0.003177 0.000000 -0.003443 0.000000
# 3 -0.001450 -0.003177 0.007537 0.000000 0.003398 0.000000
# 4 0.000000 0.000000 0.000000 0.190026 0.000000 0.220416
# 5 0.003052 -0.003443 0.003398 0.000000 0.026332 0.000000
# 6 0.000000 0.000000 0.000000 0.220416 0.000000 0.265828
#
#
# Mechanical properties :
#
#
# Convention : Reuss Voigt Hill
#
# Bulk Modulus (GPa) = 44.22473 53.28749 48.75611
# Shear Modulus (GPa) = 9.22644 71.47124 40.34884
#
# Velocity S-wave (km/s) = 1.93684 5.39067 4.05035
# Velocity P-wave (km/s) = 4.79406 7.77250 6.45735
#
# Compressibility (1/GPa) = 0.02261178
#
# Stress axis : x y z
#
# Youngs Moduli (GPa) = 60.33860 75.21922 132.68086
#
# Poissons Ratio (x) = 0.20828 0.19240
# Poissons Ratio (y) = 0.16707 0.42157
# Poissons Ratio (z) = 0.08750 0.23900
#
# Static dielectric constant tensor:
#      x y z
#    x 2.014450 0.000000 0.030650 
#    y 0.000000 1.944920 0.000000 
#    z 0.030650 0.000000 2.056520 
# 
# From -- ./inp_files/50997.got.cif
#   From: 2010.05.17/outbox.cif.g08.bks.cpg/sg13_26_cif.got.tgz:50997.got - 2010.06.03 16:44:36.
