data_PCOD9231555
_publ_section_title
;
Structure prediction by ZEFSAII (Michael W. Deem and Ramdas Pophale) SiO2 
 PCOD9231555
Probable space group: P 2/C
;
_chemical_formula_sum "Si O2"
_cell_formula_units_Z 30
_cell_length_a 15.448086
_cell_length_b 8.318994
_cell_length_c 25.833535
_cell_angle_alpha 90.000000
_cell_angle_beta 27.141439
_cell_angle_gamma 90.000000
_cell_volume 1514.515722
_symmetry_space_group_name_H-M "P 2/C"
_symmetry_group_IT_number 13
_symmetry_cell_setting 'monoclinic'
loop_
_space_group_symop_operation_xyz
x,y,z
-x,y,1/2-z
-x,-y,-z
x,-y,1/2+z
loop_
_atom_site_type_symbol
_atom_site_label
_atom_site_fract_x
_atom_site_fract_y
_atom_site_fract_z
Si Si1 0.783816 0.594065 0.057134
Si Si2 0.458996 0.162384 0.145582
Si Si3 0.664780 0.059662 0.873370
Si Si4 0.000000 0.758658 0.250000
Si Si5 0.219386 0.399707 0.338776
Si Si6 0.494969 0.106682 0.807559
Si Si7 0.216539 0.269677 0.780734
Si Si8 0.166845 0.348646 0.559594
O O1 0.727323 0.471347 0.133429
O O2 0.639309 0.739879 0.128159
O O3 0.796923 0.501661 0.995653
O O4 0.997342 0.646330 0.958243
O O5 0.342011 0.254944 0.251615
O O6 0.324178 0.090438 0.172661
O O7 0.565994 0.012502 0.115182
O O8 0.629465 0.273571 0.036749
O O9 0.836624 0.120654 0.817170
O O10 0.659310 0.210410 0.834893
O O11 0.500000 0.000000 0.000000
O O12 0.065610 0.643536 0.168667
O O13 0.240315 0.546362 0.286180
O O14 0.500000 0.020874 0.750000
O O15 0.702468 0.166873 0.714837
O O16 0.993627 0.247088 0.887017
#
# Coordination Sequence:
#
# PCOD9231555 Si02
#       8
#     4   4   4   2   4   4   4   4
#     4  10  22  39  66  86 133 162 209 252 325 363
#     4  11  24  37  64  93 126 158 221 249 319 381
#     4  10  20  40  63  91 124 170 210 265 318 372
#     4  10  20  40  68  84 132 162 216 264 322 362
#     4  10  21  42  62  94 122 171 204 264 304 387
#     4  11  22  37  57  92 128 167 197 259 309 379
#     4   9  20  38  61  85 125 159 209 250 316 361
#     4  10  21  37  65  90 114 170 206 263 305 378
#
# _framework density 19.808311
#
# number of rings (size 3 to 8) (size 9 to 14) (size 15 to 20)
#    0.000    1.867    2.667    0.800    1.867    3.200 
#    0.000    2.000   14.667    0.800    0.000    0.000 
#    0.000    0.000    0.000    0.000    0.000    0.000 
#
# Total GULP energy -167022.143980 kJ/mol
# GULP energy per Si atom -5567.404799 kJ/mol
# Density = 1.976323 g / cm^3
# Si number density = 19.808311 Si / 1000 Ang^3
#
#
#
# Elastic Constant Matrix: (Units=GPa)
#
#
# Indices 1 2 3 4 5 6 
#
# 1 91.0960 15.9353 27.2442 0.0000 13.0015 0.0000
# 2 15.9353 39.4307 25.1620 0.0000 7.9436 0.0000
# 3 27.2442 25.1620 86.5374 0.0000 15.9319 0.0000
# 4 0.0000 0.0000 0.0000 18.0302 0.0000 4.6282
# 5 13.0015 7.9436 15.9319 0.0000 21.3122 0.0000
# 6 0.0000 0.0000 0.0000 4.6282 0.0000 25.0468
#
#
#
# Elastic Compliance Matrix: (Units=1/GPa)
#
#
# Indices 1 2 3 4 5 6 
#
# 1 0.012874 -0.002686 -0.002331 0.000000 -0.005110 0.000000
# 2 -0.002686 0.032288 -0.007687 0.000000 -0.004650 0.000000
# 3 -0.002331 -0.007687 0.015927 0.000000 -0.007619 0.000000
# 4 0.000000 0.000000 0.000000 0.058224 0.000000 -0.010759
# 5 -0.005110 -0.004650 -0.007619 0.000000 0.057468 0.000000
# 6 0.000000 0.000000 0.000000 -0.010759 0.000000 0.041913
#
#
# Mechanical properties :
#
#
# Convention : Reuss Voigt Hill
#
# Bulk Modulus (GPa) = 28.02521 39.30525 33.66523
# Shear Modulus (GPa) = 19.53157 22.79268 21.16212
#
# Velocity S-wave (km/s) = 3.14352 3.39582 3.27210
# Velocity P-wave (km/s) = 5.23015 5.93813 5.59535
#
# Compressibility (1/GPa) = 0.03568216
#
# Stress axis : x y z
#
# Youngs Moduli (GPa) = 77.67743 30.97100 62.78480
#
# Poissons Ratio (x) = 0.08318 0.14638
# Poissons Ratio (y) = 0.20861 0.48261
# Poissons Ratio (z) = 0.18110 0.23806
#
# Static dielectric constant tensor:
#      x y z
#    x 1.732780 0.000000 0.005440 
#    y 0.000000 1.703900 0.000000 
#    z 0.005440 0.000000 1.719400 
# 
# From -- ./inp_files/87303.got.cif
#   From: 2010.05.17/outbox.cif.g08.bks.cpg/sg13_44_cif.got.tgz:87303.got - 2010.06.03 16:44:36.
