data_PCOD9231427
_publ_section_title
;
Structure prediction by ZEFSAII (Michael W. Deem and Ramdas Pophale) SiO2 
 PCOD9231427
Probable space group: P 2/C
;
_chemical_formula_sum "Si O2"
_cell_formula_units_Z 22
_cell_length_a 9.685698
_cell_length_b 6.289451
_cell_length_c 21.902563
_cell_angle_alpha 90.000000
_cell_angle_beta 136.251128
_cell_angle_gamma 90.000000
_cell_volume 922.635269
_symmetry_space_group_name_H-M "P 2/C"
_symmetry_group_IT_number 13
_symmetry_cell_setting 'monoclinic'
loop_
_space_group_symop_operation_xyz
x,y,z
-x,y,1/2-z
-x,-y,-z
x,-y,1/2+z
loop_
_atom_site_type_symbol
_atom_site_label
_atom_site_fract_x
_atom_site_fract_y
_atom_site_fract_z
Si Si1 0.824382 0.262741 0.606583
Si Si2 0.000000 0.413864 0.250000
Si Si3 0.796801 0.978681 0.746945
Si Si4 0.315603 0.153509 0.167078
Si Si5 0.398505 0.976497 0.059431
Si Si6 0.916072 0.395511 0.034650
O O1 0.892706 0.413071 0.572979
O O2 0.832451 0.441527 0.662804
O O3 0.660340 0.117328 0.518484
O O4 0.003801 0.110725 0.683346
O O5 0.871933 0.257133 0.252658
O O6 0.681484 0.011651 0.774896
O O7 0.636568 0.046880 0.644185
O O8 0.500000 0.299615 0.250000
O O9 0.096370 0.240096 0.107752
O O10 0.332723 0.095163 0.101681
O O11 0.281589 0.752020 0.025438
O O12 0.000000 0.500000 0.000000
#
# Coordination Sequence:
#
# PCOD9231427 Si02
#       6
#     4   2   4   4   4   4
#     4  12  24  43  72  95 137 183 228 289 343 404
#     4  12  26  46  70  96 130 192 242 288 334 404
#     4  11  25  46  68  99 142 180 233 285 345 403
#     4  10  20  39  67  98 137 175 214 271 341 411
#     4  11  24  43  70 107 141 177 219 289 350 412
#     4  12  22  38  70 104 142 174 224 273 351 418
#
# _framework density 23.844742
#
# number of rings (size 3 to 8) (size 9 to 14) (size 15 to 20)
#    0.000    0.727    5.455    2.182    0.000    3.636 
#    0.000    6.364    0.000    0.000    0.000    0.000 
#    0.000    0.000    0.000    0.000    0.000    0.000 
#
# Total GULP energy -122594.298642 kJ/mol
# GULP energy per Si atom -5572.468120 kJ/mol
# Density = 2.379047 g / cm^3
# Si number density = 23.844742 Si / 1000 Ang^3
#
#
#
# Elastic Constant Matrix: (Units=GPa)
#
#
# Indices 1 2 3 4 5 6 
#
# 1 82.3245 32.9464 43.7102 0.0000 -7.0080 0.0000
# 2 32.9464 114.4627 68.1212 0.0000 -5.3842 0.0000
# 3 43.7102 68.1212 186.0391 0.0000 4.4869 0.0000
# 4 0.0000 0.0000 0.0000 -69.3170 0.0000 -40.1389
# 5 -7.0080 -5.3842 4.4869 0.0000 60.5106 0.0000
# 6 0.0000 0.0000 0.0000 -40.1389 0.0000 11.7410
#
#
#
# Elastic Compliance Matrix: (Units=1/GPa)
#
#
# Indices 1 2 3 4 5 6 
#
# 1 0.014686 -0.002650 -0.002520 0.000000 0.001652 0.000000
# 2 -0.002650 0.011752 -0.003705 0.000000 0.001014 0.000000
# 3 -0.002520 -0.003705 0.007352 0.000000 -0.001167 0.000000
# 4 0.000000 0.000000 0.000000 -0.004842 0.000000 -0.016552
# 5 0.001652 0.001014 -0.001167 0.000000 0.016894 0.000000
# 6 0.000000 0.000000 0.000000 -0.016552 0.000000 0.028585
#
#
# Mechanical properties :
#
#
# Convention : Reuss Voigt Hill
#
# Bulk Modulus (GPa) = 62.34246 74.70908 68.52577
# Shear Modulus (GPa) = 51.26969 16.45682 33.86325
#
# Velocity S-wave (km/s) = 4.64200 2.62995 3.77258
# Velocity P-wave (km/s) = 7.41166 6.37351 6.91211
#
# Compressibility (1/GPa) = 0.01604043
#
# Stress axis : x y z
#
# Youngs Moduli (GPa) = 68.09132 85.09329 136.01508
#
# Poissons Ratio (x) = 0.22547 0.34278
# Poissons Ratio (y) = 0.18042 0.50394
# Poissons Ratio (z) = 0.17160 0.31527
#
# Static dielectric constant tensor:
#      x y z
#    x 2.239160 0.000000 -0.206250 
#    y 0.000000 2.020080 0.000000 
#    z -0.206250 0.000000 2.233930 
# 
# From -- ./inp_files/85739.got.cif
#   From: 2010.05.17/outbox.cif.g08.bks.cpg/sg13_43_cif.got.tgz:85739.got - 2010.06.03 16:44:36.
