data_PCOD9231636
_publ_section_title
;
Structure prediction by ZEFSAII (Michael W. Deem and Ramdas Pophale) SiO2 
 PCOD9231636
Probable space group: P 2/C
;
_chemical_formula_sum "Si O2"
_cell_formula_units_Z 28
_cell_length_a 5.538812
_cell_length_b 15.470424
_cell_length_c 14.426812
_cell_angle_alpha 90.000000
_cell_angle_beta 77.079218
_cell_angle_gamma 90.000000
_cell_volume 1204.900922
_symmetry_space_group_name_H-M "P 2/C"
_symmetry_group_IT_number 13
_symmetry_cell_setting 'monoclinic'
loop_
_space_group_symop_operation_xyz
x,y,z
-x,y,1/2-z
-x,-y,-z
x,-y,1/2+z
loop_
_atom_site_type_symbol
_atom_site_label
_atom_site_fract_x
_atom_site_fract_y
_atom_site_fract_z
Si Si1 0.284817 0.985405 0.439486
Si Si2 0.550850 0.147848 0.364387
Si Si3 0.000000 0.450613 0.750000
Si Si4 0.565152 0.646339 0.354082
Si Si5 0.156768 0.296144 0.428061
Si Si6 0.000000 0.239986 0.250000
Si Si7 0.228113 0.485803 0.411480
Si Si8 0.723010 0.199133 0.546879
O O1 0.389988 0.061483 0.364465
O O2 0.500000 0.000000 0.500000
O O3 0.281966 0.889509 0.394271
O O4 0.000000 0.000000 0.500000
O O5 0.358792 0.223475 0.400007
O O6 0.757397 0.179399 0.274870
O O7 0.706946 0.153215 0.447671
O O8 0.843280 0.387294 0.828822
O O9 0.841315 0.506545 0.691875
O O10 0.500000 0.655757 0.250000
O O11 0.415221 0.564843 0.408417
O O12 0.496795 0.735593 0.408718
O O13 0.294664 0.387060 0.427239
O O14 0.010485 0.297011 0.342167
O O15 0.961940 0.261499 0.521051
O O16 0.000000 0.500000 0.500000
#
# Coordination Sequence:
#
# PCOD9231636 Si02
#       8
#     4   4   2   4   4   2   4   4
#     4  10  20  40  66  98 129 169 219 276 333 394
#     4  10  22  37  63  91 127 167 209 266 326 395
#     4  10  25  42  59  86 138 168 203 280 325 380
#     4  10  23  42  60  89 126 164 213 266 325 383
#     4  11  21  38  61  91 121 164 212 264 320 392
#     4  10  23  38  55  90 134 164 205 262 333 388
#     4  11  23  39  64  93 123 169 220 263 326 393
#     4  10  21  38  64  91 120 163 217 263 321 390
#
# _framework density 23.238427000000001
#
# number of rings (size 3 to 8) (size 9 to 14) (size 15 to 20)
#    0.000    1.714    2.857    0.857    2.000    6.286 
#    0.000    2.143    0.000    0.000    0.000    0.000 
#    0.000    0.000    0.000    0.000    0.000    0.000 
#
# Total GULP energy -156096.661527 kJ/mol
# GULP energy per Si atom -5574.880769 kJ/mol
# Density = 2.318554 g / cm^3
# Si number density = 23.238427 Si / 1000 Ang^3
#
#
#
# Elastic Constant Matrix: (Units=GPa)
#
#
# Indices 1 2 3 4 5 6 
#
# 1 68.0670 21.7695 15.6888 0.0000 -16.9191 0.0000
# 2 21.7695 203.7565 35.1339 0.0000 -26.5343 0.0000
# 3 15.6888 35.1339 70.9337 0.0000 -17.1421 0.0000
# 4 0.0000 0.0000 0.0000 27.8502 0.0000 -0.3631
# 5 -16.9191 -26.5343 -17.1421 0.0000 50.5321 0.0000
# 6 0.0000 0.0000 0.0000 -0.3631 0.0000 23.2394
#
#
#
# Elastic Compliance Matrix: (Units=1/GPa)
#
#
# Indices 1 2 3 4 5 6 
#
# 1 0.016545 -0.000820 -0.002199 0.000000 0.004363 0.000000
# 2 -0.000820 0.005617 -0.002129 0.000000 0.001953 0.000000
# 3 -0.002199 -0.002129 0.016547 0.000000 0.003759 0.000000
# 4 0.000000 0.000000 0.000000 0.035914 0.000000 0.000561
# 5 0.004363 0.001953 0.003759 0.000000 0.023551 0.000000
# 6 0.000000 0.000000 0.000000 0.000561 0.000000 0.043039
#
#
# Mechanical properties :
#
#
# Convention : Reuss Voigt Hill
#
# Bulk Modulus (GPa) = 35.19506 54.21575 44.70540
# Shear Modulus (GPa) = 31.06002 38.33535 34.69769
#
# Velocity S-wave (km/s) = 3.65989 4.06600 3.86828
# Velocity P-wave (km/s) = 5.74785 6.73973 6.26346
#
# Compressibility (1/GPa) = 0.02841308
#
# Stress axis : x y z
#
# Youngs Moduli (GPa) = 60.44111 178.03736 60.43465
#
# Poissons Ratio (x) = 0.14606 0.13287
# Poissons Ratio (y) = 0.04959 0.12865
# Poissons Ratio (z) = 0.13289 0.37899
#
# Static dielectric constant tensor:
#      x y z
#    x 2.044930 0.000000 0.158690 
#    y 0.000000 1.928190 0.000000 
#    z 0.158690 0.000000 2.011710 
# 
# From -- ./inp_files/61556.got.cif
#   From: 2010.05.17/outbox.cif.g08.bks.cpg/sg13_31_cif.got.tgz:61556.got - 2010.06.03 16:44:36.
