data_PCOD9231097
_publ_section_title
;
Structure prediction by ZEFSAII (Michael W. Deem and Ramdas Pophale) SiO2 
 PCOD9231097
Probable space group: P 2/C
;
_chemical_formula_sum "Si O2"
_cell_formula_units_Z 26
_cell_length_a 18.776235
_cell_length_b 9.172044
_cell_length_c 9.104043
_cell_angle_alpha 90.000000
_cell_angle_beta 128.384204
_cell_angle_gamma 90.000000
_cell_volume 1228.994769
_symmetry_space_group_name_H-M "P 2/C"
_symmetry_group_IT_number 13
_symmetry_cell_setting 'monoclinic'
loop_
_space_group_symop_operation_xyz
x,y,z
-x,y,1/2-z
-x,-y,-z
x,-y,1/2+z
loop_
_atom_site_type_symbol
_atom_site_label
_atom_site_fract_x
_atom_site_fract_y
_atom_site_fract_z
Si Si1 0.405202 0.596627 0.546595
Si Si2 0.000000 0.127317 0.250000
Si Si3 0.754350 0.812493 0.065469
Si Si4 0.789676 0.918013 0.434538
Si Si5 0.937862 0.619725 0.846429
Si Si6 0.328657 0.365756 0.649594
Si Si7 0.165883 0.568976 0.507419
O O1 0.500000 0.614574 0.750000
O O2 0.333964 0.715838 0.516581
O O3 0.366496 0.437793 0.549113
O O4 0.407017 0.632204 0.374863
O O5 0.102137 0.062594 0.390590
O O6 0.011976 0.230977 0.122761
O O7 0.829183 0.698232 0.103834
O O8 0.742331 0.935092 0.927723
O O9 0.782798 0.887986 0.253102
O O10 0.732539 0.781828 0.433596
O O11 0.859065 0.631990 0.866580
O O12 0.900218 0.552924 0.646734
O O13 0.000000 0.500000 0.000000
O O14 0.259986 0.484444 0.631490
#
# Coordination Sequence:
#
# PCOD9231097 Si02
#       7
#     4   2   4   4   4   4   4
#     4  10  21  40  67  97 120 150 197 253 304 375
#     4  12  24  36  60  84 126 156 224 250 286 350
#     4  10  25  42  61  85 126 163 200 248 312 362
#     4  11  24  43  57  87 122 170 202 253 298 357
#     4  12  20  35  57  87 117 156 209 264 293 345
#     4  10  20  38  64  90 125 154 195 249 309 364
#     4  11  21  37  60  85 117 163 202 244 319 347
#
# _framework density 21.155503
#
# number of rings (size 3 to 8) (size 9 to 14) (size 15 to 20)
#    0.000    1.231    3.077    4.154    2.154    1.846 
#    2.769    3.846    0.000    0.000    0.000    0.000 
#    0.000    0.000    0.000    0.000    0.000    0.000 
#
# Total GULP energy -145014.832131 kJ/mol
# GULP energy per Si atom -5577.493543 kJ/mol
# Density = 2.110735 g / cm^3
# Si number density = 21.155503 Si / 1000 Ang^3
#
#
#
# Elastic Constant Matrix: (Units=GPa)
#
#
# Indices 1 2 3 4 5 6 
#
# 1 30.7332 -0.2457 0.0859 0.0000 -7.1741 0.0000
# 2 -0.2457 54.1803 -8.4018 0.0000 -5.1749 0.0000
# 3 0.0859 -8.4018 68.2025 0.0000 14.9112 0.0000
# 4 0.0000 0.0000 0.0000 19.3228 0.0000 -9.3602
# 5 -7.1741 -5.1749 14.9112 0.0000 27.5194 0.0000
# 6 0.0000 0.0000 0.0000 -9.3602 0.0000 16.6575
#
#
#
# Elastic Compliance Matrix: (Units=1/GPa)
#
#
# Indices 1 2 3 4 5 6 
#
# 1 0.034999 0.000814 -0.002237 0.000000 0.010489 0.000000
# 2 0.000814 0.018999 0.001715 0.000000 0.002856 0.000000
# 3 -0.002237 0.001715 0.016940 0.000000 -0.009440 0.000000
# 4 0.000000 0.000000 0.000000 0.071108 0.000000 0.039957
# 5 0.010489 0.002856 -0.009440 0.000000 0.044724 0.000000
# 6 0.000000 0.000000 0.000000 0.039957 0.000000 0.082486
#
#
# Mechanical properties :
#
#
# Convention : Reuss Voigt Hill
#
# Bulk Modulus (GPa) = 13.98167 15.11031 14.54599
# Shear Modulus (GPa) = 17.09316 23.47845 20.28581
#
# Velocity S-wave (km/s) = 2.84558 3.33499 3.09995
# Velocity P-wave (km/s) = 4.17370 4.68908 4.43888
#
# Compressibility (1/GPa) = 0.07152222
#
# Stress axis : x y z
#
# Youngs Moduli (GPa) = 28.57196 52.63354 59.03156
#
# Poissons Ratio (x) = -0.04283 0.13206
# Poissons Ratio (y) = -0.02325 -0.10125
# Poissons Ratio (z) = 0.06392 -0.09028
#
# Static dielectric constant tensor:
#      x y z
#    x 1.824840 0.000000 0.000230 
#    y 0.000000 1.777840 0.000000 
#    z 0.000230 0.000000 1.806970 
# 
# From -- ./inp_files/22727.got.cif
#   From: 2010.05.17/outbox.cif.g08.bks.cpg/sg13_12_cif.got.tgz:22727.got - 2010.06.03 16:44:36.
