data_PCOD9231753
_publ_section_title
;
Structure prediction by ZEFSAII (Michael W. Deem and Ramdas Pophale) SiO2 
 PCOD9231753
Probable space group: P 2/C
;
_chemical_formula_sum "Si O2"
_cell_formula_units_Z 28
_cell_length_a 13.140137
_cell_length_b 7.618437
_cell_length_c 14.446524
_cell_angle_alpha 90.000000
_cell_angle_beta 57.813680
_cell_angle_gamma 90.000000
_cell_volume 1223.950720
_symmetry_space_group_name_H-M "P 2/C"
_symmetry_group_IT_number 13
_symmetry_cell_setting 'monoclinic'
loop_
_space_group_symop_operation_xyz
x,y,z
-x,y,1/2-z
-x,-y,-z
x,-y,1/2+z
loop_
_atom_site_type_symbol
_atom_site_label
_atom_site_fract_x
_atom_site_fract_y
_atom_site_fract_z
Si Si1 0.871262 0.618438 0.326849
Si Si2 0.630867 0.834057 0.469294
Si Si3 0.512558 0.744060 0.349491
Si Si4 0.947032 0.641826 0.954345
Si Si5 0.262075 0.822539 0.511595
Si Si6 0.178102 0.722891 0.752661
Si Si7 0.433820 0.652755 0.686843
O O1 0.755997 0.733378 0.398687
O O2 0.894302 0.486469 0.400644
O O3 0.843526 0.484273 0.257335
O O4 0.000000 0.712068 0.250000
O O5 0.580551 0.869435 0.389689
O O6 0.523537 0.721010 0.564663
O O7 0.667130 0.994094 0.518283
O O8 0.500000 0.809920 0.250000
O O9 0.377167 0.695344 0.448965
O O10 0.580599 0.557658 0.314156
O O11 0.832692 0.771934 0.022311
O O12 0.056792 0.764472 0.866095
O O13 0.000000 0.500000 0.000000
O O14 0.196190 0.812067 0.643599
O O15 0.303259 0.739951 0.744315
O O16 0.500000 0.689723 0.750000
#
# Coordination Sequence:
#
# PCOD9231753 Si02
#       7
#     4   4   4   4   4   4   4
#     4   9  20  37  61  85 120 169 218 273 326 396
#     4  12  23  42  64  96 139 178 220 286 358 427
#     4  11  24  40  66  97 131 176 236 286 338 410
#     4  10  23  40  68  94 125 169 231 284 325 407
#     4  11  24  42  63  93 137 179 215 276 364 418
#     4  10  20  41  64  92 125 173 227 272 338 403
#     4  11  23  37  69  99 128 175 233 288 342 411
#
# _framework density 22.876740000000002
#
# number of rings (size 3 to 8) (size 9 to 14) (size 15 to 20)
#    0.000    1.429    2.857    3.857    6.000    1.714 
#    0.000    0.714    0.000    0.000    0.000    0.000 
#    0.000    0.000    0.000    0.000    0.000    0.000 
#
# Total GULP energy -156193.481485 kJ/mol
# GULP energy per Si atom -5578.338624 kJ/mol
# Density = 2.282467 g / cm^3
# Si number density = 22.876740 Si / 1000 Ang^3
#
#
#
# Elastic Constant Matrix: (Units=GPa)
#
#
# Indices 1 2 3 4 5 6 
#
# 1 178.2460 27.0161 35.3592 0.0000 -16.1803 0.0000
# 2 27.0161 34.3430 0.5857 0.0000 0.8821 0.0000
# 3 35.3592 0.5857 53.3681 0.0000 -5.1372 0.0000
# 4 0.0000 0.0000 0.0000 17.8743 0.0000 2.1564
# 5 -16.1803 0.8821 -5.1372 0.0000 46.6792 0.0000
# 6 0.0000 0.0000 0.0000 2.1564 0.0000 24.9346
#
#
#
# Elastic Compliance Matrix: (Units=1/GPa)
#
#
# Indices 1 2 3 4 5 6 
#
# 1 0.007679 -0.006017 -0.004806 0.000000 0.002247 0.000000
# 2 -0.006017 0.033854 0.003389 0.000000 -0.002352 0.000000
# 3 -0.004806 0.003389 0.021951 0.000000 0.000686 0.000000
# 4 0.000000 0.000000 0.000000 0.056536 0.000000 -0.004889
# 5 0.002247 -0.002352 0.000686 0.000000 0.022322 0.000000
# 6 0.000000 0.000000 0.000000 -0.004889 0.000000 0.040528
#
#
# Mechanical properties :
#
#
# Convention : Reuss Voigt Hill
#
# Bulk Modulus (GPa) = 20.56945 43.54211 32.05578
# Shear Modulus (GPa) = 23.37076 31.43069 27.40073
#
# Velocity S-wave (km/s) = 3.19971 3.71066 3.46461
# Velocity P-wave (km/s) = 4.76044 6.11828 5.48156
#
# Compressibility (1/GPa) = 0.04861579
#
# Stress axis : x y z
#
# Youngs Moduli (GPa) = 130.21773 29.53880 45.55669
#
# Poissons Ratio (x) = 0.17773 0.21893
# Poissons Ratio (y) = 0.78350 -0.15437
# Poissons Ratio (z) = 0.62579 -0.10009
#
# Static dielectric constant tensor:
#      x y z
#    x 1.863530 0.000000 0.000650 
#    y 0.000000 1.951010 0.000000 
#    z 0.000650 0.000000 1.977960 
# 
# From -- ./inp_files/50265.got.cif
#   From: 2010.05.17/outbox.cif.g08.bks.cpg/sg13_26_cif.got.tgz:50265.got - 2010.06.03 16:44:36.
