data_PCOD9231691
_publ_section_title
;
Structure prediction by ZEFSAII (Michael W. Deem and Ramdas Pophale) SiO2 
 PCOD9231691
Probable space group: P 2/C
;
_chemical_formula_sum "Si O2"
_cell_formula_units_Z 28
_cell_length_a 17.292750
_cell_length_b 8.360963
_cell_length_c 16.402470
_cell_angle_alpha 90.000000
_cell_angle_beta 34.330312
_cell_angle_gamma 90.000000
_cell_volume 1337.458264
_symmetry_space_group_name_H-M "P 2/C"
_symmetry_group_IT_number 13
_symmetry_cell_setting 'monoclinic'
loop_
_space_group_symop_operation_xyz
x,y,z
-x,y,1/2-z
-x,-y,-z
x,-y,1/2+z
loop_
_atom_site_type_symbol
_atom_site_label
_atom_site_fract_x
_atom_site_fract_y
_atom_site_fract_z
Si Si1 0.768522 0.060372 0.489412
Si Si2 0.946123 0.861009 0.445377
Si Si3 0.756535 0.391224 0.413218
Si Si4 0.549877 0.345901 0.052483
Si Si5 0.000000 0.623113 0.250000
Si Si6 0.247414 0.087776 0.677578
Si Si7 0.500000 0.880113 0.750000
Si Si8 0.729079 0.761671 0.770142
O O1 0.752244 0.244209 0.479531
O O2 0.889204 0.016197 0.446585
O O3 0.782152 0.965223 0.390954
O O4 0.631356 0.990538 0.649210
O O5 0.836825 0.793577 0.604701
O O6 0.964961 0.730698 0.358029
O O7 0.097992 0.890770 0.347841
O O8 0.614671 0.487005 0.523921
O O9 0.796406 0.318074 0.290772
O O10 0.869179 0.516254 0.343630
O O11 0.528227 0.233146 0.149479
O O12 0.401075 0.345721 0.141031
O O13 0.661835 0.247335 0.901842
O O14 0.320466 0.937570 0.656821
#
# Coordination Sequence:
#
# PCOD9231691 Si02
#       8
#     4   4   4   4   2   4   2   4
#     4  10  21  39  67  95 129 171 231 277 323 400
#     4  12  21  44  70  97 129 182 233 277 326 408
#     4  11  26  42  65 100 141 178 217 287 351 397
#     4  11  21  44  67  94 139 179 221 275 348 402
#     4  12  24  44  70  94 138 188 218 276 356 396
#     4  10  21  40  66  94 129 177 226 268 331 401
#     4  10  20  40  70  98 120 178 240 270 318 412
#     4  11  25  40  69 100 136 175 230 280 332 401
#
# _framework density 20.935233
#
# number of rings (size 3 to 8) (size 9 to 14) (size 15 to 20)
#    0.000    1.143    4.286    2.143    4.000    1.143 
#    0.000    0.000    0.000    0.000    0.000    0.000 
#    0.000    0.000    0.000    0.000    0.000    0.000 
#
# Total GULP energy -156518.196931 kJ/mol
# GULP energy per Si atom -5589.935605 kJ/mol
# Density = 2.088758 g / cm^3
# Si number density = 20.935233 Si / 1000 Ang^3
#
#
#
# Elastic Constant Matrix: (Units=GPa)
#
#
# Indices 1 2 3 4 5 6 
#
# 1 49.2114 28.3274 20.7396 0.0000 -5.6523 0.0000
# 2 28.3274 109.9036 30.0692 0.0000 3.0492 0.0000
# 3 20.7396 30.0692 94.6143 0.0000 -6.4256 0.0000
# 4 0.0000 0.0000 0.0000 19.9334 0.0000 3.0584
# 5 -5.6523 3.0492 -6.4256 0.0000 25.5890 0.0000
# 6 0.0000 0.0000 0.0000 3.0584 0.0000 21.9975
#
#
#
# Elastic Compliance Matrix: (Units=1/GPa)
#
#
# Indices 1 2 3 4 5 6 
#
# 1 0.025767 -0.005862 -0.003409 0.000000 0.005534 0.000000
# 2 -0.005862 0.011402 -0.002563 0.000000 -0.003297 0.000000
# 3 -0.003409 -0.002563 0.012311 0.000000 0.002644 0.000000
# 4 0.000000 0.000000 0.000000 0.051261 0.000000 -0.007127
# 5 0.005534 -0.003297 0.002644 0.000000 0.041359 0.000000
# 6 0.000000 0.000000 0.000000 -0.007127 0.000000 0.046451
#
#
# Mechanical properties :
#
#
# Convention : Reuss Voigt Hill
#
# Bulk Modulus (GPa) = 38.74187 45.77798 42.25992
# Shear Modulus (GPa) = 22.64259 25.14351 23.89305
#
# Velocity S-wave (km/s) = 3.29227 3.46932 3.38195
# Velocity P-wave (km/s) = 5.74437 6.16135 5.95651
#
# Compressibility (1/GPa) = 0.02581187
#
# Stress axis : x y z
#
# Youngs Moduli (GPa) = 38.80861 87.70013 81.23115
#
# Poissons Ratio (x) = 0.51412 0.27695
# Poissons Ratio (y) = 0.22751 0.20817
# Poissons Ratio (z) = 0.13231 0.22475
#
# Static dielectric constant tensor:
#      x y z
#    x 1.769920 0.000000 -0.014490 
#    y 0.000000 1.742870 0.000000 
#    z -0.014490 0.000000 1.755380 
# 
# From -- ./inp_files/53345.got.cif
#   From: 2010.05.17/outbox.cif.g08.bks.cpg/sg13_27_cif.got.tgz:53345.got - 2010.06.03 16:44:36.
