data_PCOD9231358
_publ_section_title
;
Structure prediction by ZEFSAII (Michael W. Deem and Ramdas Pophale) SiO2 
 PCOD9231358
Probable space group: P 2/C
;
_chemical_formula_sum "Si O2"
_cell_formula_units_Z 28
_cell_length_a 8.286312
_cell_length_b 16.421571
_cell_length_c 10.612672
_cell_angle_alpha 90.000000
_cell_angle_beta 117.547959
_cell_angle_gamma 90.000000
_cell_volume 1280.383941
_symmetry_space_group_name_H-M "P 2/C"
_symmetry_group_IT_number 13
_symmetry_cell_setting 'monoclinic'
loop_
_space_group_symop_operation_xyz
x,y,z
-x,y,1/2-z
-x,-y,-z
x,-y,1/2+z
loop_
_atom_site_type_symbol
_atom_site_label
_atom_site_fract_x
_atom_site_fract_y
_atom_site_fract_z
Si Si1 0.889638 0.043838 0.578486
Si Si2 0.932466 0.211401 0.506265
Si Si3 0.307184 0.665284 0.737132
Si Si4 0.118876 0.499220 0.168961
Si Si5 0.817765 0.124742 0.094715
Si Si6 0.770808 0.684771 0.276613
Si Si7 0.581748 0.271254 0.973888
O O1 0.819549 0.133337 0.515084
O O2 0.000000 0.056795 0.750000
O O3 0.757804 0.968738 0.564913
O O4 0.000000 0.000000 0.500000
O O5 0.835457 0.269982 0.370713
O O6 0.098349 0.161362 0.502659
O O7 0.034681 0.271592 0.638070
O O8 0.500000 0.688894 0.750000
O O9 0.258611 0.572897 0.690670
O O10 0.327558 0.668782 0.893863
O O11 0.203615 0.588077 0.223781
O O12 0.000000 0.478192 0.250000
O O13 0.000000 0.500000 0.000000
O O14 0.000000 0.128364 0.250000
O O15 0.648209 0.184423 0.053042
O O16 0.634590 0.717731 0.119707
O O17 0.669128 0.705954 0.371408
#
# Coordination Sequence:
#
# PCOD9231358 Si02
#       7
#     4   4   4   4   4   4   4
#     4   9  19  34  63  99 129 173 228 278 334 401
#     4  10  20  39  64  91 130 175 224 270 337 403
#     4  12  27  41  66  97 138 176 225 281 341 402
#     4  12  27  46  70  99 132 181 234 277 340 414
#     4   9  16  34  67  93 124 172 221 270 324 407
#     4  10  23  41  68  97 132 172 227 283 340 403
#     4  10  22  40  66 100 130 174 223 277 339 410
#
# _framework density 21.86844
#
# number of rings (size 3 to 8) (size 9 to 14) (size 15 to 20)
#    0.000    1.714    2.857    0.857    6.000    2.286 
#    0.000    0.000   12.571    2.571    0.000    0.000 
#    0.000    0.000    0.000    0.000    0.000    0.000 
#
# Total GULP energy -155980.304213 kJ/mol
# GULP energy per Si atom -5570.725150 kJ/mol
# Density = 2.181867 g / cm^3
# Si number density = 21.868440 Si / 1000 Ang^3
#
#
#
# Elastic Constant Matrix: (Units=GPa)
#
#
# Indices 1 2 3 4 5 6 
#
# 1 34.6706 4.4485 16.1439 0.0000 9.6248 0.0000
# 2 4.4485 160.6716 36.8920 0.0000 29.9622 0.0000
# 3 16.1439 36.8920 137.5408 0.0000 8.3178 0.0000
# 4 0.0000 0.0000 0.0000 -4.0933 0.0000 -11.0306
# 5 9.6248 29.9622 8.3178 0.0000 34.3749 0.0000
# 6 0.0000 0.0000 0.0000 -11.0306 0.0000 13.1444
#
#
#
# Elastic Compliance Matrix: (Units=1/GPa)
#
#
# Indices 1 2 3 4 5 6 
#
# 1 0.033125 0.001801 -0.003770 0.000000 -0.009932 0.000000
# 2 0.001801 0.007906 -0.001913 0.000000 -0.006932 0.000000
# 3 -0.003770 -0.001913 0.008181 0.000000 0.000743 0.000000
# 4 0.000000 0.000000 0.000000 -0.074906 0.000000 -0.062860
# 5 -0.009932 -0.006932 0.000743 0.000000 0.037735 0.000000
# 6 0.000000 0.000000 0.000000 -0.062860 0.000000 0.023327
#
#
# Mechanical properties :
#
#
# Convention : Reuss Voigt Hill
#
# Bulk Modulus (GPa) = 24.12710 49.76130 36.94420
# Shear Modulus (GPa) = 87.80060 27.04510 57.42285
#
# Velocity S-wave (km/s) = 6.34323 3.52052 5.12985
# Velocity P-wave (km/s) = 8.04398 6.27133 7.21232
#
# Compressibility (1/GPa) = 0.04144718
#
# Stress axis : x y z
#
# Youngs Moduli (GPa) = 30.18897 126.48664 122.23132
#
# Poissons Ratio (x) = -0.22777 0.46086
# Poissons Ratio (y) = -0.05436 0.23379
# Poissons Ratio (z) = 0.11382 0.24193
#
# Static dielectric constant tensor:
#      x y z
#    x 2.014920 0.000000 0.024990 
#    y 0.000000 1.831190 0.000000 
#    z 0.024990 0.000000 1.735190 
# 
# From -- ./inp_files/30478.got.cif
#   From: 2010.05.17/outbox.cif.g08.bks.cpg/sg13_16_cif.got.tgz:30478.got - 2010.06.03 16:44:36.
