data_PCOD9231512
_publ_section_title
;
Structure prediction by ZEFSAII (Michael W. Deem and Ramdas Pophale) SiO2 
 PCOD9231512
Probable space group: P 2/C
;
_chemical_formula_sum "Si O2"
_cell_formula_units_Z 32
_cell_length_a 11.801332
_cell_length_b 5.591313
_cell_length_c 22.641934
_cell_angle_alpha 90.000000
_cell_angle_beta 76.179855
_cell_angle_gamma 90.000000
_cell_volume 1450.775134
_symmetry_space_group_name_H-M "P 2/C"
_symmetry_group_IT_number 13
_symmetry_cell_setting 'monoclinic'
loop_
_space_group_symop_operation_xyz
x,y,z
-x,y,1/2-z
-x,-y,-z
x,-y,1/2+z
loop_
_atom_site_type_symbol
_atom_site_label
_atom_site_fract_x
_atom_site_fract_y
_atom_site_fract_z
Si Si1 0.636121 0.737162 0.750313
Si Si2 0.343993 0.762815 0.183587
Si Si3 0.565719 0.044074 0.587692
Si Si4 0.243255 0.730844 0.888291
Si Si5 0.978493 0.842630 0.943583
Si Si6 0.401422 0.256171 0.046972
Si Si7 0.233319 0.467609 0.508077
Si Si8 0.808607 0.915288 0.397932
O O1 0.500000 0.759757 0.750000
O O2 0.650135 0.498378 0.787909
O O3 0.710318 0.684679 0.682282
O O4 0.670253 0.995851 0.774423
O O5 0.234127 0.761439 0.151797
O O6 0.470539 0.810386 0.136761
O O7 0.688255 0.974311 0.600993
O O8 0.502546 0.788999 0.580271
O O9 0.577158 0.152423 0.521116
O O10 0.104473 0.739821 0.911874
O O11 0.272686 0.539606 0.935871
O O12 0.873755 0.652473 0.970331
O O13 0.934841 0.969313 0.888219
O O14 0.000000 0.000000 0.000000
O O15 0.346808 0.506182 0.036574
O O16 0.292198 0.112884 0.087085
O O17 0.191370 0.216321 0.538511
#
# Coordination Sequence:
#
# PCOD9231512 Si02
#       8
#     4   4   4   4   4   4   4   4
#     4  12  28  49  70 104 142 194 241 288 343 419
#     4  11  27  47  72  99 140 191 240 290 346 413
#     4  10  20  40  61  99 136 179 220 290 346 433
#     4  12  24  41  69 100 140 182 235 286 357 422
#     4  11  23  43  68 104 144 174 232 295 371 431
#     4   9  20  35  60 100 139 165 221 272 372 428
#     4  11  22  39  68 104 130 178 221 297 365 430
#     4  10  22  42  69  97 136 178 226 296 358 422
#
# _framework density 22.057172999999999
#
# number of rings (size 3 to 8) (size 9 to 14) (size 15 to 20)
#    0.000    1.250    3.750    1.500    7.000    1.500 
#    0.000    0.625    0.000    0.000    0.000    0.000 
#    0.000    0.000    0.000    0.000    0.000    0.000 
#
# Total GULP energy -178384.991957 kJ/mol
# GULP energy per Si atom -5574.530999 kJ/mol
# Density = 2.200697 g / cm^3
# Si number density = 22.057173 Si / 1000 Ang^3
#
#
#
# Elastic Constant Matrix: (Units=GPa)
#
#
# Indices 1 2 3 4 5 6 
#
# 1 98.4343 17.9782 10.7459 0.0000 12.4893 0.0000
# 2 17.9782 58.3648 6.5362 0.0000 16.0054 0.0000
# 3 10.7459 6.5362 72.4367 0.0000 4.2558 0.0000
# 4 0.0000 0.0000 0.0000 37.0267 0.0000 11.8250
# 5 12.4893 16.0054 4.2558 0.0000 30.6458 0.0000
# 6 0.0000 0.0000 0.0000 11.8250 0.0000 24.4856
#
#
#
# Elastic Compliance Matrix: (Units=1/GPa)
#
#
# Indices 1 2 3 4 5 6 
#
# 1 0.011133 -0.002443 -0.001250 0.000000 -0.003088 0.000000
# 2 -0.002443 0.020638 -0.000933 0.000000 -0.009654 0.000000
# 3 -0.001250 -0.000933 0.014131 0.000000 -0.000966 0.000000
# 4 0.000000 0.000000 0.000000 0.031933 0.000000 -0.015421
# 5 -0.003088 -0.009654 -0.000966 0.000000 0.039065 0.000000
# 6 0.000000 0.000000 0.000000 -0.015421 0.000000 0.048288
#
#
# Mechanical properties :
#
#
# Convention : Reuss Voigt Hill
#
# Bulk Modulus (GPa) = 27.28334 33.30626 30.29480
# Shear Modulus (GPa) = 26.78722 31.36332 29.07527
#
# Velocity S-wave (km/s) = 3.48867 3.77491 3.63461
# Velocity P-wave (km/s) = 5.35014 5.84232 5.60164
#
# Compressibility (1/GPa) = 0.03665240
#
# Stress axis : x y z
#
# Youngs Moduli (GPa) = 89.81952 48.45481 70.76401
#
# Poissons Ratio (x) = 0.11836 0.08844
# Poissons Ratio (y) = 0.21940 0.06600
# Poissons Ratio (z) = 0.11226 0.04519
#
# Static dielectric constant tensor:
#      x y z
#    x 1.871500 0.000000 0.000150 
#    y 0.000000 1.982070 0.000000 
#    z 0.000150 0.000000 1.858930 
# 
# From -- ./inp_files/85989.got.cif
#   From: 2010.05.17/outbox.cif.g08.bks.cpg/sg13_43_cif.got.tgz:85989.got - 2010.06.03 16:44:36.
