data_PCOD9231794
_publ_section_title
;
Structure prediction by ZEFSAII (Michael W. Deem and Ramdas Pophale) SiO2 
 PCOD9231794
Probable space group: P 2/C
;
_chemical_formula_sum "Si O2"
_cell_formula_units_Z 20
_cell_length_a 27.695871
_cell_length_b 4.959001
_cell_length_c 12.274319
_cell_angle_alpha 90.000000
_cell_angle_beta 29.301951
_cell_angle_gamma 90.000000
_cell_volume 825.052099
_symmetry_space_group_name_H-M "P 2/C"
_symmetry_group_IT_number 13
_symmetry_cell_setting 'monoclinic'
loop_
_space_group_symop_operation_xyz
x,y,z
-x,y,1/2-z
-x,-y,-z
x,-y,1/2+z
loop_
_atom_site_type_symbol
_atom_site_label
_atom_site_fract_x
_atom_site_fract_y
_atom_site_fract_z
Si Si1 0.122971 0.553323 0.189436
Si Si2 0.123422 0.048886 0.323993
Si Si3 0.311120 0.370454 0.193484
Si Si4 0.690493 0.858034 0.437429
Si Si5 0.000000 0.758172 0.750000
Si Si6 0.500000 0.358802 0.250000
O O1 0.093135 0.852761 0.283908
O O2 0.065096 0.428761 0.201572
O O3 0.106917 0.353906 0.322156
O O4 0.238984 0.557863 0.932549
O O5 0.071498 0.944280 0.535639
O O6 0.239908 0.987277 0.110636
O O7 0.301230 0.059974 0.181690
O O8 0.273624 0.560596 0.167173
O O9 0.425040 0.463295 0.970224
O O10 0.573246 0.816685 0.681436
#
# Coordination Sequence:
#
# PCOD9231794 Si02
#       6
#     4   4   4   4   2   2
#     4  12  27  45  70 105 136 181 233 279 346 411
#     4  12  27  45  70 105 136 181 233 279 346 411
#     4  10  20  41  68  94 137 180 222 276 339 397
#     4  10  20  41  68  94 137 180 222 276 339 397
#     4  12  26  50  72  98 144 182 222 302 332 410
#     4   8  20  36  74 102 118 202 216 268 350 402
#
# _framework density 24.240894999999998
#
# number of rings (size 3 to 8) (size 9 to 14) (size 15 to 20)
#    1.200    0.000    2.000    4.200    0.000    1.600 
#    0.000    2.000    0.000    0.000    0.000    0.000 
#    0.000    0.000    0.000    0.000    0.000    0.000 
#
# Total GULP energy -111784.460430 kJ/mol
# GULP energy per Si atom -5589.223022 kJ/mol
# Density = 2.418572 g / cm^3
# Si number density = 24.240895 Si / 1000 Ang^3
#
#
#
# Elastic Constant Matrix: (Units=GPa)
#
#
# Indices 1 2 3 4 5 6 
#
# 1 86.9242 17.1056 40.1096 0.0000 -13.4000 0.0000
# 2 17.1056 103.2581 28.6899 0.0000 4.5658 0.0000
# 3 40.1096 28.6899 146.8338 0.0000 -19.1689 0.0000
# 4 0.0000 0.0000 0.0000 29.6070 0.0000 0.5248
# 5 -13.4000 4.5658 -19.1689 0.0000 31.5950 0.0000
# 6 0.0000 0.0000 0.0000 0.5248 0.0000 31.6139
#
#
#
# Elastic Compliance Matrix: (Units=1/GPa)
#
#
# Indices 1 2 3 4 5 6 
#
# 1 0.013838 -0.001685 -0.002881 0.000000 0.004364 0.000000
# 2 -0.001685 0.010701 -0.002091 0.000000 -0.003530 0.000000
# 3 -0.002881 -0.002091 0.008564 0.000000 0.004276 0.000000
# 4 0.000000 0.000000 0.000000 0.033786 0.000000 -0.000561
# 5 0.004364 -0.003530 0.004276 0.000000 0.036606 0.000000
# 6 0.000000 0.000000 0.000000 -0.000561 0.000000 0.031641
#
#
# Mechanical properties :
#
#
# Convention : Reuss Voigt Hill
#
# Bulk Modulus (GPa) = 50.53446 56.53625 53.53535
# Shear Modulus (GPa) = 32.24829 35.30390 33.77610
#
# Velocity S-wave (km/s) = 3.65132 3.82039 3.73681
# Velocity P-wave (km/s) = 6.21838 6.54476 6.38365
#
# Compressibility (1/GPa) = 0.01978848
#
# Stress axis : x y z
#
# Youngs Moduli (GPa) = 72.26437 93.45139 116.76343
#
# Poissons Ratio (x) = 0.15746 0.33640
# Poissons Ratio (y) = 0.12176 0.24420
# Poissons Ratio (z) = 0.20820 0.19544
#
# Static dielectric constant tensor:
#      x y z
#    x 1.965200 0.000000 -0.044430 
#    y 0.000000 1.881510 0.000000 
#    z -0.044430 0.000000 1.941970 
# 
# From -- ./inp_files/35182.got.cif
#   From: 2010.05.17/outbox.cif.g08.bks.cpg/sg13_18_cif.got.tgz:35182.got - 2010.06.03 16:44:36.
