data_PCOD9231750
_publ_section_title
;
Structure prediction by ZEFSAII (Michael W. Deem and Ramdas Pophale) SiO2 
 PCOD9231750
Probable space group: P 2/C
;
_chemical_formula_sum "Si O2"
_cell_formula_units_Z 30
_cell_length_a 15.910208
_cell_length_b 8.996547
_cell_length_c 11.750978
_cell_angle_alpha 90.000000
_cell_angle_beta 55.308584
_cell_angle_gamma 90.000000
_cell_volume 1382.988865
_symmetry_space_group_name_H-M "P 2/C"
_symmetry_group_IT_number 13
_symmetry_cell_setting 'monoclinic'
loop_
_space_group_symop_operation_xyz
x,y,z
-x,y,1/2-z
-x,-y,-z
x,-y,1/2+z
loop_
_atom_site_type_symbol
_atom_site_label
_atom_site_fract_x
_atom_site_fract_y
_atom_site_fract_z
Si Si1 0.958003 0.875716 0.169394
Si Si2 0.288031 0.646466 0.633829
Si Si3 0.591479 0.613652 0.758184
Si Si4 0.312650 0.685116 0.356771
Si Si5 0.335222 0.897167 0.927558
Si Si6 0.161906 0.116010 0.381627
Si Si7 0.500000 0.871536 0.250000
Si Si8 0.777391 0.304820 0.806287
O O1 0.891469 0.733902 0.255378
O O2 0.000000 0.952921 0.250000
O O3 0.879187 0.986288 0.168529
O O4 0.055696 0.831678 0.019882
O O5 0.398711 0.631662 0.613023
O O6 0.290881 0.713250 0.505446
O O7 0.219554 0.754581 0.766247
O O8 0.249466 0.476780 0.652910
O O9 0.500000 0.555552 0.750000
O O10 0.677323 0.492560 0.664144
O O11 0.612433 0.773560 0.691254
O O12 0.420505 0.765923 0.244711
O O13 0.234408 0.726605 0.318934
O O14 0.237866 0.941997 0.923666
O O15 0.421405 0.022000 0.879606
O O16 0.296044 0.807244 0.067339
#
# Coordination Sequence:
#
# PCOD9231750 Si02
#       8
#     4   4   4   4   4   4   2   4
#     4  11  23  43  73 101 131 177 221 270 349 411
#     4  10  24  42  68  95 137 176 220 286 328 391
#     4  10  20  41  64  90 129 180 225 264 329 388
#     4  11  24  42  61  99 137 176 223 274 332 390
#     4  11  22  43  64  97 131 176 221 272 332 397
#     4  10  24  44  67  99 134 173 220 280 341 398
#     4  12  26  38  64  98 134 176 224 272 328 398
#     4  11  24  42  71  97 133 176 223 279 335 402
#
# _framework density 21.692148
#
# number of rings (size 3 to 8) (size 9 to 14) (size 15 to 20)
#    0.000    1.333    4.000    0.800    1.867    4.800 
#    0.000    0.667    0.000    0.000    0.000    0.000 
#    0.000    0.000    0.000    0.000    0.000    0.000 
#
# Total GULP energy -167196.323906 kJ/mol
# GULP energy per Si atom -5573.210797 kJ/mol
# Density = 2.164278 g / cm^3
# Si number density = 21.692148 Si / 1000 Ang^3
#
#
#
# Elastic Constant Matrix: (Units=GPa)
#
#
# Indices 1 2 3 4 5 6 
#
# 1 100.8262 36.5889 39.2980 0.0000 9.5127 0.0000
# 2 36.5889 83.0477 44.2541 0.0000 -3.7034 0.0000
# 3 39.2980 44.2541 89.1342 0.0000 19.8306 0.0000
# 4 0.0000 0.0000 0.0000 21.2530 0.0000 2.8476
# 5 9.5127 -3.7034 19.8306 0.0000 35.2204 0.0000
# 6 0.0000 0.0000 0.0000 2.8476 0.0000 24.0516
#
#
#
# Elastic Compliance Matrix: (Units=1/GPa)
#
#
# Indices 1 2 3 4 5 6 
#
# 1 0.012824 -0.004052 -0.003174 0.000000 -0.002102 0.000000
# 2 -0.004052 0.019424 -0.009780 0.000000 0.008643 0.000000
# 3 -0.003174 -0.009780 0.020020 0.000000 -0.011443 0.000000
# 4 0.000000 0.000000 0.000000 0.047811 0.000000 -0.005661
# 5 -0.002102 0.008643 -0.011443 0.000000 0.036312 0.000000
# 6 0.000000 0.000000 0.000000 -0.005661 0.000000 0.042247
#
#
# Mechanical properties :
#
#
# Convention : Reuss Voigt Hill
#
# Bulk Modulus (GPa) = 54.78047 57.03220 55.90634
# Shear Modulus (GPa) = 22.85858 26.29614 24.57736
#
# Velocity S-wave (km/s) = 3.24971 3.48550 3.36967
# Velocity P-wave (km/s) = 6.27608 6.52281 6.40063
#
# Compressibility (1/GPa) = 0.01825468
#
# Stress axis : x y z
#
# Youngs Moduli (GPa) = 77.97769 51.48389 49.94989
#
# Poissons Ratio (x) = 0.20863 0.15856
# Poissons Ratio (y) = 0.31599 0.48851
# Poissons Ratio (z) = 0.24753 0.50351
#
# Static dielectric constant tensor:
#      x y z
#    x 1.852860 0.000000 0.020700 
#    y 0.000000 1.792730 0.000000 
#    z 0.020700 0.000000 1.822010 
# 
# From -- ./inp_files/36424.got.cif
#   From: 2010.05.17/outbox.cif.g08.bks.cpg/sg13_19_cif.got.tgz:36424.got - 2010.06.03 16:44:36.
