data_PCOD9231067
_publ_section_title
;
Structure prediction by ZEFSAII (Michael W. Deem and Ramdas Pophale) SiO2 
 PCOD9231067
Probable space group: P 2/C
;
_chemical_formula_sum "Si O2"
_cell_formula_units_Z 20
_cell_length_a 13.073823
_cell_length_b 4.953867
_cell_length_c 30.044733
_cell_angle_alpha 90.000000
_cell_angle_beta 153.138751
_cell_angle_gamma 90.000000
_cell_volume 879.208248
_symmetry_space_group_name_H-M "P 2/C"
_symmetry_group_IT_number 13
_symmetry_cell_setting 'monoclinic'
loop_
_space_group_symop_operation_xyz
x,y,z
-x,y,1/2-z
-x,-y,-z
x,-y,1/2+z
loop_
_atom_site_type_symbol
_atom_site_label
_atom_site_fract_x
_atom_site_fract_y
_atom_site_fract_z
Si Si1 0.777914 0.191401 0.440171
Si Si2 0.247883 0.423329 0.652343
Si Si3 0.899932 0.135594 0.759769
Si Si4 0.993345 0.621229 0.853997
Si Si5 0.607991 0.692958 0.425197
O O1 0.751927 0.322399 0.381482
O O2 0.640618 0.393502 0.419123
O O3 0.040953 0.231280 0.556691
O O4 0.688472 0.896944 0.417465
O O5 0.500000 0.304563 0.750000
O O6 0.181200 0.525874 0.675504
O O7 0.038056 0.364208 0.840192
O O8 0.644463 0.244452 0.658617
O O9 0.000000 0.090498 0.750000
O O10 0.901680 0.863747 0.788948
O O11 0.215477 0.720709 0.966119
#
# Coordination Sequence:
#
# PCOD9231067 Si02
#       5
#     4   4   4   4   4
#     4  10  23  38  62  96 129 169 201 246 314 368
#     4  10  20  38  63  93 130 167 208 249 300 377
#     4  12  26  44  67  93 122 164 217 268 318 368
#     4  11  25  42  65  95 125 167 211 255 320 374
#     4  11  23  44  65  92 134 163 205 264 308 375
#
# _framework density 22.747741000000001
#
# number of rings (size 3 to 8) (size 9 to 14) (size 15 to 20)
#    0.000    1.200    0.000    6.600    0.000   10.400 
#    0.000   12.000    0.000    0.000    0.000    0.000 
#    0.000    0.000    0.000    0.000    0.000    0.000 
#
# Total GULP energy -112126.895022 kJ/mol
# GULP energy per Si atom -5606.344751 kJ/mol
# Density = 2.269597 g / cm^3
# Si number density = 22.747741 Si / 1000 Ang^3
#
#
#
# Elastic Constant Matrix: (Units=GPa)
#
#
# Indices 1 2 3 4 5 6 
#
# 1 101.8081 -9.1376 46.0670 0.0000 -0.8394 0.0000
# 2 -9.1376 59.6535 2.3290 0.0000 3.1019 0.0000
# 3 46.0670 2.3290 78.0667 0.0000 -4.4465 0.0000
# 4 0.0000 0.0000 0.0000 10.1513 0.0000 -18.2007
# 5 -0.8394 3.1019 -4.4465 0.0000 24.0985 0.0000
# 6 0.0000 0.0000 0.0000 -18.2007 0.0000 7.7640
#
#
#
# Elastic Compliance Matrix: (Units=1/GPa)
#
#
# Indices 1 2 3 4 5 6 
#
# 1 0.013786 0.002507 -0.008288 0.000000 -0.001372 0.000000
# 2 0.002507 0.017363 -0.002142 0.000000 -0.002543 0.000000
# 3 -0.008288 -0.002142 0.017952 0.000000 0.003299 0.000000
# 4 0.000000 0.000000 0.000000 -0.030755 0.000000 -0.072096
# 5 -0.001372 -0.002543 0.003299 0.000000 0.042385 0.000000
# 6 0.000000 0.000000 0.000000 -0.072096 0.000000 -0.040211
#
#
# Mechanical properties :
#
#
# Convention : Reuss Voigt Hill
#
# Bulk Modulus (GPa) = 30.07088 35.33837 32.70462
# Shear Modulus (GPa) = 105.36812 21.75409 63.56110
#
# Velocity S-wave (km/s) = 6.81328 3.09579 5.29173
# Velocity P-wave (km/s) = 8.66847 5.32421 7.19339
#
# Compressibility (1/GPa) = 0.03325477
#
# Stress axis : x y z
#
# Youngs Moduli (GPa) = 72.53522 57.59276 55.70325
#
# Poissons Ratio (x) = -0.14437 0.46168
# Poissons Ratio (y) = -0.18182 0.11932
# Poissons Ratio (z) = 0.60119 0.12337
#
# Static dielectric constant tensor:
#      x y z
#    x 1.798840 0.000000 0.000100 
#    y 0.000000 1.828740 0.000000 
#    z 0.000100 0.000000 1.856630 
# 
# From -- ./inp_files/48709.got.cif
#   From: 2010.05.17/outbox.cif.g08.bks.cpg/sg13_25_cif.got.tgz:48709.got - 2010.06.03 16:44:36.
