data_PCOD9231595
_publ_section_title
;
Structure prediction by ZEFSAII (Michael W. Deem and Ramdas Pophale) SiO2 
 PCOD9231595
Probable space group: P 2/C
;
_chemical_formula_sum "Si O2"
_cell_formula_units_Z 26
_cell_length_a 9.375437
_cell_length_b 8.277336
_cell_length_c 21.913885
_cell_angle_alpha 90.000000
_cell_angle_beta 134.054291
_cell_angle_gamma 90.000000
_cell_volume 1222.187385
_symmetry_space_group_name_H-M "P 2/C"
_symmetry_group_IT_number 13
_symmetry_cell_setting 'monoclinic'
loop_
_space_group_symop_operation_xyz
x,y,z
-x,y,1/2-z
-x,-y,-z
x,-y,1/2+z
loop_
_atom_site_type_symbol
_atom_site_label
_atom_site_fract_x
_atom_site_fract_y
_atom_site_fract_z
Si Si1 0.801280 0.809973 0.732849
Si Si2 0.744137 0.552725 0.258646
Si Si3 0.922638 0.238618 0.488664
Si Si4 0.038771 0.973379 0.612236
Si Si5 0.698562 0.963812 0.594229
Si Si6 0.292619 0.439881 0.605956
Si Si7 0.000000 0.217499 0.750000
O O1 0.781044 0.635420 0.755440
O O2 0.806800 0.948865 0.786378
O O3 0.000000 0.810756 0.750000
O O4 0.641268 0.850013 0.633945
O O5 0.747120 0.562690 0.332774
O O6 0.524113 0.593829 0.168514
O O7 0.897439 0.667964 0.269744
O O8 0.138144 0.310428 0.534614
O O9 0.871287 0.114189 0.419730
O O10 0.772606 0.388226 0.441745
O O11 0.957069 0.142281 0.561764
O O12 0.848696 0.891278 0.588209
O O13 0.830509 0.108240 0.665304
O O14 0.500000 0.000000 0.500000
#
# Coordination Sequence:
#
# PCOD9231595 Si02
#       7
#     4   4   4   4   4   4   2
#     4  10  20  43  63  89 128 173 210 271 330 389
#     4  11  23  41  64  93 127 176 216 267 334 395
#     4  10  21  39  65  94 127 173 207 277 321 401
#     4  10  20  40  65  90 130 168 215 261 339 376
#     4  11  25  42  66  97 129 170 220 279 329 401
#     4  10  23  39  62  94 134 164 220 266 327 395
#     4  12  24  44  70  96 130 174 220 282 332 398
#
# _framework density 21.273333999999998
#
# number of rings (size 3 to 8) (size 9 to 14) (size 15 to 20)
#    0.000    1.538    4.615    0.923    4.308    0.000 
#    0.000    0.769    3.385    0.000    0.000    0.000 
#    0.000    0.000    0.000    0.000    0.000    0.000 
#
# Total GULP energy -144920.241967 kJ/mol
# GULP energy per Si atom -5573.855460 kJ/mol
# Density = 2.122492 g / cm^3
# Si number density = 21.273334 Si / 1000 Ang^3
#
#
#
# Elastic Constant Matrix: (Units=GPa)
#
#
# Indices 1 2 3 4 5 6 
#
# 1 58.6150 19.4239 19.3203 0.0000 -13.1659 0.0000
# 2 19.4239 48.1116 22.1573 0.0000 -5.9988 0.0000
# 3 19.3203 22.1573 105.1370 0.0000 -4.2265 0.0000
# 4 0.0000 0.0000 0.0000 28.3921 0.0000 -12.1296
# 5 -13.1659 -5.9988 -4.2265 0.0000 27.9397 0.0000
# 6 0.0000 0.0000 0.0000 -12.1296 0.0000 23.5313
#
#
#
# Elastic Compliance Matrix: (Units=1/GPa)
#
#
# Indices 1 2 3 4 5 6 
#
# 1 0.021970 -0.006758 -0.002269 0.000000 0.008559 0.000000
# 2 -0.006758 0.025607 -0.004087 0.000000 0.001695 0.000000
# 3 -0.002269 -0.004087 0.010777 0.000000 -0.000316 0.000000
# 4 0.000000 0.000000 0.000000 0.045168 0.000000 0.023283
# 5 0.008559 0.001695 -0.000316 0.000000 0.040141 0.000000
# 6 0.000000 0.000000 0.000000 0.023283 0.000000 0.054498
#
#
# Mechanical properties :
#
#
# Convention : Reuss Voigt Hill
#
# Bulk Modulus (GPa) = 31.12647 37.07405 34.10026
# Shear Modulus (GPa) = 21.26789 26.03674 23.65231
#
# Velocity S-wave (km/s) = 3.16530 3.50224 3.33803
# Velocity P-wave (km/s) = 5.29361 5.81546 5.56066
#
# Compressibility (1/GPa) = 0.03212700
#
# Stress axis : x y z
#
# Youngs Moduli (GPa) = 45.51605 39.05228 92.79121
#
# Poissons Ratio (x) = 0.26391 0.21055
# Poissons Ratio (y) = 0.30759 0.37920
# Poissons Ratio (z) = 0.10328 0.15959
#
# Static dielectric constant tensor:
#      x y z
#    x 1.773730 0.000000 0.018230 
#    y 0.000000 1.814940 0.000000 
#    z 0.018230 0.000000 1.830940 
# 
# From -- ./inp_files/75979.got.cif
#   From: 2010.05.17/outbox.cif.g08.bks.cpg/sg13_38_cif.got.tgz:75979.got - 2010.06.03 16:44:36.
