data_PCOD9231426
_publ_section_title
;
Structure prediction by ZEFSAII (Michael W. Deem and Ramdas Pophale) SiO2 
 PCOD9231426
Probable space group: P 2/C
;
_chemical_formula_sum "Si O2"
_cell_formula_units_Z 22
_cell_length_a 21.411222
_cell_length_b 5.320396
_cell_length_c 8.413868
_cell_angle_alpha 90.000000
_cell_angle_beta 57.123933
_cell_angle_gamma 90.000000
_cell_volume 804.972635
_symmetry_space_group_name_H-M "P 2/C"
_symmetry_group_IT_number 13
_symmetry_cell_setting 'monoclinic'
loop_
_space_group_symop_operation_xyz
x,y,z
-x,y,1/2-z
-x,-y,-z
x,-y,1/2+z
loop_
_atom_site_type_symbol
_atom_site_label
_atom_site_fract_x
_atom_site_fract_y
_atom_site_fract_z
Si Si1 0.147762 0.716794 0.459360
Si Si2 0.948210 0.661707 0.189390
Si Si3 0.407251 0.262000 0.590974
Si Si4 0.268745 0.007999 0.963834
Si Si5 0.712136 0.623846 0.782545
Si Si6 0.500000 0.887904 0.250000
O O1 0.100707 0.808141 0.373030
O O2 0.101319 0.534217 0.639788
O O3 0.187896 0.932014 0.503835
O O4 0.217345 0.555846 0.297169
O O5 0.000000 0.797762 0.250000
O O6 0.000000 0.500000 0.000000
O O7 0.335355 0.145155 0.777609
O O8 0.369758 0.513540 0.575823
O O9 0.439678 0.078668 0.411758
O O10 0.467542 0.272443 0.648661
O O11 0.285409 0.718751 0.904203
O O12 0.272619 0.136663 0.128125
#
# Coordination Sequence:
#
# PCOD9231426 Si02
#       6
#     4   4   4   4   4   2
#     4  10  20  39  67  98 133 190 239 306 365 419
#     4   9  18  35  66 103 136 182 241 303 378 431
#     4  10  24  47  76 107 141 183 235 297 361 436
#     4  11  24  42  67 100 139 186 250 292 356 424
#     4  11  25  43  69 102 145 187 250 298 353 421
#     4  10  22  50  82 110 144 184 232 290 382 448
#
# _framework density 27.330120999999998
#
# number of rings (size 3 to 8) (size 9 to 14) (size 15 to 20)
#    0.000    1.818    1.818    1.091    2.545    4.364 
#    0.000   19.091    0.000   22.909    0.000    0.000 
#    0.000    0.000    0.000    0.000    0.000    0.000 
#
# Total GULP energy -123266.636662 kJ/mol
# GULP energy per Si atom -5603.028939 kJ/mol
# Density = 2.726792 g / cm^3
# Si number density = 27.330121 Si / 1000 Ang^3
#
#
#
# Elastic Constant Matrix: (Units=GPa)
#
#
# Indices 1 2 3 4 5 6 
#
# 1 214.3854 48.7084 51.4914 0.0000 39.0040 0.0000
# 2 48.7084 58.8767 31.6456 0.0000 15.0650 0.0000
# 3 51.4914 31.6456 162.6374 0.0000 -4.5530 0.0000
# 4 0.0000 0.0000 0.0000 52.5753 0.0000 -5.8387
# 5 39.0040 15.0650 -4.5530 0.0000 56.2021 0.0000
# 6 0.0000 0.0000 0.0000 -5.8387 0.0000 9.1552
#
#
#
# Elastic Compliance Matrix: (Units=1/GPa)
#
#
# Indices 1 2 3 4 5 6 
#
# 1 0.006512 -0.003674 -0.001449 0.000000 -0.003652 0.000000
# 2 -0.003674 0.022828 -0.003386 0.000000 -0.003844 0.000000
# 3 -0.001449 -0.003386 0.007336 0.000000 0.002508 0.000000
# 4 0.000000 0.000000 0.000000 0.020470 0.000000 0.013055
# 5 -0.003652 -0.003844 0.002508 0.000000 0.021561 0.000000
# 6 0.000000 0.000000 0.000000 0.013055 0.000000 0.117553
#
#
# Mechanical properties :
#
#
# Convention : Reuss Voigt Hill
#
# Bulk Modulus (GPa) = 50.87090 77.73226 64.30158
# Shear Modulus (GPa) = 22.74490 43.85680 33.30085
#
# Velocity S-wave (km/s) = 2.88797 4.01022 3.49444
# Velocity P-wave (km/s) = 5.45659 7.06727 6.31350
#
# Compressibility (1/GPa) = 0.01965760
#
# Stress axis : x y z
#
# Youngs Moduli (GPa) = 153.57307 43.80676 136.30544
#
# Poissons Ratio (x) = 0.16094 0.19750
# Poissons Ratio (y) = 0.56420 0.46155
# Poissons Ratio (z) = 0.22252 0.14834
#
# Static dielectric constant tensor:
#      x y z
#    x 2.149330 0.000000 0.033020 
#    y 0.000000 2.230220 0.000000 
#    z 0.033020 0.000000 2.100930 
# 
# From -- ./inp_files/23701.got.cif
#   From: 2010.05.17/outbox.cif.g08.bks.cpg/sg13_12_cif.got.tgz:23701.got - 2010.06.03 16:44:36.
