data_PCOD9231525
_publ_section_title
;
Structure prediction by ZEFSAII (Michael W. Deem and Ramdas Pophale) SiO2 
 PCOD9231525
Probable space group: P 2/C
;
_chemical_formula_sum "Si O2"
_cell_formula_units_Z 26
_cell_length_a 26.587987
_cell_length_b 10.656735
_cell_length_c 9.118761
_cell_angle_alpha 90.000000
_cell_angle_beta 147.279807
_cell_angle_gamma 90.000000
_cell_volume 1396.595940
_symmetry_space_group_name_H-M "P 2/C"
_symmetry_group_IT_number 13
_symmetry_cell_setting 'monoclinic'
loop_
_space_group_symop_operation_xyz
x,y,z
-x,y,1/2-z
-x,-y,-z
x,-y,1/2+z
loop_
_atom_site_type_symbol
_atom_site_label
_atom_site_fract_x
_atom_site_fract_y
_atom_site_fract_z
Si Si1 0.275330 0.740871 0.817544
Si Si2 0.410284 0.756189 0.627463
Si Si3 0.586346 0.116544 0.061240
Si Si4 0.428109 0.529970 0.193105
Si Si5 0.279511 0.905815 0.110603
Si Si6 0.000000 0.032110 0.250000
Si Si7 0.877018 0.890978 0.188387
O O1 0.344067 0.818514 0.881379
O O2 0.177837 0.763820 0.491382
O O3 0.337167 0.615482 0.995045
O O4 0.257961 0.807502 0.930399
O O5 0.500000 0.786360 0.750000
O O6 0.433041 0.793110 0.849815
O O7 0.393399 0.608442 0.563058
O O8 0.322500 0.834208 0.354994
O O9 0.637938 0.994028 0.248243
O O10 0.500000 0.080899 0.750000
O O11 0.500000 0.586027 0.250000
O O12 0.500000 0.500000 0.500000
O O13 0.196401 0.997485 0.952867
O O14 0.059277 0.114845 0.510395
O O15 0.935997 0.943724 0.195822
#
# Coordination Sequence:
#
# PCOD9231525 Si02
#       7
#     4   4   4   4   4   2   4
#     4  11  21  35  55  82 114 149 198 240 279 349
#     4  11  23  36  53  77 115 160 201 238 278 335
#     4  11  21  33  51  77 113 154 187 238 292 341
#     4  11  22  38  55  77 114 165 210 240 273 325
#     4  11  22  35  53  84 118 143 189 236 295 355
#     4  10  20  40  62  90 122 146 178 244 318 382
#     4  10  21  37  62  91 119 145 185 234 311 368
#
# _framework density 18.616695
#
# number of rings (size 3 to 8) (size 9 to 14) (size 15 to 20)
#    0.000    1.231    1.538    7.385    2.154    1.846 
#    0.000    0.769    0.000    0.000    0.000    6.462 
#    0.000    0.000    0.000    0.000    0.000    0.000 
#
# Total GULP energy -145021.740060 kJ/mol
# GULP energy per Si atom -5577.759233 kJ/mol
# Density = 1.857432 g / cm^3
# Si number density = 18.616695 Si / 1000 Ang^3
#
#
#
# Elastic Constant Matrix: (Units=GPa)
#
#
# Indices 1 2 3 4 5 6 
#
# 1 93.3403 16.4068 38.2674 0.0000 -7.2647 0.0000
# 2 16.4068 74.2201 39.6778 0.0000 2.4585 0.0000
# 3 38.2674 39.6778 133.3772 0.0000 -10.5602 0.0000
# 4 0.0000 0.0000 0.0000 18.4239 0.0000 -5.8066
# 5 -7.2647 2.4585 -10.5602 0.0000 29.2938 0.0000
# 6 0.0000 0.0000 0.0000 -5.8066 0.0000 13.6137
#
#
#
# Elastic Compliance Matrix: (Units=1/GPa)
#
#
# Indices 1 2 3 4 5 6 
#
# 1 0.012320 -0.001177 -0.003021 0.000000 0.002065 0.000000
# 2 -0.001177 0.016422 -0.004817 0.000000 -0.003407 0.000000
# 3 -0.003021 -0.004817 0.010057 0.000000 0.003281 0.000000
# 4 0.000000 0.000000 0.000000 0.062707 0.000000 0.026746
# 5 0.002065 -0.003407 0.003281 0.000000 0.036117 0.000000
# 6 0.000000 0.000000 0.000000 0.026746 0.000000 0.084863
#
#
# Mechanical properties :
#
#
# Convention : Reuss Voigt Hill
#
# Bulk Modulus (GPa) = 48.15037 54.40462 51.27750
# Shear Modulus (GPa) = 20.20702 26.03867 23.12284
#
# Velocity S-wave (km/s) = 3.29815 3.74394 3.52809
# Velocity P-wave (km/s) = 6.35799 6.92650 6.64832
#
# Compressibility (1/GPa) = 0.02076827
#
# Stress axis : x y z
#
# Youngs Moduli (GPa) = 81.17142 60.89494 99.43159
#
# Poissons Ratio (x) = 0.07165 0.30039
# Poissons Ratio (y) = 0.09551 0.47900
# Poissons Ratio (z) = 0.24523 0.29335
#
# Static dielectric constant tensor:
#      x y z
#    x 1.651110 0.000000 -0.014760 
#    y 0.000000 1.682680 0.000000 
#    z -0.014760 0.000000 1.718590 
# 
# From -- ./inp_files/24702.got.cif
#   From: 2010.05.17/outbox.cif.g08.bks.cpg/sg13_13_cif.got.tgz:24702.got - 2010.06.03 16:44:36.
