data_PCOD9231226
_publ_section_title
;
Structure prediction by ZEFSAII (Michael W. Deem and Ramdas Pophale) SiO2 
 PCOD9231226
Probable space group: P 2/C
;
_chemical_formula_sum "Si O2"
_cell_formula_units_Z 22
_cell_length_a 10.808055
_cell_length_b 15.145602
_cell_length_c 10.917173
_cell_angle_alpha 90.000000
_cell_angle_beta 146.225428
_cell_angle_gamma 90.000000
_cell_volume 993.486258
_symmetry_space_group_name_H-M "P 2/C"
_symmetry_group_IT_number 13
_symmetry_cell_setting 'monoclinic'
loop_
_space_group_symop_operation_xyz
x,y,z
-x,y,1/2-z
-x,-y,-z
x,-y,1/2+z
loop_
_atom_site_type_symbol
_atom_site_label
_atom_site_fract_x
_atom_site_fract_y
_atom_site_fract_z
Si Si1 0.000000 0.664135 0.250000
Si Si2 0.541333 0.325738 0.506316
Si Si3 0.223062 0.466059 0.117252
Si Si4 0.500000 0.620281 0.250000
Si Si5 0.692988 0.026655 0.808300
Si Si6 0.000000 0.896071 0.750000
Si Si7 0.390664 0.146514 0.413242
O O1 0.205281 0.695129 0.329329
O O2 0.147445 0.608275 0.463339
O O3 0.420360 0.416152 0.357864
O O4 0.513598 0.328670 0.632099
O O5 0.411369 0.237724 0.359351
O O6 0.300528 0.550411 0.102832
O O7 0.000000 0.500000 0.000000
O O8 0.500000 0.021028 0.750000
O O9 0.619460 0.108235 0.660804
O O10 0.686731 0.934704 0.733468
O O11 0.910817 0.044930 0.065520
O O12 0.207683 0.842057 0.869506
#
# Coordination Sequence:
#
# PCOD9231226 Si02
#       7
#     2   4   4   2   4   2   4
#     4  12  24  46  70  98 134 182 230 290 345 419
#     4  12  27  43  71 103 138 182 234 294 345 419
#     4  12  24  45  71  99 136 181 236 289 352 411
#     4  12  24  44  70  98 134 184 230 282 346 408
#     4   9  20  41  67  96 134 180 217 281 335 419
#     4  10  20  38  72  92 132 180 224 264 345 411
#     4  10  23  41  64  99 139 170 227 278 344 405
#
# _framework density 22.144241999999998
#
# number of rings (size 3 to 8) (size 9 to 14) (size 15 to 20)
#    0.000    1.091    3.636    2.182    3.818    4.364 
#    0.000    9.091    0.000    0.000    0.000    0.000 
#    0.000    0.000    0.000    0.000    0.000    0.000 
#
# Total GULP energy -122483.290527 kJ/mol
# GULP energy per Si atom -5567.422297 kJ/mol
# Density = 2.209384 g / cm^3
# Si number density = 22.144242 Si / 1000 Ang^3
#
#
#
# Elastic Constant Matrix: (Units=GPa)
#
#
# Indices 1 2 3 4 5 6 
#
# 1 121.2818 25.6356 21.5772 0.0000 21.4034 0.0000
# 2 25.6356 89.2441 19.9593 0.0000 11.9138 0.0000
# 3 21.5772 19.9593 90.9746 0.0000 0.7139 0.0000
# 4 0.0000 0.0000 0.0000 -4.8842 0.0000 -41.2342
# 5 21.4034 11.9138 0.7139 0.0000 34.2261 0.0000
# 6 0.0000 0.0000 0.0000 -41.2342 0.0000 182.0665
#
#
#
# Elastic Compliance Matrix: (Units=1/GPa)
#
#
# Indices 1 2 3 4 5 6 
#
# 1 0.009931 -0.001672 -0.001945 0.000000 -0.005588 0.000000
# 2 -0.001672 0.012654 -0.002354 0.000000 -0.003310 0.000000
# 3 -0.001945 -0.002354 0.011956 0.000000 0.001786 0.000000
# 4 0.000000 0.000000 0.000000 -0.070309 0.000000 -0.015924
# 5 -0.005588 -0.003310 0.001786 0.000000 0.033827 0.000000
# 6 0.000000 0.000000 0.000000 -0.015924 0.000000 0.001886
#
#
# Mechanical properties :
#
#
# Convention : Reuss Voigt Hill
#
# Bulk Modulus (GPa) = 44.24813 48.42719 46.33766
# Shear Modulus (GPa) = 257.50511 57.90358 157.70435
#
# Velocity S-wave (km/s) = 10.79527 5.11910 8.44816
# Velocity P-wave (km/s) = 13.24420 7.54033 10.77649
#
# Compressibility (1/GPa) = 0.02259982
#
# Stress axis : x y z
#
# Youngs Moduli (GPa) = 100.69783 79.02805 83.64212
#
# Poissons Ratio (x) = 0.13212 0.16266
# Poissons Ratio (y) = 0.16834 0.19687
# Poissons Ratio (z) = 0.19583 0.18601
#
# Static dielectric constant tensor:
#      x y z
#    x 1.939630 0.000000 0.041300 
#    y 0.000000 1.798130 0.000000 
#    z 0.041300 0.000000 1.899320 
# 
# From -- ./inp_files/34650.got.cif
#   From: 2010.05.17/outbox.cif.g08.bks.cpg/sg13_18_cif.got.tgz:34650.got - 2010.06.03 16:44:36.
