data_PCOD9231020
_publ_section_title
;
Structure prediction by ZEFSAII (Michael W. Deem and Ramdas Pophale) SiO2 
 PCOD9231020
Probable space group: P 2/C
;
_chemical_formula_sum "Si O2"
_cell_formula_units_Z 26
_cell_length_a 5.269834
_cell_length_b 8.973883
_cell_length_c 28.900506
_cell_angle_alpha 90.000000
_cell_angle_beta 121.532928
_cell_angle_gamma 90.000000
_cell_volume 1164.918450
_symmetry_space_group_name_H-M "P 2/C"
_symmetry_group_IT_number 13
_symmetry_cell_setting 'monoclinic'
loop_
_space_group_symop_operation_xyz
x,y,z
-x,y,1/2-z
-x,-y,-z
x,-y,1/2+z
loop_
_atom_site_type_symbol
_atom_site_label
_atom_site_fract_x
_atom_site_fract_y
_atom_site_fract_z
Si Si1 0.876644 0.749221 0.575668
Si Si2 0.493663 0.492825 0.069529
Si Si3 0.240054 0.911681 0.420138
Si Si4 0.029708 0.673213 0.156202
Si Si5 0.412740 0.419900 0.163511
Si Si6 0.000000 0.495664 0.750000
Si Si7 0.106424 0.227558 0.526058
O O1 0.601076 0.631532 0.543403
O O2 0.015837 0.770484 0.537766
O O3 0.115681 0.679842 0.634670
O O4 0.772914 0.910864 0.580589
O O5 0.508110 0.408997 0.119679
O O6 0.206349 0.599692 0.043674
O O7 0.768660 0.606144 0.099171
O O8 0.582615 0.863676 0.445944
O O9 0.025114 0.845472 0.359110
O O10 0.100628 0.845729 0.454769
O O11 0.321780 0.592265 0.164949
O O12 0.997125 0.609956 0.204621
O O13 0.705547 0.401591 0.222062
#
# Coordination Sequence:
#
# PCOD9231020 Si02
#       7
#     4   4   4   4   4   2   4
#     4  11  24  36  62  96 137 174 215 271 330 385
#     4   9  20  37  59  92 126 168 215 266 310 383
#     4  11  24  41  63  95 138 176 218 266 325 395
#     4   9  19  39  63  90 116 162 209 268 318 396
#     4  10  20  38  62  92 120 160 212 274 328 383
#     4  10  20  38  72  90 114 158 226 270 338 388
#     4  11  23  41  62  93 136 188 221 253 315 407
#
# _framework density 22.319161000000001
#
# number of rings (size 3 to 8) (size 9 to 14) (size 15 to 20)
#    0.000    1.846    1.538    1.846    4.308    0.615 
#    0.000    0.000    0.000   22.154    0.000    0.000 
#    0.000    0.000    0.000    0.000    0.000    0.000 
#
# Total GULP energy -145020.756821 kJ/mol
# GULP energy per Si atom -5577.721416 kJ/mol
# Density = 2.226836 g / cm^3
# Si number density = 22.319161 Si / 1000 Ang^3
#
#
#
# Elastic Constant Matrix: (Units=GPa)
#
#
# Indices 1 2 3 4 5 6 
#
# 1 82.8421 23.5771 7.6749 0.0000 -0.1407 0.0000
# 2 23.5771 119.9658 37.5734 0.0000 13.4503 0.0000
# 3 7.6749 37.5734 77.8259 0.0000 10.3899 0.0000
# 4 0.0000 0.0000 0.0000 22.2765 0.0000 5.7680
# 5 -0.1407 13.4503 10.3899 0.0000 45.3682 0.0000
# 6 0.0000 0.0000 0.0000 5.7680 0.0000 7.4768
#
#
#
# Elastic Compliance Matrix: (Units=1/GPa)
#
#
# Indices 1 2 3 4 5 6 
#
# 1 0.012816 -0.002570 -0.000134 0.000000 0.000832 0.000000
# 2 -0.002570 0.010495 -0.004535 0.000000 -0.002081 0.000000
# 3 -0.000134 -0.004535 0.015342 0.000000 -0.002169 0.000000
# 4 0.000000 0.000000 0.000000 0.056096 0.000000 -0.043275
# 5 0.000832 -0.002081 -0.002169 0.000000 0.023158 0.000000
# 6 0.000000 0.000000 0.000000 -0.043275 0.000000 0.167133
#
#
# Mechanical properties :
#
#
# Convention : Reuss Voigt Hill
#
# Bulk Modulus (GPa) = 41.36822 46.47610 43.92216
# Shear Modulus (GPa) = 16.25613 29.14486 22.70050
#
# Velocity S-wave (km/s) = 2.70172 3.61754 3.19264
# Velocity P-wave (km/s) = 5.32048 6.19010 5.77169
#
# Compressibility (1/GPa) = 0.02417315
#
# Stress axis : x y z
#
# Youngs Moduli (GPa) = 78.02459 95.28702 65.18191
#
# Poissons Ratio (x) = 0.24490 0.00875
# Poissons Ratio (y) = 0.20053 0.29563
# Poissons Ratio (z) = 0.01047 0.43217
#
# Static dielectric constant tensor:
#      x y z
#    x 1.886480 0.000000 0.022370 
#    y 0.000000 1.896860 0.000000 
#    z 0.022370 0.000000 1.874380 
# 
# From -- ./inp_files/90235.got.cif
#   From: 2010.05.17/outbox.cif.g08.bks.cpg/sg13_46_cif.got.tgz:90235.got - 2010.06.03 16:44:36.
