data_PCOD9231477
_publ_section_title
;
Structure prediction by ZEFSAII (Michael W. Deem and Ramdas Pophale) SiO2 
 PCOD9231477
Probable space group: P 2/C
;
_chemical_formula_sum "Si O2"
_cell_formula_units_Z 32
_cell_length_a 17.411477
_cell_length_b 9.399745
_cell_length_c 24.340189
_cell_angle_alpha 90.000000
_cell_angle_beta 22.021856
_cell_angle_gamma 90.000000
_cell_volume 1493.691331
_symmetry_space_group_name_H-M "P 2/C"
_symmetry_group_IT_number 13
_symmetry_cell_setting 'monoclinic'
loop_
_space_group_symop_operation_xyz
x,y,z
-x,y,1/2-z
-x,-y,-z
x,-y,1/2+z
loop_
_atom_site_type_symbol
_atom_site_label
_atom_site_fract_x
_atom_site_fract_y
_atom_site_fract_z
Si Si1 0.075050 0.141715 0.328102
Si Si2 0.970166 0.315248 0.704978
Si Si3 0.713665 0.031818 0.889911
Si Si4 0.578478 0.355826 0.138170
Si Si5 0.711921 0.410583 0.678444
Si Si6 0.064080 0.528753 0.863752
Si Si7 0.553041 0.100635 0.337632
Si Si8 0.805703 0.922740 0.097795
O O1 0.079116 0.308499 0.335904
O O2 0.259898 0.083253 0.243812
O O3 0.870024 0.079651 0.491458
O O4 0.131063 0.092435 0.230222
O O5 0.828144 0.176097 0.795269
O O6 0.880031 0.440295 0.727497
O O7 0.000000 0.346047 0.750000
O O8 0.192464 0.308036 0.528374
O O9 0.649102 0.052879 0.995822
O O10 0.500000 0.000000 0.000000
O O11 0.500000 0.310702 0.250000
O O12 0.515536 0.522340 0.173669
O O13 0.453165 0.263638 0.176695
O O14 0.798362 0.470117 0.678153
O O15 0.760260 0.242244 0.644028
O O16 0.840398 0.479843 0.542415
O O17 0.609590 0.009239 0.247194
O O18 0.000000 0.000000 0.000000
#
# Coordination Sequence:
#
# PCOD9231477 Si02
#       8
#     4   4   4   4   4   4   4   4
#     4   9  19  38  64  96 127 167 231 289 338 398
#     4  12  26  45  66  98 141 188 229 285 365 433
#     4  10  23  42  65  92 136 178 229 290 339 415
#     4  12  24  42  68  95 142 182 229 290 364 422
#     4  10  21  40  66 105 134 173 231 299 344 409
#     4  10  21  39  68  98 133 177 229 289 345 423
#     4  10  20  40  59  97 131 173 228 285 338 420
#     4   9  20  34  65  99 132 164 224 285 337 403
#
# _framework density 21.423435999999999
#
# number of rings (size 3 to 8) (size 9 to 14) (size 15 to 20)
#    0.000    1.750    3.750    0.000    8.750    0.000 
#    2.250    5.625    0.000    0.000    0.000    0.000 
#    0.000    0.000    0.000    0.000    0.000    0.000 
#
# Total GULP energy -178222.373627 kJ/mol
# GULP energy per Si atom -5569.449176 kJ/mol
# Density = 2.137468 g / cm^3
# Si number density = 21.423436 Si / 1000 Ang^3
#
#
#
# Elastic Constant Matrix: (Units=GPa)
#
#
# Indices 1 2 3 4 5 6 
#
# 1 66.1548 26.9547 36.2456 0.0000 12.1176 0.0000
# 2 26.9547 102.1578 68.9289 0.0000 17.3689 0.0000
# 3 36.2456 68.9289 146.9906 0.0000 26.4987 0.0000
# 4 0.0000 0.0000 0.0000 28.2794 0.0000 3.4872
# 5 12.1176 17.3689 26.4987 0.0000 32.4206 0.0000
# 6 0.0000 0.0000 0.0000 3.4872 0.0000 12.7859
#
#
#
# Elastic Compliance Matrix: (Units=1/GPa)
#
#
# Indices 1 2 3 4 5 6 
#
# 1 0.018207 -0.002366 -0.002793 0.000000 -0.003254 0.000000
# 2 -0.002366 0.014810 -0.005971 0.000000 -0.002170 0.000000
# 3 -0.002793 -0.005971 0.011173 0.000000 -0.004890 0.000000
# 4 0.000000 0.000000 0.000000 0.036592 0.000000 -0.009980
# 5 -0.003254 -0.002170 -0.004890 0.000000 0.037220 0.000000
# 6 0.000000 0.000000 0.000000 -0.009980 0.000000 0.080933
#
#
# Mechanical properties :
#
#
# Convention : Reuss Voigt Hill
#
# Bulk Modulus (GPa) = 45.59778 64.39574 54.99676
# Shear Modulus (GPa) = 21.88132 26.90877 24.39504
#
# Velocity S-wave (km/s) = 3.19936 3.54792 3.37814
# Velocity P-wave (km/s) = 5.91423 6.84890 6.39865
#
# Compressibility (1/GPa) = 0.02193089
#
# Stress axis : x y z
#
# Youngs Moduli (GPa) = 54.92521 67.51974 89.49967
#
# Poissons Ratio (x) = 0.15974 0.25001
# Poissons Ratio (y) = 0.12994 0.53436
# Poissons Ratio (z) = 0.15343 0.40313
#
# Static dielectric constant tensor:
#      x y z
#    x 1.839420 0.000000 -0.040450 
#    y 0.000000 1.817770 0.000000 
#    z -0.040450 0.000000 1.837080 
# 
# From -- ./inp_files/93551.got.cif
#   From: 2010.05.17/outbox.cif.g08.bks.cpg/sg13_47_cif.got.tgz:93551.got - 2010.06.03 16:44:36.
