data_PCOD9231763
_publ_section_title
;
Structure prediction by ZEFSAII (Michael W. Deem and Ramdas Pophale) SiO2 
 PCOD9231763
Probable space group: P 2/C
;
_chemical_formula_sum "Si O2"
_cell_formula_units_Z 30
_cell_length_a 20.388565
_cell_length_b 8.543835
_cell_length_c 12.865981
_cell_angle_alpha 90.000000
_cell_angle_beta 35.208642
_cell_angle_gamma 90.000000
_cell_volume 1292.181692
_symmetry_space_group_name_H-M "P 2/C"
_symmetry_group_IT_number 13
_symmetry_cell_setting 'monoclinic'
loop_
_space_group_symop_operation_xyz
x,y,z
-x,y,1/2-z
-x,-y,-z
x,-y,1/2+z
loop_
_atom_site_type_symbol
_atom_site_label
_atom_site_fract_x
_atom_site_fract_y
_atom_site_fract_z
Si Si1 0.500000 0.581195 0.750000
Si Si2 0.041908 0.164300 0.582861
Si Si3 0.551867 0.866317 0.299371
Si Si4 0.672671 0.162993 0.088123
Si Si5 0.378513 0.369484 0.059170
Si Si6 0.808960 0.594231 0.534153
Si Si7 0.155781 0.008610 0.261769
Si Si8 0.773781 0.703140 0.946057
O O1 0.394109 0.690567 0.868203
O O2 0.526529 0.481377 0.613614
O O3 0.000000 0.110025 0.750000
O O4 0.143469 0.069974 0.394553
O O5 0.938364 0.123095 0.639587
O O6 0.917880 0.344254 0.957764
O O7 0.500000 0.848476 0.250000
O O8 0.451743 0.784196 0.493834
O O9 0.672253 0.775213 0.148045
O O10 0.589291 0.046363 0.257354
O O11 0.774329 0.244424 0.019647
O O12 0.724097 0.062221 0.927075
O O13 0.300019 0.434495 0.251631
O O14 0.291537 0.342335 0.075900
O O15 0.824792 0.447274 0.438000
O O16 0.143055 0.157694 0.199848
#
# Coordination Sequence:
#
# PCOD9231763 Si02
#       8
#     2   4   4   4   4   4   4   4
#     4  12  22  38  64 100 144 184 226 262 340 400
#     4  11  23  45  74  99 126 173 229 290 334 401
#     4   9  18  36  62  88 134 179 219 262 329 394
#     4  11  22  38  67 100 132 182 230 275 327 408
#     4  11  21  40  62  94 144 179 218 278 333 394
#     4  12  24  40  71 100 135 172 233 282 331 403
#     4  10  23  46  74  92 138 174 219 285 350 383
#     4  10  20  41  65  96 129 179 214 270 338 403
#
# _framework density 23.216550999999999
#
# number of rings (size 3 to 8) (size 9 to 14) (size 15 to 20)
#    0.000    1.333    6.667    0.000    0.000    2.667 
#    2.400    2.667    2.933    0.000    0.000    0.000 
#    0.000    0.000    0.000    0.000    0.000    0.000 
#
# Total GULP energy -167418.183011 kJ/mol
# GULP energy per Si atom -5580.606100 kJ/mol
# Density = 2.316371 g / cm^3
# Si number density = 23.216551 Si / 1000 Ang^3
#
#
#
# Elastic Constant Matrix: (Units=GPa)
#
#
# Indices 1 2 3 4 5 6 
#
# 1 36.7056 30.1286 24.4559 0.0000 -3.4532 0.0000
# 2 30.1286 113.4339 56.7053 0.0000 0.5011 0.0000
# 3 24.4559 56.7053 132.4063 0.0000 21.5548 0.0000
# 4 0.0000 0.0000 0.0000 3.0696 0.0000 -5.2960
# 5 -3.4532 0.5011 21.5548 0.0000 28.2882 0.0000
# 6 0.0000 0.0000 0.0000 -5.2960 0.0000 46.6959
#
#
#
# Elastic Compliance Matrix: (Units=1/GPa)
#
#
# Indices 1 2 3 4 5 6 
#
# 1 0.037613 -0.007444 -0.005169 0.000000 0.008662 0.000000
# 2 -0.007444 0.013091 -0.004619 0.000000 0.002379 0.000000
# 3 -0.005169 -0.004619 0.012072 0.000000 -0.009748 0.000000
# 4 0.000000 0.000000 0.000000 0.405032 0.000000 0.045937
# 5 0.008662 0.002379 -0.009748 0.000000 0.043793 0.000000
# 6 0.000000 0.000000 0.000000 0.045937 0.000000 0.026625
#
#
# Mechanical properties :
#
#
# Convention : Reuss Voigt Hill
#
# Bulk Modulus (GPa) = 35.32080 56.12505 45.72293
# Shear Modulus (GPa) = 8.58914 27.02780 17.80847
#
# Velocity S-wave (km/s) = 1.92551 3.41568 2.77259
# Velocity P-wave (km/s) = 4.49334 6.30737 5.47600
#
# Compressibility (1/GPa) = 0.02831193
#
# Stress axis : x y z
#
# Youngs Moduli (GPa) = 26.58627 76.38571 82.83426
#
# Poissons Ratio (x) = 0.56865 0.42819
# Poissons Ratio (y) = 0.19792 0.38260
# Poissons Ratio (z) = 0.13743 0.35282
#
# Static dielectric constant tensor:
#      x y z
#    x 1.971000 0.000000 -0.054160 
#    y 0.000000 1.887750 0.000000 
#    z -0.054160 0.000000 1.952140 
# 
# From -- ./inp_files/59404.got.cif
#   From: 2010.05.17/outbox.cif.g08.bks.cpg/sg13_30_cif.got.tgz:59404.got - 2010.06.03 16:44:36.
