data_PCOD9231334
_publ_section_title
;
Structure prediction by ZEFSAII (Michael W. Deem and Ramdas Pophale) SiO2 
 PCOD9231334
Probable space group: P 2/C
;
_chemical_formula_sum "Si O2"
_cell_formula_units_Z 22
_cell_length_a 16.655207
_cell_length_b 7.454104
_cell_length_c 9.065411
_cell_angle_alpha 90.000000
_cell_angle_beta 116.513062
_cell_angle_gamma 90.000000
_cell_volume 1007.105080
_symmetry_space_group_name_H-M "P 2/C"
_symmetry_group_IT_number 13
_symmetry_cell_setting 'monoclinic'
loop_
_space_group_symop_operation_xyz
x,y,z
-x,y,1/2-z
-x,-y,-z
x,-y,1/2+z
loop_
_atom_site_type_symbol
_atom_site_label
_atom_site_fract_x
_atom_site_fract_y
_atom_site_fract_z
Si Si1 0.070927 0.847966 0.677425
Si Si2 0.263739 0.718557 0.776450
Si Si3 0.500000 0.046431 0.750000
Si Si4 0.943379 0.741025 0.351528
Si Si5 0.375071 0.920441 0.393627
Si Si6 0.244548 0.370163 0.914091
O O1 0.172075 0.784594 0.780823
O O2 0.000000 0.865404 0.750000
O O3 0.018994 0.703178 0.534369
O O4 0.083186 0.052301 0.628095
O O5 0.293137 0.550281 0.899234
O O6 0.242578 0.659315 0.589420
O O7 0.334169 0.881609 0.830917
O O8 0.574241 0.146354 0.711929
O O9 0.446106 0.932445 0.584931
O O10 0.854298 0.632533 0.241536
O O11 0.000000 0.745227 0.250000
O O12 0.296094 0.794821 0.382966
#
# Coordination Sequence:
#
# PCOD9231334 Si02
#       6
#     4   4   2   4   4   4
#     4  10  22  37  65  96 133 186 232 281 330 381
#     4  12  27  44  68 104 140 184 229 277 340 401
#     4  10  24  46  82 102 126 182 216 278 362 414
#     4  10  20  39  63  93 136 183 234 277 324 385
#     4  11  24  50  75 101 140 171 225 282 345 422
#     4  12  27  43  70 102 141 185 227 281 334 404
#
# _framework density 21.844792999999999
#
# number of rings (size 3 to 8) (size 9 to 14) (size 15 to 20)
#    0.000    1.091    5.455    0.000    5.091    1.455 
#    0.000    5.455    0.000    0.000    0.000    0.000 
#    0.000    0.000    0.000    0.000    0.000    0.000 
#
# Total GULP energy -122718.529725 kJ/mol
# GULP energy per Si atom -5578.114987 kJ/mol
# Density = 2.179507 g / cm^3
# Si number density = 21.844793 Si / 1000 Ang^3
#
#
#
# Elastic Constant Matrix: (Units=GPa)
#
#
# Indices 1 2 3 4 5 6 
#
# 1 95.8723 16.8329 35.6983 0.0000 -12.2835 0.0000
# 2 16.8329 77.8083 6.7019 0.0000 3.0192 0.0000
# 3 35.6983 6.7019 73.5945 0.0000 0.5835 0.0000
# 4 0.0000 0.0000 0.0000 21.5207 0.0000 -6.6319
# 5 -12.2835 3.0192 0.5835 0.0000 35.4631 0.0000
# 6 0.0000 0.0000 0.0000 -6.6319 0.0000 4.1887
#
#
#
# Elastic Compliance Matrix: (Units=1/GPa)
#
#
# Indices 1 2 3 4 5 6 
#
# 1 0.014021 -0.002666 -0.006600 0.000000 0.005192 0.000000
# 2 -0.002666 0.013503 0.000080 0.000000 -0.002074 0.000000
# 3 -0.006600 0.000080 0.016802 0.000000 -0.002569 0.000000
# 4 0.000000 0.000000 0.000000 0.090739 0.000000 0.143663
# 5 0.005192 -0.002074 -0.002569 0.000000 0.030216 0.000000
# 6 0.000000 0.000000 0.000000 0.143663 0.000000 0.466191
#
#
# Mechanical properties :
#
#
# Convention : Reuss Voigt Hill
#
# Bulk Modulus (GPa) = 38.52891 40.63795 39.58343
# Shear Modulus (GPa) = 7.59307 24.77063 16.18185
#
# Velocity S-wave (km/s) = 1.86640 3.37105 2.72465
# Velocity P-wave (km/s) = 4.72446 5.81338 5.29698
#
# Compressibility (1/GPa) = 0.02595454
#
# Stress axis : x y z
#
# Youngs Moduli (GPa) = 71.31985 74.06023 59.51563
#
# Poissons Ratio (x) = 0.19747 0.39278
# Poissons Ratio (y) = 0.19017 -0.00477
# Poissons Ratio (z) = 0.47069 -0.00594
#
# Static dielectric constant tensor:
#      x y z
#    x 1.776190 0.000000 0.052160 
#    y 0.000000 1.830690 0.000000 
#    z 0.052160 0.000000 1.763700 
# 
# From -- ./inp_files/20974.got.cif
#   From: 2010.05.17/outbox.cif.g08.bks.cpg/sg13_11_cif.got.tgz:20974.got - 2010.06.03 16:44:36.
