data_PCOD9231478
_publ_section_title
;
Structure prediction by ZEFSAII (Michael W. Deem and Ramdas Pophale) SiO2 
 PCOD9231478
Probable space group: P 2/C
;
_chemical_formula_sum "Si O2"
_cell_formula_units_Z 22
_cell_length_a 12.115114
_cell_length_b 9.691934
_cell_length_c 8.943660
_cell_angle_alpha 90.000000
_cell_angle_beta 109.349900
_cell_angle_gamma 90.000000
_cell_volume 990.834235
_symmetry_space_group_name_H-M "P 2/C"
_symmetry_group_IT_number 13
_symmetry_cell_setting 'monoclinic'
loop_
_space_group_symop_operation_xyz
x,y,z
-x,y,1/2-z
-x,-y,-z
x,-y,1/2+z
loop_
_atom_site_type_symbol
_atom_site_label
_atom_site_fract_x
_atom_site_fract_y
_atom_site_fract_z
Si Si1 0.500000 0.352530 0.250000
Si Si2 0.520036 0.162539 0.985189
Si Si3 0.752493 0.566219 0.933837
Si Si4 0.136162 0.338495 0.326913
Si Si5 0.762022 0.900850 0.465956
Si Si6 0.746492 0.181869 0.633546
O O1 0.550036 0.249203 0.146435
O O2 0.389261 0.437707 0.140323
O O3 0.631950 0.163717 0.930175
O O4 0.390042 0.213105 0.891047
O O5 0.500000 0.000000 0.000000
O O6 0.800502 0.615583 0.796344
O O7 0.806849 0.423711 0.011295
O O8 0.790212 0.679223 0.075445
O O9 0.157579 0.180033 0.380521
O O10 0.000000 0.368483 0.250000
O O11 0.799429 0.873152 0.312349
O O12 0.753612 0.060048 0.512886
#
# Coordination Sequence:
#
# PCOD9231478 Si02
#       6
#     2   4   4   4   4   4
#     4  10  20  40  60 100 134 172 204 280 318 400
#     4   9  19  30  61  92 135 167 205 248 329 385
#     4  11  24  45  66  96 133 170 223 266 334 389
#     4  12  26  46  68  91 128 178 226 271 319 388
#     4  11  21  40  62  97 131 171 219 263 325 384
#     4  10  22  37  66  97 132 167 211 268 330 393
#
# _framework density 22.203513000000001
#
# number of rings (size 3 to 8) (size 9 to 14) (size 15 to 20)
#    0.000    1.455    1.818    3.273   12.727    0.727 
#    3.273    4.545    0.000    0.000    0.000    0.000 
#    0.000    0.000    0.000    0.000    0.000    0.000 
#
# Total GULP energy -122881.252784 kJ/mol
# GULP energy per Si atom -5585.511490 kJ/mol
# Density = 2.215298 g / cm^3
# Si number density = 22.203513 Si / 1000 Ang^3
#
#
#
# Elastic Constant Matrix: (Units=GPa)
#
#
# Indices 1 2 3 4 5 6 
#
# 1 63.3949 12.1666 16.2688 0.0000 11.9778 0.0000
# 2 12.1666 53.7037 2.7075 0.0000 17.5843 0.0000
# 3 16.2688 2.7075 73.5898 0.0000 -8.4234 0.0000
# 4 0.0000 0.0000 0.0000 37.4221 0.0000 2.4060
# 5 11.9778 17.5843 -8.4234 0.0000 27.7887 0.0000
# 6 0.0000 0.0000 0.0000 2.4060 0.0000 11.1439
#
#
#
# Elastic Compliance Matrix: (Units=1/GPa)
#
#
# Indices 1 2 3 4 5 6 
#
# 1 0.019038 -0.001067 -0.005212 0.000000 -0.009111 0.000000
# 2 -0.001067 0.024060 -0.002423 0.000000 -0.015499 0.000000
# 3 -0.005212 -0.002423 0.015812 0.000000 0.008573 0.000000
# 4 0.000000 0.000000 0.000000 0.027098 0.000000 -0.005851
# 5 -0.009111 -0.015499 0.008573 0.000000 0.052319 0.000000
# 6 0.000000 0.000000 0.000000 -0.005851 0.000000 0.090998
#
#
# Mechanical properties :
#
#
# Convention : Reuss Voigt Hill
#
# Bulk Modulus (GPa) = 24.09445 28.10824 26.10134
# Shear Modulus (GPa) = 19.18903 25.90730 22.54817
#
# Velocity S-wave (km/s) = 2.94298 3.41957 3.19018
# Velocity P-wave (km/s) = 4.73533 5.31772 5.03495
#
# Compressibility (1/GPa) = 0.04150334
#
# Stress axis : x y z
#
# Youngs Moduli (GPa) = 52.52659 41.56351 63.24447
#
# Poissons Ratio (x) = 0.04435 0.32966
# Poissons Ratio (y) = 0.05605 0.15327
# Poissons Ratio (z) = 0.27379 0.10072
#
# Static dielectric constant tensor:
#      x y z
#    x 1.787660 0.000000 0.089170 
#    y 0.000000 1.779490 0.000000 
#    z 0.089170 0.000000 1.626110 
# 
# From -- ./inp_files/15958.got.cif
#   From: 2010.05.17/outbox.cif.g08.bks.cpg/sg13_8_cif.got.tgz:15958.got - 2010.06.03 16:44:36.
