data_PCOD9231818
_publ_section_title
;
Structure prediction by ZEFSAII (Michael W. Deem and Ramdas Pophale) SiO2 
 PCOD9231818
Probable space group: P 2/C
;
_chemical_formula_sum "Si O2"
_cell_formula_units_Z 28
_cell_length_a 7.718313
_cell_length_b 15.686909
_cell_length_c 11.258634
_cell_angle_alpha 90.000000
_cell_angle_beta 57.395830
_cell_angle_gamma 90.000000
_cell_volume 1148.340335
_symmetry_space_group_name_H-M "P 2/C"
_symmetry_group_IT_number 13
_symmetry_cell_setting 'monoclinic'
loop_
_space_group_symop_operation_xyz
x,y,z
-x,y,1/2-z
-x,-y,-z
x,-y,1/2+z
loop_
_atom_site_type_symbol
_atom_site_label
_atom_site_fract_x
_atom_site_fract_y
_atom_site_fract_z
Si Si1 0.282993 0.046592 0.579108
Si Si2 0.220360 0.364505 0.736276
Si Si3 0.920403 0.764178 0.017818
Si Si4 0.500000 0.666415 0.750000
Si Si5 0.000000 0.676399 0.750000
Si Si6 0.356715 0.239530 0.493330
Si Si7 0.749037 0.950346 0.144201
Si Si8 0.808771 0.537683 0.646492
O O1 0.336648 0.146495 0.555172
O O2 0.182596 0.029112 0.745427
O O3 0.500000 0.000000 0.500000
O O4 0.196462 0.015903 0.482703
O O5 0.352051 0.307844 0.599521
O O6 0.288997 0.457522 0.750489
O O7 0.000000 0.374525 0.750000
O O8 0.192969 0.307875 0.863548
O O9 0.909735 0.737030 0.885493
O O10 0.153614 0.758724 0.983085
O O11 0.828804 0.856812 0.078359
O O12 0.456897 0.733649 0.660422
O O13 0.653336 0.597610 0.631406
O O14 0.869849 0.607887 0.721588
O O15 0.500000 0.948221 0.250000
O O16 0.000000 0.500000 0.500000
#
# Coordination Sequence:
#
# PCOD9231818 Si02
#       8
#     4   4   4   2   2   4   4   4
#     4  10  23  42  70 102 141 189 235 309 369 444
#     4  10  20  41  72  92 139 186 227 288 352 428
#     4  11  23  44  67 105 141 186 237 296 362 433
#     4  12  28  44  70 110 140 194 248 288 374 444
#     4  12  24  42  76 100 148 188 236 314 356 426
#     4  11  24  44  70  99 140 191 239 289 369 438
#     4  10  23  44  71 103 141 185 240 300 374 440
#     4  12  24  47  69 103 147 189 241 302 363 426
#
# _framework density 24.383015
#
# number of rings (size 3 to 8) (size 9 to 14) (size 15 to 20)
#    0.000    1.143    5.000    0.857    3.000    4.571 
#    1.286    0.000    0.000    0.000    0.000    0.000 
#    0.000    0.000    0.000    0.000    0.000    0.000 
#
# Total GULP energy -156374.265415 kJ/mol
# GULP energy per Si atom -5584.795193 kJ/mol
# Density = 2.432752 g / cm^3
# Si number density = 24.383015 Si / 1000 Ang^3
#
#
#
# Elastic Constant Matrix: (Units=GPa)
#
#
# Indices 1 2 3 4 5 6 
#
# 1 62.7980 14.5784 38.1432 0.0000 23.2685 0.0000
# 2 14.5784 124.5664 75.7669 0.0000 17.0913 0.0000
# 3 38.1432 75.7669 210.4043 0.0000 37.3875 0.0000
# 4 0.0000 0.0000 0.0000 59.8945 0.0000 5.6428
# 5 23.2685 17.0913 37.3875 0.0000 37.4329 0.0000
# 6 0.0000 0.0000 0.0000 5.6428 0.0000 39.6429
#
#
#
# Elastic Compliance Matrix: (Units=1/GPa)
#
#
# Indices 1 2 3 4 5 6 
#
# 1 0.021259 0.000241 -0.001913 0.000000 -0.011415 0.000000
# 2 0.000241 0.010327 -0.003523 0.000000 -0.001346 0.000000
# 3 -0.001913 -0.003523 0.007138 0.000000 -0.004332 0.000000
# 4 0.000000 0.000000 0.000000 0.016923 0.000000 -0.002409
# 5 -0.011415 -0.001346 -0.004332 0.000000 0.038751 0.000000
# 6 0.000000 0.000000 0.000000 -0.002409 0.000000 0.025568
#
#
# Mechanical properties :
#
#
# Convention : Reuss Voigt Hill
#
# Bulk Modulus (GPa) = 35.29141 72.74950 54.02045
# Shear Modulus (GPa) = 35.76507 45.34608 40.55557
#
# Velocity S-wave (km/s) = 3.83404 4.31715 4.08275
# Velocity P-wave (km/s) = 5.83995 7.39941 6.66544
#
# Compressibility (1/GPa) = 0.02833551
#
# Stress axis : x y z
#
# Youngs Moduli (GPa) = 47.03833 96.82938 140.09510
#
# Poissons Ratio (x) = -0.02338 0.26795
# Poissons Ratio (y) = -0.01136 0.49362
# Poissons Ratio (z) = 0.08997 0.34118
#
# Static dielectric constant tensor:
#      x y z
#    x 2.669930 0.000000 -0.054990 
#    y 0.000000 1.889980 0.000000 
#    z -0.054990 0.000000 1.948200 
# 
# From -- ./inp_files/30331.got.cif
#   From: 2010.05.17/outbox.cif.g08.bks.cpg/sg13_16_cif.got.tgz:30331.got - 2010.06.03 16:44:36.
