data_PCOD9231435
_publ_section_title
;
Structure prediction by ZEFSAII (Michael W. Deem and Ramdas Pophale) SiO2 
 PCOD9231435
Probable space group: P 2/C
;
_chemical_formula_sum "Si O2"
_cell_formula_units_Z 32
_cell_length_a 18.064601
_cell_length_b 5.279340
_cell_length_c 14.323452
_cell_angle_alpha 90.000000
_cell_angle_beta 91.951835
_cell_angle_gamma 90.000000
_cell_volume 1365.223192
_symmetry_space_group_name_H-M "P 2/C"
_symmetry_group_IT_number 13
_symmetry_cell_setting 'monoclinic'
loop_
_space_group_symop_operation_xyz
x,y,z
-x,y,1/2-z
-x,-y,-z
x,-y,1/2+z
loop_
_atom_site_type_symbol
_atom_site_label
_atom_site_fract_x
_atom_site_fract_y
_atom_site_fract_z
Si Si1 0.316597 0.462157 0.335001
Si Si2 0.192496 0.073583 0.607853
Si Si3 0.555552 0.752370 0.552643
Si Si4 0.464230 0.152270 0.648494
Si Si5 0.912610 0.749936 0.257578
Si Si6 0.678762 0.552061 0.365967
Si Si7 0.172558 0.771674 0.785886
Si Si8 0.305518 0.143653 0.971364
O O1 0.394496 0.438532 0.388859
O O2 0.335380 0.406576 0.229535
O O3 0.244536 0.290404 0.351409
O O4 0.290973 0.738174 0.368538
O O5 0.111184 0.174042 0.635985
O O6 0.242411 0.315353 0.633487
O O7 0.201955 0.852438 0.684429
O O8 0.231351 0.971895 0.515715
O O9 0.522054 0.696607 0.449032
O O10 0.495517 0.880194 0.618188
O O11 0.623023 0.960856 0.535291
O O12 0.500000 0.216951 0.750000
O O13 0.377506 0.210625 0.649841
O O14 0.875330 0.484536 0.226110
O O15 0.000000 0.737818 0.250000
O O16 0.877936 0.982811 0.195401
O O17 0.673629 0.375792 0.456260
#
# Coordination Sequence:
#
# PCOD9231435 Si02
#       8
#     4   4   4   4   4   4   4   4
#     4  12  24  42  72  98 138 179 240 301 351 430
#     4  10  21  41  67 101 136 179 238 283 347 416
#     4  11  27  44  64  98 132 181 239 293 372 419
#     4  11  25  46  61  91 138 177 228 300 361 439
#     4  10  20  39  68 107 148 187 234 284 349 434
#     4  12  23  46  65 100 130 183 239 292 357 425
#     4  10  22  37  71 104 137 187 237 280 357 414
#     4  12  23  41  70  95 136 175 236 299 346 425
#
# _framework density 23.439394
#
# number of rings (size 3 to 8) (size 9 to 14) (size 15 to 20)
#    0.750    0.250    5.000    1.125    7.000    0.500 
#    4.500    0.000    0.000    1.500    0.000    0.000 
#    0.000    0.000    0.000    0.000    0.000    0.000 
#
# Total GULP energy -178232.845084 kJ/mol
# GULP energy per Si atom -5569.776409 kJ/mol
# Density = 2.338605 g / cm^3
# Si number density = 23.439394 Si / 1000 Ang^3
#
#
#
# Elastic Constant Matrix: (Units=GPa)
#
#
# Indices 1 2 3 4 5 6 
#
# 1 104.5830 12.2278 3.7757 0.0000 -20.7958 0.0000
# 2 12.2278 72.6202 -1.2383 0.0000 0.0130 0.0000
# 3 3.7757 -1.2383 77.6941 0.0000 -8.9800 0.0000
# 4 0.0000 0.0000 0.0000 25.2969 0.0000 -5.9474
# 5 -20.7958 0.0130 -8.9800 0.0000 32.2299 0.0000
# 6 0.0000 0.0000 0.0000 -5.9474 0.0000 35.0409
#
#
#
# Elastic Compliance Matrix: (Units=1/GPa)
#
#
# Indices 1 2 3 4 5 6 
#
# 1 0.011228 -0.001887 0.000270 0.000000 0.007321 0.000000
# 2 -0.001887 0.014091 0.000181 0.000000 -0.001173 0.000000
# 3 0.000270 0.000181 0.013310 0.000000 0.003883 0.000000
# 4 0.000000 0.000000 0.000000 0.041174 0.000000 0.006988
# 5 0.007321 -0.001173 0.003883 0.000000 0.036833 0.000000
# 6 0.000000 0.000000 0.000000 0.006988 0.000000 0.029724
#
#
# Mechanical properties :
#
#
# Convention : Reuss Voigt Hill
#
# Bulk Modulus (GPa) = 27.96661 31.60308 29.78485
# Shear Modulus (GPa) = 31.02669 34.52235 32.77452
#
# Velocity S-wave (km/s) = 3.64221 3.84192 3.74340
# Velocity P-wave (km/s) = 5.44472 5.76130 5.60525
#
# Compressibility (1/GPa) = 0.03575692
#
# Stress axis : x y z
#
# Youngs Moduli (GPa) = 89.05956 70.96553 75.13427
#
# Poissons Ratio (x) = 0.13394 -0.02032
# Poissons Ratio (y) = 0.16809 -0.01358
# Poissons Ratio (z) = -0.02408 -0.01283
#
# Static dielectric constant tensor:
#      x y z
#    x 1.872530 0.000000 -0.022880 
#    y 0.000000 2.009250 0.000000 
#    z -0.022880 0.000000 1.963610 
# 
# From -- ./inp_files/54658.got.cif
#   From: 2010.05.17/outbox.cif.g08.bks.cpg/sg13_28_cif.got.tgz:54658.got - 2010.06.03 16:44:36.
