data_PCOD9231649
_publ_section_title
;
Structure prediction by ZEFSAII (Michael W. Deem and Ramdas Pophale) SiO2 
 PCOD9231649
Probable space group: P 2/C
;
_chemical_formula_sum "Si O2"
_cell_formula_units_Z 18
_cell_length_a 5.990117
_cell_length_b 11.455419
_cell_length_c 11.296254
_cell_angle_alpha 90.000000
_cell_angle_beta 93.637201
_cell_angle_gamma 90.000000
_cell_volume 773.579715
_symmetry_space_group_name_H-M "P 2/C"
_symmetry_group_IT_number 13
_symmetry_cell_setting 'monoclinic'
loop_
_space_group_symop_operation_xyz
x,y,z
-x,y,1/2-z
-x,-y,-z
x,-y,1/2+z
loop_
_atom_site_type_symbol
_atom_site_label
_atom_site_fract_x
_atom_site_fract_y
_atom_site_fract_z
Si Si1 0.172642 0.594282 0.051482
Si Si2 0.808587 0.778060 0.085548
Si Si3 0.364937 0.014982 0.370534
Si Si4 0.500000 0.625565 0.250000
Si Si5 0.546529 0.730378 0.619571
O O1 0.325123 0.554786 0.165399
O O2 0.039704 0.709538 0.089223
O O3 0.331466 0.632235 0.950699
O O4 0.000000 0.500000 0.000000
O O5 0.641982 0.709038 0.168028
O O6 0.817428 0.912519 0.125378
O O7 0.682894 0.765304 0.955208
O O8 0.500000 0.997835 0.250000
O O9 0.303077 0.151265 0.370355
O O10 0.500000 0.000000 0.500000
O O11 0.500000 0.695313 0.750000
#
# Coordination Sequence:
#
# PCOD9231649 Si02
#       5
#     4   4   4   2   4
#     4  11  25  45  67 102 131 181 240 278 340 411
#     4  10  20  40  67  99 131 172 230 274 342 407
#     4   9  17  35  67 100 140 179 220 284 348 413
#     4  10  22  44  68  96 132 172 226 294 334 402
#     4   9  21  41  65  99 143 177 217 281 346 408
#
# _framework density 23.268449
#
# number of rings (size 3 to 8) (size 9 to 14) (size 15 to 20)
#    0.000    2.222    1.111    0.667    0.000    5.333 
#   12.000    0.000    4.889    0.000    0.000    1.556 
#    0.000    0.000    0.000    0.000    0.000    0.000 
#
# Total GULP energy -100654.958288 kJ/mol
# GULP energy per Si atom -5591.942127 kJ/mol
# Density = 2.321549 g / cm^3
# Si number density = 23.268449 Si / 1000 Ang^3
#
#
#
# Elastic Constant Matrix: (Units=GPa)
#
#
# Indices 1 2 3 4 5 6 
#
# 1 57.5850 26.5845 47.1024 0.0000 19.6752 0.0000
# 2 26.5845 104.0899 42.6746 0.0000 24.7559 0.0000
# 3 47.1024 42.6746 181.3176 0.0000 10.2944 0.0000
# 4 0.0000 0.0000 0.0000 13.5516 0.0000 -1.2352
# 5 19.6752 24.7559 10.2944 0.0000 32.9617 0.0000
# 6 0.0000 0.0000 0.0000 -1.2352 0.0000 39.8453
#
#
#
# Elastic Compliance Matrix: (Units=1/GPa)
#
#
# Indices 1 2 3 4 5 6 
#
# 1 0.027593 -0.001323 -0.006086 0.000000 -0.013576 0.000000
# 2 -0.001323 0.012779 -0.002203 0.000000 -0.008120 0.000000
# 3 -0.006086 -0.002203 0.007446 0.000000 0.002962 0.000000
# 4 0.000000 0.000000 0.000000 0.074001 0.000000 0.002294
# 5 -0.013576 -0.008120 0.002962 0.000000 0.043615 0.000000
# 6 0.000000 0.000000 0.000000 0.002294 0.000000 0.025168
#
#
# Mechanical properties :
#
#
# Convention : Reuss Voigt Hill
#
# Bulk Modulus (GPa) = 34.97158 63.96838 49.46998
# Shear Modulus (GPa) = 22.79364 32.38048 27.58706
#
# Velocity S-wave (km/s) = 3.13324 3.73447 3.44699
# Velocity P-wave (km/s) = 5.30583 6.79310 6.09500
#
# Compressibility (1/GPa) = 0.02859464
#
# Stress axis : x y z
#
# Youngs Moduli (GPa) = 36.24097 78.25076 134.29158
#
# Poissons Ratio (x) = 0.10356 0.81728
# Poissons Ratio (y) = 0.04796 0.29584
# Poissons Ratio (z) = 0.22056 0.17238
#
# Static dielectric constant tensor:
#      x y z
#    x 1.853100 0.000000 0.034270 
#    y 0.000000 1.905620 0.000000 
#    z 0.034270 0.000000 1.900560 
# 
# From -- ./inp_files/25711.got.cif
#   From: 2010.05.17/outbox.cif.g08.bks.cpg/sg13_13_cif.got.tgz:25711.got - 2010.06.03 16:44:36.
