data_PCOD9231188
_publ_section_title
;
Structure prediction by ZEFSAII (Michael W. Deem and Ramdas Pophale) SiO2 
 PCOD9231188
Probable space group: P 2/C
;
_chemical_formula_sum "Si O2"
_cell_formula_units_Z 30
_cell_length_a 12.656304
_cell_length_b 20.113064
_cell_length_c 12.820790
_cell_angle_alpha 90.000000
_cell_angle_beta 155.896652
_cell_angle_gamma 90.000000
_cell_volume 1332.810563
_symmetry_space_group_name_H-M "P 2/C"
_symmetry_group_IT_number 13
_symmetry_cell_setting 'monoclinic'
loop_
_space_group_symop_operation_xyz
x,y,z
-x,y,1/2-z
-x,-y,-z
x,-y,1/2+z
loop_
_atom_site_type_symbol
_atom_site_label
_atom_site_fract_x
_atom_site_fract_y
_atom_site_fract_z
Si Si1 0.404839 0.603183 0.459209
Si Si2 0.000000 0.441729 0.750000
Si Si3 0.305487 0.939548 0.832859
Si Si4 0.856833 0.801819 0.232870
Si Si5 0.310069 0.262559 0.278126
Si Si6 0.708509 0.183989 0.030243
Si Si7 0.002339 0.057399 0.875156
Si Si8 0.748479 0.516040 0.342618
O O1 0.154031 0.606253 0.308282
O O2 0.615140 0.660311 0.662897
O O3 0.333101 0.588717 0.273383
O O4 0.530880 0.535810 0.614206
O O5 0.824226 0.493265 0.525890
O O6 0.352629 0.882387 0.957709
O O7 0.252612 0.919566 0.665719
O O8 0.052528 0.981008 0.643739
O O9 0.500000 0.000000 0.000000
O O10 0.823215 0.878694 0.240150
O O11 0.000000 0.801252 0.250000
O O12 0.049761 0.762338 0.485601
O O13 0.571626 0.771636 0.969459
O O14 0.297285 0.241576 0.387848
O O15 0.000000 0.178743 0.250000
O O16 0.500000 0.192063 0.750000
O O17 0.000000 0.056307 0.750000
O O18 0.000000 0.500000 0.500000
#
# Coordination Sequence:
#
# PCOD9231188 Si02
#       8
#     4   2   4   4   4   4   4   4
#     4  10  23  40  70  99 142 184 232 294 350 422
#     4  10  20  38  68 102 142 180 234 282 364 426
#     4  11  24  40  70 100 134 181 236 303 364 430
#     4  11  25  44  68 105 147 187 226 296 374 432
#     4  12  26  47  73 102 146 188 248 296 349 440
#     4  12  28  50  74  99 142 199 249 300 366 438
#     4  10  23  41  63  97 137 175 229 290 366 426
#     4   9  20  40  63 100 138 180 221 293 348 419
#
# _framework density 22.508825000000002
#
# number of rings (size 3 to 8) (size 9 to 14) (size 15 to 20)
#    0.000    1.333    1.333    2.800   10.267    1.067 
#    0.000    4.000    5.867    0.000    0.000    0.000 
#    0.000    0.000    0.000    0.000    0.000    0.000 
#
# Total GULP energy -167285.105573 kJ/mol
# GULP energy per Si atom -5576.170186 kJ/mol
# Density = 2.245759 g / cm^3
# Si number density = 22.508825 Si / 1000 Ang^3
#
#
#
# Elastic Constant Matrix: (Units=GPa)
#
#
# Indices 1 2 3 4 5 6 
#
# 1 109.6523 23.4772 36.2338 0.0000 -12.5827 0.0000
# 2 23.4772 64.9603 1.0573 0.0000 -11.5706 0.0000
# 3 36.2338 1.0573 94.3001 0.0000 -20.9378 0.0000
# 4 0.0000 0.0000 0.0000 26.6279 0.0000 1.3501
# 5 -12.5827 -11.5706 -20.9378 0.0000 48.5909 0.0000
# 6 0.0000 0.0000 0.0000 1.3501 0.0000 21.0156
#
#
#
# Elastic Compliance Matrix: (Units=1/GPa)
#
#
# Indices 1 2 3 4 5 6 
#
# 1 0.011425 -0.004034 -0.004314 0.000000 0.000139 0.000000
# 2 -0.004034 0.017547 0.002266 0.000000 0.004110 0.000000
# 3 -0.004314 0.002266 0.013389 0.000000 0.005192 0.000000
# 4 0.000000 0.000000 0.000000 0.037677 0.000000 -0.002421
# 5 0.000139 0.004110 0.005192 0.000000 0.023832 0.000000
# 6 0.000000 0.000000 0.000000 -0.002421 0.000000 0.047739
#
#
# Mechanical properties :
#
#
# Convention : Reuss Voigt Hill
#
# Bulk Modulus (GPa) = 33.11534 43.38328 38.24931
# Shear Modulus (GPa) = 28.76215 33.12317 30.94266
#
# Velocity S-wave (km/s) = 3.57853 3.84026 3.71170
# Velocity P-wave (km/s) = 5.64080 6.24333 5.94970
#
# Compressibility (1/GPa) = 0.03019749
#
# Stress axis : x y z
#
# Youngs Moduli (GPa) = 87.52830 56.98927 74.68621
#
# Poissons Ratio (x) = 0.22990 0.32218
# Poissons Ratio (y) = 0.35309 -0.16923
# Poissons Ratio (z) = 0.37758 -0.12913
#
# Static dielectric constant tensor:
#      x y z
#    x 2.063250 0.000000 0.308300 
#    y 0.000000 1.895790 0.000000 
#    z 0.308300 0.000000 2.502640 
# 
# From -- ./inp_files/34884.got.cif
#   From: 2010.05.17/outbox.cif.g08.bks.cpg/sg13_18_cif.got.tgz:34884.got - 2010.06.03 16:44:36.
