data_PCOD9231842
_publ_section_title
;
Structure prediction by ZEFSAII (Michael W. Deem and Ramdas Pophale) SiO2 
 PCOD9231842
Probable space group: P 2/C
;
_chemical_formula_sum "Si O2"
_cell_formula_units_Z 30
_cell_length_a 8.435284
_cell_length_b 16.024373
_cell_length_c 10.820440
_cell_angle_alpha 90.000000
_cell_angle_beta 65.044430
_cell_angle_gamma 90.000000
_cell_volume 1326.045018
_symmetry_space_group_name_H-M "P 2/C"
_symmetry_group_IT_number 13
_symmetry_cell_setting 'monoclinic'
loop_
_space_group_symop_operation_xyz
x,y,z
-x,y,1/2-z
-x,-y,-z
x,-y,1/2+z
loop_
_atom_site_type_symbol
_atom_site_label
_atom_site_fract_x
_atom_site_fract_y
_atom_site_fract_z
Si Si1 0.839879 0.255375 0.054267
Si Si2 0.818560 0.138477 0.739334
Si Si3 0.630355 0.917682 0.097097
Si Si4 0.000000 0.699768 0.750000
Si Si5 0.385577 0.898159 0.977975
Si Si6 0.805616 0.684593 0.201941
Si Si7 0.690363 0.594240 0.477478
Si Si8 0.703413 0.402750 0.490033
O O1 0.911645 0.248009 0.168862
O O2 0.719281 0.177716 0.050539
O O3 0.728750 0.339758 0.072270
O O4 0.010064 0.279551 0.913118
O O5 0.813100 0.111113 0.598547
O O6 0.717248 0.076082 0.862728
O O7 0.728338 0.229385 0.779613
O O8 0.000000 0.143505 0.750000
O O9 0.500000 0.888180 0.250000
O O10 0.573834 0.881435 0.981994
O O11 0.618830 0.017538 0.097286
O O12 0.851209 0.641410 0.859671
O O13 0.796022 0.620859 0.318609
O O14 0.706389 0.644607 0.119772
O O15 0.741484 0.500721 0.497026
O O16 0.486814 0.600319 0.508935
#
# Coordination Sequence:
#
# PCOD9231842 Si02
#       8
#     4   4   4   2   4   4   4   4
#     4  11  23  42  66  92 132 176 218 272 335 400
#     4  11  20  38  65  97 126 162 218 273 327 394
#     4   9  22  39  63  92 130 168 209 267 335 396
#     4  10  26  46  58  94 138 182 216 266 350 402
#     4  10  20  42  62  93 125 165 219 267 321 405
#     4  11  22  41  67  99 131 170 225 283 332 389
#     4  11  23  41  68  99 123 175 226 286 326 388
#     4  10  26  41  64  97 135 170 227 276 337 400
#
# _framework density 22.623664999999999
#
# number of rings (size 3 to 8) (size 9 to 14) (size 15 to 20)
#    0.000    1.600    2.667    0.800    5.600    3.200 
#    3.600    2.667    0.000    0.000    0.000    0.000 
#    0.000    0.000    0.000    0.000    0.000    0.000 
#
# Total GULP energy -167257.938427 kJ/mol
# GULP energy per Si atom -5575.264614 kJ/mol
# Density = 2.257217 g / cm^3
# Si number density = 22.623665 Si / 1000 Ang^3
#
#
#
# Elastic Constant Matrix: (Units=GPa)
#
#
# Indices 1 2 3 4 5 6 
#
# 1 124.7443 70.2179 43.2223 0.0000 43.4890 0.0000
# 2 70.2179 96.4169 19.9655 0.0000 12.7706 0.0000
# 3 43.2223 19.9655 61.1793 0.0000 17.5822 0.0000
# 4 0.0000 0.0000 0.0000 29.3439 0.0000 3.5564
# 5 43.4890 12.7706 17.5822 0.0000 39.2648 0.0000
# 6 0.0000 0.0000 0.0000 3.5564 0.0000 27.1637
#
#
#
# Elastic Compliance Matrix: (Units=1/GPa)
#
#
# Indices 1 2 3 4 5 6 
#
# 1 0.026287 -0.014777 -0.007761 0.000000 -0.020833 0.000000
# 2 -0.014777 0.019612 0.001342 0.000000 0.009387 0.000000
# 3 -0.007761 0.001342 0.021859 0.000000 -0.001628 0.000000
# 4 0.000000 0.000000 0.000000 0.034628 0.000000 -0.004534
# 5 -0.020833 0.009387 -0.001628 0.000000 0.046218 0.000000
# 6 0.000000 0.000000 0.000000 -0.004534 0.000000 0.037407
#
#
# Mechanical properties :
#
#
# Convention : Reuss Voigt Hill
#
# Bulk Modulus (GPa) = 39.42664 61.01690 50.22177
# Shear Modulus (GPa) = 21.10955 29.08348 25.09651
#
# Velocity S-wave (km/s) = 3.05794 3.58932 3.33423
# Velocity P-wave (km/s) = 5.47111 6.64880 6.08850
#
# Compressibility (1/GPa) = 0.02536356
#
# Stress axis : x y z
#
# Youngs Moduli (GPa) = 38.04228 50.98848 45.74825
#
# Poissons Ratio (x) = 0.75347 0.35507
# Poissons Ratio (y) = 0.56216 -0.06138
# Poissons Ratio (z) = 0.29526 -0.06841
#
# Static dielectric constant tensor:
#      x y z
#    x 2.143150 0.000000 -0.071860 
#    y 0.000000 1.813560 0.000000 
#    z -0.071860 0.000000 1.883180 
# 
# From -- ./inp_files/30375.got.cif
#   From: 2010.05.17/outbox.cif.g08.bks.cpg/sg13_16_cif.got.tgz:30375.got - 2010.06.03 16:44:36.
