data_PCOD9231165
_publ_section_title
;
Structure prediction by ZEFSAII (Michael W. Deem and Ramdas Pophale) SiO2 
 PCOD9231165
Probable space group: P 2/C
;
_chemical_formula_sum "Si O2"
_cell_formula_units_Z 32
_cell_length_a 12.320338
_cell_length_b 14.191329
_cell_length_c 8.914163
_cell_angle_alpha 90.000000
_cell_angle_beta 105.241412
_cell_angle_gamma 90.000000
_cell_volume 1503.749835
_symmetry_space_group_name_H-M "P 2/C"
_symmetry_group_IT_number 13
_symmetry_cell_setting 'monoclinic'
loop_
_space_group_symop_operation_xyz
x,y,z
-x,y,1/2-z
-x,-y,-z
x,-y,1/2+z
loop_
_atom_site_type_symbol
_atom_site_label
_atom_site_fract_x
_atom_site_fract_y
_atom_site_fract_z
Si Si1 0.602471 0.725237 0.352467
Si Si2 0.038557 0.773351 0.977140
Si Si3 0.304729 0.425258 0.157250
Si Si4 0.239414 0.755753 0.827958
Si Si5 0.939162 0.417284 0.565305
Si Si6 0.169131 0.091764 0.087933
Si Si7 0.126411 0.095439 0.740610
Si Si8 0.594847 0.401831 0.615664
O O1 0.500000 0.786584 0.250000
O O2 0.676951 0.769472 0.503801
O O3 0.533495 0.634823 0.399582
O O4 0.662343 0.681176 0.228625
O O5 0.114222 0.807837 0.145148
O O6 0.966102 0.683607 0.000141
O O7 0.117546 0.751272 0.864827
O O8 0.954551 0.861810 0.927332
O O9 0.270741 0.338869 0.251538
O O10 0.356512 0.505886 0.283732
O O11 0.192249 0.441920 0.012631
O O12 0.392550 0.404025 0.056993
O O13 0.246046 0.841976 0.716700
O O14 0.000000 0.415352 0.750000
O O15 0.000000 0.500000 0.500000
O O16 0.169298 0.985672 0.146291
O O17 0.192886 0.100808 0.920384
O O18 0.000000 0.069208 0.750000
#
# Coordination Sequence:
#
# PCOD9231165 Si02
#       8
#     4   4   4   4   4   4   4   4
#     4   8  23  44  64  89 115 159 212 278 334 364
#     4  11  24  41  59  90 136 172 217 255 302 371
#     4  12  24  39  63  88 119 173 216 268 318 369
#     4  12  24  36  64  90 128 163 208 262 318 386
#     4  12  28  39  55  85 134 183 215 250 301 375
#     4  11  21  39  61 100 128 169 210 257 317 375
#     4  10  20  38  66  90 130 173 212 262 306 363
#     4   9  23  43  62  85 118 157 230 273 327 369
#
# _framework density 21.280134
#
# number of rings (size 3 to 8) (size 9 to 14) (size 15 to 20)
#    0.750    0.500    1.250    6.000    7.000    5.000 
#    0.000    0.000    0.000    0.000    0.000    3.500 
#    0.000    0.125    0.000    0.000    0.000    0.000 
#
# Total GULP energy -178401.605546 kJ/mol
# GULP energy per Si atom -5575.050173 kJ/mol
# Density = 2.123170 g / cm^3
# Si number density = 21.280134 Si / 1000 Ang^3
#
#
#
# Elastic Constant Matrix: (Units=GPa)
#
#
# Indices 1 2 3 4 5 6 
#
# 1 36.3288 5.3260 8.8720 0.0000 -1.2406 0.0000
# 2 5.3260 51.1532 10.8220 0.0000 1.7836 0.0000
# 3 8.8720 10.8220 133.8201 0.0000 2.0608 0.0000
# 4 0.0000 0.0000 0.0000 45.3958 0.0000 -1.5275
# 5 -1.2406 1.7836 2.0608 0.0000 41.2014 0.0000
# 6 0.0000 0.0000 0.0000 -1.5275 0.0000 12.0560
#
#
#
# Elastic Compliance Matrix: (Units=1/GPa)
#
#
# Indices 1 2 3 4 5 6 
#
# 1 0.028359 -0.002633 -0.001683 0.000000 0.001052 0.000000
# 2 -0.002633 0.020159 -0.001442 0.000000 -0.000880 0.000000
# 3 -0.001683 -0.001442 0.007707 0.000000 -0.000374 0.000000
# 4 0.000000 0.000000 0.000000 0.022123 0.000000 0.002803
# 5 0.001052 -0.000880 -0.000374 0.000000 0.024359 0.000000
# 6 0.000000 0.000000 0.000000 0.002803 0.000000 0.083301
#
#
# Mechanical properties :
#
#
# Convention : Reuss Voigt Hill
#
# Bulk Modulus (GPa) = 22.36758 30.14912 26.25835
# Shear Modulus (GPa) = 23.53728 32.81612 28.17670
#
# Velocity S-wave (km/s) = 3.32937 3.93122 3.64275
# Velocity P-wave (km/s) = 5.03125 5.89953 5.48260
#
# Compressibility (1/GPa) = 0.04470755
#
# Stress axis : x y z
#
# Youngs Moduli (GPa) = 35.26157 49.60547 129.75708
#
# Poissons Ratio (x) = 0.13063 0.21844
# Poissons Ratio (y) = 0.09285 0.18713
# Poissons Ratio (z) = 0.05936 0.07154
#
# Static dielectric constant tensor:
#      x y z
#    x 1.861950 0.000000 0.051510 
#    y 0.000000 1.760350 0.000000 
#    z 0.051510 0.000000 1.841420 
# 
# From -- ./inp_files/19664.got.cif
#   From: 2010.05.17/outbox.cif.g08.bks.cpg/sg13_10_cif.got.tgz:19664.got - 2010.06.03 16:44:36.
