data_PCOD9231598
_publ_section_title
;
Structure prediction by ZEFSAII (Michael W. Deem and Ramdas Pophale) SiO2 
 PCOD9231598
Probable space group: P 2/C
;
_chemical_formula_sum "Si O2"
_cell_formula_units_Z 22
_cell_length_a 24.048852
_cell_length_b 5.069055
_cell_length_c 14.501183
_cell_angle_alpha 90.000000
_cell_angle_beta 33.176100
_cell_angle_gamma 90.000000
_cell_volume 967.346561
_symmetry_space_group_name_H-M "P 2/C"
_symmetry_group_IT_number 13
_symmetry_cell_setting 'monoclinic'
loop_
_space_group_symop_operation_xyz
x,y,z
-x,y,1/2-z
-x,-y,-z
x,-y,1/2+z
loop_
_atom_site_type_symbol
_atom_site_label
_atom_site_fract_x
_atom_site_fract_y
_atom_site_fract_z
Si Si1 0.754460 0.805910 0.517842
Si Si2 0.452348 0.252118 0.117036
Si Si3 0.500000 0.527113 0.750000
Si Si4 0.907971 0.797012 0.610983
Si Si5 0.037374 0.451620 0.788247
Si Si6 0.710229 0.701488 0.962822
O O1 0.671247 0.741698 0.711206
O O2 0.874667 0.754235 0.363785
O O3 0.733004 0.598746 0.464089
O O4 0.728124 0.102769 0.524145
O O5 0.479666 0.293924 0.187758
O O6 0.500000 0.500000 0.000000
O O7 0.500000 0.000000 0.000000
O O8 0.593981 0.332225 0.597392
O O9 0.920856 0.618014 0.684376
O O10 0.787065 0.832699 0.782334
O O11 0.938687 0.674751 0.471770
O O12 0.000000 0.000000 0.500000
O O13 0.000000 0.604202 0.750000
#
# Coordination Sequence:
#
# PCOD9231598 Si02
#       6
#     4   4   2   4   4   4
#     4  10  21  41  63  94 132 174 211 287 335 387
#     4  11  24  42  68  97 136 177 229 284 335 401
#     4  10  24  44  70 102 140 186 234 276 350 418
#     4  10  20  40  65  92 131 172 216 281 333 396
#     4  10  22  39  63  94 131 171 222 269 341 406
#     4  10  21  39  68  94 133 175 220 272 340 394
#
# _framework density 22.742623999999999
#
# number of rings (size 3 to 8) (size 9 to 14) (size 15 to 20)
#    0.000    1.818    1.818    2.182    0.000    8.727 
#    0.000    0.000    8.000    0.000    0.000    0.000 
#    0.000    0.000    0.000    0.000    0.000    0.000 
#
# Total GULP energy -122477.038412 kJ/mol
# GULP energy per Si atom -5567.138110 kJ/mol
# Density = 2.269086 g / cm^3
# Si number density = 22.742624 Si / 1000 Ang^3
#
#
#
# Elastic Constant Matrix: (Units=GPa)
#
#
# Indices 1 2 3 4 5 6 
#
# 1 78.8637 19.3480 37.9521 0.0000 15.0991 0.0000
# 2 19.3480 91.8746 44.2711 0.0000 5.0852 0.0000
# 3 37.9521 44.2711 222.6777 0.0000 -19.1959 0.0000
# 4 0.0000 0.0000 0.0000 40.7300 0.0000 0.2191
# 5 15.0991 5.0852 -19.1959 0.0000 38.6323 0.0000
# 6 0.0000 0.0000 0.0000 0.2191 0.0000 16.1854
#
#
#
# Elastic Compliance Matrix: (Units=1/GPa)
#
#
# Indices 1 2 3 4 5 6 
#
# 1 0.015976 -0.001457 -0.003087 0.000000 -0.007586 0.000000
# 2 -0.001457 0.012489 -0.002431 0.000000 -0.002283 0.000000
# 3 -0.003087 -0.002431 0.005884 0.000000 0.004450 0.000000
# 4 0.000000 0.000000 0.000000 0.024554 0.000000 -0.000332
# 5 -0.007586 -0.002283 0.004450 0.000000 0.031362 0.000000
# 6 0.000000 0.000000 0.000000 -0.000332 0.000000 0.061788
#
#
# Mechanical properties :
#
#
# Convention : Reuss Voigt Hill
#
# Bulk Modulus (GPa) = 49.02484 66.28426 57.65455
# Shear Modulus (GPa) = 28.93469 38.56587 33.75028
#
# Velocity S-wave (km/s) = 3.57075 4.12242 3.85646
# Velocity P-wave (km/s) = 6.21318 7.20193 6.72575
#
# Compressibility (1/GPa) = 0.02039782
#
# Stress axis : x y z
#
# Youngs Moduli (GPa) = 62.59562 80.06915 169.95256
#
# Poissons Ratio (x) = 0.11665 0.52466
# Poissons Ratio (y) = 0.09119 0.41324
# Poissons Ratio (z) = 0.19324 0.19469
#
# Static dielectric constant tensor:
#      x y z
#    x 1.974820 0.000000 -0.146810 
#    y 0.000000 1.951020 0.000000 
#    z -0.146810 0.000000 2.013100 
# 
# From -- ./inp_files/59094.got.cif
#   From: 2010.05.17/outbox.cif.g08.bks.cpg/sg13_30_cif.got.tgz:59094.got - 2010.06.03 16:44:36.
