data_PCOD9231325
_publ_section_title
;
Structure prediction by ZEFSAII (Michael W. Deem and Ramdas Pophale) SiO2 
 PCOD9231325
Probable space group: P 2/C
;
_chemical_formula_sum "Si O2"
_cell_formula_units_Z 24
_cell_length_a 10.860871
_cell_length_b 10.320934
_cell_length_c 12.627989
_cell_angle_alpha 90.000000
_cell_angle_beta 48.290118
_cell_angle_gamma 90.000000
_cell_volume 1056.723335
_symmetry_space_group_name_H-M "P 2/C"
_symmetry_group_IT_number 13
_symmetry_cell_setting 'monoclinic'
loop_
_space_group_symop_operation_xyz
x,y,z
-x,y,1/2-z
-x,-y,-z
x,-y,1/2+z
loop_
_atom_site_type_symbol
_atom_site_label
_atom_site_fract_x
_atom_site_fract_y
_atom_site_fract_z
Si Si1 0.526699 0.404655 0.854669
Si Si2 0.586746 0.316782 0.370796
Si Si3 0.873426 0.291875 0.721939
Si Si4 0.173685 0.001093 0.207394
Si Si5 0.394211 0.937234 0.907609
Si Si6 0.139501 0.790741 0.910957
O O1 0.500000 0.361477 0.750000
O O2 0.488612 0.558173 0.884860
O O3 0.714017 0.381263 0.791099
O O4 0.408812 0.334487 0.006363
O O5 0.505989 0.180139 0.386693
O O6 0.756927 0.316999 0.210136
O O7 0.796651 0.148273 0.780693
O O8 0.000000 0.319978 0.750000
O O9 0.981589 0.273435 0.554068
O O10 0.000000 0.004180 0.250000
O O11 0.138866 0.093202 0.326218
O O12 0.320965 0.029474 0.039916
O O13 0.500000 0.997542 0.750000
O O14 0.238934 0.859128 0.949077
#
# Coordination Sequence:
#
# PCOD9231325 Si02
#       6
#     4   4   4   4   4   4
#     4  11  23  43  68  95 128 165 216 268 315 371
#     4  10  23  43  64  91 128 169 207 262 328 379
#     4  11  22  42  66  93 127 174 213 254 323 392
#     4  11  22  39  60  91 125 167 210 264 321 378
#     4  10  20  39  63  90 120 169 214 254 319 384
#     4  11  22  39  63  89 125 168 211 260 317 386
#
# _framework density 22.711715000000002
#
# number of rings (size 3 to 8) (size 9 to 14) (size 15 to 20)
#    0.000    1.333    5.000    2.000    0.000    6.000 
#    0.000    0.833    0.000    0.000    0.000    0.000 
#    0.000    0.000    0.000    0.000    0.000    0.000 
#
# Total GULP energy -133927.129392 kJ/mol
# GULP energy per Si atom -5580.297058 kJ/mol
# Density = 2.266002 g / cm^3
# Si number density = 22.711715 Si / 1000 Ang^3
#
#
#
# Elastic Constant Matrix: (Units=GPa)
#
#
# Indices 1 2 3 4 5 6 
#
# 1 47.7509 21.7091 35.2183 0.0000 4.6008 0.0000
# 2 21.7091 57.2051 28.0822 0.0000 11.3748 0.0000
# 3 35.2183 28.0822 214.0972 0.0000 8.1036 0.0000
# 4 0.0000 0.0000 0.0000 26.4626 0.0000 2.4302
# 5 4.6008 11.3748 8.1036 0.0000 37.8823 0.0000
# 6 0.0000 0.0000 0.0000 2.4302 0.0000 13.1039
#
#
#
# Elastic Compliance Matrix: (Units=1/GPa)
#
#
# Indices 1 2 3 4 5 6 
#
# 1 0.027397 -0.008752 -0.003359 0.000000 0.000019 0.000000
# 2 -0.008752 0.022523 -0.001309 0.000000 -0.005420 0.000000
# 3 -0.003359 -0.001309 0.005409 0.000000 -0.000356 0.000000
# 4 0.000000 0.000000 0.000000 0.038444 0.000000 -0.007130
# 5 0.000019 -0.005420 -0.000356 0.000000 0.028099 0.000000
# 6 0.000000 0.000000 0.000000 -0.007130 0.000000 0.077635
#
#
# Mechanical properties :
#
#
# Convention : Reuss Voigt Hill
#
# Bulk Modulus (GPa) = 35.10378 54.34138 44.72258
# Shear Modulus (GPa) = 21.20060 31.09267 26.14663
#
# Velocity S-wave (km/s) = 3.05858 3.70403 3.39667
# Velocity P-wave (km/s) = 5.28801 6.50167 5.92599
#
# Compressibility (1/GPa) = 0.02848696
#
# Stress axis : x y z
#
# Youngs Moduli (GPa) = 36.50081 44.39976 184.88993
#
# Poissons Ratio (x) = 0.38857 0.62114
# Poissons Ratio (y) = 0.31944 0.24211
# Poissons Ratio (z) = 0.12262 0.05814
#
# Static dielectric constant tensor:
#      x y z
#    x 1.973560 0.000000 0.017460 
#    y 0.000000 1.869560 0.000000 
#    z 0.017460 0.000000 1.905900 
# 
# From -- ./inp_files/33708.got.cif
#   From: 2010.05.17/outbox.cif.g08.bks.cpg/sg13_17_cif.got.tgz:33708.got - 2010.06.03 16:44:36.
