data_PCOD9231805
_publ_section_title
;
Structure prediction by ZEFSAII (Michael W. Deem and Ramdas Pophale) SiO2 
 PCOD9231805
Probable space group: P 2/C
;
_chemical_formula_sum "Si O2"
_cell_formula_units_Z 26
_cell_length_a 13.926245
_cell_length_b 12.770343
_cell_length_c 13.382062
_cell_angle_alpha 90.000000
_cell_angle_beta 149.152996
_cell_angle_gamma 90.000000
_cell_volume 1220.290036
_symmetry_space_group_name_H-M "P 2/C"
_symmetry_group_IT_number 13
_symmetry_cell_setting 'monoclinic'
loop_
_space_group_symop_operation_xyz
x,y,z
-x,y,1/2-z
-x,-y,-z
x,-y,1/2+z
loop_
_atom_site_type_symbol
_atom_site_label
_atom_site_fract_x
_atom_site_fract_y
_atom_site_fract_z
Si Si1 0.802117 0.970199 0.625589
Si Si2 0.000000 0.400460 0.250000
Si Si3 0.315318 0.573060 0.521263
Si Si4 0.835440 0.145792 0.796935
Si Si5 0.508931 0.265450 0.065942
Si Si6 0.116986 0.765863 0.706529
Si Si7 0.000000 0.736109 0.250000
Si Si8 0.500000 0.113708 0.250000
O O1 0.784946 0.846708 0.628745
O O2 0.000000 0.982966 0.750000
O O3 0.798441 0.027180 0.730425
O O4 0.661198 0.034994 0.430303
O O5 0.002190 0.323505 0.346334
O O6 0.182186 0.472874 0.397380
O O7 0.500000 0.552698 0.750000
O O8 0.399697 0.628486 0.498057
O O9 0.173428 0.662286 0.436898
O O10 0.635335 0.201409 0.632615
O O11 0.927580 0.198007 0.779383
O O12 0.976153 0.167534 0.011900
O O13 0.712119 0.282850 0.202580
O O14 0.534165 0.190964 0.186632
#
# Coordination Sequence:
#
# PCOD9231805 Si02
#       8
#     4   2   4   4   4   4   2   2
#     4  11  22  39  64  96 133 182 213 259 328 384
#     4  11  28  45  58  94 138 177 222 257 326 398
#     4  10  20  41  70  91 122 167 220 281 326 376
#     4  10  21  37  68  98 128 168 224 263 322 386
#     4  10  22  40  70 100 124 164 224 282 329 369
#     4  12  25  43  60  94 141 179 214 263 320 400
#     4   9  18  37  66 102 120 155 218 283 326 372
#     4  10  22  40  70 102 130 162 224 278 314 388
#
# _framework density 21.30641
#
# number of rings (size 3 to 8) (size 9 to 14) (size 15 to 20)
#    0.000    1.538    2.308    2.308    2.154    5.538 
#    1.385   10.769    0.000    0.000    0.000    0.000 
#    0.000    0.000    0.000    0.000    0.000    0.000 
#
# Total GULP energy -145165.917266 kJ/mol
# GULP energy per Si atom -5583.304510 kJ/mol
# Density = 2.125792 g / cm^3
# Si number density = 21.306410 Si / 1000 Ang^3
#
#
#
# Elastic Constant Matrix: (Units=GPa)
#
#
# Indices 1 2 3 4 5 6 
#
# 1 41.6373 21.2984 34.9570 0.0000 8.7831 0.0000
# 2 21.2984 100.6488 32.5439 0.0000 3.6719 0.0000
# 3 34.9570 32.5439 113.1777 0.0000 15.4156 0.0000
# 4 0.0000 0.0000 0.0000 8.3934 0.0000 12.1800
# 5 8.7831 3.6719 15.4156 0.0000 15.5457 0.0000
# 6 0.0000 0.0000 0.0000 12.1800 0.0000 -7.3763
#
#
#
# Elastic Compliance Matrix: (Units=1/GPa)
#
#
# Indices 1 2 3 4 5 6 
#
# 1 0.035468 -0.004460 -0.008193 0.000000 -0.010861 0.000000
# 2 -0.004460 0.011520 -0.002205 0.000000 0.001986 0.000000
# 3 -0.008193 -0.002205 0.013063 0.000000 -0.007804 0.000000
# 4 0.000000 0.000000 0.000000 0.035081 0.000000 0.057927
# 5 -0.010861 0.001986 -0.007804 0.000000 0.077732 0.000000
# 6 0.000000 0.000000 0.000000 0.057927 0.000000 -0.039918
#
#
# Mechanical properties :
#
#
# Convention : Reuss Voigt Hill
#
# Bulk Modulus (GPa) = 32.96617 48.11806 40.54212
# Shear Modulus (GPa) = 28.93933 14.42352 21.68143
#
# Velocity S-wave (km/s) = 3.68944 2.60466 3.19345
# Velocity P-wave (km/s) = 5.80132 5.62837 5.71550
#
# Compressibility (1/GPa) = 0.03033412
#
# Stress axis : x y z
#
# Youngs Moduli (GPa) = 28.19447 86.80559 76.54957
#
# Poissons Ratio (x) = 0.38715 0.62718
# Poissons Ratio (y) = 0.12575 0.16883
# Poissons Ratio (z) = 0.23100 0.19145
#
# Static dielectric constant tensor:
#      x y z
#    x 1.779230 0.000000 -0.001670 
#    y 0.000000 1.799110 0.000000 
#    z -0.001670 0.000000 1.753580 
# 
# From -- ./inp_files/53798.got.cif
#   From: 2010.05.17/outbox.cif.g08.bks.cpg/sg13_27_cif.got.tgz:53798.got - 2010.06.03 16:44:36.
