data_PCOD9231809
_publ_section_title
;
Structure prediction by ZEFSAII (Michael W. Deem and Ramdas Pophale) SiO2 
 PCOD9231809
Probable space group: P 2/C
;
_chemical_formula_sum "Si O2"
_cell_formula_units_Z 22
_cell_length_a 11.826621
_cell_length_b 11.995646
_cell_length_c 14.302357
_cell_angle_alpha 90.000000
_cell_angle_beta 31.139413
_cell_angle_gamma 90.000000
_cell_volume 1049.264875
_symmetry_space_group_name_H-M "P 2/C"
_symmetry_group_IT_number 13
_symmetry_cell_setting 'monoclinic'
loop_
_space_group_symop_operation_xyz
x,y,z
-x,y,1/2-z
-x,-y,-z
x,-y,1/2+z
loop_
_atom_site_type_symbol
_atom_site_label
_atom_site_fract_x
_atom_site_fract_y
_atom_site_fract_z
Si Si1 0.992808 0.869563 0.986072
Si Si2 0.427491 0.720970 0.694099
Si Si3 0.293516 0.237348 0.964074
Si Si4 0.364194 0.752350 0.138096
Si Si5 0.212207 0.508479 0.283160
Si Si6 0.000000 0.429728 0.250000
O O1 0.872531 0.843204 0.972558
O O2 0.838033 0.817134 0.175526
O O3 0.222238 0.804549 0.828111
O O4 0.000000 0.000000 0.000000
O O5 0.500000 0.718255 0.750000
O O6 0.614033 0.755554 0.488424
O O7 0.354881 0.597846 0.711352
O O8 0.500000 0.253088 0.750000
O O9 0.408506 0.201276 0.979099
O O10 0.162127 0.349486 0.077989
O O11 0.335984 0.625947 0.197221
O O12 0.000000 0.500000 0.500000
O O13 0.131084 0.497522 0.234052
#
# Coordination Sequence:
#
# PCOD9231809 Si02
#       6
#     4   4   4   4   4   2
#     4  11  25  48  72 100 136 177 237 297 341 405
#     4  12  27  44  66 101 143 182 230 284 355 416
#     4  10  20  41  70  97 128 172 232 276 339 414
#     4  11  24  45  70 102 139 183 227 283 356 417
#     4  12  24  42  69 106 143 181 225 289 350 421
#     4  12  22  40  72  98 142 182 228 272 346 414
#
# _framework density 20.967061000000001
#
# number of rings (size 3 to 8) (size 9 to 14) (size 15 to 20)
#    0.000    0.727    5.455    1.636    2.545    5.818 
#    0.000    3.636    0.000    0.000    0.000    0.000 
#    0.000    0.000    0.000    0.000    0.000    0.000 
#
# Total GULP energy -123024.891479 kJ/mol
# GULP energy per Si atom -5592.040522 kJ/mol
# Density = 2.091934 g / cm^3
# Si number density = 20.967061 Si / 1000 Ang^3
#
#
#
# Elastic Constant Matrix: (Units=GPa)
#
#
# Indices 1 2 3 4 5 6 
#
# 1 142.1119 45.1699 23.5321 0.0000 19.4390 0.0000
# 2 45.1699 132.4223 44.1945 0.0000 -1.6666 0.0000
# 3 23.5321 44.1945 82.3130 0.0000 3.9196 0.0000
# 4 0.0000 0.0000 0.0000 -9.5116 0.0000 -8.2724
# 5 19.4390 -1.6666 3.9196 0.0000 31.6273 0.0000
# 6 0.0000 0.0000 0.0000 -8.2724 0.0000 0.4939
#
#
#
# Elastic Compliance Matrix: (Units=1/GPa)
#
#
# Indices 1 2 3 4 5 6 
#
# 1 0.008805 -0.002825 -0.000740 0.000000 -0.005469 0.000000
# 2 -0.002825 0.010145 -0.004776 0.000000 0.002863 0.000000
# 3 -0.000740 -0.004776 0.015003 0.000000 -0.001656 0.000000
# 4 0.000000 0.000000 0.000000 -0.006753 0.000000 -0.113119
# 5 -0.005469 0.002863 -0.001656 0.000000 0.035336 0.000000
# 6 0.000000 0.000000 0.000000 -0.113119 0.000000 0.130065
#
#
# Mechanical properties :
#
#
# Convention : Reuss Voigt Hill
#
# Bulk Modulus (GPa) = 57.89757 64.73781 61.31769
# Shear Modulus (GPa) = 23.25146 20.78529 22.01837
#
# Velocity S-wave (km/s) = 3.33371 3.15196 3.24410
# Velocity P-wave (km/s) = 6.51856 6.64751 6.58335
#
# Compressibility (1/GPa) = 0.01727188
#
# Stress axis : x y z
#
# Youngs Moduli (GPa) = 113.56650 98.56848 66.65240
#
# Poissons Ratio (x) = 0.27850 0.04932
# Poissons Ratio (y) = 0.32088 0.31831
# Poissons Ratio (z) = 0.08403 0.47073
#
# Static dielectric constant tensor:
#      x y z
#    x 1.800770 0.000000 -0.023090 
#    y 0.000000 1.728550 0.000000 
#    z -0.023090 0.000000 1.807700 
# 
# From -- ./inp_files/51086.got.cif
#   From: 2010.05.17/outbox.cif.g08.bks.cpg/sg13_26_cif.got.tgz:51086.got - 2010.06.03 16:44:36.
