data_PCOD9231792
_publ_section_title
;
Structure prediction by ZEFSAII (Michael W. Deem and Ramdas Pophale) SiO2 
 PCOD9231792
Probable space group: P 2/C
;
_chemical_formula_sum "Si O2"
_cell_formula_units_Z 22
_cell_length_a 12.899524
_cell_length_b 12.405207
_cell_length_c 8.175858
_cell_angle_alpha 90.000000
_cell_angle_beta 54.500147
_cell_angle_gamma 90.000000
_cell_volume 1065.118354
_symmetry_space_group_name_H-M "P 2/C"
_symmetry_group_IT_number 13
_symmetry_cell_setting 'monoclinic'
loop_
_space_group_symop_operation_xyz
x,y,z
-x,y,1/2-z
-x,-y,-z
x,-y,1/2+z
loop_
_atom_site_type_symbol
_atom_site_label
_atom_site_fract_x
_atom_site_fract_y
_atom_site_fract_z
Si Si1 0.651858 0.634281 0.409366
Si Si2 0.625985 0.884560 0.528438
Si Si3 0.992409 0.844895 0.461479
Si Si4 0.048761 0.388354 0.889533
Si Si5 0.781100 0.002489 0.650689
Si Si6 0.500000 0.539075 0.250000
O O1 0.640113 0.756384 0.486711
O O2 0.799502 0.617139 0.236541
O O3 0.563488 0.611817 0.332384
O O4 0.604954 0.542982 0.579698
O O5 0.500000 0.898036 0.750000
O O6 0.648965 0.948017 0.339125
O O7 0.739226 0.944329 0.522647
O O8 0.000000 0.852872 0.250000
O O9 0.991976 0.721190 0.514372
O O10 0.116083 0.901453 0.428230
O O11 0.867596 0.905309 0.643796
O O12 0.000000 0.384362 0.750000
O O13 0.000000 0.500000 0.000000
#
# Coordination Sequence:
#
# PCOD9231792 Si02
#       6
#     4   4   4   4   4   2
#     4  11  22  46  69 100 135 176 230 276 335 407
#     4  12  24  44  65  97 134 176 228 285 334 398
#     4  10  20  41  68  93 131 180 216 273 341 400
#     4  11  22  41  66  99 135 167 216 278 336 397
#     4  11  22  42  66  93 130 176 224 273 334 406
#     4  10  24  44  74  94 134 188 224 272 338 402
#
# _framework density 20.654980999999999
#
# number of rings (size 3 to 8) (size 9 to 14) (size 15 to 20)
#    0.000    1.091    4.545    2.727    0.000    0.000 
#    8.182    0.000    0.000    0.000    0.000    0.000 
#    0.000    0.000    0.000    0.000    0.000    0.000 
#
# Total GULP energy -122549.240797 kJ/mol
# GULP energy per Si atom -5570.420036 kJ/mol
# Density = 2.060797 g / cm^3
# Si number density = 20.654981 Si / 1000 Ang^3
#
#
#
# Elastic Constant Matrix: (Units=GPa)
#
#
# Indices 1 2 3 4 5 6 
#
# 1 50.7534 43.8562 -1.9806 0.0000 7.6897 0.0000
# 2 43.8562 191.9320 41.6615 0.0000 -3.8063 0.0000
# 3 -1.9806 41.6615 37.8069 0.0000 -18.5030 0.0000
# 4 0.0000 0.0000 0.0000 47.2313 0.0000 -2.5859
# 5 7.6897 -3.8063 -18.5030 0.0000 32.5713 0.0000
# 6 0.0000 0.0000 0.0000 -2.5859 0.0000 27.3353
#
#
#
# Elastic Compliance Matrix: (Units=1/GPa)
#
#
# Indices 1 2 3 4 5 6 
#
# 1 0.027754 -0.008533 0.009920 0.000000 -0.001914 0.000000
# 2 -0.008533 0.010068 -0.013823 0.000000 -0.004661 0.000000
# 3 0.009920 -0.013823 0.055770 0.000000 0.027725 0.000000
# 4 0.000000 0.000000 0.000000 0.021283 0.000000 0.002013
# 5 -0.001914 -0.004661 0.027725 0.000000 0.046359 0.000000
# 6 0.000000 0.000000 0.000000 0.002013 0.000000 0.036773
#
#
# Mechanical properties :
#
#
# Convention : Reuss Voigt Hill
#
# Bulk Modulus (GPa) = 14.55162 49.72962 32.14062
# Shear Modulus (GPa) = 20.34304 34.55793 27.45048
#
# Velocity S-wave (km/s) = 3.14171 4.09480 3.64950
# Velocity P-wave (km/s) = 4.49676 6.81800 5.77520
#
# Compressibility (1/GPa) = 0.06872089
#
# Stress axis : x y z
#
# Youngs Moduli (GPa) = 36.03143 99.32565 17.93066
#
# Poissons Ratio (x) = 0.84754 -0.17787
# Poissons Ratio (y) = 0.30745 0.24785
# Poissons Ratio (z) = -0.35743 1.37294
#
# Static dielectric constant tensor:
#      x y z
#    x 1.767730 0.000000 0.043870 
#    y 0.000000 1.770750 0.000000 
#    z 0.043870 0.000000 1.784000 
# 
# From -- ./inp_files/18453.got.cif
#   From: 2010.05.17/outbox.cif.g08.bks.cpg/sg13_10_cif.got.tgz:18453.got - 2010.06.03 16:44:36.
