data_PCOD9231782
_publ_section_title
;
Structure prediction by ZEFSAII (Michael W. Deem and Ramdas Pophale) SiO2 
 PCOD9231782
Probable space group: P 2/C
;
_chemical_formula_sum "Si O2"
_cell_formula_units_Z 16
_cell_length_a 9.859044
_cell_length_b 12.278323
_cell_length_c 10.100486
_cell_angle_alpha 90.000000
_cell_angle_beta 140.687839
_cell_angle_gamma 90.000000
_cell_volume 774.628854
_symmetry_space_group_name_H-M "P 2/C"
_symmetry_group_IT_number 13
_symmetry_cell_setting 'monoclinic'
loop_
_space_group_symop_operation_xyz
x,y,z
-x,y,1/2-z
-x,-y,-z
x,-y,1/2+z
loop_
_atom_site_type_symbol
_atom_site_label
_atom_site_fract_x
_atom_site_fract_y
_atom_site_fract_z
Si Si1 0.534248 0.901251 0.625171
Si Si2 0.797579 0.288487 0.699216
Si Si3 0.847267 0.475323 0.261081
Si Si4 0.081590 0.239937 0.162907
O O1 0.500000 0.936469 0.750000
O O2 0.369987 0.802257 0.471519
O O3 0.771284 0.855163 0.781032
O O4 0.500000 0.000000 0.500000
O O5 0.713231 0.414119 0.639232
O O6 0.000000 0.287476 0.750000
O O7 0.889370 0.260575 0.914394
O O8 0.775391 0.351257 0.226817
O O9 0.000000 0.467181 0.250000
O O10 0.000000 0.500000 0.500000
O O11 0.000000 0.218569 0.250000
#
# Coordination Sequence:
#
# PCOD9231782 Si02
#       4
#     4   4   4   4
#     4  12  28  44  63  90 122 167 222 259 302 368
#     4  10  20  41  67  92 127 163 201 256 315 369
#     4   8  16  33  62  94 123 154 195 244 307 380
#     4  10  22  41  66  97 126 160 200 255 317 369
#
# _framework density 20.655051
#
# number of rings (size 3 to 8) (size 9 to 14) (size 15 to 20)
#    0.000    2.000    2.500    0.000    3.500    3.000 
#    0.000    0.000    0.000    0.000    0.000    0.000 
#    0.000    0.000    0.000    0.000    0.000    0.000 
#
# Total GULP energy -89244.747899 kJ/mol
# GULP energy per Si atom -5577.796744 kJ/mol
# Density = 2.060804 g / cm^3
# Si number density = 20.655051 Si / 1000 Ang^3
#
#
#
# Elastic Constant Matrix: (Units=GPa)
#
#
# Indices 1 2 3 4 5 6 
#
# 1 84.6254 18.5425 37.7517 0.0000 -37.2989 0.0000
# 2 18.5425 103.7768 6.0825 0.0000 -9.6721 0.0000
# 3 37.7517 6.0825 54.4017 0.0000 -34.6586 0.0000
# 4 0.0000 0.0000 0.0000 34.3355 0.0000 -9.3908
# 5 -37.2989 -9.6721 -34.6586 0.0000 44.5989 0.0000
# 6 0.0000 0.0000 0.0000 -9.3908 0.0000 4.8800
#
#
#
# Elastic Compliance Matrix: (Units=1/GPa)
#
#
# Indices 1 2 3 4 5 6 
#
# 1 0.020217 -0.002171 -0.006566 0.000000 0.011335 0.000000
# 2 -0.002171 0.010075 0.001219 0.000000 0.001316 0.000000
# 3 -0.006566 0.001219 0.038565 0.000000 0.024743 0.000000
# 4 0.000000 0.000000 0.000000 0.061485 0.000000 0.118318
# 5 0.011335 0.001316 0.024743 0.000000 0.051416 0.000000
# 6 0.000000 0.000000 0.000000 0.118318 0.000000 0.432605
#
#
# Mechanical properties :
#
#
# Convention : Reuss Voigt Hill
#
# Bulk Modulus (GPa) = 18.57969 40.83970 29.70969
# Shear Modulus (GPa) = 7.72392 28.79134 18.25763
#
# Velocity S-wave (km/s) = 1.93587 3.73756 2.97632
# Velocity P-wave (km/s) = 3.74320 6.20008 5.12116
#
# Compressibility (1/GPa) = 0.05382222
#
# Stress axis : x y z
#
# Youngs Moduli (GPa) = 49.46229 99.25318 25.93017
#
# Poissons Ratio (x) = 0.21549 0.17024
# Poissons Ratio (y) = 0.10739 -0.03160
# Poissons Ratio (z) = 0.32474 -0.12097
#
# Static dielectric constant tensor:
#      x y z
#    x 1.702650 0.000000 0.013010 
#    y 0.000000 1.776840 0.000000 
#    z 0.013010 0.000000 1.711600 
# 
# From -- ./inp_files/11496.got.cif
#   From: 2010.05.17/outbox.cif.g08.bks.cpg/sg13_6_cif.got.tgz:11496.got - 2010.06.03 16:44:36.
