data_PCOD9231541
_publ_section_title
;
Structure prediction by ZEFSAII (Michael W. Deem and Ramdas Pophale) SiO2 
 PCOD9231541
Probable space group: P 2/C
;
_chemical_formula_sum "Si O2"
_cell_formula_units_Z 22
_cell_length_a 14.945522
_cell_length_b 6.329163
_cell_length_c 12.224635
_cell_angle_alpha 90.000000
_cell_angle_beta 63.446451
_cell_angle_gamma 90.000000
_cell_volume 1034.384120
_symmetry_space_group_name_H-M "P 2/C"
_symmetry_group_IT_number 13
_symmetry_cell_setting 'monoclinic'
loop_
_space_group_symop_operation_xyz
x,y,z
-x,y,1/2-z
-x,-y,-z
x,-y,1/2+z
loop_
_atom_site_type_symbol
_atom_site_label
_atom_site_fract_x
_atom_site_fract_y
_atom_site_fract_z
Si Si1 0.428729 0.335180 0.098115
Si Si2 0.500000 0.042028 0.250000
Si Si3 0.315267 0.176885 0.952858
Si Si4 0.050797 0.305342 0.905781
Si Si5 0.863654 0.916600 0.497357
Si Si6 0.238861 0.476238 0.332549
O O1 0.487680 0.187526 0.150083
O O2 0.341345 0.447092 0.213662
O O3 0.500000 0.500000 0.000000
O O4 0.373843 0.211749 0.031865
O O5 0.601524 0.909109 0.177968
O O6 0.265510 0.385167 0.925771
O O7 0.225449 0.013771 0.023928
O O8 0.154210 0.404278 0.806695
O O9 0.089893 0.114958 0.961933
O O10 0.000000 0.500000 0.000000
O O11 0.957481 0.204292 0.892303
O O12 0.808682 0.747631 0.606338
#
# Coordination Sequence:
#
# PCOD9231541 Si02
#       6
#     4   2   4   4   4   4
#     4  12  25  41  66  96 130 174 223 273 335 400
#     4  12  24  46  62  92 130 170 220 282 336 390
#     4  11  23  39  65  93 128 172 219 268 328 398
#     4   8  16  32  66  94 123 173 211 265 337 385
#     4   9  17  36  63  94 127 169 216 266 330 390
#     4  10  20  40  62  95 133 168 214 270 333 390
#
# _framework density 21.268692999999999
#
# number of rings (size 3 to 8) (size 9 to 14) (size 15 to 20)
#    0.000    1.818    1.818    2.727    0.000    0.000 
#    0.000    0.000    0.000   50.182    0.000    0.000 
#    0.000    0.000    0.000    0.000    0.000    0.000 
#
# Total GULP energy -122693.729635 kJ/mol
# GULP energy per Si atom -5576.987711 kJ/mol
# Density = 2.122028 g / cm^3
# Si number density = 21.268693 Si / 1000 Ang^3
#
#
#
# Elastic Constant Matrix: (Units=GPa)
#
#
# Indices 1 2 3 4 5 6 
#
# 1 136.8035 62.1028 21.7080 0.0000 -3.8379 0.0000
# 2 62.1028 118.8691 32.2155 0.0000 1.0340 0.0000
# 3 21.7080 32.2155 50.0480 0.0000 7.2741 0.0000
# 4 0.0000 0.0000 0.0000 33.6802 0.0000 -13.8359
# 5 -3.8379 1.0340 7.2741 0.0000 25.9435 0.0000
# 6 0.0000 0.0000 0.0000 -13.8359 0.0000 64.9289
#
#
#
# Elastic Compliance Matrix: (Units=1/GPa)
#
#
# Indices 1 2 3 4 5 6 
#
# 1 0.009738 -0.004700 -0.001496 0.000000 0.002047 0.000000
# 2 -0.004700 0.012515 -0.006092 0.000000 0.000514 0.000000
# 3 -0.001496 -0.006092 0.025591 0.000000 -0.007154 0.000000
# 4 0.000000 0.000000 0.000000 0.032539 0.000000 0.006934
# 5 0.002047 0.000514 -0.007154 0.000000 0.040833 0.000000
# 6 0.000000 0.000000 0.000000 0.006934 0.000000 0.016879
#
#
# Mechanical properties :
#
#
# Convention : Reuss Voigt Hill
#
# Bulk Modulus (GPa) = 42.97767 59.75259 51.36513
# Shear Modulus (GPa) = 29.33810 37.55681 33.44745
#
# Velocity S-wave (km/s) = 3.71806 4.20673 3.96992
# Velocity P-wave (km/s) = 6.21955 7.19379 6.72434
#
# Compressibility (1/GPa) = 0.02326790
#
# Stress axis : x y z
#
# Youngs Moduli (GPa) = 102.68832 79.90662 39.07687
#
# Poissons Ratio (x) = 0.37556 0.05846
# Poissons Ratio (y) = 0.48264 0.23804
# Poissons Ratio (z) = 0.15363 0.48676
#
# Static dielectric constant tensor:
#      x y z
#    x 1.781300 0.000000 0.033720 
#    y 0.000000 1.803800 0.000000 
#    z 0.033720 0.000000 1.693690 
# 
# From -- ./inp_files/35354.got.cif
#   From: 2010.05.17/outbox.cif.g08.bks.cpg/sg13_18_cif.got.tgz:35354.got - 2010.06.03 16:44:36.
