data_PCOD9231865
_publ_section_title
;
Structure prediction by ZEFSAII (Michael W. Deem and Ramdas Pophale) SiO2 
 PCOD9231865
Probable space group: P 2/C
;
_chemical_formula_sum "Si O2"
_cell_formula_units_Z 28
_cell_length_a 12.040290
_cell_length_b 6.575970
_cell_length_c 19.467022
_cell_angle_alpha 90.000000
_cell_angle_beta 64.552550
_cell_angle_gamma 90.000000
_cell_volume 1391.791900
_symmetry_space_group_name_H-M "P 2/C"
_symmetry_group_IT_number 13
_symmetry_cell_setting 'monoclinic'
loop_
_space_group_symop_operation_xyz
x,y,z
-x,y,1/2-z
-x,-y,-z
x,-y,1/2+z
loop_
_atom_site_type_symbol
_atom_site_label
_atom_site_fract_x
_atom_site_fract_y
_atom_site_fract_z
Si Si1 0.832230 0.163522 0.876166
Si Si2 0.574085 0.534562 0.590902
Si Si3 0.000000 0.136412 0.250000
Si Si4 0.999323 0.453244 0.129864
Si Si5 0.500000 0.464752 0.750000
Si Si6 0.113632 0.892914 0.506582
Si Si7 0.447540 0.209235 0.540764
Si Si8 0.244769 0.360407 0.870283
O O1 0.691453 0.203853 0.895503
O O2 0.909715 0.371146 0.865743
O O3 0.893826 0.014578 0.804216
O O4 0.836844 0.036960 0.946353
O O5 0.495359 0.587829 0.679607
O O6 0.532577 0.311648 0.575801
O O7 0.556883 0.663326 0.528398
O O8 0.711934 0.524108 0.583309
O O9 0.032937 0.286883 0.303511
O O10 0.875115 0.561485 0.136917
O O11 0.065786 0.318574 0.053346
O O12 0.370859 0.345127 0.792972
O O13 0.210383 0.839442 0.421675
O O14 0.000000 0.000000 0.500000
O O15 0.500000 0.000000 0.500000
#
# Coordination Sequence:
#
# PCOD9231865 Si02
#       8
#     4   4   2   4   2   4   4   4
#     4  11  24  42  68  98 130 178 217 279 341 400
#     4   9  22  43  62  96 129 179 221 268 330 405
#     4  10  26  44  60 106 126 166 232 266 342 412
#     4  11  23  41  68  94 133 176 206 291 337 394
#     4   8  22  38  66  92 128 178 212 268 336 392
#     4  11  22  36  64 102 128 168 227 265 331 404
#     4  11  23  41  69  94 135 176 227 274 325 399
#     4  10  20  42  64  94 133 169 219 272 341 394
#
# _framework density 20.11795
#
# number of rings (size 3 to 8) (size 9 to 14) (size 15 to 20)
#    0.857    0.857    1.429    2.571    2.000    6.857 
#    0.000    0.714    0.000    0.000    0.000    0.000 
#    0.000    0.000    0.000    0.000    0.000    0.000 
#
# Total GULP energy -156072.169644 kJ/mol
# GULP energy per Si atom -5574.006059 kJ/mol
# Density = 2.007216 g / cm^3
# Si number density = 20.117950 Si / 1000 Ang^3
#
#
#
# Elastic Constant Matrix: (Units=GPa)
#
#
# Indices 1 2 3 4 5 6 
#
# 1 88.3496 29.2225 18.3047 0.0000 -13.8402 0.0000
# 2 29.2225 88.8697 22.8126 0.0000 -11.9185 0.0000
# 3 18.3047 22.8126 95.3827 0.0000 -13.3519 0.0000
# 4 0.0000 0.0000 0.0000 24.8150 0.0000 5.1808
# 5 -13.8402 -11.9185 -13.3519 0.0000 23.5078 0.0000
# 6 0.0000 0.0000 0.0000 5.1808 0.0000 10.3556
#
#
#
# Elastic Compliance Matrix: (Units=1/GPa)
#
#
# Indices 1 2 3 4 5 6 
#
# 1 0.013550 -0.003442 -0.000983 0.000000 0.005674 0.000000
# 2 -0.003442 0.013391 -0.002037 0.000000 0.003605 0.000000
# 3 -0.000983 -0.002037 0.011879 0.000000 0.005135 0.000000
# 4 0.000000 0.000000 0.000000 0.044998 0.000000 -0.022512
# 5 0.005674 0.003605 0.005135 0.000000 0.050624 0.000000
# 6 0.000000 0.000000 0.000000 -0.022512 0.000000 0.107829
#
#
# Mechanical properties :
#
#
# Convention : Reuss Voigt Hill
#
# Bulk Modulus (GPa) = 38.61816 45.92019 42.26917
# Shear Modulus (GPa) = 18.95179 25.21982 22.08580
#
# Velocity S-wave (km/s) = 3.07259 3.54446 3.31692
# Velocity P-wave (km/s) = 5.64139 6.29492 5.97709
#
# Compressibility (1/GPa) = 0.02589455
#
# Stress axis : x y z
#
# Youngs Moduli (GPa) = 73.80248 74.67795 84.18338
#
# Poissons Ratio (x) = 0.25706 0.08273
# Poissons Ratio (y) = 0.25405 0.17151
# Poissons Ratio (z) = 0.07253 0.15215
#
# Static dielectric constant tensor:
#      x y z
#    x 1.699490 0.000000 0.000870 
#    y 0.000000 1.697050 0.000000 
#    z 0.000870 0.000000 1.729020 
# 
# From -- ./inp_files/77489.got.cif
#   From: 2010.05.17/outbox.cif.g08.bks.cpg/sg13_39_cif.got.tgz:77489.got - 2010.06.03 16:44:36.
