data_PCOD9231321
_publ_section_title
;
Structure prediction by ZEFSAII (Michael W. Deem and Ramdas Pophale) SiO2 
 PCOD9231321
Probable space group: P 2/C
;
_chemical_formula_sum "Si O2"
_cell_formula_units_Z 22
_cell_length_a 8.660927
_cell_length_b 9.281057
_cell_length_c 25.776874
_cell_angle_alpha 90.000000
_cell_angle_beta 150.002405
_cell_angle_gamma 90.000000
_cell_volume 1035.930202
_symmetry_space_group_name_H-M "P 2/C"
_symmetry_group_IT_number 13
_symmetry_cell_setting 'monoclinic'
loop_
_space_group_symop_operation_xyz
x,y,z
-x,y,1/2-z
-x,-y,-z
x,-y,1/2+z
loop_
_atom_site_type_symbol
_atom_site_label
_atom_site_fract_x
_atom_site_fract_y
_atom_site_fract_z
Si Si1 0.818282 0.589550 0.863628
Si Si2 0.000000 0.753906 0.750000
Si Si3 0.177794 0.675441 0.439883
Si Si4 0.529025 0.734109 0.434804
Si Si5 0.541198 0.948171 0.953013
Si Si6 0.466217 0.537564 0.862169
O O1 0.500000 0.653810 0.750000
O O2 0.732882 0.562444 0.898584
O O3 0.891190 0.434122 0.858242
O O4 0.121890 0.686553 0.948794
O O5 0.753615 0.855500 0.650394
O O6 0.818172 0.641553 0.733955
O O7 0.316023 0.701813 0.423102
O O8 0.172910 0.835333 0.464218
O O9 0.418523 0.590720 0.547513
O O10 0.408979 0.630573 0.354075
O O11 0.545922 0.901333 0.424301
O O12 0.500000 0.000000 0.000000
#
# Coordination Sequence:
#
# PCOD9231321 Si02
#       6
#     4   2   4   4   4   4
#     4  11  23  35  57  90 121 155 206 248 295 355
#     4  10  22  38  60  94 112 166 202 254 300 362
#     4   9  19  39  59  85 119 156 189 248 302 354
#     4  10  20  39  63  88 116 161 197 245 307 354
#     4   9  20  38  64  85 128 152 202 244 304 364
#     4  10  21  35  61  83 121 147 207 245 297 353
#
# _framework density 21.236951999999999
#
# number of rings (size 3 to 8) (size 9 to 14) (size 15 to 20)
#    0.000    2.182    0.000    4.364   10.182    0.727 
#    3.273    9.091    0.000    0.000    0.000    0.000 
#    0.000    0.000    0.000    0.000    0.000    0.000 
#
# Total GULP energy -122593.574144 kJ/mol
# GULP energy per Si atom -5572.435188 kJ/mol
# Density = 2.118862 g / cm^3
# Si number density = 21.236952 Si / 1000 Ang^3
#
#
#
# Elastic Constant Matrix: (Units=GPa)
#
#
# Indices 1 2 3 4 5 6 
#
# 1 36.8813 1.0151 12.3310 0.0000 14.1555 0.0000
# 2 1.0151 153.0281 28.2574 0.0000 9.2170 0.0000
# 3 12.3310 28.2574 82.6797 0.0000 10.9594 0.0000
# 4 0.0000 0.0000 0.0000 -45.7737 0.0000 -10.0064
# 5 14.1555 9.2170 10.9594 0.0000 25.9064 0.0000
# 6 0.0000 0.0000 0.0000 -10.0064 0.0000 2.8315
#
#
#
# Elastic Compliance Matrix: (Units=1/GPa)
#
#
# Indices 1 2 3 4 5 6 
#
# 1 0.035239 0.001488 -0.003328 0.000000 -0.018376 0.000000
# 2 0.001488 0.007098 -0.002336 0.000000 -0.002350 0.000000
# 3 -0.003328 -0.002336 0.013813 0.000000 -0.003194 0.000000
# 4 0.000000 0.000000 0.000000 -0.012325 0.000000 -0.043556
# 5 -0.018376 -0.002350 -0.003194 0.000000 0.050828 0.000000
# 6 0.000000 0.000000 0.000000 -0.043556 0.000000 0.199244
#
#
# Mechanical properties :
#
#
# Convention : Reuss Voigt Hill
#
# Bulk Modulus (GPa) = 20.92224 39.53290 30.22757
# Shear Modulus (GPa) = 15.71425 11.99188 13.85306
#
# Velocity S-wave (km/s) = 2.72315 2.37886 2.55681
# Velocity P-wave (km/s) = 4.44529 5.11868 4.79382
#
# Compressibility (1/GPa) = 0.04779602
#
# Stress axis : x y z
#
# Youngs Moduli (GPa) = 28.37784 140.88869 72.39553
#
# Poissons Ratio (x) = -0.20959 0.24095
# Poissons Ratio (y) = -0.04222 0.16913
# Poissons Ratio (z) = 0.09445 0.32914
#
# Static dielectric constant tensor:
#      x y z
#    x 1.783350 0.000000 -0.050950 
#    y 0.000000 1.844980 0.000000 
#    z -0.050950 0.000000 1.862590 
# 
# From -- ./inp_files/95886.got.cif
#   From: 2010.05.17/outbox.cif.g08.bks.cpg/sg13_48_cif.got.tgz:95886.got - 2010.06.03 16:44:36.
