data_PCOD9231939
_publ_section_title
;
Structure prediction by ZEFSAII (Michael W. Deem and Ramdas Pophale) SiO2 
 PCOD9231939
Probable space group: P 2/C
;
_chemical_formula_sum "Si O2"
_cell_formula_units_Z 28
_cell_length_a 5.301763
_cell_length_b 20.065352
_cell_length_c 11.856406
_cell_angle_alpha 90.000000
_cell_angle_beta 72.036748
_cell_angle_gamma 90.000000
_cell_volume 1199.822182
_symmetry_space_group_name_H-M "P 2/C"
_symmetry_group_IT_number 13
_symmetry_cell_setting 'monoclinic'
loop_
_space_group_symop_operation_xyz
x,y,z
-x,y,1/2-z
-x,-y,-z
x,-y,1/2+z
loop_
_atom_site_type_symbol
_atom_site_label
_atom_site_fract_x
_atom_site_fract_y
_atom_site_fract_z
Si Si1 0.759117 0.147812 0.341686
Si Si2 0.403606 0.769863 0.041016
Si Si3 0.500000 0.037686 0.250000
Si Si4 0.219652 0.945286 0.442699
Si Si5 0.801779 0.597658 0.673544
Si Si6 0.078039 0.686816 0.469220
Si Si7 0.500000 0.855819 0.250000
Si Si8 0.195810 0.548405 0.329496
O O1 0.501611 0.191233 0.413950
O O2 0.723409 0.090126 0.252962
O O3 0.792257 0.106994 0.454093
O O4 0.000000 0.188241 0.250000
O O5 0.112477 0.737948 0.070538
O O6 0.413802 0.815184 0.151781
O O7 0.643801 0.717748 0.030318
O O8 0.460229 0.994198 0.368815
O O9 0.244697 0.898787 0.328074
O O10 0.000000 0.000000 0.500000
O O11 0.500000 0.604652 0.750000
O O12 0.891414 0.662094 0.594866
O O13 0.822976 0.524982 0.610475
O O14 0.000000 0.592866 0.750000
O O15 0.136421 0.617047 0.400144
O O16 0.500000 0.552456 0.250000
O O17 0.000000 0.547438 0.250000
#
# Coordination Sequence:
#
# PCOD9231939 Si02
#       8
#     4   4   2   4   4   4   2   4
#     4  11  24  42  63  98 133 172 220 276 334 401
#     4  11  28  44  66  98 139 192 228 276 337 409
#     4  11  22  40  70  90 130 159 214 278 326 415
#     4  10  20  42  71 101 124 170 217 276 354 401
#     4  10  22  42  67 102 139 174 225 295 350 391
#     4  12  25  44  69  98 132 188 237 271 334 418
#     4   9  24  46  64 102 146 169 228 294 336 407
#     4  10  22  40  69 102 134 171 226 297 349 395
#
# _framework density 23.336790000000001
#
# number of rings (size 3 to 8) (size 9 to 14) (size 15 to 20)
#    0.000    1.429    1.429    2.571    5.000    1.714 
#    0.000   11.429    0.000    0.000    0.000    0.000 
#    0.000    0.000    0.000    0.000    0.000    0.000 
#
# Total GULP energy -155984.844210 kJ/mol
# GULP energy per Si atom -5570.887293 kJ/mol
# Density = 2.328367 g / cm^3
# Si number density = 23.336790 Si / 1000 Ang^3
#
#
#
# Elastic Constant Matrix: (Units=GPa)
#
#
# Indices 1 2 3 4 5 6 
#
# 1 83.0045 1.5900 10.6352 0.0000 -7.1076 0.0000
# 2 1.5900 77.4444 22.2335 0.0000 0.4165 0.0000
# 3 10.6352 22.2335 84.6120 0.0000 -12.7940 0.0000
# 4 0.0000 0.0000 0.0000 43.1906 0.0000 -16.5994
# 5 -7.1076 0.4165 -12.7940 0.0000 15.7214 0.0000
# 6 0.0000 0.0000 0.0000 -16.5994 0.0000 52.2221
#
#
#
# Elastic Compliance Matrix: (Units=1/GPa)
#
#
# Indices 1 2 3 4 5 6 
#
# 1 0.012583 -0.000054 -0.000806 0.000000 0.005034 0.000000
# 2 -0.000054 0.014171 -0.004308 0.000000 -0.003905 0.000000
# 3 -0.000806 -0.004308 0.014840 0.000000 0.011826 0.000000
# 4 0.000000 0.000000 0.000000 0.026375 0.000000 0.008384
# 5 0.005034 -0.003905 0.011826 0.000000 0.075611 0.000000
# 6 0.000000 0.000000 0.000000 0.008384 0.000000 0.021814
#
#
# Mechanical properties :
#
#
# Convention : Reuss Voigt Hill
#
# Bulk Modulus (GPa) = 31.99087 34.88649 33.43868
# Shear Modulus (GPa) = 26.86009 36.26696 31.56352
#
# Velocity S-wave (km/s) = 3.39628 3.94644 3.68165
# Velocity P-wave (km/s) = 5.39609 5.97892 5.69496
#
# Compressibility (1/GPa) = 0.03125892
#
# Stress axis : x y z
#
# Youngs Moduli (GPa) = 79.47267 70.56545 67.38486
#
# Poissons Ratio (x) = 0.00381 0.05433
# Poissons Ratio (y) = 0.00429 0.29026
# Poissons Ratio (z) = 0.06407 0.30396
#
# Static dielectric constant tensor:
#      x y z
#    x 1.948930 0.000000 -0.031470 
#    y 0.000000 1.944150 0.000000 
#    z -0.031470 0.000000 1.981500 
# 
# From -- ./inp_files/26716.got.cif
#   From: 2010.05.17/outbox.cif.g08.bks.cpg/sg13_14_cif.got.tgz:26716.got - 2010.06.03 16:44:36.
