data_PCOD9231790
_publ_section_title
;
Structure prediction by ZEFSAII (Michael W. Deem and Ramdas Pophale) SiO2 
 PCOD9231790
Probable space group: P 2/C
;
_chemical_formula_sum "Si O2"
_cell_formula_units_Z 18
_cell_length_a 5.177635
_cell_length_b 11.135761
_cell_length_c 13.974530
_cell_angle_alpha 90.000000
_cell_angle_beta 100.321220
_cell_angle_gamma 90.000000
_cell_volume 792.690472
_symmetry_space_group_name_H-M "P 2/C"
_symmetry_group_IT_number 13
_symmetry_cell_setting 'monoclinic'
loop_
_space_group_symop_operation_xyz
x,y,z
-x,y,1/2-z
-x,-y,-z
x,-y,1/2+z
loop_
_atom_site_type_symbol
_atom_site_label
_atom_site_fract_x
_atom_site_fract_y
_atom_site_fract_z
Si Si1 0.500000 0.283944 0.250000
Si Si2 0.631228 0.333532 0.591592
Si Si3 0.729807 0.903354 0.186381
Si Si4 0.283579 0.446672 0.090416
Si Si5 0.000000 0.536106 0.250000
Si Si6 0.000000 0.127210 0.250000
O O1 0.512002 0.368853 0.157388
O O2 0.763286 0.205093 0.276372
O O3 0.620372 0.190693 0.601902
O O4 0.792264 0.373474 0.508540
O O5 0.378487 0.419876 0.567977
O O6 0.763910 0.381201 0.697654
O O7 0.500000 0.917800 0.250000
O O8 0.000000 0.850783 0.250000
O O9 0.844758 0.035236 0.167964
O O10 0.082957 0.460843 0.163505
#
# Coordination Sequence:
#
# PCOD9231790 Si02
#       6
#     2   4   4   4   2   2
#     4  12  22  44  64  94 138 180 216 278 328 400
#     4  11  23  40  64 100 133 169 222 274 338 410
#     4  10  20  41  68  92 125 175 226 278 321 375
#     4  11  25  38  64 100 134 174 214 272 348 404
#     4  12  18  42  62  92 136 172 210 268 332 406
#     4  10  22  42  70  88 128 186 236 258 330 384
#
# _framework density 22.707477000000001
#
# number of rings (size 3 to 8) (size 9 to 14) (size 15 to 20)
#    0.667    0.444    4.444    2.667    0.000    0.000 
#    0.000    2.222    0.000    0.000    0.000    0.000 
#    0.000    0.000    0.000    0.000    0.000    0.000 
#
# Total GULP energy -100266.685441 kJ/mol
# GULP energy per Si atom -5570.371413 kJ/mol
# Density = 2.265579 g / cm^3
# Si number density = 22.707477 Si / 1000 Ang^3
#
#
#
# Elastic Constant Matrix: (Units=GPa)
#
#
# Indices 1 2 3 4 5 6 
#
# 1 125.5773 36.0322 21.2494 0.0000 -18.0664 0.0000
# 2 36.0322 115.8874 18.6168 0.0000 -1.4331 0.0000
# 3 21.2494 18.6168 82.1158 0.0000 -10.1065 0.0000
# 4 0.0000 0.0000 0.0000 9.8797 0.0000 -19.6012
# 5 -18.0664 -1.4331 -10.1065 0.0000 30.5386 0.0000
# 6 0.0000 0.0000 0.0000 -19.6012 0.0000 -55.9214
#
#
#
# Elastic Compliance Matrix: (Units=1/GPa)
#
#
# Indices 1 2 3 4 5 6 
#
# 1 0.009714 -0.002755 -0.001248 0.000000 0.005204 0.000000
# 2 -0.002755 0.009739 -0.001709 0.000000 -0.001739 0.000000
# 3 -0.001248 -0.001709 0.013331 0.000000 0.003593 0.000000
# 4 0.000000 0.000000 0.000000 0.059701 0.000000 -0.020926
# 5 0.005204 -0.001739 0.003593 0.000000 0.036932 0.000000
# 6 0.000000 0.000000 0.000000 -0.020926 0.000000 -0.010547
#
#
# Mechanical properties :
#
#
# Convention : Reuss Voigt Hill
#
# Bulk Modulus (GPa) = 46.82137 52.81970 49.82053
# Shear Modulus (GPa) = 36.38673 13.41152 24.89912
#
# Velocity S-wave (km/s) = 4.00736 2.43291 3.31496
# Velocity P-wave (km/s) = 6.48660 5.58601 6.05308
#
# Compressibility (1/GPa) = 0.02135777
#
# Stress axis : x y z
#
# Youngs Moduli (GPa) = 102.94651 102.68210 75.01522
#
# Poissons Ratio (x) = 0.28292 0.09366
# Poissons Ratio (y) = 0.28365 0.12819
# Poissons Ratio (z) = 0.12853 0.17547
#
# Static dielectric constant tensor:
#      x y z
#    x 1.959120 0.000000 0.030070 
#    y 0.000000 1.937010 0.000000 
#    z 0.030070 0.000000 1.855680 
# 
# From -- ./inp_files/43369.got.cif
#   From: 2010.05.17/outbox.cif.g08.bks.cpg/sg13_22_cif.got.tgz:43369.got - 2010.06.03 16:44:36.
