data_PCOD9231203
_publ_section_title
;
Structure prediction by ZEFSAII (Michael W. Deem and Ramdas Pophale) SiO2 
 PCOD9231203
Probable space group: P 2/C
;
_chemical_formula_sum "Si O2"
_cell_formula_units_Z 28
_cell_length_a 20.406575
_cell_length_b 5.521724
_cell_length_c 13.334266
_cell_angle_alpha 90.000000
_cell_angle_beta 117.306093
_cell_angle_gamma 90.000000
_cell_volume 1335.072406
_symmetry_space_group_name_H-M "P 2/C"
_symmetry_group_IT_number 13
_symmetry_cell_setting 'monoclinic'
loop_
_space_group_symop_operation_xyz
x,y,z
-x,y,1/2-z
-x,-y,-z
x,-y,1/2+z
loop_
_atom_site_type_symbol
_atom_site_label
_atom_site_fract_x
_atom_site_fract_y
_atom_site_fract_z
Si Si1 0.500000 0.935198 0.750000
Si Si2 0.738200 0.738632 0.193135
Si Si3 0.455656 0.663253 0.891125
Si Si4 0.906038 0.415388 0.840897
Si Si5 0.983294 0.197858 0.071207
Si Si6 0.000000 0.896075 0.250000
Si Si7 0.325804 0.770954 0.936265
Si Si8 0.366061 0.285039 0.696283
O O1 0.516131 0.785607 0.861682
O O2 0.431732 0.092085 0.738468
O O3 0.823437 0.669684 0.267822
O O4 0.704521 0.487725 0.125626
O O5 0.699050 0.782119 0.273113
O O6 0.722473 0.985301 0.118480
O O7 0.400913 0.814448 0.924284
O O8 0.404616 0.520671 0.773907
O O9 0.500000 0.500000 0.000000
O O10 0.938198 0.683156 0.845411
O O11 0.953867 0.263535 0.794357
O O12 0.929428 0.376100 0.974102
O O13 0.951002 0.069210 0.145382
O O14 0.000000 0.000000 0.000000
O O15 0.339347 0.716333 0.062920
#
# Coordination Sequence:
#
# PCOD9231203 Si02
#       8
#     2   4   4   4   4   2   4   4
#     4  12  22  40  74  94 134 180 242 294 356 410
#     4  11  27  47  69 100 147 185 232 293 359 433
#     4  11  24  42  68 103 138 186 242 307 360 420
#     4  10  22  42  66 101 135 178 230 288 352 424
#     4   9  20  39  66  97 133 173 223 289 340 417
#     4  10  20  38  68  96 134 164 234 274 348 414
#     4  11  26  46  68 100 142 187 236 289 360 434
#     4  11  26  44  66 103 137 186 241 296 358 430
#
# _framework density 20.972645
#
# number of rings (size 3 to 8) (size 9 to 14) (size 15 to 20)
#    0.000    1.429    1.429    2.571   10.000    2.286 
#    7.714    0.000    0.000    0.000    0.000    0.000 
#    0.000    0.000    0.000    0.000    0.000    0.000 
#
# Total GULP energy -156021.998520 kJ/mol
# GULP energy per Si atom -5572.214233 kJ/mol
# Density = 2.092491 g / cm^3
# Si number density = 20.972645 Si / 1000 Ang^3
#
#
#
# Elastic Constant Matrix: (Units=GPa)
#
#
# Indices 1 2 3 4 5 6 
#
# 1 99.2360 25.6866 52.8450 0.0000 -4.8490 0.0000
# 2 25.6866 93.8871 48.7762 0.0000 -7.1430 0.0000
# 3 52.8450 48.7762 140.2247 0.0000 -27.6166 0.0000
# 4 0.0000 0.0000 0.0000 -101.7980 0.0000 -89.4264
# 5 -4.8490 -7.1430 -27.6166 0.0000 30.3970 0.0000
# 6 0.0000 0.0000 0.0000 -89.4264 0.0000 -34.0945
#
#
#
# Elastic Compliance Matrix: (Units=1/GPa)
#
#
# Indices 1 2 3 4 5 6 
#
# 1 0.012905 -0.001137 -0.005012 0.000000 -0.002762 0.000000
# 2 -0.001137 0.013142 -0.004348 0.000000 -0.001044 0.000000
# 3 -0.005012 -0.004348 0.012391 0.000000 0.009436 0.000000
# 4 0.000000 0.000000 0.000000 0.007532 0.000000 -0.019757
# 5 -0.002762 -0.001044 0.009436 0.000000 0.040785 0.000000
# 6 0.000000 0.000000 0.000000 -0.019757 0.000000 0.022490
#
#
# Mechanical properties :
#
#
# Convention : Reuss Voigt Hill
#
# Bulk Modulus (GPa) = 57.32755 65.32927 61.32841
# Shear Modulus (GPa) = 36.74967 -7.36308 14.69329
#
# Velocity S-wave (km/s) = 4.19055 -1.87575 2.64974
# Velocity P-wave (km/s) = 7.12798 5.15035 6.21829
#
# Compressibility (1/GPa) = 0.01744362
#
# Stress axis : x y z
#
# Youngs Moduli (GPa) = 77.48751 76.09297 80.70238
#
# Poissons Ratio (x) = 0.08653 0.40447
# Poissons Ratio (y) = 0.08811 0.35092
# Poissons Ratio (z) = 0.38836 0.33088
#
# Static dielectric constant tensor:
#      x y z
#    x 1.735250 0.000000 0.022590 
#    y 0.000000 1.870860 0.000000 
#    z 0.022590 0.000000 1.788570 
# 
# From -- ./inp_files/40162.got.cif
#   From: 2010.05.17/outbox.cif.g08.bks.cpg/sg13_21_cif.got.tgz:40162.got - 2010.06.03 16:44:36.
