data_PCOD9231047
_publ_section_title
;
Structure prediction by ZEFSAII (Michael W. Deem and Ramdas Pophale) SiO2 
 PCOD9231047
Probable space group: P 2/C
;
_chemical_formula_sum "Si O2"
_cell_formula_units_Z 16
_cell_length_a 6.935242
_cell_length_b 18.924024
_cell_length_c 8.361332
_cell_angle_alpha 90.000000
_cell_angle_beta 38.837550
_cell_angle_gamma 90.000000
_cell_volume 688.172595
_symmetry_space_group_name_H-M "P 2/C"
_symmetry_group_IT_number 13
_symmetry_cell_setting 'monoclinic'
loop_
_space_group_symop_operation_xyz
x,y,z
-x,y,1/2-z
-x,-y,-z
x,-y,1/2+z
loop_
_atom_site_type_symbol
_atom_site_label
_atom_site_fract_x
_atom_site_fract_y
_atom_site_fract_z
Si Si1 0.646025 0.718289 0.335898
Si Si2 0.857067 0.219859 0.169650
Si Si3 0.867461 0.928304 0.512639
Si Si4 0.371634 0.572162 0.510838
O O1 0.500000 0.727150 0.250000
O O2 0.501823 0.774173 0.553264
O O3 0.529167 0.643040 0.477959
O O4 0.000040 0.729155 0.058635
O O5 0.950347 0.141080 0.061489
O O6 0.000000 0.239235 0.250000
O O7 0.500000 0.933262 0.750000
O O8 0.000000 0.000000 0.500000
O O9 0.000000 0.919856 0.250000
O O10 0.500000 0.500000 0.500000
O O11 0.000000 0.576023 0.750000
O O12 0.500000 0.571990 0.250000
#
# Coordination Sequence:
#
# PCOD9231047 Si02
#       4
#     4   4   4   4
#     4   9  18  35  61  86 115 156 201 242 295 364
#     4  10  20  38  63  88 114 154 202 248 296 354
#     4  12  26  44  64  92 126 162 200 247 300 360
#     4  11  22  39  60  88 122 162 206 251 300 360
#
# _framework density 23.249980000000001
#
# number of rings (size 3 to 8) (size 9 to 14) (size 15 to 20)
#    0.000    1.500    0.000    7.500    0.000    3.000 
#    0.000    7.500    0.000    0.000    0.000    0.000 
#    0.000    0.000    0.000    0.000    0.000    0.000 
#
# Total GULP energy -89401.895073 kJ/mol
# GULP energy per Si atom -5587.618442 kJ/mol
# Density = 2.319706 g / cm^3
# Si number density = 23.249980 Si / 1000 Ang^3
#
#
#
# Elastic Constant Matrix: (Units=GPa)
#
#
# Indices 1 2 3 4 5 6 
#
# 1 44.3135 2.4204 39.0426 0.0000 -20.7566 0.0000
# 2 2.4204 153.8814 70.3439 0.0000 5.9307 0.0000
# 3 39.0426 70.3439 236.1876 0.0000 -8.1036 0.0000
# 4 0.0000 0.0000 0.0000 51.2791 0.0000 13.0231
# 5 -20.7566 5.9307 -8.1036 0.0000 34.2828 0.0000
# 6 0.0000 0.0000 0.0000 13.0231 0.0000 45.5350
#
#
#
# Elastic Compliance Matrix: (Units=1/GPa)
#
#
# Indices 1 2 3 4 5 6 
#
# 1 0.037564 0.001275 -0.005864 0.000000 0.021136 0.000000
# 2 0.001275 0.007684 -0.002539 0.000000 -0.001157 0.000000
# 3 -0.005864 -0.002539 0.005901 0.000000 -0.001716 0.000000
# 4 0.000000 0.000000 0.000000 0.021029 0.000000 -0.006014
# 5 0.021136 -0.001157 -0.001716 0.000000 0.041761 0.000000
# 6 0.000000 0.000000 0.000000 -0.006014 0.000000 0.023681
#
#
# Mechanical properties :
#
#
# Convention : Reuss Voigt Hill
#
# Bulk Modulus (GPa) = 27.10588 73.11069 50.10829
# Shear Modulus (GPa) = 30.45601 47.72442 39.09021
#
# Velocity S-wave (km/s) = 3.62323 4.53555 4.10482
# Velocity P-wave (km/s) = 5.40255 7.67737 6.63813
#
# Compressibility (1/GPa) = 0.03689236
#
# Stress axis : x y z
#
# Youngs Moduli (GPa) = 26.62148 130.14595 169.47593
#
# Poissons Ratio (x) = -0.16596 0.99381
# Poissons Ratio (y) = -0.03395 0.43029
# Poissons Ratio (z) = 0.15611 0.33043
#
# Static dielectric constant tensor:
#      x y z
#    x 1.968730 0.000000 -0.126860 
#    y 0.000000 1.978620 0.000000 
#    z -0.126860 0.000000 1.984450 
# 
# From -- ./inp_files/9288.got.cif
#   From: 2010.05.17/outbox.cif.g08.bks.cpg/sg13_5_cif.got.tgz:9288.got - 2010.06.03 16:44:36.
