data_PCOD9231768
_publ_section_title
;
Structure prediction by ZEFSAII (Michael W. Deem and Ramdas Pophale) SiO2 
 PCOD9231768
Probable space group: P 2/C
;
_chemical_formula_sum "Si O2"
_cell_formula_units_Z 18
_cell_length_a 5.515012
_cell_length_b 6.645449
_cell_length_c 18.121046
_cell_angle_alpha 90.000000
_cell_angle_beta 84.306092
_cell_angle_gamma 90.000000
_cell_volume 660.854719
_symmetry_space_group_name_H-M "P 2/C"
_symmetry_group_IT_number 13
_symmetry_cell_setting 'monoclinic'
loop_
_space_group_symop_operation_xyz
x,y,z
-x,y,1/2-z
-x,-y,-z
x,-y,1/2+z
loop_
_atom_site_type_symbol
_atom_site_label
_atom_site_fract_x
_atom_site_fract_y
_atom_site_fract_z
Si Si1 0.000000 0.725797 0.750000
Si Si2 0.604553 0.960104 0.319078
Si Si3 0.016089 0.335305 0.663834
Si Si4 0.072846 0.237551 0.991838
Si Si5 0.443221 0.801708 0.952839
O O1 0.784455 0.870688 0.780884
O O2 0.026282 0.568865 0.817108
O O3 0.500000 0.854212 0.250000
O O4 0.426451 0.098912 0.372566
O O5 0.733076 0.784478 0.362291
O O6 0.863285 0.279277 0.595975
O O7 0.000000 0.256106 0.750000
O O8 0.802788 0.318609 0.021618
O O9 0.292415 0.298598 0.039963
O O10 0.000000 0.000000 0.000000
O O11 0.500000 0.000000 0.000000
#
# Coordination Sequence:
#
# PCOD9231768 Si02
#       5
#     2   4   4   4   4
#     4  10  26  46  62 108 138 184 240 288 350 428
#     4  12  25  42  74  99 138 190 235 294 349 427
#     4  10  23  43  74  94 139 186 234 287 352 423
#     4  10  20  41  66 105 133 179 234 292 348 427
#     4  10  22  37  70 100 136 176 240 282 356 415
#
# _framework density 27.237456999999999
#
# number of rings (size 3 to 8) (size 9 to 14) (size 15 to 20)
#    0.667    0.889    5.556    0.000    9.333    0.889 
#    4.000    2.222    0.000    0.000    0.000    0.000 
#    0.000    0.000    0.000    0.000    0.000    0.000 
#
# Total GULP energy -100259.869781 kJ/mol
# GULP energy per Si atom -5569.992766 kJ/mol
# Density = 2.717546 g / cm^3
# Si number density = 27.237457 Si / 1000 Ang^3
#
#
#
# Elastic Constant Matrix: (Units=GPa)
#
#
# Indices 1 2 3 4 5 6 
#
# 1 151.5926 1.4338 15.3861 0.0000 -4.7750 0.0000
# 2 1.4338 113.8376 -7.1693 0.0000 -1.5529 0.0000
# 3 15.3861 -7.1693 138.7057 0.0000 5.4942 0.0000
# 4 0.0000 0.0000 0.0000 38.4733 0.0000 13.1423
# 5 -4.7750 -1.5529 5.4942 0.0000 44.7898 0.0000
# 6 0.0000 0.0000 0.0000 13.1423 0.0000 -1.4469
#
#
#
# Elastic Compliance Matrix: (Units=1/GPa)
#
#
# Indices 1 2 3 4 5 6 
#
# 1 0.006703 -0.000123 -0.000782 0.000000 0.000806 0.000000
# 2 -0.000123 0.008818 0.000460 0.000000 0.000236 0.000000
# 3 -0.000782 0.000460 0.007358 0.000000 -0.000970 0.000000
# 4 0.000000 0.000000 0.000000 0.006335 0.000000 0.057544
# 5 0.000806 0.000236 -0.000970 0.000000 0.022540 0.000000
# 6 0.000000 0.000000 0.000000 0.057544 0.000000 -0.168456
#
#
# Mechanical properties :
#
#
# Convention : Reuss Voigt Hill
#
# Bulk Modulus (GPa) = 45.47443 47.04857 46.26150
# Shear Modulus (GPa) = -46.09012 42.66226 -1.71393
#
# Velocity S-wave (km/s) = -4.11805 3.96196 -0.79412
# Velocity P-wave (km/s) = 2.42473 6.18388 4.02251
#
# Compressibility (1/GPa) = 0.02199038
#
# Stress axis : x y z
#
# Youngs Moduli (GPa) = 149.19743 113.40204 135.89860
#
# Poissons Ratio (x) = 0.01391 0.10624
# Poissons Ratio (y) = 0.01830 -0.06252
# Poissons Ratio (z) = 0.11664 -0.05217
#
# Static dielectric constant tensor:
#      x y z
#    x 2.825160 0.000000 0.129930 
#    y 0.000000 2.240850 0.000000 
#    z 0.129930 0.000000 2.207370 
# 
# From -- ./inp_files/60657.got.cif
#   From: 2010.05.17/outbox.cif.g08.bks.cpg/sg13_31_cif.got.tgz:60657.got - 2010.06.03 16:44:36.
