data_PCOD9231378
_publ_section_title
;
Structure prediction by ZEFSAII (Michael W. Deem and Ramdas Pophale) SiO2 
 PCOD9231378
Probable space group: P 2/C
;
_chemical_formula_sum "Si O2"
_cell_formula_units_Z 30
_cell_length_a 21.006630
_cell_length_b 9.481217
_cell_length_c 14.249031
_cell_angle_alpha 90.000000
_cell_angle_beta 32.623295
_cell_angle_gamma 90.000000
_cell_volume 1529.980226
_symmetry_space_group_name_H-M "P 2/C"
_symmetry_group_IT_number 13
_symmetry_cell_setting 'monoclinic'
loop_
_space_group_symop_operation_xyz
x,y,z
-x,y,1/2-z
-x,-y,-z
x,-y,1/2+z
loop_
_atom_site_type_symbol
_atom_site_label
_atom_site_fract_x
_atom_site_fract_y
_atom_site_fract_z
Si Si1 0.353529 0.406442 0.077788
Si Si2 0.460770 0.030568 0.154402
Si Si3 0.500000 0.781959 0.250000
Si Si4 0.149079 0.678989 0.158332
Si Si5 0.596905 0.694719 0.553429
Si Si6 0.254272 0.207902 0.345153
Si Si7 0.907917 0.584020 0.677748
Si Si8 0.040472 0.151902 0.481026
O O1 0.347509 0.313476 0.179403
O O2 0.216618 0.419534 0.220418
O O3 0.414640 0.319582 0.916951
O O4 0.400644 0.566581 0.024669
O O5 0.551871 0.150996 0.077992
O O6 0.331227 0.096580 0.306745
O O7 0.454794 0.892717 0.227085
O O8 0.500000 0.000000 0.000000
O O9 0.110507 0.514934 0.210455
O O10 0.052792 0.775014 0.331640
O O11 0.273887 0.698394 0.058851
O O12 0.171850 0.717155 0.023116
O O13 0.500000 0.648911 0.750000
O O14 0.167912 0.144876 0.373636
O O15 0.948121 0.745103 0.623685
O O16 0.000000 0.500000 0.500000
O O17 0.000000 0.000000 0.500000
#
# Coordination Sequence:
#
# PCOD9231378 Si02
#       8
#     4   4   2   4   4   4   4   4
#     4  10  22  38  63  89 124 163 214 259 312 382
#     4  12  25  40  60  92 132 168 209 259 317 388
#     4  12  22  40  62  90 132 172 204 266 322 376
#     4  10  20  39  65  87 123 164 209 262 310 373
#     4  11  21  40  63  89 122 167 206 249 323 376
#     4  11  22  39  61  92 125 165 217 260 318 372
#     4   8  18  38  61  87 114 158 211 249 309 366
#     4  10  22  38  66  91 122 167 209 257 318 381
#
# _framework density 19.608096
#
# number of rings (size 3 to 8) (size 9 to 14) (size 15 to 20)
#    0.000    1.600    4.000    0.400    1.867    2.667 
#    4.800    0.000    0.000   14.400    0.000    0.000 
#    0.000    0.000    0.000    0.000    0.000    0.000 
#
# Total GULP energy -167193.219663 kJ/mol
# GULP energy per Si atom -5573.107322 kJ/mol
# Density = 1.956347 g / cm^3
# Si number density = 19.608096 Si / 1000 Ang^3
#
#
#
# Elastic Constant Matrix: (Units=GPa)
#
#
# Indices 1 2 3 4 5 6 
#
# 1 53.5336 31.5154 15.7584 0.0000 -5.6019 0.0000
# 2 31.5154 122.3933 23.2696 0.0000 -4.4353 0.0000
# 3 15.7584 23.2696 80.9950 0.0000 -4.0505 0.0000
# 4 0.0000 0.0000 0.0000 32.8138 0.0000 4.6284
# 5 -5.6019 -4.4353 -4.0505 0.0000 35.1583 0.0000
# 6 0.0000 0.0000 0.0000 4.6284 0.0000 23.6905
#
#
#
# Elastic Compliance Matrix: (Units=1/GPa)
#
#
# Indices 1 2 3 4 5 6 
#
# 1 0.022882 -0.005262 -0.002807 0.000000 0.002659 0.000000
# 2 -0.005262 0.009875 -0.001803 0.000000 0.000200 0.000000
# 3 -0.002807 -0.001803 0.013455 0.000000 0.000875 0.000000
# 4 0.000000 0.000000 0.000000 0.031339 0.000000 -0.006123
# 5 0.002659 0.000200 0.000875 0.000000 0.028992 0.000000
# 6 0.000000 0.000000 0.000000 -0.006123 0.000000 0.043407
#
#
# Mechanical properties :
#
#
# Convention : Reuss Voigt Hill
#
# Bulk Modulus (GPa) = 37.78318 44.22321 41.00319
# Shear Modulus (GPa) = 28.00842 30.75776 29.38309
#
# Velocity S-wave (km/s) = 3.78353 3.96488 3.87527
# Velocity P-wave (km/s) = 6.19660 6.60022 6.40159
#
# Compressibility (1/GPa) = 0.02646680
#
# Stress axis : x y z
#
# Youngs Moduli (GPa) = 43.70223 101.26184 74.32453
#
# Poissons Ratio (x) = 0.53283 0.20865
# Poissons Ratio (y) = 0.22996 0.13404
# Poissons Ratio (z) = 0.12268 0.18262
#
# Static dielectric constant tensor:
#      x y z
#    x 1.699230 0.000000 -0.013260 
#    y 0.000000 1.734290 0.000000 
#    z -0.013260 0.000000 1.721350 
# 
# From -- ./inp_files/53140.got.cif
#   From: 2010.05.17/outbox.cif.g08.bks.cpg/sg13_27_cif.got.tgz:53140.got - 2010.06.03 16:44:36.
