data_PCOD9231771
_publ_section_title
;
Structure prediction by ZEFSAII (Michael W. Deem and Ramdas Pophale) SiO2 
 PCOD9231771
Probable space group: P 2/C
;
_chemical_formula_sum "Si O2"
_cell_formula_units_Z 20
_cell_length_a 9.535396
_cell_length_b 12.130966
_cell_length_c 10.550778
_cell_angle_alpha 90.000000
_cell_angle_beta 121.935399
_cell_angle_gamma 90.000000
_cell_volume 1035.725532
_symmetry_space_group_name_H-M "P 2/C"
_symmetry_group_IT_number 13
_symmetry_cell_setting 'monoclinic'
loop_
_space_group_symop_operation_xyz
x,y,z
-x,y,1/2-z
-x,-y,-z
x,-y,1/2+z
loop_
_atom_site_type_symbol
_atom_site_label
_atom_site_fract_x
_atom_site_fract_y
_atom_site_fract_z
Si Si1 0.320429 0.952966 0.429632
Si Si2 0.193088 0.716394 0.333607
Si Si3 0.162168 0.933941 0.621527
Si Si4 0.885506 0.499997 0.820837
Si Si5 0.697619 0.695481 0.838405
O O1 0.299167 0.826803 0.373283
O O2 0.280969 0.960358 0.559283
O O3 0.500000 0.000000 0.500000
O O4 0.205554 0.021851 0.280606
O O5 0.198380 0.620301 0.233354
O O6 0.248599 0.664588 0.493382
O O7 0.000000 0.751877 0.250000
O O8 0.187483 0.801595 0.639251
O O9 0.000000 0.000000 0.500000
O O10 0.000000 0.514169 0.750000
O O11 0.750258 0.595948 0.772355
O O12 0.000000 0.500000 0.000000
O O13 0.500000 0.719723 0.750000
#
# Coordination Sequence:
#
# PCOD9231771 Si02
#       5
#     4   4   4   4   4
#     4  11  22  40  63  92 129 167 209 267 328 381
#     4  10  20  41  66  88 131 173 212 258 334 381
#     4  11  23  40  65  91 126 170 218 259 321 389
#     4  11  22  42  70  96 125 172 225 264 318 399
#     4  11  23  42  64  95 134 172 212 273 336 380
#
# _framework density 19.310136
#
# number of rings (size 3 to 8) (size 9 to 14) (size 15 to 20)
#    0.000    1.200    4.000    6.000    0.000    2.400 
#    0.000    2.000    0.000    0.000    0.000    0.000 
#    0.000    0.000    0.000    0.000    0.000    0.000 
#
# Total GULP energy -111451.582319 kJ/mol
# GULP energy per Si atom -5572.579116 kJ/mol
# Density = 1.926619 g / cm^3
# Si number density = 19.310136 Si / 1000 Ang^3
#
#
#
# Elastic Constant Matrix: (Units=GPa)
#
#
# Indices 1 2 3 4 5 6 
#
# 1 64.8511 52.9697 4.6831 0.0000 14.0910 0.0000
# 2 52.9697 121.3383 1.7457 0.0000 9.3488 0.0000
# 3 4.6831 1.7457 78.2278 0.0000 1.7834 0.0000
# 4 0.0000 0.0000 0.0000 6.3556 0.0000 -22.1088
# 5 14.0910 9.3488 1.7834 0.0000 40.4242 0.0000
# 6 0.0000 0.0000 0.0000 -22.1088 0.0000 20.9876
#
#
#
# Elastic Compliance Matrix: (Units=1/GPa)
#
#
# Indices 1 2 3 4 5 6 
#
# 1 0.025610 -0.010670 -0.001149 0.000000 -0.006409 0.000000
# 2 -0.010670 0.012838 0.000335 0.000000 0.000736 0.000000
# 3 -0.001149 0.000335 0.012850 0.000000 -0.000244 0.000000
# 4 0.000000 0.000000 0.000000 -0.059052 0.000000 -0.062207
# 5 -0.006409 0.000736 -0.000244 0.000000 0.026812 0.000000
# 6 0.000000 0.000000 0.000000 -0.062207 0.000000 -0.017883
#
#
# Mechanical properties :
#
#
# Convention : Reuss Voigt Hill
#
# Bulk Modulus (GPa) = 35.29612 42.57936 38.93774
# Shear Modulus (GPa) = 148.87082 27.22140 88.04611
#
# Velocity S-wave (km/s) = 8.78988 3.75866 6.75979
# Velocity P-wave (km/s) = 11.01518 6.39804 9.00747
#
# Compressibility (1/GPa) = 0.02833173
#
# Stress axis : x y z
#
# Youngs Moduli (GPa) = 39.04661 77.89514 77.82082
#
# Poissons Ratio (x) = 0.83112 0.08941
# Poissons Ratio (y) = 0.41662 -0.02611
# Poissons Ratio (z) = 0.04486 -0.02613
#
# Static dielectric constant tensor:
#      x y z
#    x 1.680520 0.000000 0.019370 
#    y 0.000000 1.703680 0.000000 
#    z 0.019370 0.000000 1.714300 
# 
# From -- ./inp_files/29136.got.cif
#   From: 2010.05.17/outbox.cif.g08.bks.cpg/sg13_15_cif.got.tgz:29136.got - 2010.06.03 16:44:36.
