data_PCOD9231241
_publ_section_title
;
Structure prediction by ZEFSAII (Michael W. Deem and Ramdas Pophale) SiO2 
 PCOD9231241
Probable space group: P 2/C
;
_chemical_formula_sum "Si O2"
_cell_formula_units_Z 30
_cell_length_a 12.216541
_cell_length_b 10.778726
_cell_length_c 12.946537
_cell_angle_alpha 90.000000
_cell_angle_beta 63.373548
_cell_angle_gamma 90.000000
_cell_volume 1523.987070
_symmetry_space_group_name_H-M "P 2/C"
_symmetry_group_IT_number 13
_symmetry_cell_setting 'monoclinic'
loop_
_space_group_symop_operation_xyz
x,y,z
-x,y,1/2-z
-x,-y,-z
x,-y,1/2+z
loop_
_atom_site_type_symbol
_atom_site_label
_atom_site_fract_x
_atom_site_fract_y
_atom_site_fract_z
Si Si1 0.710715 0.454185 0.435567
Si Si2 0.912325 0.184042 0.655133
Si Si3 0.196098 0.809301 0.529351
Si Si4 0.000000 0.956169 0.750000
Si Si5 0.524621 0.446650 0.358450
Si Si6 0.533509 0.908286 0.121359
Si Si7 0.825864 0.716751 0.404964
Si Si8 0.426681 0.821713 0.959823
O O1 0.776974 0.328622 0.439102
O O2 0.663497 0.467086 0.337401
O O3 0.577328 0.464668 0.546417
O O4 0.788494 0.574086 0.432973
O O5 0.854374 0.188838 0.566749
O O6 0.838178 0.253051 0.777645
O O7 0.045924 0.247932 0.598372
O O8 0.935442 0.046712 0.692958
O O9 0.327703 0.876472 0.468991
O O10 0.100898 0.876876 0.645945
O O11 0.500000 0.463317 0.250000
O O12 0.493258 0.304362 0.400067
O O13 0.500000 0.866144 0.250000
O O14 0.447847 0.846040 0.072132
O O15 0.521701 0.056996 0.117602
O O16 0.716820 0.799564 0.497306
#
# Coordination Sequence:
#
# PCOD9231241 Si02
#       8
#     4   4   4   2   4   4   4   4
#     4  10  23  39  61  95 123 162 207 267 302 385
#     4  10  22  42  67  88 119 175 208 258 316 367
#     4  12  24  42  63  97 127 165 217 255 317 376
#     4  10  24  44  62  90 132 166 210 268 304 376
#     4  10  21  41  61  87 130 165 202 247 330 377
#     4  11  22  35  61  93 126 161 206 262 312 372
#     4   9  20  41  62  86 125 163 211 255 311 373
#     4  10  20  39  57  90 125 160 206 256 315 379
#
# _framework density 19.685206999999998
#
# number of rings (size 3 to 8) (size 9 to 14) (size 15 to 20)
#    0.000    1.867    1.333    3.200    1.867    3.200 
#    7.200    0.000    0.000    0.000    0.000    0.000 
#    0.000    0.000    0.000    0.000    0.000    0.000 
#
# Total GULP energy -167488.476591 kJ/mol
# GULP energy per Si atom -5582.949220 kJ/mol
# Density = 1.964040 g / cm^3
# Si number density = 19.685207 Si / 1000 Ang^3
#
#
#
# Elastic Constant Matrix: (Units=GPa)
#
#
# Indices 1 2 3 4 5 6 
#
# 1 70.5880 33.3792 7.9474 0.0000 11.3858 0.0000
# 2 33.3792 82.6097 15.4484 0.0000 1.7384 0.0000
# 3 7.9474 15.4484 46.9385 0.0000 9.5530 0.0000
# 4 0.0000 0.0000 0.0000 -2.0672 0.0000 4.1168
# 5 11.3858 1.7384 9.5530 0.0000 37.4940 0.0000
# 6 0.0000 0.0000 0.0000 4.1168 0.0000 15.9895
#
#
#
# Elastic Compliance Matrix: (Units=1/GPa)
#
#
# Indices 1 2 3 4 5 6 
#
# 1 0.018507 -0.007442 0.000410 0.000000 -0.005380 0.000000
# 2 -0.007442 0.015900 -0.004517 0.000000 0.002673 0.000000
# 3 0.000410 -0.004517 0.023946 0.000000 -0.006016 0.000000
# 4 0.000000 0.000000 0.000000 -0.319776 0.000000 0.082332
# 5 -0.005380 0.002673 -0.006016 0.000000 0.029714 0.000000
# 6 0.000000 0.000000 0.000000 0.082332 0.000000 0.041343
#
#
# Mechanical properties :
#
#
# Convention : Reuss Voigt Hill
#
# Bulk Modulus (GPa) = 28.36313 34.85403 31.60858
# Shear Modulus (GPa) = -32.15090 19.84065 -6.15512
#
# Velocity S-wave (km/s) = -4.04574 3.17818 -1.77019
# Velocity P-wave (km/s) = 2.71741 5.58676 3.45164
#
# Compressibility (1/GPa) = 0.03525703
#
# Stress axis : x y z
#
# Youngs Moduli (GPa) = 54.03325 62.89135 41.76029
#
# Poissons Ratio (x) = 0.46801 -0.01714
# Poissons Ratio (y) = 0.40209 0.18864
# Poissons Ratio (z) = -0.02218 0.28410
#
# Static dielectric constant tensor:
#      x y z
#    x 1.693190 0.000000 0.029010 
#    y 0.000000 1.684120 0.000000 
#    z 0.029010 0.000000 1.730850 
# 
# From -- ./inp_files/33812.got.cif
#   From: 2010.05.17/outbox.cif.g08.bks.cpg/sg13_17_cif.got.tgz:33812.got - 2010.06.03 16:44:36.
