data_PCOD9231180
_publ_section_title
;
Structure prediction by ZEFSAII (Michael W. Deem and Ramdas Pophale) SiO2 
 PCOD9231180
Probable space group: P 2/C
;
_chemical_formula_sum "Si O2"
_cell_formula_units_Z 30
_cell_length_a 11.471820
_cell_length_b 7.540054
_cell_length_c 14.144879
_cell_angle_alpha 90.000000
_cell_angle_beta 95.630910
_cell_angle_gamma 90.000000
_cell_volume 1217.601865
_symmetry_space_group_name_H-M "P 2/C"
_symmetry_group_IT_number 13
_symmetry_cell_setting 'monoclinic'
loop_
_space_group_symop_operation_xyz
x,y,z
-x,y,1/2-z
-x,-y,-z
x,-y,1/2+z
loop_
_atom_site_type_symbol
_atom_site_label
_atom_site_fract_x
_atom_site_fract_y
_atom_site_fract_z
Si Si1 0.731637 0.211005 0.494996
Si Si2 0.621835 0.481212 0.611223
Si Si3 0.069028 0.781262 0.839579
Si Si4 0.703216 0.030349 0.150870
Si Si5 0.527658 0.216923 0.361115
Si Si6 0.759915 0.288692 0.775058
Si Si7 0.000000 0.120272 0.750000
Si Si8 0.813599 0.587162 0.489654
O O1 0.629800 0.296573 0.556085
O O2 0.768327 0.050228 0.562689
O O3 0.657727 0.164376 0.398104
O O4 0.821066 0.371377 0.484566
O O5 0.499840 0.576787 0.616314
O O6 0.691398 0.444180 0.714146
O O7 0.699142 0.601606 0.547356
O O8 0.086057 0.677066 0.938572
O O9 0.000000 0.679923 0.750000
O O10 0.198908 0.828175 0.809877
O O11 0.997579 0.973609 0.664685
O O12 0.691369 0.887856 0.234900
O O13 0.577175 0.097261 0.107359
O O14 0.500000 0.204493 0.250000
O O15 0.886828 0.242979 0.740862
O O16 0.784537 0.330874 0.885900
#
# Coordination Sequence:
#
# PCOD9231180 Si02
#       8
#     4   4   4   4   4   4   2   4
#     4   9  21  38  62  87 125 166 204 260 321 366
#     4   9  21  39  59  87 128 162 203 271 308 363
#     4   9  19  38  64  88 126 171 203 256 325 359
#     4  10  20  41  59  87 132 166 201 275 313 368
#     4  12  22  37  61  94 124 166 214 257 326 382
#     4  10  20  41  63  89 125 168 216 254 326 376
#     4   8  20  38  64  86 136 162 200 276 306 360
#     4  10  20  38  67  90 118 174 209 255 319 384
#
# _framework density 24.638594999999999
#
# number of rings (size 3 to 8) (size 9 to 14) (size 15 to 20)
#    1.200    1.067    1.333    1.600    0.000    1.600 
#    3.600    2.667    0.000    0.000    0.000    0.000 
#    0.000    0.000    0.000    0.000    0.000    0.000 
#
# Total GULP energy -167050.914829 kJ/mol
# GULP energy per Si atom -5568.363828 kJ/mol
# Density = 2.458252 g / cm^3
# Si number density = 24.638595 Si / 1000 Ang^3
#
#
#
# Elastic Constant Matrix: (Units=GPa)
#
#
# Indices 1 2 3 4 5 6 
#
# 1 43.2927 21.7850 22.8864 0.0000 19.2029 0.0000
# 2 21.7850 64.5909 24.4936 0.0000 11.5721 0.0000
# 3 22.8864 24.4936 163.9768 0.0000 32.5275 0.0000
# 4 0.0000 0.0000 0.0000 -8.2687 0.0000 3.5217
# 5 19.2029 11.5721 32.5275 0.0000 32.5068 0.0000
# 6 0.0000 0.0000 0.0000 3.5217 0.0000 -0.3436
#
#
#
# Elastic Compliance Matrix: (Units=1/GPa)
#
#
# Indices 1 2 3 4 5 6 
#
# 1 0.035396 -0.008722 -0.000132 0.000000 -0.017673 0.000000
# 2 -0.008722 0.019040 -0.001627 0.000000 0.000003 0.000000
# 3 -0.000132 -0.001627 0.007772 0.000000 -0.007120 0.000000
# 4 0.000000 0.000000 0.000000 0.035941 0.000000 0.368345
# 5 -0.017673 0.000003 -0.007120 0.000000 0.048327 0.000000
# 6 0.000000 0.000000 0.000000 0.368345 0.000000 0.864863
#
#
# Mechanical properties :
#
#
# Convention : Reuss Voigt Hill
#
# Bulk Modulus (GPa) = 24.24428 45.57669 34.91049
# Shear Modulus (GPa) = 4.77988 18.29192 11.53590
#
# Velocity S-wave (km/s) = 1.39435 2.72767 2.16615
# Velocity P-wave (km/s) = 3.52897 5.33465 4.52284
#
# Compressibility (1/GPa) = 0.04124684
#
# Stress axis : x y z
#
# Youngs Moduli (GPa) = 28.25159 52.51984 128.66253
#
# Poissons Ratio (x) = 0.45808 0.01695
# Poissons Ratio (y) = 0.24641 0.20937
# Poissons Ratio (z) = 0.00372 0.08546
#
# Static dielectric constant tensor:
#      x y z
#    x 1.972900 0.000000 -0.014020 
#    y 0.000000 2.056880 0.000000 
#    z -0.014020 0.000000 2.045040 
# 
# From -- ./inp_files/52798.got.cif
#   From: 2010.05.17/outbox.cif.g08.bks.cpg/sg13_27_cif.got.tgz:52798.got - 2010.06.03 16:44:36.
