data_PCOD9231392
_publ_section_title
;
Structure prediction by ZEFSAII (Michael W. Deem and Ramdas Pophale) SiO2 
 PCOD9231392
Probable space group: P 2/C
;
_chemical_formula_sum "Si O2"
_cell_formula_units_Z 24
_cell_length_a 14.648628
_cell_length_b 9.533171
_cell_length_c 14.089937
_cell_angle_alpha 90.000000
_cell_angle_beta 34.727518
_cell_angle_gamma 90.000000
_cell_volume 1120.908145
_symmetry_space_group_name_H-M "P 2/C"
_symmetry_group_IT_number 13
_symmetry_cell_setting 'monoclinic'
loop_
_space_group_symop_operation_xyz
x,y,z
-x,y,1/2-z
-x,-y,-z
x,-y,1/2+z
loop_
_atom_site_type_symbol
_atom_site_label
_atom_site_fract_x
_atom_site_fract_y
_atom_site_fract_z
Si Si1 0.855882 0.906861 0.668883
Si Si2 0.141960 0.352911 0.199856
Si Si3 0.671564 0.571018 0.338148
Si Si4 0.781043 0.836828 0.345030
Si Si5 0.319867 0.534747 0.385620
Si Si6 0.840457 0.764102 0.494141
O O1 0.901010 0.789501 0.708457
O O2 0.780665 0.821593 0.645910
O O3 0.752626 0.021380 0.812312
O O4 0.000000 0.000000 0.500000
O O5 0.192939 0.468173 0.233934
O O6 0.000000 0.392181 0.250000
O O7 0.285265 0.356245 0.000218
O O8 0.500000 0.500000 0.500000
O O9 0.675274 0.713174 0.394054
O O10 0.700217 0.596419 0.202387
O O11 0.769318 0.852132 0.467652
O O12 0.966798 0.785002 0.171080
O O13 0.500000 0.484272 0.250000
O O14 0.209511 0.395815 0.481742
#
# Coordination Sequence:
#
# PCOD9231392 Si02
#       6
#     4   4   4   4   4   4
#     4  10  24  41  64  97 138 179 215 286 346 410
#     4  12  26  41  69 105 137 175 234 287 338 411
#     4  12  24  44  68 100 139 178 230 287 344 401
#     4  10  22  39  65  94 131 174 225 274 337 408
#     4  12  24  41  70  99 137 177 227 290 345 396
#     4  10  20  39  65  94 131 173 224 272 344 402
#
# _framework density 21.411210000000001
#
# number of rings (size 3 to 8) (size 9 to 14) (size 15 to 20)
#    0.000    1.000    5.000    1.000    9.333    1.333 
#    0.000    0.833    0.000    0.000    0.000    0.000 
#    0.000    0.000    0.000    0.000    0.000    0.000 
#
# Total GULP energy -133993.287666 kJ/mol
# GULP energy per Si atom -5583.053653 kJ/mol
# Density = 2.136248 g / cm^3
# Si number density = 21.411210 Si / 1000 Ang^3
#
#
#
# Elastic Constant Matrix: (Units=GPa)
#
#
# Indices 1 2 3 4 5 6 
#
# 1 132.7366 52.2429 35.9717 0.0000 31.3191 0.0000
# 2 52.2429 95.3086 24.7818 0.0000 5.9839 0.0000
# 3 35.9717 24.7818 46.0052 0.0000 27.5132 0.0000
# 4 0.0000 0.0000 0.0000 14.0558 0.0000 1.7217
# 5 31.3191 5.9839 27.5132 0.0000 38.0081 0.0000
# 6 0.0000 0.0000 0.0000 1.7217 0.0000 11.3632
#
#
#
# Elastic Compliance Matrix: (Units=1/GPa)
#
#
# Indices 1 2 3 4 5 6 
#
# 1 0.012080 -0.005688 -0.001700 0.000000 -0.007828 0.000000
# 2 -0.005688 0.015444 -0.009206 0.000000 0.008920 0.000000
# 3 -0.001700 -0.009206 0.046413 0.000000 -0.030747 0.000000
# 4 0.000000 0.000000 0.000000 0.072491 0.000000 -0.010984
# 5 -0.007828 0.008920 -0.030747 0.000000 0.053614 0.000000
# 6 0.000000 0.000000 0.000000 -0.010984 0.000000 0.089668
#
#
# Mechanical properties :
#
#
# Convention : Reuss Voigt Hill
#
# Bulk Modulus (GPa) = 24.54035 55.56034 40.05035
# Shear Modulus (GPa) = 14.85972 23.42235 19.14103
#
# Velocity S-wave (km/s) = 2.63728 3.31105 2.99318
# Velocity P-wave (km/s) = 4.55631 6.37361 5.53999
#
# Compressibility (1/GPa) = 0.04074921
#
# Stress axis : x y z
#
# Youngs Moduli (GPa) = 82.77979 64.75063 21.54563
#
# Poissons Ratio (x) = 0.36832 0.03662
# Poissons Ratio (y) = 0.47087 0.19835
# Poissons Ratio (z) = 0.14071 0.59609
#
# Static dielectric constant tensor:
#      x y z
#    x 1.809090 0.000000 -0.021880 
#    y 0.000000 1.760120 0.000000 
#    z -0.021880 0.000000 1.928290 
# 
# From -- ./inp_files/52883.got.cif
#   From: 2010.05.17/outbox.cif.g08.bks.cpg/sg13_27_cif.got.tgz:52883.got - 2010.06.03 16:44:36.
