data_PCOD9231035
_publ_section_title
;
Structure prediction by ZEFSAII (Michael W. Deem and Ramdas Pophale) SiO2 
 PCOD9231035
Probable space group: P 2/C
;
_chemical_formula_sum "Si O2"
_cell_formula_units_Z 26
_cell_length_a 9.414767
_cell_length_b 23.043765
_cell_length_c 10.208740
_cell_angle_alpha 90.000000
_cell_angle_beta 39.379795
_cell_angle_gamma 90.000000
_cell_volume 1405.199599
_symmetry_space_group_name_H-M "P 2/C"
_symmetry_group_IT_number 13
_symmetry_cell_setting 'monoclinic'
loop_
_space_group_symop_operation_xyz
x,y,z
-x,y,1/2-z
-x,-y,-z
x,-y,1/2+z
loop_
_atom_site_type_symbol
_atom_site_label
_atom_site_fract_x
_atom_site_fract_y
_atom_site_fract_z
Si Si1 0.072587 0.927272 0.556861
Si Si2 0.481474 0.553255 0.112037
Si Si3 0.801540 0.654500 0.791654
Si Si4 0.439917 0.732072 0.146093
Si Si5 0.644253 0.027142 0.275907
Si Si6 0.500000 0.156009 0.750000
Si Si7 0.080720 0.641147 0.340429
O O1 0.266882 0.878700 0.437872
O O2 0.000000 0.951699 0.750000
O O3 0.821279 0.920645 0.677476
O O4 0.203582 0.973036 0.375942
O O5 0.500000 0.534892 0.250000
O O6 0.255218 0.589952 0.249777
O O7 0.500000 0.500000 0.000000
O O8 0.677393 0.598822 0.939748
O O9 0.000000 0.669887 0.750000
O O10 0.888311 0.640391 0.585937
O O11 0.628536 0.707582 0.916335
O O12 0.500000 0.707972 0.250000
O O13 0.451241 0.800507 0.163047
O O14 0.210551 0.702305 0.267508
O O15 0.500000 0.041371 0.250000
O O16 0.500000 0.000000 0.500000
O O17 0.000000 0.635124 0.250000
#
# Coordination Sequence:
#
# PCOD9231035 Si02
#       7
#     4   4   4   4   4   2   4
#     4  11  21  35  62  93 126 165 214 261 310 378
#     4  11  25  39  56  88 125 155 201 247 303 371
#     4  11  18  39  64  85 110 159 199 242 302 371
#     4   9  20  37  63  87 113 147 203 253 296 371
#     4  11  21  38  60  91 127 171 213 253 306 373
#     4  10  20  38  62  98 122 154 218 264 326 374
#     4  11  23  39  62  90 116 156 202 247 310 375
#
# _framework density 18.50271
#
# number of rings (size 3 to 8) (size 9 to 14) (size 15 to 20)
#    0.462    0.923    5.385    0.923    2.154    4.923 
#    0.000    0.000    6.769    0.000    0.000    0.000 
#    0.000    0.000    0.000    0.000    0.000    0.000 
#
# Total GULP energy -144739.304969 kJ/mol
# GULP energy per Si atom -5566.896345 kJ/mol
# Density = 1.846060 g / cm^3
# Si number density = 18.502710 Si / 1000 Ang^3
#
#
#
# Elastic Constant Matrix: (Units=GPa)
#
#
# Indices 1 2 3 4 5 6 
#
# 1 112.1858 11.7837 43.3649 0.0000 10.4132 0.0000
# 2 11.7837 68.4182 36.6559 0.0000 -3.9752 0.0000
# 3 43.3649 36.6559 157.7365 0.0000 13.1089 0.0000
# 4 0.0000 0.0000 0.0000 11.6583 0.0000 3.9724
# 5 10.4132 -3.9752 13.1089 0.0000 33.4462 0.0000
# 6 0.0000 0.0000 0.0000 3.9724 0.0000 18.9166
#
#
#
# Elastic Compliance Matrix: (Units=1/GPa)
#
#
# Indices 1 2 3 4 5 6 
#
# 1 0.010136 -0.000553 -0.002471 0.000000 -0.002253 0.000000
# 2 -0.000553 0.017160 -0.004155 0.000000 0.003840 0.000000
# 3 -0.002471 -0.004155 0.008230 0.000000 -0.002950 0.000000
# 4 0.000000 0.000000 0.000000 0.092386 0.000000 -0.019401
# 5 -0.002253 0.003840 -0.002950 0.000000 0.032213 0.000000
# 6 0.000000 0.000000 0.000000 -0.019401 0.000000 0.056938
#
#
# Mechanical properties :
#
#
# Convention : Reuss Voigt Hill
#
# Bulk Modulus (GPa) = 47.23944 57.99439 52.61692
# Shear Modulus (GPa) = 20.96640 29.23996 25.10318
#
# Velocity S-wave (km/s) = 3.36989 3.97962 3.68738
# Velocity P-wave (km/s) = 6.38185 7.24764 6.82848
#
# Compressibility (1/GPa) = 0.02116875
#
# Stress axis : x y z
#
# Youngs Moduli (GPa) = 98.65732 58.27352 121.51062
#
# Poissons Ratio (x) = 0.03222 0.30024
# Poissons Ratio (y) = 0.05454 0.50488
# Poissons Ratio (z) = 0.24377 0.24213
#
# Static dielectric constant tensor:
#      x y z
#    x 1.670920 0.000000 0.009030 
#    y 0.000000 1.653380 0.000000 
#    z 0.009030 0.000000 1.604690 
# 
# From -- ./inp_files/13904.got.cif
#   From: 2010.05.17/outbox.cif.g08.bks.cpg/sg13_7_cif.got.tgz:13904.got - 2010.06.03 16:44:36.
