data_PCOD9231765
_publ_section_title
;
Structure prediction by ZEFSAII (Michael W. Deem and Ramdas Pophale) SiO2 
 PCOD9231765
Probable space group: P 2/C
;
_chemical_formula_sum "Si O2"
_cell_formula_units_Z 22
_cell_length_a 15.112863
_cell_length_b 8.850609
_cell_length_c 24.911943
_cell_angle_alpha 90.000000
_cell_angle_beta 18.845893
_cell_angle_gamma 90.000000
_cell_volume 1076.371230
_symmetry_space_group_name_H-M "P 2/C"
_symmetry_group_IT_number 13
_symmetry_cell_setting 'monoclinic'
loop_
_space_group_symop_operation_xyz
x,y,z
-x,y,1/2-z
-x,-y,-z
x,-y,1/2+z
loop_
_atom_site_type_symbol
_atom_site_label
_atom_site_fract_x
_atom_site_fract_y
_atom_site_fract_z
Si Si1 0.194726 0.386319 0.731650
Si Si2 0.500000 0.701665 0.750000
Si Si3 0.753660 0.701069 0.855913
Si Si4 0.189449 0.440254 0.343925
Si Si5 0.187415 0.131909 0.510616
Si Si6 0.242606 0.865020 0.757102
O O1 0.149199 0.535374 0.721417
O O2 0.479881 0.317803 0.547618
O O3 0.224272 0.446360 0.775405
O O4 0.956506 0.262150 0.870778
O O5 0.536173 0.596952 0.780986
O O6 0.743986 0.807074 0.588943
O O7 0.687655 0.799530 0.841576
O O8 0.000000 0.765877 0.750000
O O9 0.110228 0.277361 0.365013
O O10 0.000000 0.500000 0.500000
O O11 0.479062 0.091628 0.370835
O O12 0.973631 0.997389 0.626623
#
# Coordination Sequence:
#
# PCOD9231765 Si02
#       6
#     4   2   4   4   4   4
#     4  10  23  40  68  94 133 172 215 283 329 386
#     4  10  22  40  68  98 142 166 220 272 334 392
#     4  10  24  42  66  98 128 171 230 270 332 392
#     4  10  20  41  65  98 125 170 218 273 329 391
#     4  11  24  45  66  96 137 178 218 272 333 393
#     4  10  26  44  66  96 135 175 223 269 330 396
#
# _framework density 20.439045
#
# number of rings (size 3 to 8) (size 9 to 14) (size 15 to 20)
#    0.000    1.818    1.818    0.000   12.727    3.636 
#    0.000    0.000    0.000    0.000    0.000    0.000 
#    0.000    0.000    0.000    0.000    0.000    0.000 
#
# Total GULP energy -122736.662870 kJ/mol
# GULP energy per Si atom -5578.939221 kJ/mol
# Density = 2.039253 g / cm^3
# Si number density = 20.439045 Si / 1000 Ang^3
#
#
#
# Elastic Constant Matrix: (Units=GPa)
#
#
# Indices 1 2 3 4 5 6 
#
# 1 116.7357 29.9341 47.2383 0.0000 3.6869 0.0000
# 2 29.9341 74.4374 61.4601 0.0000 -5.2349 0.0000
# 3 47.2383 61.4601 126.2098 0.0000 18.1003 0.0000
# 4 0.0000 0.0000 0.0000 28.3107 0.0000 -7.9120
# 5 3.6869 -5.2349 18.1003 0.0000 36.6589 0.0000
# 6 0.0000 0.0000 0.0000 -7.9120 0.0000 9.2573
#
#
#
# Elastic Compliance Matrix: (Units=1/GPa)
#
#
# Indices 1 2 3 4 5 6 
#
# 1 0.010209 -0.001492 -0.003139 0.000000 0.000310 0.000000
# 2 -0.001492 0.026049 -0.013648 0.000000 0.010608 0.000000
# 3 -0.003139 -0.013648 0.017196 0.000000 -0.010124 0.000000
# 4 0.000000 0.000000 0.000000 0.046407 0.000000 0.039663
# 5 0.000310 0.010608 -0.010124 0.000000 0.033761 0.000000
# 6 0.000000 0.000000 0.000000 0.039663 0.000000 0.141922
#
#
# Mechanical properties :
#
#
# Convention : Reuss Voigt Hill
#
# Bulk Modulus (GPa) = 59.18411 66.07198 62.62805
# Shear Modulus (GPa) = 15.73641 26.76207 21.24924
#
# Velocity S-wave (km/s) = 2.77775 3.62243 3.22784
# Velocity P-wave (km/s) = 6.26954 7.06347 6.67831
#
# Compressibility (1/GPa) = 0.01689643
#
# Stress axis : x y z
#
# Youngs Moduli (GPa) = 97.94865 38.38981 58.15226
#
# Poissons Ratio (x) = 0.05727 0.18255
# Poissons Ratio (y) = 0.14612 0.79365
# Poissons Ratio (z) = 0.30748 0.52394
#
# Static dielectric constant tensor:
#      x y z
#    x 1.804830 0.000000 -0.060480 
#    y 0.000000 1.778470 0.000000 
#    z -0.060480 0.000000 1.775000 
# 
# From -- ./inp_files/87251.got.cif
#   From: 2010.05.17/outbox.cif.g08.bks.cpg/sg13_44_cif.got.tgz:87251.got - 2010.06.03 16:44:36.
