data_PCOD9231459
_publ_section_title
;
Structure prediction by ZEFSAII (Michael W. Deem and Ramdas Pophale) SiO2 
 PCOD9231459
Probable space group: P 2/C
;
_chemical_formula_sum "Si O2"
_cell_formula_units_Z 30
_cell_length_a 13.524387
_cell_length_b 5.559917
_cell_length_c 15.971024
_cell_angle_alpha 90.000000
_cell_angle_beta 109.103313
_cell_angle_gamma 90.000000
_cell_volume 1134.797298
_symmetry_space_group_name_H-M "P 2/C"
_symmetry_group_IT_number 13
_symmetry_cell_setting 'monoclinic'
loop_
_space_group_symop_operation_xyz
x,y,z
-x,y,1/2-z
-x,-y,-z
x,-y,1/2+z
loop_
_atom_site_type_symbol
_atom_site_label
_atom_site_fract_x
_atom_site_fract_y
_atom_site_fract_z
Si Si1 0.948364 0.654036 0.096938
Si Si2 0.500000 0.235207 0.750000
Si Si3 0.782811 0.768069 0.182914
Si Si4 0.017726 0.847488 0.853748
Si Si5 0.281290 0.004596 0.162293
Si Si6 0.387764 0.916242 0.939949
Si Si7 0.353441 0.389785 0.279041
Si Si8 0.218910 0.310328 0.492763
O O1 0.892777 0.715680 0.170375
O O2 0.019958 0.414185 0.121789
O O3 0.847068 0.559595 0.014963
O O4 0.005478 0.909258 0.099954
O O5 0.599339 0.093486 0.811131
O O6 0.556614 0.414117 0.701799
O O7 0.774587 0.930767 0.264729
O O8 0.742409 0.511318 0.201591
O O9 0.696618 0.869675 0.093780
O O10 0.141758 0.812127 0.903364
O O11 0.000000 0.855366 0.750000
O O12 0.306875 0.287268 0.179481
O O13 0.222728 0.865615 0.073053
O O14 0.398412 0.818900 0.848752
O O15 0.333685 0.712197 0.983365
O O16 0.500000 0.000000 0.000000
#
# Coordination Sequence:
#
# PCOD9231459 Si02
#       8
#     4   2   4   4   4   4   4   4
#     4  10  20  40  67  93 124 160 206 257 319 379
#     4  10  22  34  52  76 114 164 218 250 306 358
#     4  10  20  40  55  85 119 170 205 251 313 379
#     4  10  21  39  69  98 126 157 205 264 327 385
#     4  10  23  37  56  84 120 166 212 258 316 373
#     4  11  23  35  57  85 122 164 216 263 307 369
#     4  10  21  37  53  74 115 167 208 256 308 364
#     4  10  23  38  61  95 123 161 213 269 312 372
#
# _framework density 26.436440000000001
#
# number of rings (size 3 to 8) (size 9 to 14) (size 15 to 20)
#    0.800    1.067    2.667    0.800    9.333    3.733 
#    0.000    0.000    0.000    1.600    0.000    0.000 
#    0.000    0.000    0.000    0.000    0.000    0.000 
#
# Total GULP energy -167364.814868 kJ/mol
# GULP energy per Si atom -5578.827162 kJ/mol
# Density = 2.637627 g / cm^3
# Si number density = 26.436440 Si / 1000 Ang^3
#
#
#
# Elastic Constant Matrix: (Units=GPa)
#
#
# Indices 1 2 3 4 5 6 
#
# 1 108.2703 -2.0462 26.0628 0.0000 2.2003 0.0000
# 2 -2.0462 118.1137 -8.4834 0.0000 3.0326 0.0000
# 3 26.0628 -8.4834 70.2705 0.0000 12.7313 0.0000
# 4 0.0000 0.0000 0.0000 14.4859 0.0000 6.7334
# 5 2.2003 3.0326 12.7313 0.0000 34.4951 0.0000
# 6 0.0000 0.0000 0.0000 6.7334 0.0000 -11.1918
#
#
#
# Elastic Compliance Matrix: (Units=1/GPa)
#
#
# Indices 1 2 3 4 5 6 
#
# 1 0.010164 -0.000127 -0.003933 0.000000 0.000814 0.000000
# 2 -0.000127 0.008590 0.001307 0.000000 -0.001229 0.000000
# 3 -0.003933 0.001307 0.016956 0.000000 -0.006122 0.000000
# 4 0.000000 0.000000 0.000000 0.053946 0.000000 0.032456
# 5 0.000814 -0.001229 -0.006122 0.000000 0.031305 0.000000
# 6 0.000000 0.000000 0.000000 0.032456 0.000000 -0.069824
#
#
# Mechanical properties :
#
#
# Convention : Reuss Voigt Hill
#
# Bulk Modulus (GPa) = 33.10839 36.41346 34.76093
# Shear Modulus (GPa) = 74.95005 26.29925 50.62465
#
# Velocity S-wave (km/s) = 5.33035 3.15748 4.38077
# Velocity P-wave (km/s) = 7.10172 5.20546 6.22620
#
# Compressibility (1/GPa) = 0.03020382
#
# Stress axis : x y z
#
# Youngs Moduli (GPa) = 98.38798 116.41926 58.97528
#
# Poissons Ratio (x) = 0.01482 0.23193
# Poissons Ratio (y) = 0.01252 -0.07708
# Poissons Ratio (z) = 0.38692 -0.15215
#
# Static dielectric constant tensor:
#      x y z
#    x 2.068560 0.000000 -0.020870 
#    y 0.000000 2.232290 0.000000 
#    z -0.020870 0.000000 2.125670 
# 
# From -- ./inp_files/69179.got.cif
#   From: 2010.05.17/outbox.cif.g08.bks.cpg/sg13_35_cif.got.tgz:69179.got - 2010.06.03 16:44:36.
