data_PCOD9231480
_publ_section_title
;
Structure prediction by ZEFSAII (Michael W. Deem and Ramdas Pophale) SiO2 
 PCOD9231480
Probable space group: P 2/C
;
_chemical_formula_sum "Si O2"
_cell_formula_units_Z 28
_cell_length_a 28.449094
_cell_length_b 9.158238
_cell_length_c 9.800298
_cell_angle_alpha 90.000000
_cell_angle_beta 38.825246
_cell_angle_gamma 90.000000
_cell_volume 1600.849770
_symmetry_space_group_name_H-M "P 2/C"
_symmetry_group_IT_number 13
_symmetry_cell_setting 'monoclinic'
loop_
_space_group_symop_operation_xyz
x,y,z
-x,y,1/2-z
-x,-y,-z
x,-y,1/2+z
loop_
_atom_site_type_symbol
_atom_site_label
_atom_site_fract_x
_atom_site_fract_y
_atom_site_fract_z
Si Si1 0.957540 0.687255 0.976146
Si Si2 0.200331 0.855181 0.746575
Si Si3 0.340495 0.654952 0.434241
Si Si4 0.809368 0.147564 0.906823
Si Si5 0.669299 0.640079 0.720117
Si Si6 0.495653 0.645531 0.420328
Si Si7 0.061047 0.648591 0.000699
O O1 0.000000 0.753391 0.750000
O O2 0.021446 0.668617 0.945276
O O3 0.887891 0.776366 0.191214
O O4 0.927412 0.525153 0.005603
O O5 0.278707 0.774896 0.542741
O O6 0.135035 0.742699 0.851378
O O7 0.195896 0.001535 0.669469
O O8 0.193212 0.882884 0.925100
O O9 0.330620 0.612249 0.616560
O O10 0.328451 0.511710 0.368205
O O11 0.424721 0.719591 0.226987
O O12 0.739767 0.255980 0.031408
O O13 0.587393 0.710598 0.870874
O O14 0.500000 0.608686 0.250000
O O15 0.500000 0.500000 0.500000
O O16 0.000000 0.696482 0.250000
#
# Coordination Sequence:
#
# PCOD9231480 Si02
#       7
#     4   4   4   4   4   4   4
#     4  10  22  38  62  84 104 134 177 223 272 319
#     4  11  24  38  54  76 112 147 181 219 261 316
#     4   9  18  34  56  83 109 139 177 221 268 315
#     4  11  24  39  52  78 111 146 182 217 264 317
#     4   9  18  34  57  82 109 138 178 222 266 317
#     4   8  14  28  53  81 107 135 170 218 268 312
#     4  10  20  40  60  81 107 135 175 223 269 318
#
# _framework density 17.49071
#
# number of rings (size 3 to 8) (size 9 to 14) (size 15 to 20)
#    0.000    2.286    1.429    0.857    2.000    2.286 
#    0.000    0.714    0.000    0.000    0.000    0.000 
#    0.000    0.000    0.000    0.000    0.000    0.000 
#
# Total GULP energy -156011.505012 kJ/mol
# GULP energy per Si atom -5571.839465 kJ/mol
# Density = 1.745090 g / cm^3
# Si number density = 17.490710 Si / 1000 Ang^3
#
#
#
# Elastic Constant Matrix: (Units=GPa)
#
#
# Indices 1 2 3 4 5 6 
#
# 1 80.8858 40.5035 35.1789 0.0000 -19.9872 0.0000
# 2 40.5035 63.7812 33.6944 0.0000 -11.9117 0.0000
# 3 35.1789 33.6944 86.3550 0.0000 -17.1985 0.0000
# 4 0.0000 0.0000 0.0000 10.6682 0.0000 12.3406
# 5 -19.9872 -11.9117 -17.1985 0.0000 27.9690 0.0000
# 6 0.0000 0.0000 0.0000 12.3406 0.0000 5.1383
#
#
#
# Elastic Compliance Matrix: (Units=1/GPa)
#
#
# Indices 1 2 3 4 5 6 
#
# 1 0.020818 -0.010098 -0.002774 0.000000 0.008871 0.000000
# 2 -0.010098 0.025087 -0.005680 0.000000 -0.000025 0.000000
# 3 -0.002774 -0.005680 0.016011 0.000000 0.005444 0.000000
# 4 0.000000 0.000000 0.000000 -0.052714 0.000000 0.126604
# 5 0.008871 -0.000025 0.005444 0.000000 0.045430 0.000000
# 6 0.000000 0.000000 0.000000 0.126604 0.000000 -0.109446
#
#
# Mechanical properties :
#
#
# Convention : Reuss Voigt Hill
#
# Bulk Modulus (GPa) = 40.30309 49.97506 45.13908
# Shear Modulus (GPa) = -529.69354 16.86477 -256.41439
#
# Velocity S-wave (km/s) = -17.42126 3.10855 -12.12100
# Velocity P-wave (km/s) = 19.53393 6.44348 13.03948
#
# Compressibility (1/GPa) = 0.02481199
#
# Stress axis : x y z
#
# Youngs Moduli (GPa) = 48.03478 39.86077 62.45901
#
# Poissons Ratio (x) = 0.40252 0.17326
# Poissons Ratio (y) = 0.48507 0.35475
# Poissons Ratio (z) = 0.13325 0.22640
#
# Static dielectric constant tensor:
#      x y z
#    x 1.617060 0.000000 -0.012740 
#    y 0.000000 1.555420 0.000000 
#    z -0.012740 0.000000 1.619500 
# 
# From -- ./inp_files/24527.got.cif
#   From: 2010.05.17/outbox.cif.g08.bks.cpg/sg13_13_cif.got.tgz:24527.got - 2010.06.03 16:44:36.
