data_PCOD9231642
_publ_section_title
;
Structure prediction by ZEFSAII (Michael W. Deem and Ramdas Pophale) SiO2 
 PCOD9231642
Probable space group: P 2/C
;
_chemical_formula_sum "Si O2"
_cell_formula_units_Z 28
_cell_length_a 5.894208
_cell_length_b 18.698058
_cell_length_c 13.751871
_cell_angle_alpha 90.000000
_cell_angle_beta 63.922862
_cell_angle_gamma 90.000000
_cell_volume 1361.313885
_symmetry_space_group_name_H-M "P 2/C"
_symmetry_group_IT_number 13
_symmetry_cell_setting 'monoclinic'
loop_
_space_group_symop_operation_xyz
x,y,z
-x,y,1/2-z
-x,-y,-z
x,-y,1/2+z
loop_
_atom_site_type_symbol
_atom_site_label
_atom_site_fract_x
_atom_site_fract_y
_atom_site_fract_z
Si Si1 0.936078 0.236410 0.375610
Si Si2 0.750785 0.046051 0.638483
Si Si3 0.000000 0.493507 0.250000
Si Si4 0.245644 0.372545 0.336205
Si Si5 0.233417 0.536952 0.018985
Si Si6 0.000000 0.858066 0.250000
Si Si7 0.510545 0.155819 0.956136
Si Si8 0.706781 0.112290 0.124826
O O1 0.659798 0.220380 0.469956
O O2 0.000000 0.222145 0.250000
O O3 0.016534 0.317786 0.377370
O O4 0.113207 0.180135 0.397647
O O5 0.500000 0.034816 0.750000
O O6 0.932255 0.091349 0.672518
O O7 0.656442 0.097812 0.570757
O O8 0.840721 0.965115 0.604255
O O9 0.815465 0.439112 0.224929
O O10 0.884243 0.544327 0.353048
O O11 0.500000 0.335689 0.250000
O O12 0.294387 0.398431 0.436204
O O13 0.500000 0.500000 0.000000
O O14 0.000000 0.500000 0.000000
O O15 0.256400 0.821378 0.159336
O O16 0.590832 0.116799 0.040026
O O17 0.500000 0.117613 0.250000
#
# Coordination Sequence:
#
# PCOD9231642 Si02
#       8
#     4   4   2   4   4   2   4   4
#     4  12  25  38  60  96 135 179 216 271 337 418
#     4   9  21  38  64  89 120 162 223 289 351 406
#     4  10  20  40  67 105 138 178 222 268 324 400
#     4  11  22  39  66  99 144 178 216 268 338 403
#     4  10  21  38  67 106 138 182 225 275 330 389
#     4  10  22  42  63  87 116 172 220 296 348 406
#     4  11  23  41  61  90 125 166 229 276 352 407
#     4  11  22  38  61  94 128 168 215 285 348 411
#
# _framework density 20.568362
#
# number of rings (size 3 to 8) (size 9 to 14) (size 15 to 20)
#    0.000    1.429    3.571    1.714    1.000    3.429 
#    0.000    0.000    0.000    6.857    7.429    0.000 
#    0.000    0.000    0.000    0.000    0.000    0.000 
#
# Total GULP energy -155986.395183 kJ/mol
# GULP energy per Si atom -5570.942685 kJ/mol
# Density = 2.052155 g / cm^3
# Si number density = 20.568362 Si / 1000 Ang^3
#
#
#
# Elastic Constant Matrix: (Units=GPa)
#
#
# Indices 1 2 3 4 5 6 
#
# 1 84.3291 12.8442 45.4458 0.0000 16.5132 0.0000
# 2 12.8442 47.9371 36.8277 0.0000 1.7040 0.0000
# 3 45.4458 36.8277 164.5781 0.0000 0.0438 0.0000
# 4 0.0000 0.0000 0.0000 8.3979 0.0000 -7.6427
# 5 16.5132 1.7040 0.0438 0.0000 54.3213 0.0000
# 6 0.0000 0.0000 0.0000 -7.6427 0.0000 -17.0249
#
#
#
# Elastic Compliance Matrix: (Units=1/GPa)
#
#
# Indices 1 2 3 4 5 6 
#
# 1 0.015004 -0.000818 -0.003959 0.000000 -0.004532 0.000000
# 2 -0.000818 0.025269 -0.005429 0.000000 -0.000540 0.000000
# 3 -0.003959 -0.005429 0.008384 0.000000 0.001367 0.000000
# 4 0.000000 0.000000 0.000000 0.084539 0.000000 -0.037951
# 5 -0.004532 -0.000540 0.001367 0.000000 0.019803 0.000000
# 6 0.000000 0.000000 0.000000 -0.037951 0.000000 -0.041701
#
#
# Mechanical properties :
#
#
# Convention : Reuss Voigt Hill
#
# Bulk Modulus (GPa) = 35.40230 54.11997 44.76114
# Shear Modulus (GPa) = 35.42988 22.58730 29.00859
#
# Velocity S-wave (km/s) = 4.15486 3.31744 3.75954
# Velocity P-wave (km/s) = 6.34559 6.40650 6.37612
#
# Compressibility (1/GPa) = 0.02824675
#
# Stress axis : x y z
#
# Youngs Moduli (GPa) = 66.64966 39.57346 119.27838
#
# Poissons Ratio (x) = 0.03235 0.47222
# Poissons Ratio (y) = 0.05449 0.64752
# Poissons Ratio (z) = 0.26386 0.21483
#
# Static dielectric constant tensor:
#      x y z
#    x 1.820460 0.000000 -0.060340 
#    y 0.000000 1.713980 0.000000 
#    z -0.060340 0.000000 1.802810 
# 
# From -- ./inp_files/44393.got.cif
#   From: 2010.05.17/outbox.cif.g08.bks.cpg/sg13_23_cif.got.tgz:44393.got - 2010.06.03 16:44:36.
