data_PCOD9231058
_publ_section_title
;
Structure prediction by ZEFSAII (Michael W. Deem and Ramdas Pophale) SiO2 
 PCOD9231058
Probable space group: P 2/C
;
_chemical_formula_sum "Si O2"
_cell_formula_units_Z 32
_cell_length_a 16.183255
_cell_length_b 19.520615
_cell_length_c 15.657536
_cell_angle_alpha 90.000000
_cell_angle_beta 161.767940
_cell_angle_gamma 90.000000
_cell_volume 1547.539552
_symmetry_space_group_name_H-M "P 2/C"
_symmetry_group_IT_number 13
_symmetry_cell_setting 'monoclinic'
loop_
_space_group_symop_operation_xyz
x,y,z
-x,y,1/2-z
-x,-y,-z
x,-y,1/2+z
loop_
_atom_site_type_symbol
_atom_site_label
_atom_site_fract_x
_atom_site_fract_y
_atom_site_fract_z
Si Si1 0.386776 0.747928 0.736188
Si Si2 0.386856 0.590534 0.735109
Si Si3 0.025272 0.639760 0.673497
Si Si4 0.114443 0.924944 0.597830
Si Si5 0.406606 0.166165 0.897283
Si Si6 0.121321 0.511271 0.212593
Si Si7 0.477131 0.719764 0.331135
Si Si8 0.227168 0.117769 0.032098
O O1 0.500000 0.740939 0.750000
O O2 0.340572 0.669581 0.716690
O O3 0.158796 0.804162 0.494604
O O4 0.536577 0.787077 0.961482
O O5 0.500000 0.587770 0.750000
O O6 0.107075 0.552790 0.462723
O O7 0.603897 0.551988 0.007272
O O8 0.137635 0.565406 0.763870
O O9 0.000000 0.643863 0.750000
O O10 0.734881 0.659706 0.356677
O O11 0.238157 0.696150 0.855459
O O12 0.245620 0.927038 0.633329
O O13 0.861305 0.875297 0.351445
O O14 0.350645 0.887059 0.880348
O O15 0.000000 0.000000 0.500000
O O16 0.387678 0.214595 0.796174
O O17 0.000000 0.500000 0.000000
O O18 0.500000 0.729257 0.250000
O O19 0.500000 0.119542 0.250000
O O20 0.000000 0.090763 0.750000
#
# Coordination Sequence:
#
# PCOD9231058 Si02
#       8
#     4   4   4   4   4   4   4   4
#     4   9  21  37  61  90 121 157 202 251 306 365
#     4  11  24  41  60  86 123 165 204 257 320 381
#     4  10  21  39  61  82 113 161 207 257 311 371
#     4  11  23  41  62  93 128 165 201 241 301 368
#     4  11  23  39  66  90 125 163 200 257 304 358
#     4  12  26  39  60  89 124 161 208 265 313 378
#     4  10  22  40  65  90 117 156 212 263 310 361
#     4  10  20  38  63  91 124 162 207 248 296 364
#
# _framework density 20.677986000000001
#
# number of rings (size 3 to 8) (size 9 to 14) (size 15 to 20)
#    0.000    1.500    0.000    5.625    3.500    6.000 
#    0.000    1.875    0.000    0.750    0.000    0.000 
#    0.000    0.000    0.000    0.000    0.000    0.000 
#
# Total GULP energy -178423.803988 kJ/mol
# GULP energy per Si atom -5575.743875 kJ/mol
# Density = 2.063092 g / cm^3
# Si number density = 20.677986 Si / 1000 Ang^3
#
#
#
# Elastic Constant Matrix: (Units=GPa)
#
#
# Indices 1 2 3 4 5 6 
#
# 1 51.8398 40.1130 10.7307 0.0000 10.3236 0.0000
# 2 40.1130 106.7794 13.1280 0.0000 15.4067 0.0000
# 3 10.7307 13.1280 76.4519 0.0000 11.7803 0.0000
# 4 0.0000 0.0000 0.0000 24.5358 0.0000 9.7403
# 5 10.3236 15.4067 11.7803 0.0000 17.4035 0.0000
# 6 0.0000 0.0000 0.0000 9.7403 0.0000 20.8390
#
#
#
# Elastic Compliance Matrix: (Units=1/GPa)
#
#
# Indices 1 2 3 4 5 6 
#
# 1 0.028331 -0.009387 -0.001178 0.000000 -0.007698 0.000000
# 2 -0.009387 0.013859 -0.000033 0.000000 -0.006678 0.000000
# 3 -0.001178 -0.000033 0.014669 0.000000 -0.009201 0.000000
# 4 0.000000 0.000000 0.000000 0.050042 0.000000 -0.023390
# 5 -0.007698 -0.006678 -0.009201 0.000000 0.074166 0.000000
# 6 0.000000 0.000000 0.000000 -0.023390 0.000000 0.058919
#
#
# Mechanical properties :
#
#
# Convention : Reuss Voigt Hill
#
# Bulk Modulus (GPa) = 28.04176 40.33495 34.18835
# Shear Modulus (GPa) = 18.31024 23.96230 21.13627
#
# Velocity S-wave (km/s) = 2.97895 3.40785 3.20060
# Velocity P-wave (km/s) = 5.04211 5.91889 5.49800
#
# Compressibility (1/GPa) = 0.03566111
#
# Stress axis : x y z
#
# Youngs Moduli (GPa) = 35.29723 72.15431 68.17112
#
# Poissons Ratio (x) = 0.67733 0.08033
# Poissons Ratio (y) = 0.33135 0.00227
# Poissons Ratio (z) = 0.04160 0.00240
#
# Static dielectric constant tensor:
#      x y z
#    x 1.770890 0.000000 -0.008350 
#    y 0.000000 1.670740 0.000000 
#    z -0.008350 0.000000 1.724340 
# 
# From -- ./inp_files/54007.got.cif
#   From: 2010.05.17/outbox.cif.g08.bks.cpg/sg13_28_cif.got.tgz:54007.got - 2010.06.03 16:44:36.
