data_PCOD9231417
_publ_section_title
;
Structure prediction by ZEFSAII (Michael W. Deem and Ramdas Pophale) SiO2 
 PCOD9231417
Probable space group: P 2/C
;
_chemical_formula_sum "Si O2"
_cell_formula_units_Z 20
_cell_length_a 16.152896
_cell_length_b 11.438923
_cell_length_c 12.892889
_cell_angle_alpha 90.000000
_cell_angle_beta 24.020554
_cell_angle_gamma 90.000000
_cell_volume 969.725538
_symmetry_space_group_name_H-M "P 2/C"
_symmetry_group_IT_number 13
_symmetry_cell_setting 'monoclinic'
loop_
_space_group_symop_operation_xyz
x,y,z
-x,y,1/2-z
-x,-y,-z
x,-y,1/2+z
loop_
_atom_site_type_symbol
_atom_site_label
_atom_site_fract_x
_atom_site_fract_y
_atom_site_fract_z
Si Si1 0.775510 0.800869 0.965494
Si Si2 0.949049 0.829410 0.543319
Si Si3 0.831058 0.574594 0.633067
Si Si4 0.578213 0.559563 0.262467
Si Si5 0.278784 0.040484 0.787469
O O1 0.800537 0.825934 0.815086
O O2 0.000000 0.778080 0.750000
O O3 0.658188 0.685076 0.133206
O O4 0.704398 0.910039 0.115637
O O5 0.922283 0.704285 0.520819
O O6 0.170880 0.860725 0.337575
O O7 0.874612 0.931957 0.552772
O O8 0.758525 0.509311 0.612566
O O9 0.000000 0.500000 0.500000
O O10 0.619351 0.578509 0.939857
O O11 0.500000 0.493282 0.250000
O O12 0.500000 0.000000 0.500000
#
# Coordination Sequence:
#
# PCOD9231417 Si02
#       5
#     4   4   4   4   4
#     4  10  20  39  67  91 120 164 211 259 314 377
#     4  10  21  40  62  89 122 162 207 256 313 372
#     4  11  23  39  64  94 129 164 211 269 322 382
#     4  11  23  38  66  97 122 164 219 264 319 387
#     4  10  21  34  62  93 122 157 206 258 308 373
#
# _framework density 20.624392
#
# number of rings (size 3 to 8) (size 9 to 14) (size 15 to 20)
#    0.000    1.600    2.000    3.600    0.000    1.600 
#    0.000    0.000   35.200    0.000    0.000    0.000 
#    0.000    0.000    0.000    0.000    0.000    0.000 
#
# Total GULP energy -111641.876815 kJ/mol
# GULP energy per Si atom -5582.093841 kJ/mol
# Density = 2.057745 g / cm^3
# Si number density = 20.624392 Si / 1000 Ang^3
#
#
#
# Elastic Constant Matrix: (Units=GPa)
#
#
# Indices 1 2 3 4 5 6 
#
# 1 112.7527 52.9884 15.1651 0.0000 -8.6237 0.0000
# 2 52.9884 117.0163 19.7525 0.0000 -3.1474 0.0000
# 3 15.1651 19.7525 80.6551 0.0000 -16.4747 0.0000
# 4 0.0000 0.0000 0.0000 21.7535 0.0000 -19.3115
# 5 -8.6237 -3.1474 -16.4747 0.0000 33.4841 0.0000
# 6 0.0000 0.0000 0.0000 -19.3115 0.0000 8.9648
#
#
#
# Elastic Compliance Matrix: (Units=1/GPa)
#
#
# Indices 1 2 3 4 5 6 
#
# 1 0.011482 -0.005061 -0.000459 0.000000 0.002256 0.000000
# 2 -0.005061 0.011147 -0.002035 0.000000 -0.001257 0.000000
# 3 -0.000459 -0.002035 0.014363 0.000000 0.006758 0.000000
# 4 0.000000 0.000000 0.000000 -0.050387 0.000000 -0.108541
# 5 0.002256 -0.001257 0.006758 0.000000 0.033653 0.000000
# 6 0.000000 0.000000 0.000000 -0.108541 0.000000 -0.122267
#
#
# Mechanical properties :
#
#
# Convention : Reuss Voigt Hill
#
# Bulk Modulus (GPa) = 45.69818 54.02621 49.86220
# Shear Modulus (GPa) = -62.81016 27.67504 -17.56756
#
# Velocity S-wave (km/s) = -5.52453 3.66711 -2.92170
# Velocity P-wave (km/s) = 4.29982 6.64699 3.58427
#
# Compressibility (1/GPa) = 0.02188271
#
# Stress axis : x y z
#
# Youngs Moduli (GPa) = 87.09539 89.70719 69.62124
#
# Poissons Ratio (x) = 0.45402 0.03193
# Poissons Ratio (y) = 0.44080 0.14169
# Poissons Ratio (z) = 0.03994 0.18257
#
# Static dielectric constant tensor:
#      x y z
#    x 1.789250 0.000000 0.006100 
#    y 0.000000 1.737440 0.000000 
#    z 0.006100 0.000000 1.773450 
# 
# From -- ./inp_files/37100.got.cif
#   From: 2010.05.17/outbox.cif.g08.bks.cpg/sg13_19_cif.got.tgz:37100.got - 2010.06.03 16:44:36.
