data_PCOD9231889
_publ_section_title
;
Structure prediction by ZEFSAII (Michael W. Deem and Ramdas Pophale) SiO2 
 PCOD9231889
Probable space group: P 2/C
;
_chemical_formula_sum "Si O2"
_cell_formula_units_Z 28
_cell_length_a 10.992234
_cell_length_b 8.629635
_cell_length_c 19.893884
_cell_angle_alpha 90.000000
_cell_angle_beta 41.942560
_cell_angle_gamma 90.000000
_cell_volume 1261.318698
_symmetry_space_group_name_H-M "P 2/C"
_symmetry_group_IT_number 13
_symmetry_cell_setting 'monoclinic'
loop_
_space_group_symop_operation_xyz
x,y,z
-x,y,1/2-z
-x,-y,-z
x,-y,1/2+z
loop_
_atom_site_type_symbol
_atom_site_label
_atom_site_fract_x
_atom_site_fract_y
_atom_site_fract_z
Si Si1 0.711581 0.872877 0.889532
Si Si2 0.500000 0.396492 0.250000
Si Si3 0.799556 0.111471 0.510167
Si Si4 0.854797 0.222552 0.054073
Si Si5 0.129347 0.416259 0.580015
Si Si6 0.466332 0.613785 0.385921
Si Si7 0.000000 0.623167 0.750000
Si Si8 0.683970 0.797471 0.398996
O O1 0.825935 0.733717 0.813744
O O2 0.734881 0.038831 0.845076
O O3 0.781432 0.897265 0.937268
O O4 0.499508 0.831317 0.982519
O O5 0.676163 0.295630 0.160281
O O6 0.536588 0.507850 0.297784
O O7 0.637624 0.230419 0.596472
O O8 0.986997 0.188042 0.457858
O O9 0.797602 0.940369 0.542824
O O10 0.928799 0.343981 0.967270
O O11 0.314385 0.513676 0.488579
O O12 0.014172 0.525953 0.675647
O O13 0.170335 0.270209 0.610739
O O14 0.624933 0.670266 0.369621
#
# Coordination Sequence:
#
# PCOD9231889 Si02
#       8
#     4   2   4   4   4   4   2   4
#     4  10  22  41  67  96 126 176 221 271 322 406
#     4  10  24  42  64 104 134 170 238 268 336 398
#     4  10  20  45  68  89 133 181 220 263 343 384
#     4  10  23  43  70  93 134 181 216 280 320 403
#     4  11  22  40  63  99 134 165 218 274 340 385
#     4  10  22  42  65  95 131 172 215 283 326 393
#     4  12  24  40  62 100 136 170 220 272 332 404
#     4  10  20  42  67  90 129 174 213 275 337 384
#
# _framework density 22.198989999999998
#
# number of rings (size 3 to 8) (size 9 to 14) (size 15 to 20)
#    0.000    1.714    4.286    0.429    0.000    4.571 
#    5.143    1.429    0.000    0.000    0.000    0.000 
#    0.000    0.000    0.000    0.000    0.000    0.000 
#
# Total GULP energy -156618.915348 kJ/mol
# GULP energy per Si atom -5593.532691 kJ/mol
# Density = 2.214846 g / cm^3
# Si number density = 22.198990 Si / 1000 Ang^3
#
#
#
# Elastic Constant Matrix: (Units=GPa)
#
#
# Indices 1 2 3 4 5 6 
#
# 1 52.1378 10.4341 13.5936 0.0000 4.5869 0.0000
# 2 10.4341 115.1014 50.5373 0.0000 6.5992 0.0000
# 3 13.5936 50.5373 87.5809 0.0000 12.5261 0.0000
# 4 0.0000 0.0000 0.0000 29.7836 0.0000 -8.1036
# 5 4.5869 6.5992 12.5261 0.0000 13.2283 0.0000
# 6 0.0000 0.0000 0.0000 -8.1036 0.0000 32.4707
#
#
#
# Elastic Compliance Matrix: (Units=1/GPa)
#
#
# Indices 1 2 3 4 5 6 
#
# 1 0.020272 -0.000645 -0.002099 0.000000 -0.004720 0.000000
# 2 -0.000645 0.011661 -0.006742 0.000000 0.000790 0.000000
# 3 -0.002099 -0.006742 0.017406 0.000000 -0.012391 0.000000
# 4 0.000000 0.000000 0.000000 0.036021 0.000000 0.008990
# 5 -0.004720 0.000790 -0.012391 0.000000 0.088571 0.000000
# 6 0.000000 0.000000 0.000000 0.008990 0.000000 0.033041
#
#
# Mechanical properties :
#
#
# Convention : Reuss Voigt Hill
#
# Bulk Modulus (GPa) = 32.93081 44.88336 38.90708
# Shear Modulus (GPa) = 21.18040 27.11352 24.14696
#
# Velocity S-wave (km/s) = 3.09223 3.49862 3.30168
# Velocity P-wave (km/s) = 5.25507 6.04839 5.66563
#
# Compressibility (1/GPa) = 0.03036670
#
# Stress axis : x y z
#
# Youngs Moduli (GPa) = 49.33020 85.75364 57.45049
#
# Poissons Ratio (x) = 0.05535 0.12058
# Poissons Ratio (y) = 0.03184 0.38732
# Poissons Ratio (z) = 0.10354 0.57814
#
# Static dielectric constant tensor:
#      x y z
#    x 1.829870 0.000000 0.033830 
#    y 0.000000 1.852200 0.000000 
#    z 0.033830 0.000000 1.865110 
# 
# From -- ./inp_files/78240.got.cif
#   From: 2010.05.17/outbox.cif.g08.bks.cpg/sg13_40_cif.got.tgz:78240.got - 2010.06.03 16:44:36.
