data_PCOD9231510
_publ_section_title
;
Structure prediction by ZEFSAII (Michael W. Deem and Ramdas Pophale) SiO2 
 PCOD9231510
Probable space group: P 2/C
;
_chemical_formula_sum "Si O2"
_cell_formula_units_Z 32
_cell_length_a 12.811723
_cell_length_b 14.602672
_cell_length_c 8.042169
_cell_angle_alpha 90.000000
_cell_angle_beta 91.723278
_cell_angle_gamma 90.000000
_cell_volume 1503.891833
_symmetry_space_group_name_H-M "P 2/C"
_symmetry_group_IT_number 13
_symmetry_cell_setting 'monoclinic'
loop_
_space_group_symop_operation_xyz
x,y,z
-x,y,1/2-z
-x,-y,-z
x,-y,1/2+z
loop_
_atom_site_type_symbol
_atom_site_label
_atom_site_fract_x
_atom_site_fract_y
_atom_site_fract_z
Si Si1 0.979130 0.294477 0.547537
Si Si2 0.617538 0.285656 0.564246
Si Si3 0.290753 0.097929 0.023512
Si Si4 0.606655 0.059394 0.150115
Si Si5 0.804036 0.374439 0.005909
Si Si6 0.210716 0.420083 0.886787
Si Si7 0.054876 0.910385 0.429718
Si Si8 0.614435 0.753321 0.459835
O O1 0.881999 0.364063 0.526019
O O2 0.959473 0.190274 0.489785
O O3 0.000000 0.292954 0.750000
O O4 0.082493 0.331000 0.463672
O O5 0.680663 0.204049 0.481901
O O6 0.679357 0.379574 0.545979
O O7 0.498875 0.286347 0.497833
O O8 0.619846 0.257476 0.760204
O O9 0.179400 0.077562 0.937749
O O10 0.379084 0.038837 0.933164
O O11 0.299071 0.068796 0.214472
O O12 0.500000 0.068233 0.250000
O O13 0.616078 0.141500 0.018463
O O14 0.796663 0.395434 0.808055
O O15 0.710384 0.304137 0.039443
O O16 0.796150 0.471878 0.093422
O O17 0.000000 0.901000 0.250000
O O18 0.000000 0.000000 0.500000
#
# Coordination Sequence:
#
# PCOD9231510 Si02
#       8
#     4   4   4   4   4   4   4   4
#     4   9  19  38  63  87 121 161 203 249 311 366
#     4  10  21  40  64  87 123 165 208 252 311 373
#     4  12  24  40  63  92 125 168 207 257 308 370
#     4  12  25  40  62  94 128 164 210 257 307 373
#     4  10  22  38  64  90 120 161 202 261 311 374
#     4  10  20  40  61  90 120 159 208 253 316 370
#     4  11  24  42  63  92 126 169 207 254 308 371
#     4  10  23  40  61  91 124 163 207 256 309 369
#
# _framework density 21.278123999999998
#
# number of rings (size 3 to 8) (size 9 to 14) (size 15 to 20)
#    0.000    1.500    2.500    2.250    5.250    1.500 
#    0.000    0.000    0.000    0.000    0.000    0.000 
#    0.000    0.000    0.000    0.000    0.000    0.000 
#
# Total GULP energy -178798.157820 kJ/mol
# GULP energy per Si atom -5587.442432 kJ/mol
# Density = 2.122969 g / cm^3
# Si number density = 21.278124 Si / 1000 Ang^3
#
#
#
# Elastic Constant Matrix: (Units=GPa)
#
#
# Indices 1 2 3 4 5 6 
#
# 1 107.9367 24.0443 20.2804 0.0000 0.2644 0.0000
# 2 24.0443 101.7490 7.0776 0.0000 -15.8935 0.0000
# 3 20.2804 7.0776 17.1549 0.0000 4.4192 0.0000
# 4 0.0000 0.0000 0.0000 35.0988 0.0000 -3.4724
# 5 0.2644 -15.8935 4.4192 0.0000 19.5219 0.0000
# 6 0.0000 0.0000 0.0000 -3.4724 0.0000 33.1641
#
#
#
# Elastic Compliance Matrix: (Units=1/GPa)
#
#
# Indices 1 2 3 4 5 6 
#
# 1 0.012320 -0.001642 -0.014335 0.000000 0.001741 0.000000
# 2 -0.001642 0.012451 -0.006172 0.000000 0.011556 0.000000
# 3 -0.014335 -0.006172 0.083925 0.000000 -0.023829 0.000000
# 4 0.000000 0.000000 0.000000 0.028789 0.000000 0.003014
# 5 0.001741 0.011556 -0.023829 0.000000 0.066003 0.000000
# 6 0.000000 0.000000 0.000000 0.003014 0.000000 0.030469
#
#
# Mechanical properties :
#
#
# Convention : Reuss Voigt Hill
#
# Bulk Modulus (GPa) = 15.52910 36.62724 26.07817
# Shear Modulus (GPa) = 16.68220 29.25285 22.96752
#
# Velocity S-wave (km/s) = 2.80305 3.71183 3.28898
# Velocity P-wave (km/s) = 4.21783 5.96835 5.16775
#
# Compressibility (1/GPa) = 0.06439525
#
# Stress axis : x y z
#
# Youngs Moduli (GPa) = 81.17057 80.31767 11.91546
#
# Poissons Ratio (x) = 0.13189 0.17081
# Poissons Ratio (y) = 0.13329 0.07355
# Poissons Ratio (z) = 1.16361 0.49574
#
# Static dielectric constant tensor:
#      x y z
#    x 1.767020 0.000000 0.010530 
#    y 0.000000 1.736290 0.000000 
#    z 0.010530 0.000000 1.809430 
# 
# From -- ./inp_files/16801.got.cif
#   From: 2010.05.17/outbox.cif.g08.bks.cpg/sg13_9_cif.got.tgz:16801.got - 2010.06.03 16:44:36.
