data_PCOD9231021
_publ_section_title
;
Structure prediction by ZEFSAII (Michael W. Deem and Ramdas Pophale) SiO2 
 PCOD9231021
Probable space group: P 2/C
;
_chemical_formula_sum "Si O2"
_cell_formula_units_Z 18
_cell_length_a 12.042345
_cell_length_b 8.020207
_cell_length_c 19.211269
_cell_angle_alpha 90.000000
_cell_angle_beta 21.935363
_cell_angle_gamma 90.000000
_cell_volume 693.128084
_symmetry_space_group_name_H-M "P 2/C"
_symmetry_group_IT_number 13
_symmetry_cell_setting 'monoclinic'
loop_
_space_group_symop_operation_xyz
x,y,z
-x,y,1/2-z
-x,-y,-z
x,-y,1/2+z
loop_
_atom_site_type_symbol
_atom_site_label
_atom_site_fract_x
_atom_site_fract_y
_atom_site_fract_z
Si Si1 0.500000 0.766606 0.250000
Si Si2 0.661991 0.949500 0.297369
Si Si3 0.161786 0.183517 0.581867
Si Si4 0.567997 0.604139 0.029065
Si Si5 0.965664 0.479046 0.412834
O O1 0.619534 0.881393 0.243765
O O2 0.222809 0.644536 0.430094
O O3 0.514897 0.797844 0.427199
O O4 0.985420 0.961761 0.143241
O O5 0.488149 0.119541 0.406507
O O6 0.151637 0.333353 0.532755
O O7 0.000000 0.220971 0.750000
O O8 0.310645 0.515394 0.227365
O O9 0.500000 0.500000 0.000000
O O10 0.880770 0.593093 0.885835
#
# Coordination Sequence:
#
# PCOD9231021 Si02
#       5
#     2   4   4   4   4
#     4  10  24  44  62  96 126 172 222 250 320 378
#     4  10  24  40  63  91 131 167 209 264 310 389
#     4  11  23  41  63  95 126 165 210 264 328 372
#     4  10  20  38  62  92 120 162 213 263 315 362
#     4  10  22  38  63  88 125 162 208 264 305 379
#
# _framework density 25.969225999999999
#
# number of rings (size 3 to 8) (size 9 to 14) (size 15 to 20)
#    0.000    1.778    0.000    4.000    0.000   16.889 
#    0.000    0.000    0.000    0.000    0.000    0.000 
#    0.000    0.000    0.000    0.000    0.000    0.000 
#
# Total GULP energy -100543.147249 kJ/mol
# GULP energy per Si atom -5585.730403 kJ/mol
# Density = 2.591012 g / cm^3
# Si number density = 25.969226 Si / 1000 Ang^3
#
#
#
# Elastic Constant Matrix: (Units=GPa)
#
#
# Indices 1 2 3 4 5 6 
#
# 1 112.6553 -0.6515 7.7051 0.0000 13.0253 0.0000
# 2 -0.6515 55.4677 11.2601 0.0000 4.9522 0.0000
# 3 7.7051 11.2601 41.8273 0.0000 10.5082 0.0000
# 4 0.0000 0.0000 0.0000 29.6747 0.0000 -10.3748
# 5 13.0253 4.9522 10.5082 0.0000 56.6058 0.0000
# 6 0.0000 0.0000 0.0000 -10.3748 0.0000 50.5916
#
#
#
# Elastic Compliance Matrix: (Units=1/GPa)
#
#
# Indices 1 2 3 4 5 6 
#
# 1 0.009194 0.000555 -0.001363 0.000000 -0.001911 0.000000
# 2 0.000555 0.019135 -0.005036 0.000000 -0.000867 0.000000
# 3 -0.001363 -0.005036 0.026564 0.000000 -0.004177 0.000000
# 4 0.000000 0.000000 0.000000 0.036301 0.000000 0.007444
# 5 -0.001911 -0.000867 -0.004177 0.000000 0.018957 0.000000
# 6 0.000000 0.000000 0.000000 0.007444 0.000000 0.021293
#
#
# Mechanical properties :
#
#
# Convention : Reuss Voigt Hill
#
# Bulk Modulus (GPa) = 23.14495 27.39754 25.27124
# Shear Modulus (GPa) = 31.73948 40.15018 35.94483
#
# Velocity S-wave (km/s) = 3.49978 3.93627 3.72443
# Velocity P-wave (km/s) = 5.02624 5.58855 5.31484
#
# Compressibility (1/GPa) = 0.04320597
#
# Stress axis : x y z
#
# Youngs Moduli (GPa) = 108.76612 52.26111 37.64508
#
# Poissons Ratio (x) = -0.02902 0.05131
# Poissons Ratio (y) = -0.06040 0.18957
# Poissons Ratio (z) = 0.14825 0.26317
#
# Static dielectric constant tensor:
#      x y z
#    x 2.070230 0.000000 0.042130 
#    y 0.000000 2.025360 0.000000 
#    z 0.042130 0.000000 2.186750 
# 
# From -- ./inp_files/79740.got.cif
#   From: 2010.05.17/outbox.cif.g08.bks.cpg/sg13_40_cif.got.tgz:79740.got - 2010.06.03 16:44:36.
