data_PCOD9231505
_publ_section_title
;
Structure prediction by ZEFSAII (Michael W. Deem and Ramdas Pophale) SiO2 
 PCOD9231505
Probable space group: P 2/C
;
_chemical_formula_sum "Si O2"
_cell_formula_units_Z 28
_cell_length_a 8.581035
_cell_length_b 9.461778
_cell_length_c 19.361421
_cell_angle_alpha 90.000000
_cell_angle_beta 77.442715
_cell_angle_gamma 90.000000
_cell_volume 1534.386181
_symmetry_space_group_name_H-M "P 2/C"
_symmetry_group_IT_number 13
_symmetry_cell_setting 'monoclinic'
loop_
_space_group_symop_operation_xyz
x,y,z
-x,y,1/2-z
-x,-y,-z
x,-y,1/2+z
loop_
_atom_site_type_symbol
_atom_site_label
_atom_site_fract_x
_atom_site_fract_y
_atom_site_fract_z
Si Si1 0.594633 0.998762 0.599535
Si Si2 0.000000 0.450036 0.250000
Si Si3 0.180754 0.279057 0.733400
Si Si4 0.763053 0.329735 0.932321
Si Si5 0.118141 0.636314 0.593437
Si Si6 0.562944 0.226218 0.487580
Si Si7 0.093479 0.862523 0.966730
Si Si8 0.500000 0.128477 0.750000
O O1 0.495526 0.891673 0.561178
O O2 0.762635 0.920849 0.593877
O O3 0.615622 0.140166 0.551115
O O4 0.513342 0.037849 0.679000
O O5 0.863118 0.561254 0.238053
O O6 0.934956 0.365704 0.321514
O O7 0.233217 0.291586 0.648657
O O8 0.331055 0.214050 0.759602
O O9 0.000000 0.209789 0.750000
O O10 0.865949 0.472372 0.930928
O O11 0.581007 0.330124 0.976729
O O12 0.838665 0.206158 0.970158
O O13 0.294139 0.693893 0.562480
O O14 0.003601 0.740290 0.562335
O O15 0.000000 0.000000 0.000000
#
# Coordination Sequence:
#
# PCOD9231505 Si02
#       8
#     4   2   4   4   4   4   4   2
#     4  10  23  38  57  91 129 157 214 260 315 388
#     4   8  22  42  56  92 130 160 212 264 328 380
#     4   9  21  39  62  89 131 164 206 271 316 386
#     4  10  21  41  61  91 123 161 216 269 315 381
#     4  11  21  39  66  89 123 174 212 263 325 387
#     4  10  20  40  61  86 126 167 204 269 322 374
#     4  11  23  37  59  91 124 163 207 262 314 381
#     4  12  22  40  66  96 126 176 218 260 326 398
#
# _framework density 18.248339999999999
#
# number of rings (size 3 to 8) (size 9 to 14) (size 15 to 20)
#    0.429    1.429    2.857    0.857    2.000    1.143 
#    2.571    2.857    0.000    0.000    0.000    0.000 
#    0.000    0.000    0.000    0.000    0.000    0.000 
#
# Total GULP energy -155941.856504 kJ/mol
# GULP energy per Si atom -5569.352018 kJ/mol
# Density = 1.820681 g / cm^3
# Si number density = 18.248340 Si / 1000 Ang^3
#
#
#
# Elastic Constant Matrix: (Units=GPa)
#
#
# Indices 1 2 3 4 5 6 
#
# 1 88.2871 20.4736 32.7098 0.0000 -7.8391 0.0000
# 2 20.4736 56.7758 28.7851 0.0000 -1.2822 0.0000
# 3 32.7098 28.7851 114.2320 0.0000 -23.9795 0.0000
# 4 0.0000 0.0000 0.0000 20.5883 0.0000 -14.0317
# 5 -7.8391 -1.2822 -23.9795 0.0000 21.3887 0.0000
# 6 0.0000 0.0000 0.0000 -14.0317 0.0000 14.1966
#
#
#
# Elastic Compliance Matrix: (Units=1/GPa)
#
#
# Indices 1 2 3 4 5 6 
#
# 1 0.013226 -0.003438 -0.002546 0.000000 0.001787 0.000000
# 2 -0.003438 0.021668 -0.005842 0.000000 -0.006511 0.000000
# 3 -0.002546 -0.005842 0.013975 0.000000 0.014384 0.000000
# 4 0.000000 0.000000 0.000000 0.148817 0.000000 0.147089
# 5 0.001787 -0.006511 0.014384 0.000000 0.063145 0.000000
# 6 0.000000 0.000000 0.000000 0.147089 0.000000 0.215819
#
#
# Mechanical properties :
#
#
# Convention : Reuss Voigt Hill
#
# Bulk Modulus (GPa) = 39.65716 47.02576 43.34146
# Shear Modulus (GPa) = 9.82881 23.05648 16.44265
#
# Velocity S-wave (km/s) = 2.32332 3.55841 3.00500
# Velocity P-wave (km/s) = 5.38296 6.53520 5.98686
#
# Compressibility (1/GPa) = 0.02521613
#
# Stress axis : x y z
#
# Youngs Moduli (GPa) = 75.60959 46.15086 71.55740
#
# Poissons Ratio (x) = 0.15868 0.18215
# Poissons Ratio (y) = 0.25997 0.41807
# Poissons Ratio (z) = 0.19247 0.26963
#
# Static dielectric constant tensor:
#      x y z
#    x 1.674980 0.000000 -0.014140 
#    y 0.000000 1.635710 0.000000 
#    z -0.014140 0.000000 1.598060 
# 
# From -- ./inp_files/63779.got.cif
#   From: 2010.05.17/outbox.cif.g08.bks.cpg/sg13_32_cif.got.tgz:63779.got - 2010.06.03 16:44:36.
