data_PCOD9231388
_publ_section_title
;
Structure prediction by ZEFSAII (Michael W. Deem and Ramdas Pophale) SiO2 
 PCOD9231388
Probable space group: P 2/C
;
_chemical_formula_sum "Si O2"
_cell_formula_units_Z 22
_cell_length_a 11.787125
_cell_length_b 11.189171
_cell_length_c 11.079188
_cell_angle_alpha 90.000000
_cell_angle_beta 135.250216
_cell_angle_gamma 90.000000
_cell_volume 1028.712040
_symmetry_space_group_name_H-M "P 2/C"
_symmetry_group_IT_number 13
_symmetry_cell_setting 'monoclinic'
loop_
_space_group_symop_operation_xyz
x,y,z
-x,y,1/2-z
-x,-y,-z
x,-y,1/2+z
loop_
_atom_site_type_symbol
_atom_site_label
_atom_site_fract_x
_atom_site_fract_y
_atom_site_fract_z
Si Si1 0.295494 0.308643 0.738799
Si Si2 0.941877 0.895676 0.371651
Si Si3 0.726489 0.077942 0.507786
Si Si4 0.640000 0.658075 0.945422
Si Si5 0.900288 0.510190 0.551381
Si Si6 0.500000 0.870908 0.250000
O O1 0.136281 0.227272 0.643185
O O2 0.239726 0.394850 0.588755
O O3 0.435053 0.217524 0.803918
O O4 0.347783 0.374379 0.902548
O O5 0.791808 0.955087 0.188075
O O6 0.107966 0.876242 0.426561
O O7 0.000000 0.000000 0.500000
O O8 0.623011 0.197872 0.437127
O O9 0.643469 0.962722 0.389896
O O10 0.500000 0.613314 0.750000
O O11 0.806150 0.610989 0.013612
O O12 0.000000 0.541853 0.750000
O O13 0.000000 0.500000 0.500000
#
# Coordination Sequence:
#
# PCOD9231388 Si02
#       6
#     4   4   4   4   4   2
#     4  11  26  43  70 107 143 187 242 305 357 438
#     4  10  20  39  65  92 137 181 236 281 350 422
#     4  10  22  39  66 100 134 186 231 288 352 433
#     4  11  25  45  72  98 143 190 234 294 373 424
#     4  12  26  49  78 104 138 190 252 303 355 425
#     4  12  24  42  66 108 148 176 234 294 364 438
#
# _framework density 21.385964999999999
#
# number of rings (size 3 to 8) (size 9 to 14) (size 15 to 20)
#    0.000    1.091    4.545    1.091    3.818    8.000 
#    0.000    0.000    0.000    0.000    0.000    0.000 
#    0.000    0.000    0.000    0.000    0.000    0.000 
#
# Total GULP energy -122478.007475 kJ/mol
# GULP energy per Si atom -5567.182158 kJ/mol
# Density = 2.133729 g / cm^3
# Si number density = 21.385965 Si / 1000 Ang^3
#
#
#
# Elastic Constant Matrix: (Units=GPa)
#
#
# Indices 1 2 3 4 5 6 
#
# 1 88.6677 23.5230 36.5996 0.0000 -6.0643 0.0000
# 2 23.5230 69.7630 46.9881 0.0000 -7.3226 0.0000
# 3 36.5996 46.9881 151.9071 0.0000 -24.6597 0.0000
# 4 0.0000 0.0000 0.0000 20.5078 0.0000 6.9678
# 5 -6.0643 -7.3226 -24.6597 0.0000 30.9407 0.0000
# 6 0.0000 0.0000 0.0000 6.9678 0.0000 41.7907
#
#
#
# Elastic Compliance Matrix: (Units=1/GPa)
#
#
# Indices 1 2 3 4 5 6 
#
# 1 0.012961 -0.002864 -0.002222 0.000000 0.000092 0.000000
# 2 -0.002864 0.018741 -0.005143 0.000000 -0.000225 0.000000
# 3 -0.002222 -0.005143 0.009695 0.000000 0.006074 0.000000
# 4 0.000000 0.000000 0.000000 0.051690 0.000000 -0.008618
# 5 0.000092 -0.000225 0.006074 0.000000 0.037126 0.000000
# 6 0.000000 0.000000 0.000000 -0.008618 0.000000 0.025366
#
#
# Mechanical properties :
#
#
# Convention : Reuss Voigt Hill
#
# Bulk Modulus (GPa) = 47.75949 58.28436 53.02192
# Shear Modulus (GPa) = 27.31980 32.19631 29.75805
#
# Velocity S-wave (km/s) = 3.57804 3.88427 3.73430
# Velocity P-wave (km/s) = 6.28096 6.88691 6.59090
#
# Compressibility (1/GPa) = 0.02093825
#
# Stress axis : x y z
#
# Youngs Moduli (GPa) = 77.15238 53.36010 103.14200
#
# Poissons Ratio (x) = 0.15283 0.22918
# Poissons Ratio (y) = 0.22098 0.53050
# Poissons Ratio (z) = 0.17143 0.27445
#
# Static dielectric constant tensor:
#      x y z
#    x 2.197580 0.000000 -0.033040 
#    y 0.000000 1.682520 0.000000 
#    z -0.033040 0.000000 1.823270 
# 
# From -- ./inp_files/34041.got.cif
#   From: 2010.05.17/outbox.cif.g08.bks.cpg/sg13_18_cif.got.tgz:34041.got - 2010.06.03 16:44:36.
