data_PCOD9231217
_publ_section_title
;
Structure prediction by ZEFSAII (Michael W. Deem and Ramdas Pophale) SiO2 
 PCOD9231217
Probable space group: P 2/C
;
_chemical_formula_sum "Si O2"
_cell_formula_units_Z 24
_cell_length_a 10.056900
_cell_length_b 13.456470
_cell_length_c 11.215378
_cell_angle_alpha 90.000000
_cell_angle_beta 139.268228
_cell_angle_gamma 90.000000
_cell_volume 990.380687
_symmetry_space_group_name_H-M "P 2/C"
_symmetry_group_IT_number 13
_symmetry_cell_setting 'monoclinic'
loop_
_space_group_symop_operation_xyz
x,y,z
-x,y,1/2-z
-x,-y,-z
x,-y,1/2+z
loop_
_atom_site_type_symbol
_atom_site_label
_atom_site_fract_x
_atom_site_fract_y
_atom_site_fract_z
Si Si1 0.734349 0.804698 0.208045
Si Si2 0.728432 0.016387 0.862576
Si Si3 0.000000 0.886535 0.750000
Si Si4 0.925232 0.652474 0.020851
Si Si5 0.322155 0.194727 0.288788
Si Si6 0.842081 0.443345 0.042658
Si Si7 0.500000 0.687538 0.250000
O O1 0.932157 0.736818 0.323024
O O2 0.635891 0.756217 0.259620
O O3 0.776846 0.917086 0.278548
O O4 0.557313 0.803532 0.989007
O O5 0.500000 0.039242 0.750000
O O6 0.724429 0.901631 0.823573
O O7 0.879651 0.049243 0.069990
O O8 0.171560 0.821000 0.799635
O O9 0.832673 0.562811 0.034737
O O10 0.072254 0.596966 0.025014
O O11 0.748491 0.708765 0.829709
O O12 0.000000 0.413709 0.250000
O O13 0.632624 0.386479 0.920875
#
# Coordination Sequence:
#
# PCOD9231217 Si02
#       7
#     4   4   2   4   4   4   2
#     4  11  21  40  66  95 126 166 219 265 311 385
#     4  12  25  42  63  99 133 173 219 265 321 385
#     4  12  24  40  70  90 132 178 218 272 312 384
#     4  10  24  41  63  97 123 165 221 264 328 390
#     4  12  25  41  66  98 132 173 219 267 322 390
#     4  10  22  42  65  91 128 163 210 275 329 383
#     4  10  20  38  70  96 118 164 222 260 322 388
#
# _framework density 24.233105999999999
#
# number of rings (size 3 to 8) (size 9 to 14) (size 15 to 20)
#    0.000    1.000    4.167    2.000    3.500    1.333 
#    6.000    5.000    0.000    0.000    0.000    0.000 
#    0.000    0.000    0.000    0.000    0.000    0.000 
#
# Total GULP energy -134457.528421 kJ/mol
# GULP energy per Si atom -5602.397018 kJ/mol
# Density = 2.417795 g / cm^3
# Si number density = 24.233106 Si / 1000 Ang^3
#
#
#
# Elastic Constant Matrix: (Units=GPa)
#
#
# Indices 1 2 3 4 5 6 
#
# 1 50.5687 1.0974 -3.8034 0.0000 -4.1658 0.0000
# 2 1.0974 117.5607 25.7396 0.0000 1.7609 0.0000
# 3 -3.8034 25.7396 151.2456 0.0000 10.3481 0.0000
# 4 0.0000 0.0000 0.0000 43.9661 0.0000 -0.5423
# 5 -4.1658 1.7609 10.3481 0.0000 13.3253 0.0000
# 6 0.0000 0.0000 0.0000 -0.5423 0.0000 -42.4057
#
#
#
# Elastic Compliance Matrix: (Units=1/GPa)
#
#
# Indices 1 2 3 4 5 6 
#
# 1 0.020310 -0.000313 0.000134 0.000000 0.006287 0.000000
# 2 -0.000313 0.008840 -0.001506 0.000000 -0.000097 0.000000
# 3 0.000134 -0.001506 0.007240 0.000000 -0.005381 0.000000
# 4 0.000000 0.000000 0.000000 0.022741 0.000000 -0.000291
# 5 0.006287 -0.000097 -0.005381 0.000000 0.081202 0.000000
# 6 0.000000 0.000000 0.000000 -0.000291 0.000000 -0.023578
#
#
# Mechanical properties :
#
#
# Convention : Reuss Voigt Hill
#
# Bulk Modulus (GPa) = 30.28480 40.60469 35.44474
# Shear Modulus (GPa) = 38.12964 22.73324 30.43144
#
# Velocity S-wave (km/s) = 3.97098 3.06618 3.54754
# Velocity P-wave (km/s) = 5.79218 5.41549 5.60700
#
# Compressibility (1/GPa) = 0.03301987
#
# Stress axis : x y z
#
# Youngs Moduli (GPa) = 49.23724 113.11847 138.12993
#
# Poissons Ratio (x) = 0.03541 -0.01849
# Poissons Ratio (y) = 0.01541 0.20799
# Poissons Ratio (z) = -0.00659 0.17033
#
# Static dielectric constant tensor:
#      x y z
#    x 1.946450 0.000000 0.009090 
#    y 0.000000 1.919000 0.000000 
#    z 0.009090 0.000000 1.888940 
# 
# From -- ./inp_files/53766.got.cif
#   From: 2010.05.17/outbox.cif.g08.bks.cpg/sg13_27_cif.got.tgz:53766.got - 2010.06.03 16:44:36.
