data_PCOD9231737
_publ_section_title
;
Structure prediction by ZEFSAII (Michael W. Deem and Ramdas Pophale) SiO2 
 PCOD9231737
Probable space group: P 2/C
;
_chemical_formula_sum "Si O2"
_cell_formula_units_Z 24
_cell_length_a 15.661400
_cell_length_b 15.052098
_cell_length_c 9.741389
_cell_angle_alpha 90.000000
_cell_angle_beta 33.688762
_cell_angle_gamma 90.000000
_cell_volume 1273.772830
_symmetry_space_group_name_H-M "P 2/C"
_symmetry_group_IT_number 13
_symmetry_cell_setting 'monoclinic'
loop_
_space_group_symop_operation_xyz
x,y,z
-x,y,1/2-z
-x,-y,-z
x,-y,1/2+z
loop_
_atom_site_type_symbol
_atom_site_label
_atom_site_fract_x
_atom_site_fract_y
_atom_site_fract_z
Si Si1 0.370921 0.084565 0.310329
Si Si2 0.417438 0.886030 0.227629
Si Si3 0.148228 0.767102 0.473898
Si Si4 0.317457 0.425570 0.472423
Si Si5 0.827916 0.561550 0.032524
Si Si6 0.855068 0.244684 0.844128
O O1 0.500000 0.110184 0.250000
O O2 0.233032 0.153550 0.503835
O O3 0.339404 0.979950 0.375181
O O4 0.447472 0.092619 0.059488
O O5 0.500000 0.845076 0.250000
O O6 0.295074 0.825641 0.313866
O O7 0.181013 0.667011 0.481107
O O8 0.108346 0.761750 0.366662
O O9 0.000000 0.803323 0.750000
O O10 0.500000 0.417070 0.250000
O O11 0.285192 0.503036 0.407297
O O12 0.222269 0.447702 0.740389
O O13 0.252883 0.331816 0.501747
O O14 0.000000 0.534710 0.750000
O O15 0.000000 0.255751 0.750000
#
# Coordination Sequence:
#
# PCOD9231737 Si02
#       6
#     4   4   4   4   4   4
#     4  10  20  41  63  87 121 158 204 250 296 364
#     4  10  22  38  63  91 120 158 198 251 310 353
#     4  10  23  41  59  89 126 158 199 252 299 360
#     4  11  23  40  64  93 121 158 206 255 304 362
#     4  10  22  41  62  87 125 163 198 248 308 364
#     4  11  24  40  63  87 119 167 205 245 303 364
#
# _framework density 18.841664999999999
#
# number of rings (size 3 to 8) (size 9 to 14) (size 15 to 20)
#    0.000    1.667    1.667    2.000    4.667    4.000 
#    0.000    1.667    0.000    0.000    0.000    0.000 
#    0.000    0.000    0.000    0.000    0.000    0.000 
#
# Total GULP energy -133896.332135 kJ/mol
# GULP energy per Si atom -5579.013839 kJ/mol
# Density = 1.879878 g / cm^3
# Si number density = 18.841665 Si / 1000 Ang^3
#
#
#
# Elastic Constant Matrix: (Units=GPa)
#
#
# Indices 1 2 3 4 5 6 
#
# 1 143.0962 49.6994 30.5798 0.0000 -13.8665 0.0000
# 2 49.6994 67.6055 27.3202 0.0000 -14.0927 0.0000
# 3 30.5798 27.3202 56.5427 0.0000 0.0467 0.0000
# 4 0.0000 0.0000 0.0000 20.4862 0.0000 1.2369
# 5 -13.8665 -14.0927 0.0467 0.0000 27.7065 0.0000
# 6 0.0000 0.0000 0.0000 1.2369 0.0000 -9.2958
#
#
#
# Elastic Compliance Matrix: (Units=1/GPa)
#
#
# Indices 1 2 3 4 5 6 
#
# 1 0.009693 -0.005717 -0.002482 0.000000 0.001947 0.000000
# 2 -0.005717 0.024552 -0.008779 0.000000 0.009642 0.000000
# 3 -0.002482 -0.008779 0.023274 0.000000 -0.005747 0.000000
# 4 0.000000 0.000000 0.000000 0.048424 0.000000 0.006443
# 5 0.001947 0.009642 -0.005747 0.000000 0.041981 0.000000
# 6 0.000000 0.000000 0.000000 0.006443 0.000000 -0.106718
#
#
# Mechanical properties :
#
#
# Convention : Reuss Voigt Hill
#
# Bulk Modulus (GPa) = 42.43703 53.60480 48.02091
# Shear Modulus (GPa) = 60.22900 18.42239 39.32569
#
# Velocity S-wave (km/s) = 5.65997 3.13029 4.57351
# Velocity P-wave (km/s) = 8.07995 6.44801 7.30966
#
# Compressibility (1/GPa) = 0.02356433
#
# Stress axis : x y z
#
# Youngs Moduli (GPa) = 103.16876 40.72986 42.96555
#
# Poissons Ratio (x) = 0.23285 0.10662
# Poissons Ratio (y) = 0.58980 0.37720
# Poissons Ratio (z) = 0.25601 0.35757
#
# Static dielectric constant tensor:
#      x y z
#    x 1.631790 0.000000 0.012740 
#    y 0.000000 1.650430 0.000000 
#    z 0.012740 0.000000 1.672350 
# 
# From -- ./inp_files/19498.got.cif
#   From: 2010.05.17/outbox.cif.g08.bks.cpg/sg13_10_cif.got.tgz:19498.got - 2010.06.03 16:44:36.
