data_PCOD9231674
_publ_section_title
;
Structure prediction by ZEFSAII (Michael W. Deem and Ramdas Pophale) SiO2 
 PCOD9231674
Probable space group: P 2/C
;
_chemical_formula_sum "Si O2"
_cell_formula_units_Z 24
_cell_length_a 10.371967
_cell_length_b 17.685821
_cell_length_c 9.779955
_cell_angle_alpha 90.000000
_cell_angle_beta 137.661600
_cell_angle_gamma 90.000000
_cell_volume 1208.275614
_symmetry_space_group_name_H-M "P 2/C"
_symmetry_group_IT_number 13
_symmetry_cell_setting 'monoclinic'
loop_
_space_group_symop_operation_xyz
x,y,z
-x,y,1/2-z
-x,-y,-z
x,-y,1/2+z
loop_
_atom_site_type_symbol
_atom_site_label
_atom_site_fract_x
_atom_site_fract_y
_atom_site_fract_z
Si Si1 0.474810 0.575983 0.890920
Si Si2 0.041617 0.424362 0.121252
Si Si3 0.849863 0.668898 0.251233
Si Si4 0.635056 0.926695 0.236639
Si Si5 0.976881 0.159888 0.885769
Si Si6 0.368507 0.897724 0.767000
O O1 0.500000 0.557801 0.750000
O O2 0.259608 0.600514 0.760280
O O3 0.500000 0.500000 0.000000
O O4 0.639606 0.637474 0.051753
O O5 0.000000 0.434813 0.250000
O O6 0.000000 0.500000 0.000000
O O7 0.905538 0.363907 0.942380
O O8 0.883759 0.758236 0.287259
O O9 0.000000 0.641692 0.250000
O O10 0.500000 0.897670 0.250000
O O11 0.832300 0.886038 0.365205
O O12 0.683489 0.014591 0.305170
O O13 0.504298 0.909869 0.002517
O O14 0.000000 0.126153 0.750000
O O15 0.181656 0.154250 0.120681
O O16 0.500000 0.866452 0.750000
#
# Coordination Sequence:
#
# PCOD9231674 Si02
#       6
#     4   4   4   4   4   4
#     4  12  24  41  71  96 125 170 215 272 327 382
#     4  12  24  43  69  98 130 164 217 272 323 390
#     4  11  25  45  63  96 132 173 223 266 325 401
#     4  10  22  40  64 100 130 164 218 281 321 382
#     4  11  23  42  66  92 130 178 220 263 327 406
#     4  10  20  40  69  94 128 171 222 268 326 386
#
# _framework density 19.863016999999999
#
# number of rings (size 3 to 8) (size 9 to 14) (size 15 to 20)
#    0.000    1.000    5.000    2.000    0.000    2.000 
#    6.000    0.000    0.000    0.000    0.000    0.000 
#    0.000    0.000    0.000    0.000    0.000    0.000 
#
# Total GULP energy -133906.830765 kJ/mol
# GULP energy per Si atom -5579.451282 kJ/mol
# Density = 1.981781 g / cm^3
# Si number density = 19.863017 Si / 1000 Ang^3
#
#
#
# Elastic Constant Matrix: (Units=GPa)
#
#
# Indices 1 2 3 4 5 6 
#
# 1 146.5207 33.3120 49.7581 0.0000 6.2653 0.0000
# 2 33.3120 49.3541 22.5108 0.0000 16.9718 0.0000
# 3 49.7581 22.5108 93.6511 0.0000 13.7200 0.0000
# 4 0.0000 0.0000 0.0000 28.7714 0.0000 5.9983
# 5 6.2653 16.9718 13.7200 0.0000 49.9173 0.0000
# 6 0.0000 0.0000 0.0000 5.9983 0.0000 23.3204
#
#
#
# Elastic Compliance Matrix: (Units=1/GPa)
#
#
# Indices 1 2 3 4 5 6 
#
# 1 0.009228 -0.004988 -0.003942 0.000000 0.001621 0.000000
# 2 -0.004988 0.027671 -0.002828 0.000000 -0.008005 0.000000
# 3 -0.003942 -0.002828 0.013794 0.000000 -0.002335 0.000000
# 4 0.000000 0.000000 0.000000 0.036726 0.000000 -0.009446
# 5 0.001621 -0.008005 -0.002335 0.000000 0.023193 0.000000
# 6 0.000000 0.000000 0.000000 -0.009446 0.000000 0.045311
#
#
# Mechanical properties :
#
#
# Convention : Reuss Voigt Hill
#
# Bulk Modulus (GPa) = 36.79540 55.63195 46.21367
# Shear Modulus (GPa) = 26.52534 32.66485 29.59509
#
# Velocity S-wave (km/s) = 3.65830 4.05965 3.86419
# Velocity P-wave (km/s) = 6.03398 7.07410 6.57464
#
# Compressibility (1/GPa) = 0.02717731
#
# Stress axis : x y z
#
# Youngs Moduli (GPa) = 108.36181 36.13848 72.49509
#
# Poissons Ratio (x) = 0.18027 0.28575
# Poissons Ratio (y) = 0.54056 0.20503
# Poissons Ratio (z) = 0.42712 0.10221
#
# Static dielectric constant tensor:
#      x y z
#    x 1.688550 0.000000 0.001430 
#    y 0.000000 1.770910 0.000000 
#    z 0.001430 0.000000 1.713150 
# 
# From -- ./inp_files/13514.got.cif
#   From: 2010.05.17/outbox.cif.g08.bks.cpg/sg13_7_cif.got.tgz:13514.got - 2010.06.03 16:44:36.
