data_PCOD9231882
_publ_section_title
;
Structure prediction by ZEFSAII (Michael W. Deem and Ramdas Pophale) SiO2 
 PCOD9231882
Probable space group: P 2/C
;
_chemical_formula_sum "Si O2"
_cell_formula_units_Z 24
_cell_length_a 9.335145
_cell_length_b 9.395028
_cell_length_c 23.589995
_cell_angle_alpha 90.000000
_cell_angle_beta 149.980785
_cell_angle_gamma 90.000000
_cell_volume 1035.068688
_symmetry_space_group_name_H-M "P 2/C"
_symmetry_group_IT_number 13
_symmetry_cell_setting 'monoclinic'
loop_
_space_group_symop_operation_xyz
x,y,z
-x,y,1/2-z
-x,-y,-z
x,-y,1/2+z
loop_
_atom_site_type_symbol
_atom_site_label
_atom_site_fract_x
_atom_site_fract_y
_atom_site_fract_z
Si Si1 0.500000 0.903024 0.750000
Si Si2 0.790338 0.757638 0.061978
Si Si3 0.124876 0.288633 0.346842
Si Si4 0.982008 0.332332 0.423831
Si Si5 0.221509 0.639540 0.121042
Si Si6 0.817466 0.990715 0.260983
Si Si7 0.000000 0.236033 0.750000
O O1 0.224637 0.803142 0.647851
O O2 0.447224 0.993346 0.788043
O O3 0.941533 0.694906 0.058517
O O4 0.898918 0.686605 0.158716
O O5 0.452354 0.748864 0.946121
O O6 0.921965 0.915042 0.115609
O O7 0.000000 0.372521 0.250000
O O8 0.099753 0.355204 0.400826
O O9 0.928170 0.146068 0.282431
O O10 0.798715 0.468985 0.380465
O O11 0.215628 0.318599 0.553413
O O12 0.500000 0.689427 0.250000
O O13 0.764822 0.880298 0.191733
#
# Coordination Sequence:
#
# PCOD9231882 Si02
#       7
#     2   4   4   4   4   4   2
#     4  10  20  42  66  96 120 178 224 260 318 400
#     4  10  23  38  63  95 129 170 206 269 327 376
#     4  11  22  41  66  93 130 173 219 264 318 390
#     4  10  25  43  67  94 127 176 221 267 319 382
#     4  11  25  44  67  93 136 168 217 273 325 378
#     4   9  20  37  64  91 131 165 216 263 322 385
#     4   8  20  38  56  90 130 162 204 258 332 370
#
# _framework density 23.186868
#
# number of rings (size 3 to 8) (size 9 to 14) (size 15 to 20)
#    1.000    1.000    1.667    0.500    8.167    0.667 
#    1.500    1.667    0.000    0.000    0.000    0.000 
#    0.000    0.000    0.000    0.000    0.000    0.000 
#
# Total GULP energy -133955.887771 kJ/mol
# GULP energy per Si atom -5581.495324 kJ/mol
# Density = 2.313409 g / cm^3
# Si number density = 23.186868 Si / 1000 Ang^3
#
#
#
# Elastic Constant Matrix: (Units=GPa)
#
#
# Indices 1 2 3 4 5 6 
#
# 1 173.8028 22.8230 52.9126 0.0000 -20.7101 0.0000
# 2 22.8230 43.0781 4.5475 0.0000 -12.9796 0.0000
# 3 52.9126 4.5475 93.2862 0.0000 -21.6128 0.0000
# 4 0.0000 0.0000 0.0000 -30.6517 0.0000 35.4168
# 5 -20.7101 -12.9796 -21.6128 0.0000 45.8354 0.0000
# 6 0.0000 0.0000 0.0000 35.4168 0.0000 -33.3956
#
#
#
# Elastic Compliance Matrix: (Units=1/GPa)
#
#
# Indices 1 2 3 4 5 6 
#
# 1 0.007462 -0.003369 -0.003938 0.000000 0.000561 0.000000
# 2 -0.003369 0.026919 0.002259 0.000000 0.007166 0.000000
# 3 -0.003938 0.002259 0.014122 0.000000 0.005519 0.000000
# 4 0.000000 0.000000 0.000000 0.144745 0.000000 0.153505
# 5 0.000561 0.007166 0.005519 0.000000 0.026702 0.000000
# 6 0.000000 0.000000 0.000000 0.153505 0.000000 0.132852
#
#
# Mechanical properties :
#
#
# Convention : Reuss Voigt Hill
#
# Bulk Modulus (GPa) = 26.03732 52.30368 39.17050
# Shear Modulus (GPa) = 13.30846 11.68323 12.49585
#
# Velocity S-wave (km/s) = 2.39836 2.24715 2.32398
# Velocity P-wave (km/s) = 4.35008 5.41658 4.91236
#
# Compressibility (1/GPa) = 0.03840641
#
# Stress axis : x y z
#
# Youngs Moduli (GPa) = 134.01649 37.14844 70.81099
#
# Poissons Ratio (x) = 0.12514 0.27887
# Poissons Ratio (y) = 0.45145 -0.15994
# Poissons Ratio (z) = 0.52779 -0.08391
#
# Static dielectric constant tensor:
#      x y z
#    x 1.911480 0.000000 -0.057660 
#    y 0.000000 1.893010 0.000000 
#    z -0.057660 0.000000 1.858190 
# 
# From -- ./inp_files/85266.got.cif
#   From: 2010.05.17/outbox.cif.g08.bks.cpg/sg13_43_cif.got.tgz:85266.got - 2010.06.03 16:44:36.
