data_PCOD9231993
_publ_section_title
;
Structure prediction by ZEFSAII (Michael W. Deem and Ramdas Pophale) SiO2 
 PCOD9231993
Probable space group: P 2/C
;
_chemical_formula_sum "Si O2"
_cell_formula_units_Z 20
_cell_length_a 8.944465
_cell_length_b 14.234184
_cell_length_c 11.293350
_cell_angle_alpha 90.000000
_cell_angle_beta 44.542532
_cell_angle_gamma 90.000000
_cell_volume 1008.554456
_symmetry_space_group_name_H-M "P 2/C"
_symmetry_group_IT_number 13
_symmetry_cell_setting 'monoclinic'
loop_
_space_group_symop_operation_xyz
x,y,z
-x,y,1/2-z
-x,-y,-z
x,-y,1/2+z
loop_
_atom_site_type_symbol
_atom_site_label
_atom_site_fract_x
_atom_site_fract_y
_atom_site_fract_z
Si Si1 0.000000 0.079156 0.750000
Si Si2 0.500000 0.646971 0.250000
Si Si3 0.763492 0.535671 0.908092
Si Si4 0.371916 0.206308 0.642720
Si Si5 0.389513 0.029349 0.937252
Si Si6 0.451510 0.639627 0.913730
O O1 0.161460 0.144309 0.735709
O O2 0.153226 0.013384 0.582795
O O3 0.349357 0.585004 0.417308
O O4 0.646562 0.711968 0.250470
O O5 0.631258 0.572845 0.870333
O O6 0.000000 0.566824 0.750000
O O7 0.752958 0.424508 0.940140
O O8 0.565854 0.140592 0.579014
O O9 0.435528 0.260740 0.487336
O O10 0.500000 0.998971 0.750000
O O11 0.500000 0.000000 0.000000
O O12 0.500000 0.651174 0.750000
#
# Coordination Sequence:
#
# PCOD9231993 Si02
#       6
#     2   2   4   4   4   4
#     4  10  24  42  70  96 124 176 210 270 340 384
#     4  10  20  44  60  92 138 160 214 266 302 386
#     4  10  22  40  65  90 125 179 210 255 326 368
#     4  10  22  40  65  95 130 168 213 266 316 382
#     4  10  22  44  66  95 130 166 213 275 329 391
#     4  10  22  41  61  96 132 163 220 269 301 382
#
# _framework density 19.830362999999998
#
# number of rings (size 3 to 8) (size 9 to 14) (size 15 to 20)
#    0.000    2.000    2.000    0.000    1.400    8.800 
#    7.200    2.000    0.000    0.000    0.000    0.000 
#    0.000    0.000    0.000    0.000    0.000    0.000 
#
# Total GULP energy -111418.743998 kJ/mol
# GULP energy per Si atom -5570.937200 kJ/mol
# Density = 1.978523 g / cm^3
# Si number density = 19.830363 Si / 1000 Ang^3
#
#
#
# Elastic Constant Matrix: (Units=GPa)
#
#
# Indices 1 2 3 4 5 6 
#
# 1 67.9518 28.7106 71.1079 0.0000 7.6735 0.0000
# 2 28.7106 81.3444 54.3355 0.0000 -4.1651 0.0000
# 3 71.1079 54.3355 162.0111 0.0000 13.2748 0.0000
# 4 0.0000 0.0000 0.0000 23.6754 0.0000 11.6467
# 5 7.6735 -4.1651 13.2748 0.0000 41.9246 0.0000
# 6 0.0000 0.0000 0.0000 11.6467 0.0000 34.0556
#
#
#
# Elastic Compliance Matrix: (Units=1/GPa)
#
#
# Indices 1 2 3 4 5 6 
#
# 1 0.027618 -0.002366 -0.011185 0.000000 -0.001748 0.000000
# 2 -0.002366 0.016515 -0.004795 0.000000 0.003592 0.000000
# 3 -0.011185 -0.004795 0.012895 0.000000 -0.002512 0.000000
# 4 0.000000 0.000000 0.000000 0.050781 0.000000 -0.017367
# 5 -0.001748 0.003592 -0.002512 0.000000 0.025325 0.000000
# 6 0.000000 0.000000 0.000000 -0.017367 0.000000 0.035303
#
#
# Mechanical properties :
#
#
# Convention : Reuss Voigt Hill
#
# Bulk Modulus (GPa) = 49.17126 68.84615 59.00870
# Shear Modulus (GPa) = 23.59519 30.40801 27.00160
#
# Velocity S-wave (km/s) = 3.45316 3.92012 3.69403
# Velocity P-wave (km/s) = 6.38349 7.43523 6.92934
#
# Compressibility (1/GPa) = 0.02033708
#
# Stress axis : x y z
#
# Youngs Moduli (GPa) = 36.20851 60.55042 77.54681
#
# Poissons Ratio (x) = 0.14327 0.86735
# Poissons Ratio (y) = 0.08567 0.37181
# Poissons Ratio (z) = 0.40499 0.29032
#
# Static dielectric constant tensor:
#      x y z
#    x 1.774960 0.000000 -0.007060 
#    y 0.000000 1.762750 0.000000 
#    z -0.007060 0.000000 1.724400 
# 
# From -- ./inp_files/29821.got.cif
#   From: 2010.05.17/outbox.cif.g08.bks.cpg/sg13_15_cif.got.tgz:29821.got - 2010.06.03 16:44:36.
