data_PCOD9231015
_publ_section_title
;
Structure prediction by ZEFSAII (Michael W. Deem and Ramdas Pophale) SiO2 
 PCOD9231015
Probable space group: P 2/C
;
_chemical_formula_sum "Si O2"
_cell_formula_units_Z 32
_cell_length_a 16.949480
_cell_length_b 19.661201
_cell_length_c 16.627225
_cell_angle_alpha 90.000000
_cell_angle_beta 162.584148
_cell_angle_gamma 90.000000
_cell_volume 1658.440378
_symmetry_space_group_name_H-M "P 2/C"
_symmetry_group_IT_number 13
_symmetry_cell_setting 'monoclinic'
loop_
_space_group_symop_operation_xyz
x,y,z
-x,y,1/2-z
-x,-y,-z
x,-y,1/2+z
loop_
_atom_site_type_symbol
_atom_site_label
_atom_site_fract_x
_atom_site_fract_y
_atom_site_fract_z
Si Si1 0.969598 0.474962 0.560932
Si Si2 0.531434 0.395173 0.377026
Si Si3 0.539886 0.751096 0.964392
Si Si4 0.008639 0.790827 0.529044
Si Si5 0.440924 0.100830 0.098005
Si Si6 0.039909 0.937700 0.478758
Si Si7 0.240758 0.399313 0.543718
Si Si8 0.239433 0.753393 0.045663
O O1 0.734327 0.421656 0.340327
O O2 0.864957 0.542780 0.502076
O O3 0.000000 0.500000 0.500000
O O4 0.225811 0.440624 0.852074
O O5 0.500000 0.401998 0.250000
O O6 0.548666 0.316230 0.418983
O O7 0.536151 0.819938 0.907100
O O8 0.294276 0.757734 0.788104
O O9 0.805722 0.752241 0.274038
O O10 0.020343 0.868339 0.510810
O O11 0.880562 0.789423 0.492742
O O12 0.500000 0.096406 0.250000
O O13 0.670598 0.060090 0.276658
O O14 0.168254 0.071542 0.796962
O O15 0.000000 0.000000 0.500000
O O16 0.500000 0.424197 0.750000
O O17 0.305320 0.324014 0.638885
O O18 0.000000 0.387937 0.250000
O O19 0.500000 0.777791 0.250000
O O20 0.000000 0.753699 0.750000
#
# Coordination Sequence:
#
# PCOD9231015 Si02
#       8
#     4   4   4   4   4   4   4   4
#     4  12  26  41  58  87 117 154 197 244 299 360
#     4  12  25  42  63  87 120 154 192 248 305 362
#     4  10  22  37  63  91 117 157 195 246 304 358
#     4  10  21  39  61  87 124 155 194 251 296 349
#     4  10  20  38  62  91 125 159 206 249 292 356
#     4  10  21  38  61  90 125 168 202 240 297 358
#     4  10  21  38  59  77 106 150 191 237 292 351
#     4  10  21  37  59  85 109 150 199 247 294 346
#
# _framework density 19.295238000000001
#
# number of rings (size 3 to 8) (size 9 to 14) (size 15 to 20)
#    0.000    1.500    0.000    5.250    3.500    0.000 
#    0.000    5.625    0.000    0.000    0.000    0.000 
#    0.000    0.000    0.000    0.000    0.000    0.000 
#
# Total GULP energy -178551.555765 kJ/mol
# GULP energy per Si atom -5579.736118 kJ/mol
# Density = 1.925132 g / cm^3
# Si number density = 19.295238 Si / 1000 Ang^3
#
#
#
# Elastic Constant Matrix: (Units=GPa)
#
#
# Indices 1 2 3 4 5 6 
#
# 1 79.4020 28.7174 13.9270 0.0000 -3.6894 0.0000
# 2 28.7174 39.5675 15.3879 0.0000 -7.1629 0.0000
# 3 13.9270 15.3879 93.7577 0.0000 11.9955 0.0000
# 4 0.0000 0.0000 0.0000 15.9219 0.0000 2.6832
# 5 -3.6894 -7.1629 11.9955 0.0000 26.6213 0.0000
# 6 0.0000 0.0000 0.0000 2.6832 0.0000 30.8753
#
#
#
# Elastic Compliance Matrix: (Units=1/GPa)
#
#
# Indices 1 2 3 4 5 6 
#
# 1 0.017116 -0.012406 -0.000406 0.000000 -0.000783 0.000000
# 2 -0.012406 0.038650 -0.005954 0.000000 0.011363 0.000000
# 3 -0.000406 -0.005954 0.012645 0.000000 -0.007356 0.000000
# 4 0.000000 0.000000 0.000000 0.063740 0.000000 -0.005539
# 5 -0.000783 0.011363 -0.007356 0.000000 0.043828 0.000000
# 6 0.000000 0.000000 0.000000 -0.005539 0.000000 0.032870
#
#
# Mechanical properties :
#
#
# Convention : Reuss Voigt Hill
#
# Bulk Modulus (GPa) = 32.38635 36.53242 34.45939
# Shear Modulus (GPa) = 19.47995 24.99669 22.23832
#
# Velocity S-wave (km/s) = 3.18082 3.60319 3.39857
# Velocity P-wave (km/s) = 5.50557 6.02371 5.77046
#
# Compressibility (1/GPa) = 0.03087720
#
# Stress axis : x y z
#
# Youngs Moduli (GPa) = 58.42490 25.87298 79.08564
#
# Poissons Ratio (x) = 0.32099 0.03212
# Poissons Ratio (y) = 0.72484 0.47091
# Poissons Ratio (z) = 0.02373 0.15406
#
# Static dielectric constant tensor:
#      x y z
#    x 1.684430 0.000000 -0.006990 
#    y 0.000000 1.705210 0.000000 
#    z -0.006990 0.000000 1.669540 
# 
# From -- ./inp_files/53996.got.cif
#   From: 2010.05.17/outbox.cif.g08.bks.cpg/sg13_27_cif.got.tgz:53996.got - 2010.06.03 16:44:36.
