data_PCOD9231699
_publ_section_title
;
Structure prediction by ZEFSAII (Michael W. Deem and Ramdas Pophale) SiO2 
 PCOD9231699
Probable space group: P 2/C
;
_chemical_formula_sum "Si O2"
_cell_formula_units_Z 24
_cell_length_a 28.641174
_cell_length_b 9.152588
_cell_length_c 8.924987
_cell_angle_alpha 90.000000
_cell_angle_beta 149.571194
_cell_angle_gamma 90.000000
_cell_volume 1184.932915
_symmetry_space_group_name_H-M "P 2/C"
_symmetry_group_IT_number 13
_symmetry_cell_setting 'monoclinic'
loop_
_space_group_symop_operation_xyz
x,y,z
-x,y,1/2-z
-x,-y,-z
x,-y,1/2+z
loop_
_atom_site_type_symbol
_atom_site_label
_atom_site_fract_x
_atom_site_fract_y
_atom_site_fract_z
Si Si1 0.133552 0.392613 0.866981
Si Si2 0.221718 0.855082 0.774691
Si Si3 0.785213 0.293702 0.924415
Si Si4 0.629205 0.898057 0.858902
Si Si5 0.064548 0.915105 0.794867
Si Si6 0.000000 0.499566 0.750000
Si Si7 0.500000 0.975226 0.250000
O O1 0.072644 0.410557 0.550192
O O2 0.060897 0.404173 0.803573
O O3 0.192269 0.247338 0.054538
O O4 0.198406 0.535066 0.048222
O O5 0.139359 0.971051 0.566329
O O6 0.230499 0.757081 0.947675
O O7 0.311444 0.952621 0.994239
O O8 0.701213 0.229048 0.595514
O O9 0.878404 0.213361 0.126282
O O10 0.569326 0.881499 0.543734
O O11 0.559748 0.925257 0.803592
O O12 0.000000 0.866330 0.750000
O O13 0.000000 0.000000 0.500000
#
# Coordination Sequence:
#
# PCOD9231699 Si02
#       7
#     4   4   4   4   4   2   2
#     4  11  24  39  61  79 127 175 212 260 296 351
#     4  11  23  42  58  89 125 164 202 265 298 365
#     4  11  23  41  58  90 124 162 207 258 303 365
#     4  10  22  41  70  96 122 150 199 247 328 372
#     4  11  24  36  58  82 120 163 209 262 306 339
#     4  10  24  36  52  86 112 172 234 244 280 346
#     4  10  20  40  72 102 114 150 190 256 308 412
#
# _framework density 20.25431
#
# number of rings (size 3 to 8) (size 9 to 14) (size 15 to 20)
#    0.000    1.333    5.000    0.000    7.000    1.333 
#    0.000    0.000    0.000    6.000    0.000    0.000 
#    0.000    0.000    0.000    0.000    0.000    0.000 
#
# Total GULP energy -134307.966829 kJ/mol
# GULP energy per Si atom -5596.165285 kJ/mol
# Density = 2.020821 g / cm^3
# Si number density = 20.254310 Si / 1000 Ang^3
#
#
#
# Elastic Constant Matrix: (Units=GPa)
#
#
# Indices 1 2 3 4 5 6 
#
# 1 76.7465 4.5587 25.9031 0.0000 5.8722 0.0000
# 2 4.5587 82.4982 32.5897 0.0000 11.4437 0.0000
# 3 25.9031 32.5897 150.9511 0.0000 -6.3203 0.0000
# 4 0.0000 0.0000 0.0000 28.6404 0.0000 -5.1011
# 5 5.8722 11.4437 -6.3203 0.0000 31.3365 0.0000
# 6 0.0000 0.0000 0.0000 -5.1011 0.0000 7.2403
#
#
#
# Elastic Compliance Matrix: (Units=1/GPa)
#
#
# Indices 1 2 3 4 5 6 
#
# 1 0.014179 0.000788 -0.002750 0.000000 -0.003499 0.000000
# 2 0.000788 0.014292 -0.003475 0.000000 -0.006068 0.000000
# 3 -0.002750 -0.003475 0.007989 0.000000 0.003396 0.000000
# 4 0.000000 0.000000 0.000000 0.039926 0.000000 0.028130
# 5 -0.003499 -0.006068 0.003396 0.000000 0.035468 0.000000
# 6 0.000000 0.000000 0.000000 0.028130 0.000000 0.157935
#
#
# Mechanical properties :
#
#
# Convention : Reuss Voigt Hill
#
# Bulk Modulus (GPa) = 39.08218 48.47765 43.77992
# Shear Modulus (GPa) = 17.28960 29.91972 23.60466
#
# Velocity S-wave (km/s) = 2.92486 3.84761 3.41752
# Velocity P-wave (km/s) = 5.54473 6.61251 6.10202
#
# Compressibility (1/GPa) = 0.02558711
#
# Stress axis : x y z
#
# Youngs Moduli (GPa) = 70.52707 69.96735 125.17320
#
# Poissons Ratio (x) = -0.05515 0.34420
# Poissons Ratio (y) = -0.05559 0.43497
# Poissons Ratio (z) = 0.19393 0.24314
#
# Static dielectric constant tensor:
#      x y z
#    x 1.719450 0.000000 0.007300 
#    y 0.000000 1.699890 0.000000 
#    z 0.007300 0.000000 1.523630 
# 
# From -- ./inp_files/18070.got.cif
#   From: 2010.05.17/outbox.cif.g08.bks.cpg/sg13_10_cif.got.tgz:18070.got - 2010.06.03 16:44:36.
