data_PCOD9231634
_publ_section_title
;
Structure prediction by ZEFSAII (Michael W. Deem and Ramdas Pophale) SiO2 
 PCOD9231634
Probable space group: P 2/C
;
_chemical_formula_sum "Si O2"
_cell_formula_units_Z 24
_cell_length_a 7.025558
_cell_length_b 9.425623
_cell_length_c 17.861071
_cell_angle_alpha 90.000000
_cell_angle_beta 120.001779
_cell_angle_gamma 90.000000
_cell_volume 1024.285988
_symmetry_space_group_name_H-M "P 2/C"
_symmetry_group_IT_number 13
_symmetry_cell_setting 'monoclinic'
loop_
_space_group_symop_operation_xyz
x,y,z
-x,y,1/2-z
-x,-y,-z
x,-y,1/2+z
loop_
_atom_site_type_symbol
_atom_site_label
_atom_site_fract_x
_atom_site_fract_y
_atom_site_fract_z
Si Si1 0.725310 0.778670 0.426465
Si Si2 0.148036 0.836372 0.407796
Si Si3 0.417002 0.924997 0.603954
Si Si4 0.306550 0.317632 0.273292
Si Si5 0.992063 0.859884 0.623263
Si Si6 0.400109 0.437047 0.902889
O O1 0.606707 0.630048 0.399621
O O2 0.927424 0.793475 0.409757
O O3 0.818338 0.804583 0.528313
O O4 0.551796 0.907168 0.381909
O O5 0.331394 0.879682 0.505688
O O6 0.236765 0.695285 0.385590
O O7 0.088384 0.989102 0.359026
O O8 0.608788 0.823219 0.667251
O O9 0.208117 0.898190 0.616688
O O10 0.500000 0.347524 0.250000
O O11 0.082294 0.268103 0.190420
O O12 0.298489 0.444448 0.330104
O O13 0.500000 0.500000 0.000000
#
# Coordination Sequence:
#
# PCOD9231634 Si02
#       6
#     4   4   4   4   4   4
#     4   9  20  39  70  92 125 179 222 269 322 391
#     4   9  18  39  66 102 128 165 230 269 316 401
#     4   8  15  35  65  96 124 170 227 264 322 393
#     4  10  20  40  66  97 138 178 216 278 349 389
#     4   8  17  36  68  95 127 176 222 277 322 384
#     4  12  24  39  67 103 136 175 218 268 336 414
#
# _framework density 23.430958
#
# number of rings (size 3 to 8) (size 9 to 14) (size 15 to 20)
#    0.000    2.667    1.667    2.000    0.000    3.333 
#    0.000    5.000    3.667    0.000    0.000    0.000 
#    0.000    0.000    0.000    0.000    0.000    0.000 
#
# Total GULP energy -134199.037813 kJ/mol
# GULP energy per Si atom -5591.626576 kJ/mol
# Density = 2.337763 g / cm^3
# Si number density = 23.430958 Si / 1000 Ang^3
#
#
#
# Elastic Constant Matrix: (Units=GPa)
#
#
# Indices 1 2 3 4 5 6 
#
# 1 107.6860 66.7000 25.3435 0.0000 -3.4902 0.0000
# 2 66.7000 163.9053 73.2578 0.0000 -1.3655 0.0000
# 3 25.3435 73.2578 65.0704 0.0000 -4.2947 0.0000
# 4 0.0000 0.0000 0.0000 42.4522 0.0000 3.5190
# 5 -3.4902 -1.3655 -4.2947 0.0000 27.2992 0.0000
# 6 0.0000 0.0000 0.0000 3.5190 0.0000 53.3595
#
#
#
# Elastic Compliance Matrix: (Units=1/GPa)
#
#
# Indices 1 2 3 4 5 6 
#
# 1 0.012581 -0.005966 0.001923 0.000000 0.001613 0.000000
# 2 -0.005966 0.015177 -0.014918 0.000000 -0.002350 0.000000
# 3 0.001923 -0.014918 0.031711 0.000000 0.004488 0.000000
# 4 0.000000 0.000000 0.000000 0.023685 0.000000 -0.001562
# 5 0.001613 -0.002350 0.004488 0.000000 0.037426 0.000000
# 6 0.000000 0.000000 0.000000 -0.001562 0.000000 0.018844
#
#
# Mechanical properties :
#
#
# Convention : Reuss Voigt Hill
#
# Bulk Modulus (GPa) = 46.41166 74.14047 60.27606
# Shear Modulus (GPa) = 27.09615 36.04621 31.57118
#
# Velocity S-wave (km/s) = 3.40431 3.92650 3.67470
# Velocity P-wave (km/s) = 5.94166 7.22962 6.61705
#
# Compressibility (1/GPa) = 0.02154631
#
# Stress axis : x y z
#
# Youngs Moduli (GPa) = 79.48399 65.88954 31.53521
#
# Poissons Ratio (x) = 0.39308 -0.06063
# Poissons Ratio (y) = 0.47418 0.47045
# Poissons Ratio (z) = -0.15283 0.98295
#
# Static dielectric constant tensor:
#      x y z
#    x 1.965610 0.000000 -0.035240 
#    y 0.000000 1.849080 0.000000 
#    z -0.035240 0.000000 1.893010 
# 
# From -- ./inp_files/75746.got.cif
#   From: 2010.05.17/outbox.cif.g08.bks.cpg/sg13_38_cif.got.tgz:75746.got - 2010.06.03 16:44:36.
