data_PCOD9231332
_publ_section_title
;
Structure prediction by ZEFSAII (Michael W. Deem and Ramdas Pophale) SiO2 
 PCOD9231332
Probable space group: P 2/C
;
_chemical_formula_sum "Si O2"
_cell_formula_units_Z 28
_cell_length_a 19.247356
_cell_length_b 5.173352
_cell_length_c 22.831233
_cell_angle_alpha 90.000000
_cell_angle_beta 149.349094
_cell_angle_gamma 90.000000
_cell_volume 1158.983857
_symmetry_space_group_name_H-M "P 2/C"
_symmetry_group_IT_number 13
_symmetry_cell_setting 'monoclinic'
loop_
_space_group_symop_operation_xyz
x,y,z
-x,y,1/2-z
-x,-y,-z
x,-y,1/2+z
loop_
_atom_site_type_symbol
_atom_site_label
_atom_site_fract_x
_atom_site_fract_y
_atom_site_fract_z
Si Si1 0.516079 0.752859 0.552111
Si Si2 0.218422 0.774481 0.551572
Si Si3 0.204815 0.428173 0.220834
Si Si4 0.768955 0.757112 0.140126
Si Si5 0.976201 0.889430 0.839393
Si Si6 0.727313 0.257322 0.843894
Si Si7 0.000000 0.540503 0.750000
Si Si8 0.500000 0.961003 0.250000
O O1 0.500000 0.500000 0.500000
O O2 0.660710 0.748709 0.687440
O O3 0.382118 0.759828 0.494265
O O4 0.500000 0.000000 0.500000
O O5 0.212294 0.971925 0.602781
O O6 0.366668 0.869683 0.634132
O O7 0.078571 0.868969 0.419771
O O8 0.225978 0.476721 0.575214
O O9 0.221278 0.590295 0.292987
O O10 0.069637 0.259505 0.134793
O O11 0.222184 0.626101 0.180331
O O12 0.871113 0.633586 0.169440
O O13 0.831424 0.027275 0.205773
O O14 0.035843 0.708349 0.832666
O O15 0.567401 0.208685 0.745934
#
# Coordination Sequence:
#
# PCOD9231332 Si02
#       8
#     4   4   4   4   4   4   2   2
#     4  10  20  39  63  93 129 167 207 266 325 383
#     4  10  24  41  66  92 132 169 219 267 330 384
#     4  10  23  39  66  95 130 166 217 267 334 384
#     4  10  22  41  65  93 136 167 220 271 328 399
#     4  11  23  41  65  91 131 172 214 275 331 393
#     4  10  23  42  66  97 126 171 217 267 319 393
#     4  10  24  42  60  98 126 178 220 274 322 406
#     4   8  22  44  62  88 130 166 218 266 308 390
#
# _framework density 24.159095000000001
#
# number of rings (size 3 to 8) (size 9 to 14) (size 15 to 20)
#    0.857    1.143    1.429    0.857    6.000    2.286 
#    0.000    2.857    0.000    0.000    0.000    0.000 
#    0.000    0.000    0.000    0.000    0.000    0.000 
#
# Total GULP energy -156176.388522 kJ/mol
# GULP energy per Si atom -5577.728162 kJ/mol
# Density = 2.410411 g / cm^3
# Si number density = 24.159095 Si / 1000 Ang^3
#
#
#
# Elastic Constant Matrix: (Units=GPa)
#
#
# Indices 1 2 3 4 5 6 
#
# 1 106.2525 7.9684 41.6715 0.0000 24.6642 0.0000
# 2 7.9684 73.2594 10.9487 0.0000 -1.3511 0.0000
# 3 41.6715 10.9487 86.7046 0.0000 27.8572 0.0000
# 4 0.0000 0.0000 0.0000 35.1419 0.0000 1.4152
# 5 24.6642 -1.3511 27.8572 0.0000 31.7767 0.0000
# 6 0.0000 0.0000 0.0000 1.4152 0.0000 31.4151
#
#
#
# Elastic Compliance Matrix: (Units=1/GPa)
#
#
# Indices 1 2 3 4 5 6 
#
# 1 0.012455 -0.000899 -0.003834 0.000000 -0.006344 0.000000
# 2 -0.000899 0.014182 -0.002473 0.000000 0.003469 0.000000
# 3 -0.003834 -0.002473 0.017772 0.000000 -0.012709 0.000000
# 4 0.000000 0.000000 0.000000 0.028508 0.000000 -0.001284
# 5 -0.006344 0.003469 -0.012709 0.000000 0.047683 0.000000
# 6 0.000000 0.000000 0.000000 -0.001284 0.000000 0.031890
#
#
# Mechanical properties :
#
#
# Convention : Reuss Voigt Hill
#
# Bulk Modulus (GPa) = 33.33805 43.04374 38.19090
# Shear Modulus (GPa) = 28.26450 33.37526 30.81988
#
# Velocity S-wave (km/s) = 3.42414 3.72086 3.57558
# Velocity P-wave (km/s) = 5.42792 6.02621 5.73487
#
# Compressibility (1/GPa) = 0.02999575
#
# Stress axis : x y z
#
# Youngs Moduli (GPa) = 80.28592 70.51436 56.26896
#
# Poissons Ratio (x) = 0.06337 0.21576
# Poissons Ratio (y) = 0.07216 0.13917
# Poissons Ratio (z) = 0.30785 0.17441
#
# Static dielectric constant tensor:
#      x y z
#    x 1.957630 0.000000 -0.014090 
#    y 0.000000 1.943670 0.000000 
#    z -0.014090 0.000000 2.045420 
# 
# From -- ./inp_files/93409.got.cif
#   From: 2010.05.17/outbox.cif.g08.bks.cpg/sg13_47_cif.got.tgz:93409.got - 2010.06.03 16:44:36.
