data_PCOD9231476
_publ_section_title
;
Structure prediction by ZEFSAII (Michael W. Deem and Ramdas Pophale) SiO2 
 PCOD9231476
Probable space group: P 2/C
;
_chemical_formula_sum "Si O2"
_cell_formula_units_Z 24
_cell_length_a 14.471685
_cell_length_b 8.362419
_cell_length_c 14.492239
_cell_angle_alpha 90.000000
_cell_angle_beta 38.667507
_cell_angle_gamma 90.000000
_cell_volume 1095.790447
_symmetry_space_group_name_H-M "P 2/C"
_symmetry_group_IT_number 13
_symmetry_cell_setting 'monoclinic'
loop_
_space_group_symop_operation_xyz
x,y,z
-x,y,1/2-z
-x,-y,-z
x,-y,1/2+z
loop_
_atom_site_type_symbol
_atom_site_label
_atom_site_fract_x
_atom_site_fract_y
_atom_site_fract_z
Si Si1 0.810828 0.460217 0.960054
Si Si2 0.273114 0.422878 0.688854
Si Si3 0.448988 0.750060 0.588289
Si Si4 0.500000 0.353826 0.250000
Si Si5 0.828317 0.076347 0.236803
Si Si6 0.008110 0.753245 0.433277
Si Si7 0.000000 0.263865 0.250000
O O1 0.787961 0.430566 0.868463
O O2 0.907129 0.620332 0.889405
O O3 0.899337 0.319725 0.941663
O O4 0.646430 0.461817 0.129256
O O5 0.344681 0.592911 0.656430
O O6 0.406003 0.293996 0.583771
O O7 0.132907 0.378345 0.860286
O O8 0.491843 0.750112 0.662974
O O9 0.346289 0.897263 0.639659
O O10 0.883268 0.156691 0.287540
O O11 0.891819 0.898629 0.182747
O O12 0.910266 0.174949 0.091311
#
# Coordination Sequence:
#
# PCOD9231476 Si02
#       7
#     4   4   4   2   4   4   2
#     4  11  20  38  63  92 116 161 205 252 309 358
#     4  10  21  36  63  89 120 157 205 254 302 363
#     4  10  20  40  59  92 122 158 208 255 303 356
#     4  10  22  34  66  88 122 160 204 256 308 360
#     4  11  25  40  60  90 130 160 205 253 304 371
#     4  11  23  41  62  87 125 170 203 244 311 370
#     4  12  24  38  64  96 116 156 210 264 300 356
#
# _framework density 21.901997999999999
#
# number of rings (size 3 to 8) (size 9 to 14) (size 15 to 20)
#    0.000    1.333    5.000    0.000    4.667    2.000 
#    0.000    0.000    0.000    2.000    0.000    0.000 
#    0.000    0.000    0.000    0.000    0.000    0.000 
#
# Total GULP energy -134199.700950 kJ/mol
# GULP energy per Si atom -5591.654206 kJ/mol
# Density = 2.185215 g / cm^3
# Si number density = 21.901998 Si / 1000 Ang^3
#
#
#
# Elastic Constant Matrix: (Units=GPa)
#
#
# Indices 1 2 3 4 5 6 
#
# 1 105.0942 26.2258 17.5248 0.0000 -8.8549 0.0000
# 2 26.2258 53.1083 15.8070 0.0000 -10.7195 0.0000
# 3 17.5248 15.8070 92.4900 0.0000 -32.3541 0.0000
# 4 0.0000 0.0000 0.0000 28.4489 0.0000 -5.3068
# 5 -8.8549 -10.7195 -32.3541 0.0000 44.9478 0.0000
# 6 0.0000 0.0000 0.0000 -5.3068 0.0000 24.2606
#
#
#
# Elastic Compliance Matrix: (Units=1/GPa)
#
#
# Indices 1 2 3 4 5 6 
#
# 1 0.010981 -0.005050 -0.001179 0.000000 0.000110 0.000000
# 2 -0.005050 0.022481 -0.001815 0.000000 0.003060 0.000000
# 3 -0.001179 -0.001815 0.014853 0.000000 0.010026 0.000000
# 4 0.000000 0.000000 0.000000 0.036646 0.000000 0.008016
# 5 0.000110 0.003060 0.010026 0.000000 0.030217 0.000000
# 6 0.000000 0.000000 0.000000 0.008016 0.000000 0.042973
#
#
# Mechanical properties :
#
#
# Convention : Reuss Voigt Hill
#
# Bulk Modulus (GPa) = 31.02883 41.08974 36.05929
# Shear Modulus (GPa) = 27.03001 32.27380 29.65190
#
# Velocity S-wave (km/s) = 3.51684 3.84286 3.68345
# Velocity P-wave (km/s) = 5.53974 6.20415 5.88134
#
# Compressibility (1/GPa) = 0.03222809
#
# Stress axis : x y z
#
# Youngs Moduli (GPa) = 91.06412 44.48238 67.32732
#
# Poissons Ratio (x) = 0.22461 0.07939
# Poissons Ratio (y) = 0.45983 0.12218
# Poissons Ratio (z) = 0.10737 0.08073
#
# Static dielectric constant tensor:
#      x y z
#    x 1.798710 0.000000 0.002220 
#    y 0.000000 1.806000 0.000000 
#    z 0.002220 0.000000 1.823590 
# 
# From -- ./inp_files/52930.got.cif
#   From: 2010.05.17/outbox.cif.g08.bks.cpg/sg13_27_cif.got.tgz:52930.got - 2010.06.03 16:44:36.
