data_PCOD9231850
_publ_section_title
;
Structure prediction by ZEFSAII (Michael W. Deem and Ramdas Pophale) SiO2 
 PCOD9231850
Probable space group: P 2/C
;
_chemical_formula_sum "Si O2"
_cell_formula_units_Z 28
_cell_length_a 8.437083
_cell_length_b 8.609052
_cell_length_c 21.880450
_cell_angle_alpha 90.000000
_cell_angle_beta 50.906532
_cell_angle_gamma 90.000000
_cell_volume 1233.479190
_symmetry_space_group_name_H-M "P 2/C"
_symmetry_group_IT_number 13
_symmetry_cell_setting 'monoclinic'
loop_
_space_group_symop_operation_xyz
x,y,z
-x,y,1/2-z
-x,-y,-z
x,-y,1/2+z
loop_
_atom_site_type_symbol
_atom_site_label
_atom_site_fract_x
_atom_site_fract_y
_atom_site_fract_z
Si Si1 0.000000 0.033695 0.250000
Si Si2 0.345679 0.904482 0.387633
Si Si3 0.253126 0.568975 0.805326
Si Si4 0.891174 0.100560 0.145681
Si Si5 0.722297 0.113890 0.985637
Si Si6 0.959583 0.352391 0.551227
Si Si7 0.690173 0.779912 0.368329
Si Si8 0.000000 0.471914 0.750000
O O1 0.106429 0.112441 0.281525
O O2 0.163203 0.922389 0.180191
O O3 0.157336 0.792488 0.450415
O O4 0.533376 0.787672 0.350476
O O5 0.282826 0.988494 0.340411
O O6 0.377708 0.040342 0.429996
O O7 0.500000 0.580617 0.750000
O O8 0.157273 0.722836 0.861119
O O9 0.178241 0.416075 0.859677
O O10 0.146322 0.555012 0.764254
O O11 0.100881 0.013140 0.074863
O O12 0.594661 0.171999 0.957431
O O13 0.834978 0.273285 0.975636
O O14 0.000000 0.500000 0.500000
O O15 0.837514 0.631959 0.328324
#
# Coordination Sequence:
#
# PCOD9231850 Si02
#       8
#     2   4   4   4   4   4   4   2
#     4   9  21  38  60  88 124 172 196 264 338 376
#     4  11  22  37  67  95 122 162 225 272 317 403
#     4  12  25  41  67  97 131 175 224 269 329 404
#     4  10  22  40  61  94 127 164 213 267 329 385
#     4  10  20  42  63  92 124 169 215 268 334 390
#     4  11  22  42  64  90 131 174 214 269 340 393
#     4  10  21  38  64  91 127 166 213 268 331 383
#     4  11  23  46  62  92 142 174 214 274 340 402
#
# _framework density 22.700018
#
# number of rings (size 3 to 8) (size 9 to 14) (size 15 to 20)
#    0.000    1.429    1.429    5.143    4.000    0.000 
#    0.000    0.714    0.000    0.000    0.000    0.000 
#    0.000    0.000    0.000    0.000    0.000    0.000 
#
# Total GULP energy -155999.314730 kJ/mol
# GULP energy per Si atom -5571.404098 kJ/mol
# Density = 2.264835 g / cm^3
# Si number density = 22.700018 Si / 1000 Ang^3
#
#
#
# Elastic Constant Matrix: (Units=GPa)
#
#
# Indices 1 2 3 4 5 6 
#
# 1 153.9325 37.0099 20.8020 0.0000 17.3717 0.0000
# 2 37.0099 99.6461 19.4009 0.0000 22.1229 0.0000
# 3 20.8020 19.4009 43.4931 0.0000 15.3109 0.0000
# 4 0.0000 0.0000 0.0000 44.9511 0.0000 30.9201
# 5 17.3717 22.1229 15.3109 0.0000 24.6119 0.0000
# 6 0.0000 0.0000 0.0000 30.9201 0.0000 32.6800
#
#
#
# Elastic Compliance Matrix: (Units=1/GPa)
#
#
# Indices 1 2 3 4 5 6 
#
# 1 0.007474 -0.001871 -0.001889 0.000000 -0.002419 0.000000
# 2 -0.001871 0.013155 -0.001633 0.000000 -0.009488 0.000000
# 3 -0.001889 -0.001633 0.030266 0.000000 -0.016027 0.000000
# 4 0.000000 0.000000 0.000000 0.063710 0.000000 -0.060279
# 5 -0.002419 -0.009488 -0.016027 0.000000 0.060837 0.000000
# 6 0.000000 0.000000 0.000000 -0.060279 0.000000 0.087633
#
#
# Mechanical properties :
#
#
# Convention : Reuss Voigt Hill
#
# Bulk Modulus (GPa) = 24.93191 50.16635 37.54913
# Shear Modulus (GPa) = 17.40760 35.10588 26.25674
#
# Velocity S-wave (km/s) = 2.77222 3.93684 3.40469
# Velocity P-wave (km/s) = 4.61020 6.54313 5.65980
#
# Compressibility (1/GPa) = 0.04010925
#
# Stress axis : x y z
#
# Youngs Moduli (GPa) = 133.78860 76.01684 33.04044
#
# Poissons Ratio (x) = 0.14226 0.06240
# Poissons Ratio (y) = 0.25038 0.05395
# Poissons Ratio (z) = 0.25269 0.12413
#
# Static dielectric constant tensor:
#      x y z
#    x 1.924010 0.000000 0.067180 
#    y 0.000000 1.816360 0.000000 
#    z 0.067180 0.000000 1.923570 
# 
# From -- ./inp_files/75966.got.cif
#   From: 2010.05.17/outbox.cif.g08.bks.cpg/sg13_38_cif.got.tgz:75966.got - 2010.06.03 16:44:36.
