data_PCOD9231876
_publ_section_title
;
Structure prediction by ZEFSAII (Michael W. Deem and Ramdas Pophale) SiO2 
 PCOD9231876
Probable space group: P 2/C
;
_chemical_formula_sum "Si O2"
_cell_formula_units_Z 24
_cell_length_a 11.370418
_cell_length_b 7.941711
_cell_length_c 11.322626
_cell_angle_alpha 90.000000
_cell_angle_beta 88.068766
_cell_angle_gamma 90.000000
_cell_volume 1021.858871
_symmetry_space_group_name_H-M "P 2/C"
_symmetry_group_IT_number 13
_symmetry_cell_setting 'monoclinic'
loop_
_space_group_symop_operation_xyz
x,y,z
-x,y,1/2-z
-x,-y,-z
x,-y,1/2+z
loop_
_atom_site_type_symbol
_atom_site_label
_atom_site_fract_x
_atom_site_fract_y
_atom_site_fract_z
Si Si1 0.500000 0.216941 0.250000
Si Si2 0.253152 0.255119 0.508019
Si Si3 0.651613 0.542136 0.873493
Si Si4 0.500000 0.280100 0.750000
Si Si5 0.341439 0.963692 0.378708
Si Si6 0.130070 0.772085 0.264879
Si Si7 0.871475 0.616879 0.713748
O O1 0.452990 0.325312 0.140799
O O2 0.389647 0.104571 0.287500
O O3 0.326017 0.431850 0.511176
O O4 0.321494 0.077678 0.494365
O O5 0.181555 0.248400 0.631359
O O6 0.172181 0.277894 0.396421
O O7 0.606877 0.395812 0.786560
O O8 0.772513 0.620833 0.820257
O O9 0.554228 0.172306 0.640282
O O10 0.220850 0.878590 0.340176
O O11 0.118001 0.582855 0.317760
O O12 0.000000 0.845614 0.250000
O O13 0.000000 0.672575 0.750000
#
# Coordination Sequence:
#
# PCOD9231876 Si02
#       7
#     2   4   4   2   4   4   4
#     4  10  22  42  66  94 140 172 220 284 312 380
#     4  11  23  42  70 100 123 181 225 257 352 390
#     4  10  21  43  63  96 133 173 222 277 313 387
#     4  10  20  42  66  86 148 170 208 284 314 382
#     4  11  22  41  63 100 137 172 215 274 332 392
#     4  10  24  46  66  96 138 166 222 285 327 394
#     4  10  21  42  68  95 131 168 224 283 314 392
#
# _framework density 23.486609000000001
#
# number of rings (size 3 to 8) (size 9 to 14) (size 15 to 20)
#    0.000    1.667    5.000    0.000    0.000    8.667 
#    3.000    0.000    0.000    0.000    0.000    0.000 
#    0.000    0.000    0.000    0.000    0.000    0.000 
#
# Total GULP energy -133931.129968 kJ/mol
# GULP energy per Si atom -5580.463749 kJ/mol
# Density = 2.343315 g / cm^3
# Si number density = 23.486609 Si / 1000 Ang^3
#
#
#
# Elastic Constant Matrix: (Units=GPa)
#
#
# Indices 1 2 3 4 5 6 
#
# 1 120.6525 -1.1927 8.6023 0.0000 5.6110 0.0000
# 2 -1.1927 45.6994 -2.6853 0.0000 -1.2569 0.0000
# 3 8.6023 -2.6853 39.4265 0.0000 -1.5069 0.0000
# 4 0.0000 0.0000 0.0000 29.2748 0.0000 11.2398
# 5 5.6110 -1.2569 -1.5069 0.0000 31.4555 0.0000
# 6 0.0000 0.0000 0.0000 11.2398 0.0000 118.3482
#
#
#
# Elastic Compliance Matrix: (Units=1/GPa)
#
#
# Indices 1 2 3 4 5 6 
#
# 1 0.008500 0.000065 -0.001911 0.000000 -0.001605 0.000000
# 2 0.000065 0.021999 0.001520 0.000000 0.000940 0.000000
# 3 -0.001911 0.001520 0.025947 0.000000 0.001645 0.000000
# 4 0.000000 0.000000 0.000000 0.035452 0.000000 -0.003367
# 5 -0.001605 0.000940 0.001645 0.000000 0.032194 0.000000
# 6 0.000000 0.000000 0.000000 -0.003367 0.000000 0.008769
#
#
# Mechanical properties :
#
#
# Convention : Reuss Voigt Hill
#
# Bulk Modulus (GPa) = 17.92315 23.91411 20.91863
# Shear Modulus (GPa) = 32.87079 49.21932 41.04506
#
# Velocity S-wave (km/s) = 3.74512 4.58278 4.18496
# Velocity P-wave (km/s) = 5.13313 6.18115 5.68135
#
# Compressibility (1/GPa) = 0.05579377
#
# Stress axis : x y z
#
# Youngs Moduli (GPa) = 117.64928 45.45657 38.54002
#
# Poissons Ratio (x) = -0.00297 0.07367
# Poissons Ratio (y) = -0.00769 -0.05858
# Poissons Ratio (z) = 0.22488 -0.06909
#
# Static dielectric constant tensor:
#      x y z
#    x 1.939400 0.000000 -0.009260 
#    y 0.000000 1.949680 0.000000 
#    z -0.009260 0.000000 1.909200 
# 
# From -- ./inp_files/32627.got.cif
#   From: 2010.05.17/outbox.cif.g08.bks.cpg/sg13_17_cif.got.tgz:32627.got - 2010.06.03 16:44:36.
