data_PCOD9231295
_publ_section_title
;
Structure prediction by ZEFSAII (Michael W. Deem and Ramdas Pophale) SiO2 
 PCOD9231295
Probable space group: P 2/C
;
_chemical_formula_sum "Si O2"
_cell_formula_units_Z 32
_cell_length_a 12.818900
_cell_length_b 10.054230
_cell_length_c 32.781132
_cell_angle_alpha 90.000000
_cell_angle_beta 21.288831
_cell_angle_gamma 90.000000
_cell_volume 1533.957804
_symmetry_space_group_name_H-M "P 2/C"
_symmetry_group_IT_number 13
_symmetry_cell_setting 'monoclinic'
loop_
_space_group_symop_operation_xyz
x,y,z
-x,y,1/2-z
-x,-y,-z
x,-y,1/2+z
loop_
_atom_site_type_symbol
_atom_site_label
_atom_site_fract_x
_atom_site_fract_y
_atom_site_fract_z
Si Si1 0.638315 0.168483 0.761013
Si Si2 0.023818 0.143098 0.192744
Si Si3 0.508342 0.649366 0.513267
Si Si4 0.991983 0.266306 0.997912
Si Si5 0.585213 0.131976 0.283502
Si Si6 0.112871 0.365200 0.551310
Si Si7 0.028813 0.153261 0.691264
Si Si8 0.807687 0.380031 0.149598
O O1 0.877873 0.256779 0.651425
O O2 0.731467 0.170277 0.774836
O O3 0.317208 0.778849 0.372245
O O4 0.656487 0.014522 0.741379
O O5 0.000000 0.145131 0.250000
O O6 0.727073 0.149633 0.276256
O O7 0.141173 0.995099 0.139053
O O8 0.224441 0.265775 0.108021
O O9 0.500000 0.500000 0.500000
O O10 0.595784 0.652828 0.529356
O O11 0.761776 0.731470 0.399441
O O12 0.756413 0.149742 0.088822
O O13 0.967060 0.343261 0.049704
O O14 0.877154 0.349842 0.001042
O O15 0.721683 0.247708 0.205771
O O16 0.991110 0.511073 0.606302
O O17 0.000000 0.158727 0.750000
O O18 0.500000 0.444171 0.250000
#
# Coordination Sequence:
#
# PCOD9231295 Si02
#       8
#     4   4   4   4   4   4   4   4
#     4  10  22  38  61  89 118 152 192 241 292 345
#     4  10  20  39  62  85 116 155 194 238 290 349
#     4  11  23  38  60  89 117 151 194 244 296 343
#     4  11  22  37  62  87 115 153 197 238 289 348
#     4  10  22  39  59  88 120 151 193 243 290 345
#     4  11  23  40  59  85 118 154 195 241 290 348
#     4   9  21  40  61  86 117 153 195 236 288 351
#     4  10  22  39  57  81 116 157 195 235 287 349
#
# _framework density 20.861069000000001
#
# number of rings (size 3 to 8) (size 9 to 14) (size 15 to 20)
#    0.000    1.750    0.000    3.750    0.000    7.500 
#    0.000    6.250    0.000    0.000    0.000    0.000 
#    0.000    0.000    0.000    0.000    0.000    0.000 
#
# Total GULP energy -178683.543635 kJ/mol
# GULP energy per Si atom -5583.860739 kJ/mol
# Density = 2.081359 g / cm^3
# Si number density = 20.861069 Si / 1000 Ang^3
#
#
#
# Elastic Constant Matrix: (Units=GPa)
#
#
# Indices 1 2 3 4 5 6 
#
# 1 87.7720 11.6303 3.2486 -0.0001 -3.6810 0.0000
# 2 11.6303 116.1409 17.9791 -0.0001 -9.6683 0.0000
# 3 3.2486 17.9791 25.8525 -0.0004 -11.2478 0.0000
# 4 -0.0001 -0.0001 -0.0004 58.9793 0.0000 -1.8198
# 5 -3.6810 -9.6683 -11.2478 0.0000 31.2161 0.0000
# 6 0.0000 0.0000 0.0000 -1.8198 0.0000 30.4616
#
#
#
# Elastic Compliance Matrix: (Units=1/GPa)
#
#
# Indices 1 2 3 4 5 6 
#
# 1 0.011581 -0.001031 -0.000336 0.000000 0.000925 0.000000
# 2 -0.001031 0.009753 -0.006394 0.000000 0.000595 0.000000
# 3 -0.000336 -0.006394 0.050154 0.000000 0.016051 0.000000
# 4 0.000000 0.000000 0.000000 0.016986 0.000000 0.001015
# 5 0.000925 0.000595 0.016051 0.000000 0.038112 0.000000
# 6 0.000000 0.000000 0.000000 0.001015 0.000000 0.032889
#
#
# Mechanical properties :
#
#
# Convention : Reuss Voigt Hill
#
# Bulk Modulus (GPa) = 17.86800 32.83130 25.34965
# Shear Modulus (GPa) = 25.81960 37.25854 31.53907
#
# Velocity S-wave (km/s) = 3.52190 4.23073 3.89249
# Velocity P-wave (km/s) = 5.01221 6.29585 5.69034
#
# Compressibility (1/GPa) = 0.05596597
#
# Stress axis : x y z
#
# Youngs Moduli (GPa) = 86.34861 102.53426 19.93874
#
# Poissons Ratio (x) = 0.10568 0.00670
# Poissons Ratio (y) = 0.08900 0.12749
# Poissons Ratio (z) = 0.02900 0.65562
#
# Static dielectric constant tensor:
#      x y z
#    x 1.781250 0.000000 0.003330 
#    y 0.000000 1.754870 0.000000 
#    z 0.003330 0.000000 1.717660 
# 
# From -- ./inp_files/96669.got.cif
#   From: 2010.05.17/outbox.cif.g08.bks.cpg/sg13_49_cif.got.tgz:96669.got - 2010.06.03 16:44:36.
