data_PCOD9231190
_publ_section_title
;
Structure prediction by ZEFSAII (Michael W. Deem and Ramdas Pophale) SiO2 
 PCOD9231190
Probable space group: P 2/C
;
_chemical_formula_sum "Si O2"
_cell_formula_units_Z 30
_cell_length_a 6.960906
_cell_length_b 8.928708
_cell_length_c 29.183334
_cell_angle_alpha 90.000000
_cell_angle_beta 50.450204
_cell_angle_gamma 90.000000
_cell_volume 1398.569109
_symmetry_space_group_name_H-M "P 2/C"
_symmetry_group_IT_number 13
_symmetry_cell_setting 'monoclinic'
loop_
_space_group_symop_operation_xyz
x,y,z
-x,y,1/2-z
-x,-y,-z
x,-y,1/2+z
loop_
_atom_site_type_symbol
_atom_site_label
_atom_site_fract_x
_atom_site_fract_y
_atom_site_fract_z
Si Si1 0.437471 0.989018 0.702804
Si Si2 0.273998 0.679461 0.006071
Si Si3 0.500000 0.696955 0.750000
Si Si4 0.957835 0.965399 0.819424
Si Si5 0.730081 0.825279 0.089665
Si Si6 0.516986 0.967542 0.944626
Si Si7 0.989717 0.606182 0.805830
Si Si8 0.551011 0.421968 0.920464
O O1 0.651158 0.091436 0.648576
O O2 0.506547 0.816033 0.705771
O O3 0.232855 0.998034 0.692902
O O4 0.761035 0.029027 0.726386
O O5 0.456799 0.792435 0.951303
O O6 0.318862 0.524030 0.972658
O O7 0.357802 0.655117 0.046073
O O8 0.002850 0.753834 0.047382
O O9 0.735701 0.588388 0.715237
O O10 0.795694 0.008723 0.887352
O O11 0.969592 0.785665 0.815110
O O12 0.539917 0.693883 0.103986
O O13 0.681321 0.945868 0.056576
O O14 0.500000 0.000000 0.000000
O O15 0.775768 0.517973 0.864679
O O16 0.000000 0.572243 0.750000
#
# Coordination Sequence:
#
# PCOD9231190 Si02
#       8
#     4   4   2   4   4   4   4   4
#     4   9  19  38  64  97 129 164 217 284 338 381
#     4  11  24  44  66 101 130 183 234 270 341 402
#     4  10  20  38  68 104 126 168 230 284 324 400
#     4   9  17  38  64  91 127 166 221 270 330 400
#     4  11  24  44  67 103 136 173 225 286 345 400
#     4  11  21  40  69  97 131 171 227 283 336 397
#     4  11  21  41  67  95 128 177 234 269 334 400
#     4  11  25  46  65  92 144 186 219 278 337 414
#
# _framework density 21.450496000000001
#
# number of rings (size 3 to 8) (size 9 to 14) (size 15 to 20)
#    0.000    1.600    5.333    0.800    0.000    3.200 
#    7.200    5.333    0.000    0.000    0.000    0.000 
#    0.000    0.000    0.000    0.000    0.000    0.000 
#
# Total GULP energy -167186.156421 kJ/mol
# GULP energy per Si atom -5572.871881 kJ/mol
# Density = 2.140167 g / cm^3
# Si number density = 21.450496 Si / 1000 Ang^3
#
#
#
# Elastic Constant Matrix: (Units=GPa)
#
#
# Indices 1 2 3 4 5 6 
#
# 1 76.8840 30.7715 67.1558 0.0000 -9.2860 0.0000
# 2 30.7715 74.3026 42.7053 0.0000 -3.9337 0.0000
# 3 67.1558 42.7053 142.8183 0.0000 -15.4463 0.0000
# 4 0.0000 0.0000 0.0000 3.3982 0.0000 -26.9201
# 5 -9.2860 -3.9337 -15.4463 0.0000 37.1260 0.0000
# 6 0.0000 0.0000 0.0000 -26.9201 0.0000 5.9542
#
#
#
# Elastic Compliance Matrix: (Units=1/GPa)
#
#
# Indices 1 2 3 4 5 6 
#
# 1 0.023084 -0.004026 -0.009500 0.000000 0.001395 0.000000
# 2 -0.004026 0.016957 -0.003238 0.000000 -0.000557 0.000000
# 3 -0.009500 -0.003238 0.012715 0.000000 0.002571 0.000000
# 4 0.000000 0.000000 0.000000 -0.008452 0.000000 -0.038214
# 5 0.001395 -0.000557 0.002571 0.000000 0.028295 0.000000
# 6 0.000000 0.000000 0.000000 -0.038214 0.000000 -0.004824
#
#
# Mechanical properties :
#
#
# Convention : Reuss Voigt Hill
#
# Bulk Modulus (GPa) = 52.00421 63.91889 57.96155
# Shear Modulus (GPa) = 46.41975 19.52049 32.97012
#
# Velocity S-wave (km/s) = 4.65697 3.01994 3.92475
# Velocity P-wave (km/s) = 7.29472 6.48252 6.90058
#
# Compressibility (1/GPa) = 0.01922921
#
# Stress axis : x y z
#
# Youngs Moduli (GPa) = 43.31928 58.97212 78.64658
#
# Poissons Ratio (x) = 0.23743 0.74714
# Poissons Ratio (y) = 0.17441 0.25463
# Poissons Ratio (z) = 0.41153 0.19093
#
# Static dielectric constant tensor:
#      x y z
#    x 1.946270 0.000000 -0.166300 
#    y 0.000000 1.815210 0.000000 
#    z -0.166300 0.000000 2.261030 
# 
# From -- ./inp_files/94999.got.cif
#   From: 2010.05.17/outbox.cif.g08.bks.cpg/sg13_48_cif.got.tgz:94999.got - 2010.06.03 16:44:36.
