data_PCOD9231671
_publ_section_title
;
Structure prediction by ZEFSAII (Michael W. Deem and Ramdas Pophale) SiO2 
 PCOD9231671
Probable space group: P 2/C
;
_chemical_formula_sum "Si O2"
_cell_formula_units_Z 22
_cell_length_a 7.849541
_cell_length_b 7.350541
_cell_length_c 26.012012
_cell_angle_alpha 90.000000
_cell_angle_beta 138.691020
_cell_angle_gamma 90.000000
_cell_volume 990.740718
_symmetry_space_group_name_H-M "P 2/C"
_symmetry_group_IT_number 13
_symmetry_cell_setting 'monoclinic'
loop_
_space_group_symop_operation_xyz
x,y,z
-x,y,1/2-z
-x,-y,-z
x,-y,1/2+z
loop_
_atom_site_type_symbol
_atom_site_label
_atom_site_fract_x
_atom_site_fract_y
_atom_site_fract_z
Si Si1 0.500000 0.083584 0.250000
Si Si2 0.585341 0.389419 0.108771
Si Si3 0.641306 0.212826 0.940552
Si Si4 0.001684 0.325279 0.383748
Si Si5 0.977816 0.643313 0.042630
Si Si6 0.302860 0.946888 0.811026
O O1 0.595301 0.980616 0.220462
O O2 0.750065 0.204669 0.320436
O O3 0.528234 0.602105 0.104463
O O4 0.832199 0.352194 0.129761
O O5 0.621437 0.266382 0.167261
O O6 0.324663 0.320008 0.021011
O O7 0.845506 0.199016 0.939417
O O8 0.449429 0.046661 0.890652
O O9 0.805422 0.236302 0.029833
O O10 0.931072 0.526558 0.388646
O O11 0.000000 0.500000 0.000000
O O12 0.000000 0.969647 0.750000
#
# Coordination Sequence:
#
# PCOD9231671 Si02
#       6
#     2   4   4   4   4   4
#     4  12  24  44  64  94 138 174 218 272 338 386
#     4  10  20  42  70  93 130 170 216 276 329 391
#     4  10  22  42  68  98 130 171 228 268 321 398
#     4  10  20  40  69 100 130 175 220 268 332 396
#     4   8  16  35  63  93 118 158 216 257 316 385
#     4  12  26  46  64  95 136 176 222 274 328 390
#
# _framework density 22.20561
#
# number of rings (size 3 to 8) (size 9 to 14) (size 15 to 20)
#    0.000    2.182    1.818    5.455    0.000    4.364 
#    9.818    0.909    0.000    0.000    0.000    0.000 
#    0.000    0.000    0.000    0.000    0.000    0.000 
#
# Total GULP energy -122750.158786 kJ/mol
# GULP energy per Si atom -5579.552672 kJ/mol
# Density = 2.215507 g / cm^3
# Si number density = 22.205610 Si / 1000 Ang^3
#
#
#
# Elastic Constant Matrix: (Units=GPa)
#
#
# Indices 1 2 3 4 5 6 
#
# 1 94.7222 3.8306 8.3260 0.0000 9.1308 0.0000
# 2 3.8306 52.8080 30.1560 0.0000 8.9675 0.0000
# 3 8.3260 30.1560 70.1095 0.0000 14.0112 0.0000
# 4 0.0000 0.0000 0.0000 -12.1855 0.0000 33.6083
# 5 9.1308 8.9675 14.0112 0.0000 37.9368 0.0000
# 6 0.0000 0.0000 0.0000 33.6083 0.0000 -16.1017
#
#
#
# Elastic Compliance Matrix: (Units=1/GPa)
#
#
# Indices 1 2 3 4 5 6 
#
# 1 0.010853 0.000103 -0.000870 0.000000 -0.002315 0.000000
# 2 0.000103 0.025259 -0.010450 0.000000 -0.002136 0.000000
# 3 -0.000870 -0.010450 0.019787 0.000000 -0.004628 0.000000
# 4 0.000000 0.000000 0.000000 0.017252 0.000000 0.036010
# 5 -0.002315 -0.002136 -0.004628 0.000000 0.029131 0.000000
# 6 0.000000 0.000000 0.000000 0.036010 0.000000 0.013056
#
#
# Mechanical properties :
#
#
# Convention : Reuss Voigt Hill
#
# Bulk Modulus (GPa) = 29.88340 33.58496 31.73418
# Shear Modulus (GPa) = 33.57337 13.61838 23.59588
#
# Velocity S-wave (km/s) = 3.89258 2.47915 3.26330
# Velocity P-wave (km/s) = 5.80428 4.83242 5.34050
#
# Compressibility (1/GPa) = 0.03346339
#
# Stress axis : x y z
#
# Youngs Moduli (GPa) = 92.14304 39.58942 50.53947
#
# Poissons Ratio (x) = -0.00408 0.04399
# Poissons Ratio (y) = -0.00949 0.52814
# Poissons Ratio (z) = 0.08021 0.41371
#
# Static dielectric constant tensor:
#      x y z
#    x 1.855020 0.000000 -0.018660 
#    y 0.000000 1.866580 0.000000 
#    z -0.018660 0.000000 1.844820 
# 
# From -- ./inp_files/95830.got.cif
#   From: 2010.05.17/outbox.cif.g08.bks.cpg/sg13_48_cif.got.tgz:95830.got - 2010.06.03 16:44:36.
