data_PCOD9231240
_publ_section_title
;
Structure prediction by ZEFSAII (Michael W. Deem and Ramdas Pophale) SiO2 
 PCOD9231240
Probable space group: P 2/C
;
_chemical_formula_sum "Si O2"
_cell_formula_units_Z 26
_cell_length_a 17.723586
_cell_length_b 9.674985
_cell_length_c 12.426863
_cell_angle_alpha 90.000000
_cell_angle_beta 38.384314
_cell_angle_gamma 90.000000
_cell_volume 1323.147594
_symmetry_space_group_name_H-M "P 2/C"
_symmetry_group_IT_number 13
_symmetry_cell_setting 'monoclinic'
loop_
_space_group_symop_operation_xyz
x,y,z
-x,y,1/2-z
-x,-y,-z
x,-y,1/2+z
loop_
_atom_site_type_symbol
_atom_site_label
_atom_site_fract_x
_atom_site_fract_y
_atom_site_fract_z
Si Si1 0.138368 0.659530 0.090550
Si Si2 0.498101 0.665986 0.874568
Si Si3 0.225932 0.369988 0.726958
Si Si4 0.280085 0.336709 0.233298
Si Si5 0.500000 0.066505 0.250000
Si Si6 0.362798 0.199479 0.928128
Si Si7 0.865469 0.327495 0.443847
O O1 0.195519 0.685023 0.142806
O O2 0.146121 0.493123 0.063144
O O3 0.000000 0.700120 0.250000
O O4 0.199044 0.726427 0.918442
O O5 0.500000 0.605437 0.750000
O O6 0.605205 0.607884 0.826636
O O7 0.517679 0.829068 0.829331
O O8 0.369704 0.651999 0.074790
O O9 0.210706 0.536554 0.752828
O O10 0.150498 0.307758 0.909856
O O11 0.329060 0.237016 0.087449
O O12 0.613669 0.963900 0.111700
O O13 0.500000 0.257981 0.750000
O O14 0.251272 0.256114 0.981683
O O15 0.000000 0.286938 0.250000
#
# Coordination Sequence:
#
# PCOD9231240 Si02
#       7
#     4   4   4   4   2   4   4
#     4  10  21  35  55  86 121 162 193 228 296 369
#     4  10  20  39  57  87 113 153 192 240 294 353
#     4  11  21  36  58  89 125 151 186 244 301 356
#     4  11  21  34  61  88 119 154 187 246 296 357
#     4   8  22  40  60  78 120 152 206 240 294 346
#     4  10  21  39  58  89 115 155 202 246 291 342
#     4  10  22  36  57  85 121 160 195 240 295 361
#
# _framework density 19.650113999999999
#
# number of rings (size 3 to 8) (size 9 to 14) (size 15 to 20)
#    0.923    0.923    3.077    1.385    2.154    4.308 
#    0.000    0.000    0.000    4.615    0.000    0.000 
#    0.000    0.000    0.000    0.000    0.000    0.000 
#
# Total GULP energy -144841.984036 kJ/mol
# GULP energy per Si atom -5570.845540 kJ/mol
# Density = 1.960539 g / cm^3
# Si number density = 19.650114 Si / 1000 Ang^3
#
#
#
# Elastic Constant Matrix: (Units=GPa)
#
#
# Indices 1 2 3 4 5 6 
#
# 1 45.5370 14.0438 45.0680 0.0000 3.3016 0.0000
# 2 14.0438 43.0785 29.4985 0.0000 7.9941 0.0000
# 3 45.0680 29.4985 188.0242 0.0000 10.4817 0.0000
# 4 0.0000 0.0000 0.0000 -276.4932 0.0000 -50.6455
# 5 3.3016 7.9941 10.4817 0.0000 40.7938 0.0000
# 6 0.0000 0.0000 0.0000 -50.6455 0.0000 -1.7536
#
#
#
# Elastic Compliance Matrix: (Units=1/GPa)
#
#
# Indices 1 2 3 4 5 6 
#
# 1 0.029881 -0.005465 -0.006320 0.000000 0.000276 0.000000
# 2 -0.005465 0.027703 -0.002799 0.000000 -0.004267 0.000000
# 3 -0.006320 -0.002799 0.007318 0.000000 -0.000820 0.000000
# 4 0.000000 0.000000 0.000000 0.000843 0.000000 -0.024348
# 5 0.000276 -0.004267 -0.000820 0.000000 0.025538 0.000000
# 6 0.000000 0.000000 0.000000 -0.024348 0.000000 0.132923
#
#
# Mechanical properties :
#
#
# Convention : Reuss Voigt Hill
#
# Bulk Modulus (GPa) = 27.98373 50.42894 39.20634
# Shear Modulus (GPa) = 18.84770 -34.95532 -8.05381
#
# Velocity S-wave (km/s) = 3.10040 -4.22226 -2.02670
# Velocity P-wave (km/s) = 5.20467 1.39613 3.81036
#
# Compressibility (1/GPa) = 0.03573504
#
# Stress axis : x y z
#
# Youngs Moduli (GPa) = 33.46655 36.09696 136.64628
#
# Poissons Ratio (x) = 0.19726 0.86364
# Poissons Ratio (y) = 0.18288 0.38241
# Poissons Ratio (z) = 0.21152 0.10102
#
# Static dielectric constant tensor:
#      x y z
#    x 1.717480 0.000000 0.005640 
#    y 0.000000 1.675240 0.000000 
#    z 0.005640 0.000000 1.734490 
# 
# From -- ./inp_files/38928.got.cif
#   From: 2010.05.17/outbox.cif.g08.bks.cpg/sg13_20_cif.got.tgz:38928.got - 2010.06.03 16:44:36.
