data_PCOD9231335
_publ_section_title
;
Structure prediction by ZEFSAII (Michael W. Deem and Ramdas Pophale) SiO2 
 PCOD9231335
Probable space group: P 2/C
;
_chemical_formula_sum "Si O2"
_cell_formula_units_Z 22
_cell_length_a 8.659555
_cell_length_b 7.974343
_cell_length_c 15.929957
_cell_angle_alpha 90.000000
_cell_angle_beta 94.959698
_cell_angle_gamma 90.000000
_cell_volume 1095.912636
_symmetry_space_group_name_H-M "P 2/C"
_symmetry_group_IT_number 13
_symmetry_cell_setting 'monoclinic'
loop_
_space_group_symop_operation_xyz
x,y,z
-x,y,1/2-z
-x,-y,-z
x,-y,1/2+z
loop_
_atom_site_type_symbol
_atom_site_label
_atom_site_fract_x
_atom_site_fract_y
_atom_site_fract_z
Si Si1 0.135978 0.700159 0.406253
Si Si2 0.663393 0.052412 0.474239
Si Si3 0.324119 0.884955 0.717893
Si Si4 0.851766 0.357740 0.183096
Si Si5 0.915664 0.823430 0.518163
Si Si6 0.000000 0.919422 0.250000
O O1 0.264905 0.817420 0.455273
O O2 0.189060 0.525825 0.369377
O O3 0.050759 0.805318 0.330099
O O4 0.007602 0.682745 0.473068
O O5 0.673265 0.131354 0.382431
O O6 0.500000 0.000000 0.500000
O O7 0.749660 0.872169 0.475821
O O8 0.500000 0.947331 0.750000
O O9 0.288494 0.715833 0.768498
O O10 0.163109 0.986585 0.732663
O O11 0.902619 0.221672 0.114880
O O12 0.000000 0.387879 0.250000
O O13 0.000000 0.000000 0.500000
#
# Coordination Sequence:
#
# PCOD9231335 Si02
#       6
#     4   4   4   4   4   2
#     4  11  23  40  64 101 134 179 228 285 359 416
#     4  11  23  44  70  99 136 184 244 292 343 421
#     4  12  25  44  72 103 136 185 238 294 351 419
#     4  12  23  40  65  98 143 177 222 289 358 419
#     4  10  20  39  63  94 127 178 231 275 336 420
#     4  12  22  44  72  98 136 178 248 288 342 422
#
# _framework density 20.074590000000001
#
# number of rings (size 3 to 8) (size 9 to 14) (size 15 to 20)
#    0.000    0.727    3.636    7.091    0.000    0.000 
#    0.000    8.182    0.000    0.000    0.000    0.000 
#    0.000    0.000    0.000    0.000    0.000    0.000 
#
# Total GULP energy -122616.278864 kJ/mol
# GULP energy per Si atom -5573.467221 kJ/mol
# Density = 2.002890 g / cm^3
# Si number density = 20.074590 Si / 1000 Ang^3
#
#
#
# Elastic Constant Matrix: (Units=GPa)
#
#
# Indices 1 2 3 4 5 6 
#
# 1 143.4008 42.7134 47.6315 0.0000 -13.4343 0.0000
# 2 42.7134 100.9731 49.4084 0.0000 -7.3098 0.0000
# 3 47.6315 49.4084 160.7910 0.0000 -9.4007 0.0000
# 4 0.0000 0.0000 0.0000 43.2553 0.0000 1.9629
# 5 -13.4343 -7.3098 -9.4007 0.0000 37.0285 0.0000
# 6 0.0000 0.0000 0.0000 1.9629 0.0000 5.6273
#
#
#
# Elastic Compliance Matrix: (Units=1/GPa)
#
#
# Indices 1 2 3 4 5 6 
#
# 1 0.008491 -0.002668 -0.001570 0.000000 0.002156 0.000000
# 2 -0.002668 0.012568 -0.003028 0.000000 0.000744 0.000000
# 3 -0.001570 -0.003028 0.007660 0.000000 0.000778 0.000000
# 4 0.000000 0.000000 0.000000 0.023490 0.000000 -0.008194
# 5 0.002156 0.000744 0.000778 0.000000 0.028133 0.000000
# 6 0.000000 0.000000 0.000000 -0.008194 0.000000 0.180564
#
#
# Mechanical properties :
#
#
# Convention : Reuss Voigt Hill
#
# Bulk Modulus (GPa) = 70.48093 76.07461 73.27777
# Shear Modulus (GPa) = 17.84652 34.87633 26.36142
#
# Velocity S-wave (km/s) = 2.98486 4.17266 3.62771
# Velocity P-wave (km/s) = 6.86039 7.82260 7.35724
#
# Compressibility (1/GPa) = 0.01418823
#
# Stress axis : x y z
#
# Youngs Moduli (GPa) = 117.76580 79.56857 130.54599
#
# Poissons Ratio (x) = 0.21228 0.20490
# Poissons Ratio (y) = 0.31419 0.39530
# Poissons Ratio (z) = 0.18484 0.24094
#
# Static dielectric constant tensor:
#      x y z
#    x 1.740840 0.000000 0.012560 
#    y 0.000000 1.756140 0.000000 
#    z 0.012560 0.000000 1.716130 
# 
# From -- ./inp_files/46208.got.cif
#   From: 2010.05.17/outbox.cif.g08.bks.cpg/sg13_24_cif.got.tgz:46208.got - 2010.06.03 16:44:36.
