data_PCOD9231187
_publ_section_title
;
Structure prediction by ZEFSAII (Michael W. Deem and Ramdas Pophale) SiO2 
 PCOD9231187
Probable space group: P 2/C
;
_chemical_formula_sum "Si O2"
_cell_formula_units_Z 14
_cell_length_a 13.699506
_cell_length_b 9.096767
_cell_length_c 14.495895
_cell_angle_alpha 90.000000
_cell_angle_beta 160.567999
_cell_angle_gamma 90.000000
_cell_volume 600.999357
_symmetry_space_group_name_H-M "P 2/C"
_symmetry_group_IT_number 13
_symmetry_cell_setting 'monoclinic'
loop_
_space_group_symop_operation_xyz
x,y,z
-x,y,1/2-z
-x,-y,-z
x,-y,1/2+z
loop_
_atom_site_type_symbol
_atom_site_label
_atom_site_fract_x
_atom_site_fract_y
_atom_site_fract_z
Si Si1 0.500000 0.586520 0.250000
Si Si2 0.956205 0.154574 0.413507
Si Si3 0.376934 0.335210 0.911412
Si Si4 0.000000 0.786070 0.750000
Si Si5 0.000000 0.393467 0.750000
O O1 0.695928 0.692415 0.490053
O O2 0.777545 0.479484 0.480522
O O3 0.033854 0.132874 0.375638
O O4 0.152879 0.283382 0.632978
O O5 0.631728 0.215459 0.136512
O O6 0.000000 0.000000 0.500000
O O7 0.220422 0.324961 0.872116
O O8 0.500000 0.500000 0.000000
#
# Coordination Sequence:
#
# PCOD9231187 Si02
#       5
#     2   4   4   2   2
#     4  10  20  38  68 100 136 184 222 276 354 408
#     4  12  27  46  71 105 140 185 234 287 356 422
#     4  12  25  45  74 106 140 185 237 289 350 419
#     4  11  22  43  68  94 140 186 232 282 344 434
#     4  11  22  41  68 108 146 174 230 306 346 394
#
# _framework density 23.294533999999999
#
# number of rings (size 3 to 8) (size 9 to 14) (size 15 to 20)
#    0.000    0.571    0.000   10.286    0.000    1.143 
#    0.000    2.857    0.000    3.429    0.000    0.000 
#    0.000    0.000    0.000    0.000    0.000    0.000 
#
# Total GULP energy -78069.851576 kJ/mol
# GULP energy per Si atom -5576.417970 kJ/mol
# Density = 2.324151 g / cm^3
# Si number density = 23.294534 Si / 1000 Ang^3
#
#
#
# Elastic Constant Matrix: (Units=GPa)
#
#
# Indices 1 2 3 4 5 6 
#
# 1 212.9908 60.4924 33.6378 0.0000 -9.6684 0.0000
# 2 60.4924 67.9464 5.8260 0.0000 -13.4510 0.0000
# 3 33.6378 5.8260 135.8392 0.0000 -0.9735 0.0000
# 4 0.0000 0.0000 0.0000 22.6665 0.0000 10.8621
# 5 -9.6684 -13.4510 -0.9735 0.0000 41.0245 0.0000
# 6 0.0000 0.0000 0.0000 10.8621 0.0000 -14.2286
#
#
#
# Elastic Compliance Matrix: (Units=1/GPa)
#
#
# Indices 1 2 3 4 5 6 
#
# 1 0.006535 -0.005777 -0.001373 0.000000 -0.000387 0.000000
# 2 -0.005777 0.020901 0.000574 0.000000 0.005505 0.000000
# 3 -0.001373 0.000574 0.007677 0.000000 0.000047 0.000000
# 4 0.000000 0.000000 0.000000 0.032301 0.000000 0.024659
# 5 -0.000387 0.005505 0.000047 0.000000 0.026091 0.000000
# 6 0.000000 0.000000 0.000000 0.024659 0.000000 -0.051457
#
#
# Mechanical properties :
#
#
# Convention : Reuss Voigt Hill
#
# Bulk Modulus (GPa) = 45.53623 68.52097 57.02860
# Shear Modulus (GPa) = 79.97096 31.01383 55.49240
#
# Velocity S-wave (km/s) = 5.86557 3.65276 4.88608
# Velocity P-wave (km/s) = 8.09096 6.87526 7.50776
#
# Compressibility (1/GPa) = 0.02196054
#
# Stress axis : x y z
#
# Youngs Moduli (GPa) = 153.01956 47.84378 130.25167
#
# Poissons Ratio (x) = 0.27639 0.17887
# Poissons Ratio (y) = 0.88399 -0.07471
# Poissons Ratio (z) = 0.21014 -0.02744
#
# Static dielectric constant tensor:
#      x y z
#    x 1.984170 0.000000 0.009110 
#    y 0.000000 1.915640 0.000000 
#    z 0.009110 0.000000 1.875110 
# 
# From -- ./inp_files/52847.got.cif
#   From: 2010.05.17/outbox.cif.g08.bks.cpg/sg13_27_cif.got.tgz:52847.got - 2010.06.03 16:44:36.
