data_PCOD9231801
_publ_section_title
;
Structure prediction by ZEFSAII (Michael W. Deem and Ramdas Pophale) SiO2 
 PCOD9231801
Probable space group: P 2/C
;
_chemical_formula_sum "Si O2"
_cell_formula_units_Z 24
_cell_length_a 13.796931
_cell_length_b 7.105230
_cell_length_c 14.278940
_cell_angle_alpha 90.000000
_cell_angle_beta 41.509409
_cell_angle_gamma 90.000000
_cell_volume 927.687643
_symmetry_space_group_name_H-M "P 2/C"
_symmetry_group_IT_number 13
_symmetry_cell_setting 'monoclinic'
loop_
_space_group_symop_operation_xyz
x,y,z
-x,y,1/2-z
-x,-y,-z
x,-y,1/2+z
loop_
_atom_site_type_symbol
_atom_site_label
_atom_site_fract_x
_atom_site_fract_y
_atom_site_fract_z
Si Si1 0.783688 0.286599 0.059321
Si Si2 0.228508 0.236569 0.718311
Si Si3 0.000000 0.247400 0.750000
Si Si4 0.500000 0.456053 0.750000
Si Si5 0.150033 0.333371 0.272232
Si Si6 0.890109 0.108419 0.508570
Si Si7 0.461744 0.703692 0.481186
O O1 0.636108 0.400984 0.157503
O O2 0.840772 0.326800 0.121580
O O3 0.896815 0.351246 0.898832
O O4 0.787996 0.058613 0.042617
O O5 0.110880 0.131906 0.737731
O O6 0.185084 0.450547 0.721975
O O7 0.397047 0.184105 0.582584
O O8 0.201259 0.224785 0.849039
O O9 0.524663 0.331201 0.639610
O O10 0.991022 0.240049 0.370368
O O11 0.299022 0.234926 0.127387
O O12 0.000000 0.000000 0.500000
O O13 0.500000 0.500000 0.500000
#
# Coordination Sequence:
#
# PCOD9231801 Si02
#       7
#     4   4   2   2   4   4   4
#     4  11  23  41  67  92 139 178 226 276 340 425
#     4  11  21  41  67  97 135 175 226 284 339 397
#     4  12  24  36  64 100 130 184 228 276 344 408
#     4  12  22  44  72 102 136 182 236 278 354 420
#     4  10  20  41  69  94 129 176 219 285 339 390
#     4  10  21  41  63  90 131 182 217 271 350 399
#     4  10  21  40  68 102 130 171 229 289 338 393
#
# _framework density 25.870777
#
# number of rings (size 3 to 8) (size 9 to 14) (size 15 to 20)
#    0.000    1.333    6.667    2.500    0.000    0.000 
#    0.000    8.333    0.000    0.000    0.000    0.000 
#    0.000    0.000    0.000    0.000    0.000    0.000 
#
# Total GULP energy -133964.466718 kJ/mol
# GULP energy per Si atom -5581.852780 kJ/mol
# Density = 2.581189 g / cm^3
# Si number density = 25.870777 Si / 1000 Ang^3
#
#
#
# Elastic Constant Matrix: (Units=GPa)
#
#
# Indices 1 2 3 4 5 6 
#
# 1 76.1514 13.1697 32.1481 0.0000 16.8821 0.0000
# 2 13.1697 86.0691 2.7489 0.0000 -7.5117 0.0000
# 3 32.1481 2.7489 138.5594 0.0000 19.5696 0.0000
# 4 0.0000 0.0000 0.0000 4.3032 0.0000 -7.9524
# 5 16.8821 -7.5117 19.5696 0.0000 51.3064 0.0000
# 6 0.0000 0.0000 0.0000 -7.9524 0.0000 31.0553
#
#
#
# Elastic Compliance Matrix: (Units=1/GPa)
#
#
# Indices 1 2 3 4 5 6 
#
# 1 0.015858 -0.002721 -0.002993 0.000000 -0.004475 0.000000
# 2 -0.002721 0.012269 0.000008 0.000000 0.002689 0.000000
# 3 -0.002993 0.000008 0.008215 0.000000 -0.002147 0.000000
# 4 0.000000 0.000000 0.000000 0.441141 0.000000 0.112964
# 5 -0.004475 0.002689 -0.002147 0.000000 0.022176 0.000000
# 6 0.000000 0.000000 0.000000 0.112964 0.000000 0.061128
#
#
# Mechanical properties :
#
#
# Convention : Reuss Voigt Hill
#
# Bulk Modulus (GPa) = 40.11370 44.10147 42.10759
# Shear Modulus (GPa) = 8.61313 34.18053 21.39683
#
# Velocity S-wave (km/s) = 1.82661 3.63878 2.87899
# Velocity P-wave (km/s) = 4.47077 5.89390 5.23096
#
# Compressibility (1/GPa) = 0.02492914
#
# Stress axis : x y z
#
# Youngs Moduli (GPa) = 63.05939 81.50377 121.73266
#
# Poissons Ratio (x) = 0.22181 0.36439
# Poissons Ratio (y) = 0.17161 -0.00101
# Poissons Ratio (z) = 0.18876 -0.00067
#
# Static dielectric constant tensor:
#      x y z
#    x 2.102860 0.000000 -0.041780 
#    y 0.000000 2.247090 0.000000 
#    z -0.041780 0.000000 2.057710 
# 
# From -- ./inp_files/52928.got.cif
#   From: 2010.05.17/outbox.cif.g08.bks.cpg/sg13_27_cif.got.tgz:52928.got - 2010.06.03 16:44:36.
