data_PCOD9231409
_publ_section_title
;
Structure prediction by ZEFSAII (Michael W. Deem and Ramdas Pophale) SiO2 
 PCOD9231409
Probable space group: P 2/C
;
_chemical_formula_sum "Si O2"
_cell_formula_units_Z 28
_cell_length_a 21.490384
_cell_length_b 10.330755
_cell_length_c 18.863550
_cell_angle_alpha 90.000000
_cell_angle_beta 161.524831
_cell_angle_gamma 90.000000
_cell_volume 1327.129148
_symmetry_space_group_name_H-M "P 2/C"
_symmetry_group_IT_number 13
_symmetry_cell_setting 'monoclinic'
loop_
_space_group_symop_operation_xyz
x,y,z
-x,y,1/2-z
-x,-y,-z
x,-y,1/2+z
loop_
_atom_site_type_symbol
_atom_site_label
_atom_site_fract_x
_atom_site_fract_y
_atom_site_fract_z
Si Si1 0.124803 0.018417 0.705437
Si Si2 0.602522 0.810582 0.560173
Si Si3 0.840357 0.015714 0.027272
Si Si4 0.785536 0.447180 0.275635
Si Si5 0.580412 0.463912 0.204619
Si Si6 0.641291 0.720009 0.334801
Si Si7 0.509137 0.831712 0.897011
O O1 0.304571 0.921692 0.886284
O O2 0.965256 0.979696 0.590635
O O3 0.000000 0.000000 0.500000
O O4 0.257612 0.145605 0.864888
O O5 0.774075 0.707340 0.758860
O O6 0.445109 0.748036 0.337466
O O7 0.518173 0.843964 0.546336
O O8 0.000000 0.948837 0.250000
O O9 0.791811 0.160138 0.003236
O O10 0.641700 0.933722 0.801786
O O11 0.698063 0.480860 0.257916
O O12 0.000000 0.500000 0.500000
O O13 0.642364 0.498721 0.059078
O O14 0.673136 0.564467 0.361305
O O15 0.565431 0.311561 0.205316
O O16 0.500000 0.735404 0.250000
#
# Coordination Sequence:
#
# PCOD9231409 Si02
#       7
#     4   4   4   4   4   4   4
#     4  12  23  37  69 100 129 175 217 269 335 404
#     4  10  20  39  66  99 131 170 216 275 334 389
#     4  12  27  43  66  96 132 177 228 276 344 401
#     4   9  19  34  63  94 131 163 208 272 325 391
#     4   9  22  40  62  93 127 171 214 266 337 385
#     4  11  23  46  66  90 134 177 224 275 334 402
#     4  11  23  44  66 101 139 167 222 286 329 408
#
# _framework density 21.098172999999999
#
# number of rings (size 3 to 8) (size 9 to 14) (size 15 to 20)
#    0.000    1.429    2.857    3.000    4.000    0.000 
#    2.571    0.714    0.000    0.000    0.000    0.000 
#    0.000    0.000    0.000    0.000    0.000    0.000 
#
# Total GULP energy -155945.266170 kJ/mol
# GULP energy per Si atom -5569.473792 kJ/mol
# Density = 2.105015 g / cm^3
# Si number density = 21.098173 Si / 1000 Ang^3
#
#
#
# Elastic Constant Matrix: (Units=GPa)
#
#
# Indices 1 2 3 4 5 6 
#
# 1 62.7215 20.4627 8.8030 0.0000 0.6824 0.0000
# 2 20.4627 107.9449 33.1231 0.0000 13.8412 0.0000
# 3 8.8030 33.1231 101.1574 0.0000 9.1591 0.0000
# 4 0.0000 0.0000 0.0000 21.3949 0.0000 0.8546
# 5 0.6824 13.8412 9.1591 0.0000 29.1010 0.0000
# 6 0.0000 0.0000 0.0000 0.8546 0.0000 16.9122
#
#
#
# Elastic Compliance Matrix: (Units=1/GPa)
#
#
# Indices 1 2 3 4 5 6 
#
# 1 0.017061 -0.003235 -0.000544 0.000000 0.001310 0.000000
# 2 -0.003235 0.011373 -0.003046 0.000000 -0.004375 0.000000
# 3 -0.000544 -0.003046 0.011115 0.000000 -0.002037 0.000000
# 4 0.000000 0.000000 0.000000 0.046835 0.000000 -0.002367
# 5 0.001310 -0.004375 -0.002037 0.000000 0.037054 0.000000
# 6 0.000000 0.000000 0.000000 -0.002367 0.000000 0.059248
#
#
# Mechanical properties :
#
#
# Convention : Reuss Voigt Hill
#
# Bulk Modulus (GPa) = 38.61339 44.06685 41.34012
# Shear Modulus (GPa) = 24.39386 27.44397 25.91891
#
# Velocity S-wave (km/s) = 3.40399 3.61054 3.50879
# Velocity P-wave (km/s) = 5.81301 6.18977 6.00434
#
# Compressibility (1/GPa) = 0.02589776
#
# Stress axis : x y z
#
# Youngs Moduli (GPa) = 58.61294 87.92752 89.97004
#
# Poissons Ratio (x) = 0.28447 0.04894
# Poissons Ratio (y) = 0.18963 0.27408
# Poissons Ratio (z) = 0.03188 0.26786
#
# Static dielectric constant tensor:
#      x y z
#    x 1.697120 0.000000 -0.032750 
#    y 0.000000 1.853820 0.000000 
#    z -0.032750 0.000000 1.800220 
# 
# From -- ./inp_files/70719.got.cif
#   From: 2010.05.17/outbox.cif.g08.bks.cpg/sg13_36_cif.got.tgz:70719.got - 2010.06.03 16:44:36.
