data_PCOD9231968
_publ_section_title
;
Structure prediction by ZEFSAII (Michael W. Deem and Ramdas Pophale) SiO2 
 PCOD9231968
Probable space group: P 2/C
;
_chemical_formula_sum "Si O2"
_cell_formula_units_Z 20
_cell_length_a 7.986382
_cell_length_b 8.201515
_cell_length_c 17.627790
_cell_angle_alpha 90.000000
_cell_angle_beta 130.807718
_cell_angle_gamma 90.000000
_cell_volume 873.945941
_symmetry_space_group_name_H-M "P 2/C"
_symmetry_group_IT_number 13
_symmetry_cell_setting 'monoclinic'
loop_
_space_group_symop_operation_xyz
x,y,z
-x,y,1/2-z
-x,-y,-z
x,-y,1/2+z
loop_
_atom_site_type_symbol
_atom_site_label
_atom_site_fract_x
_atom_site_fract_y
_atom_site_fract_z
Si Si1 0.236724 0.699286 0.854483
Si Si2 0.589887 0.884491 0.460495
Si Si3 0.611291 0.860340 0.856131
Si Si4 0.660972 0.618292 0.188823
Si Si5 0.199439 0.484307 0.116544
O O1 0.425619 0.779207 0.856458
O O2 0.269170 0.505797 0.856172
O O3 0.000000 0.745291 0.750000
O O4 0.268255 0.754592 0.950225
O O5 0.383505 0.797022 0.357110
O O6 0.500000 0.000000 0.500000
O O7 0.716955 0.997898 0.438192
O O8 0.500000 0.940714 0.750000
O O9 0.749044 0.708881 0.863724
O O10 0.417886 0.564577 0.145065
O O11 0.816921 0.574381 0.306839
O O12 0.000000 0.500000 0.000000
#
# Coordination Sequence:
#
# PCOD9231968 Si02
#       5
#     4   4   4   4   4
#     4  10  21  41  64  91 126 168 216 260 319 385
#     4  10  23  40  61  89 132 168 202 268 332 371
#     4  10  20  43  63  88 132 160 206 272 317 374
#     4  10  21  41  64  91 124 166 216 259 313 388
#     4  10  21  40  67  94 120 162 220 262 312 379
#
# _framework density 22.884710999999999
#
# number of rings (size 3 to 8) (size 9 to 14) (size 15 to 20)
#    0.000    2.000    4.000    0.600    5.600    0.000 
#    7.200    3.000    0.000    0.000    0.000    0.000 
#    0.000    0.000    0.000    0.000    0.000    0.000 
#
# Total GULP energy -111643.319724 kJ/mol
# GULP energy per Si atom -5582.165986 kJ/mol
# Density = 2.283262 g / cm^3
# Si number density = 22.884711 Si / 1000 Ang^3
#
#
#
# Elastic Constant Matrix: (Units=GPa)
#
#
# Indices 1 2 3 4 5 6 
#
# 1 52.0926 16.8863 23.6967 0.0000 -5.1627 0.0000
# 2 16.8863 96.7402 61.4212 0.0000 -28.7876 0.0000
# 3 23.6967 61.4212 166.4453 0.0000 -16.9445 0.0000
# 4 0.0000 0.0000 0.0000 37.0259 0.0000 -23.3901
# 5 -5.1627 -28.7876 -16.9445 0.0000 33.1308 0.0000
# 6 0.0000 0.0000 0.0000 -23.3901 0.0000 6.4858
#
#
#
# Elastic Compliance Matrix: (Units=1/GPa)
#
#
# Indices 1 2 3 4 5 6 
#
# 1 0.020911 -0.002228 -0.002131 0.000000 0.000233 0.000000
# 2 -0.002228 0.017507 -0.004884 0.000000 0.012367 0.000000
# 3 -0.002131 -0.004884 0.008068 0.000000 -0.000450 0.000000
# 4 0.000000 0.000000 0.000000 -0.021129 0.000000 -0.076201
# 5 0.000233 0.012367 -0.000450 0.000000 0.040735 0.000000
# 6 0.000000 0.000000 0.000000 -0.076201 0.000000 -0.120623
#
#
# Mechanical properties :
#
#
# Convention : Reuss Voigt Hill
#
# Bulk Modulus (GPa) = 35.71457 57.69847 46.70652
# Shear Modulus (GPa) = -187.18352 29.54676 -78.81838
#
# Velocity S-wave (km/s) = -9.05382 3.59710 -5.87505
# Velocity P-wave (km/s) = 9.67757 6.52071 5.05647
#
# Compressibility (1/GPa) = 0.02799978
#
# Stress axis : x y z
#
# Youngs Moduli (GPa) = 47.82096 57.12041 123.94630
#
# Poissons Ratio (x) = 0.12724 0.26418
# Poissons Ratio (y) = 0.10652 0.60538
# Poissons Ratio (z) = 0.10193 0.27899
#
# Static dielectric constant tensor:
#      x y z
#    x 1.876260 0.000000 0.002490 
#    y 0.000000 1.950060 0.000000 
#    z 0.002490 0.000000 1.901560 
# 
# From -- ./inp_files/63917.got.cif
#   From: 2010.05.17/outbox.cif.g08.bks.cpg/sg13_32_cif.got.tgz:63917.got - 2010.06.03 16:44:36.
