data_PCOD9231053
_publ_section_title
;
Structure prediction by ZEFSAII (Michael W. Deem and Ramdas Pophale) SiO2 
 PCOD9231053
Probable space group: P 2/C
;
_chemical_formula_sum "Si O2"
_cell_formula_units_Z 24
_cell_length_a 24.901589
_cell_length_b 7.548994
_cell_length_c 16.368075
_cell_angle_alpha 90.000000
_cell_angle_beta 158.998135
_cell_angle_gamma 90.000000
_cell_volume 1102.756774
_symmetry_space_group_name_H-M "P 2/C"
_symmetry_group_IT_number 13
_symmetry_cell_setting 'monoclinic'
loop_
_space_group_symop_operation_xyz
x,y,z
-x,y,1/2-z
-x,-y,-z
x,-y,1/2+z
loop_
_atom_site_type_symbol
_atom_site_label
_atom_site_fract_x
_atom_site_fract_y
_atom_site_fract_z
Si Si1 0.581989 0.695773 0.294507
Si Si2 0.116409 0.463043 0.277132
Si Si3 0.142977 0.790084 0.414875
Si Si4 0.825745 0.666304 0.310183
Si Si5 0.330069 0.075804 0.023409
Si Si6 0.631927 0.396501 0.141515
O O1 0.500000 0.586154 0.250000
O O2 0.726710 0.601150 0.464008
O O3 0.648309 0.866551 0.434591
O O4 0.457622 0.727673 0.049848
O O5 0.062525 0.622930 0.256568
O O6 0.153317 0.544529 0.240875
O O7 0.988033 0.318865 0.082732
O O8 0.243922 0.868827 0.484352
O O9 0.259682 0.719957 0.648147
O O10 0.000000 0.894165 0.250000
O O11 0.722174 0.550267 0.222093
O O12 0.761591 0.849126 0.183846
O O13 0.500000 0.146143 0.250000
O O14 0.500000 0.500000 0.000000
#
# Coordination Sequence:
#
# PCOD9231053 Si02
#       6
#     4   4   4   4   4   4
#     4  11  23  40  62  92 128 167 216 264 313 381
#     4  10  20  38  63  89 121 160 214 260 306 380
#     4  11  22  40  63  96 132 164 211 269 321 375
#     4  10  21  37  63  91 116 162 216 257 312 373
#     4  10  24  42  62  91 130 173 210 258 319 389
#     4  12  22  35  66  96 122 165 212 267 321 370
#
# _framework density 21.763636999999999
#
# number of rings (size 3 to 8) (size 9 to 14) (size 15 to 20)
#    0.000    1.333    5.000    1.000    2.333    1.333 
#    0.000    4.167    0.000    0.000    0.000    0.000 
#    0.000    0.000    0.000    0.000    0.000    0.000 
#
# Total GULP energy -133822.830742 kJ/mol
# GULP energy per Si atom -5575.951281 kJ/mol
# Density = 2.171410 g / cm^3
# Si number density = 21.763637 Si / 1000 Ang^3
#
#
#
# Elastic Constant Matrix: (Units=GPa)
#
#
# Indices 1 2 3 4 5 6 
#
# 1 100.1913 -2.6172 23.9495 0.0000 24.3911 0.0000
# 2 -2.6172 31.5406 -5.4871 0.0000 7.1600 0.0000
# 3 23.9495 -5.4871 114.7991 0.0000 10.8018 0.0000
# 4 0.0000 0.0000 0.0000 19.2184 0.0000 -5.4639
# 5 24.3911 7.1600 10.8018 0.0000 38.1651 0.0000
# 6 0.0000 0.0000 0.0000 -5.4639 0.0000 17.7108
#
#
#
# Elastic Compliance Matrix: (Units=1/GPa)
#
#
# Indices 1 2 3 4 5 6 
#
# 1 0.012381 0.002521 -0.001719 0.000000 -0.007899 0.000000
# 2 0.002521 0.034192 0.001914 0.000000 -0.008568 0.000000
# 3 -0.001719 0.001914 0.009340 0.000000 -0.001904 0.000000
# 4 0.000000 0.000000 0.000000 0.057036 0.000000 0.017596
# 5 -0.007899 -0.008568 -0.001904 0.000000 0.033396 0.000000
# 6 0.000000 0.000000 0.000000 0.017596 0.000000 0.061891
#
#
# Mechanical properties :
#
#
# Convention : Reuss Voigt Hill
#
# Bulk Modulus (GPa) = 16.30078 30.91349 23.60714
# Shear Modulus (GPa) = 22.39618 30.39791 26.39704
#
# Velocity S-wave (km/s) = 3.21138 3.74134 3.48644
# Velocity P-wave (km/s) = 4.61051 5.73572 5.20362
#
# Compressibility (1/GPa) = 0.06134675
#
# Stress axis : x y z
#
# Youngs Moduli (GPa) = 80.77128 29.24619 107.06439
#
# Poissons Ratio (x) = -0.07374 0.18406
# Poissons Ratio (y) = -0.20365 -0.20497
# Poissons Ratio (z) = 0.13886 -0.05599
#
# Static dielectric constant tensor:
#      x y z
#    x 1.846860 0.000000 0.043600 
#    y 0.000000 1.791040 0.000000 
#    z 0.043600 0.000000 1.844930 
# 
# From -- ./inp_files/71854.got.cif
#   From: 2010.05.17/outbox.cif.g08.bks.cpg/sg13_36_cif.got.tgz:71854.got - 2010.06.03 16:44:36.
