data_PCOD9231709
_publ_section_title
;
Structure prediction by ZEFSAII (Michael W. Deem and Ramdas Pophale) SiO2 
 PCOD9231709
Probable space group: P 2/C
;
_chemical_formula_sum "Si O2"
_cell_formula_units_Z 24
_cell_length_a 5.062534
_cell_length_b 7.576740
_cell_length_c 26.147416
_cell_angle_alpha 90.000000
_cell_angle_beta 98.024277
_cell_angle_gamma 90.000000
_cell_volume 993.129741
_symmetry_space_group_name_H-M "P 2/C"
_symmetry_group_IT_number 13
_symmetry_cell_setting 'monoclinic'
loop_
_space_group_symop_operation_xyz
x,y,z
-x,y,1/2-z
-x,-y,-z
x,-y,1/2+z
loop_
_atom_site_type_symbol
_atom_site_label
_atom_site_fract_x
_atom_site_fract_y
_atom_site_fract_z
Si Si1 0.738299 0.960934 0.046508
Si Si2 0.500000 0.602670 0.250000
Si Si3 0.722472 0.281395 0.856282
Si Si4 0.975463 0.374072 0.138815
Si Si5 0.000000 0.647415 0.750000
Si Si6 0.270287 0.922054 0.599421
Si Si7 0.608018 0.429506 0.557099
O O1 0.571083 0.032117 0.091363
O O2 0.776515 0.748916 0.049486
O O3 0.025826 0.055788 0.051801
O O4 0.500000 0.000000 0.000000
O O5 0.478882 0.709073 0.196804
O O6 0.253278 0.472758 0.246740
O O7 0.809452 0.081326 0.865078
O O8 0.600886 0.352776 0.906689
O O9 0.951609 0.421090 0.849242
O O10 0.757502 0.408791 0.089010
O O11 0.927363 0.275895 0.191682
O O12 0.223817 0.268627 0.121698
O O13 0.500000 0.500000 0.500000
#
# Coordination Sequence:
#
# PCOD9231709 Si02
#       7
#     4   2   4   4   2   4   4
#     4  11  24  44  61  97 135 175 225 275 327 397
#     4  10  20  40  74  88 134 172 218 280 334 398
#     4  10  23  44  63 101 130 177 228 274 343 399
#     4  11  23  43  67  97 134 177 226 276 343 396
#     4  10  22  40  70 100 126 176 222 280 330 406
#     4  11  25  41  67  94 135 171 219 281 327 404
#     4  11  23  40  68  95 134 180 223 274 339 404
#
# _framework density 24.166028000000001
#
# number of rings (size 3 to 8) (size 9 to 14) (size 15 to 20)
#    0.000    1.333    3.333    1.500    4.667    2.000 
#    0.000   10.000    0.000    0.000    0.000    0.000 
#    0.000    0.000    0.000    0.000    0.000    0.000 
#
# Total GULP energy -133776.232420 kJ/mol
# GULP energy per Si atom -5574.009684 kJ/mol
# Density = 2.411102 g / cm^3
# Si number density = 24.166028 Si / 1000 Ang^3
#
#
#
# Elastic Constant Matrix: (Units=GPa)
#
#
# Indices 1 2 3 4 5 6 
#
# 1 85.7472 5.5075 14.0980 0.0000 6.1085 0.0000
# 2 5.5075 108.8447 9.2194 0.0000 0.1870 0.0000
# 3 14.0980 9.2194 169.8076 0.0000 6.6281 0.0000
# 4 0.0000 0.0000 0.0000 15.9460 0.0000 0.0068
# 5 6.1085 0.1870 6.6281 0.0000 25.0556 0.0000
# 6 0.0000 0.0000 0.0000 0.0068 0.0000 36.1918
#
#
#
# Elastic Compliance Matrix: (Units=1/GPa)
#
#
# Indices 1 2 3 4 5 6 
#
# 1 0.012031 -0.000531 -0.000865 0.000000 -0.002700 0.000000
# 2 -0.000531 0.009253 -0.000465 0.000000 0.000183 0.000000
# 3 -0.000865 -0.000465 0.006040 0.000000 -0.001384 0.000000
# 4 0.000000 0.000000 0.000000 0.062712 0.000000 -0.000012
# 5 -0.002700 0.000183 -0.001384 0.000000 0.040934 0.000000
# 6 0.000000 0.000000 0.000000 -0.000012 0.000000 0.027631
#
#
# Mechanical properties :
#
#
# Convention : Reuss Voigt Hill
#
# Bulk Modulus (GPa) = 42.36870 46.89437 44.63153
# Shear Modulus (GPa) = 29.37894 37.81033 33.59463
#
# Velocity S-wave (km/s) = 3.49049 3.95980 3.73253
# Velocity P-wave (km/s) = 5.81507 6.35247 6.08970
#
# Compressibility (1/GPa) = 0.02360233
#
# Stress axis : x y z
#
# Youngs Moduli (GPa) = 83.11991 108.06864 165.56082
#
# Poissons Ratio (x) = 0.05737 0.14315
# Poissons Ratio (y) = 0.04413 0.07707
# Poissons Ratio (z) = 0.07187 0.05030
#
# Static dielectric constant tensor:
#      x y z
#    x 1.997660 0.000000 0.005440 
#    y 0.000000 1.904800 0.000000 
#    z 0.005440 0.000000 2.226100 
# 
# From -- ./inp_files/94792.got.cif
#   From: 2010.05.17/outbox.cif.g08.bks.cpg/sg13_48_cif.got.tgz:94792.got - 2010.06.03 16:44:36.
