data_PCOD9231705
_publ_section_title
;
Structure prediction by ZEFSAII (Michael W. Deem and Ramdas Pophale) SiO2 
 PCOD9231705
Probable space group: P 2/C
;
_chemical_formula_sum "Si O2"
_cell_formula_units_Z 26
_cell_length_a 8.303680
_cell_length_b 17.290493
_cell_length_c 18.676510
_cell_angle_alpha 90.000000
_cell_angle_beta 29.690441
_cell_angle_gamma 90.000000
_cell_volume 1328.171275
_symmetry_space_group_name_H-M "P 2/C"
_symmetry_group_IT_number 13
_symmetry_cell_setting 'monoclinic'
loop_
_space_group_symop_operation_xyz
x,y,z
-x,y,1/2-z
-x,-y,-z
x,-y,1/2+z
loop_
_atom_site_type_symbol
_atom_site_label
_atom_site_fract_x
_atom_site_fract_y
_atom_site_fract_z
Si Si1 0.390011 0.105165 0.997979
Si Si2 0.357806 0.346830 0.976196
Si Si3 0.373184 0.489239 0.875168
Si Si4 0.302543 0.754323 0.038500
Si Si5 0.000000 0.991282 0.750000
Si Si6 0.392463 0.335835 0.210463
Si Si7 0.459580 0.213640 0.684562
O O1 0.508556 0.168024 0.010918
O O2 0.360553 0.154365 0.937451
O O3 0.681170 0.044862 0.869350
O O4 0.079050 0.061830 0.150540
O O5 0.997159 0.333075 0.145892
O O6 0.415717 0.433336 0.926488
O O7 0.608743 0.310508 0.935965
O O8 0.385381 0.296252 0.893338
O O9 0.500000 0.457559 0.750000
O O10 0.516343 0.573953 0.834952
O O11 0.000000 0.500000 0.000000
O O12 0.923587 0.776927 0.184459
O O13 0.426879 0.718644 0.916056
O O14 0.500000 0.316128 0.250000
O O15 0.500000 0.190578 0.750000
#
# Coordination Sequence:
#
# PCOD9231705 Si02
#       7
#     4   4   4   4   2   4   4
#     4  10  21  41  67  96 128 167 212 249 316 382
#     4  11  22  39  62  89 123 170 217 266 312 378
#     4  11  22  40  60  88 128 171 214 261 330 380
#     4  11  24  41  62  96 127 162 222 265 313 385
#     4  10  20  40  72  92 130 170 202 252 314 384
#     4  11  23  39  61  91 126 170 216 265 323 375
#     4  11  23  41  65  93 129 168 214 267 323 379
#
# _framework density 19.575787999999999
#
# number of rings (size 3 to 8) (size 9 to 14) (size 15 to 20)
#    0.000    1.231    4.615    3.231    6.462    0.615 
#    0.000    2.308    0.000    0.000    0.000    0.000 
#    0.000    0.000    0.000    0.000    0.000    0.000 
#
# Total GULP energy -145130.651450 kJ/mol
# GULP energy per Si atom -5581.948133 kJ/mol
# Density = 1.953123 g / cm^3
# Si number density = 19.575788 Si / 1000 Ang^3
#
#
#
# Elastic Constant Matrix: (Units=GPa)
#
#
# Indices 1 2 3 4 5 6 
#
# 1 76.3336 33.5319 26.9088 0.0000 14.6793 0.0000
# 2 33.5319 91.0032 38.8989 0.0000 21.3876 0.0000
# 3 26.9088 38.8989 101.1879 0.0000 22.4799 0.0000
# 4 0.0000 0.0000 0.0000 39.0190 0.0000 9.9056
# 5 14.6793 21.3876 22.4799 0.0000 34.4276 0.0000
# 6 0.0000 0.0000 0.0000 9.9056 0.0000 8.8925
#
#
#
# Elastic Compliance Matrix: (Units=1/GPa)
#
#
# Indices 1 2 3 4 5 6 
#
# 1 0.016324 -0.004495 -0.001974 0.000000 -0.002879 0.000000
# 2 -0.004495 0.015416 -0.003543 0.000000 -0.005347 0.000000
# 3 -0.001974 -0.003543 0.012976 0.000000 -0.005430 0.000000
# 4 0.000000 0.000000 0.000000 0.035733 0.000000 -0.039804
# 5 -0.002879 -0.005347 -0.005430 0.000000 0.037142 0.000000
# 6 0.000000 0.000000 0.000000 -0.039804 0.000000 0.156793
#
#
# Mechanical properties :
#
#
# Convention : Reuss Voigt Hill
#
# Bulk Modulus (GPa) = 40.49660 51.91152 46.20406
# Shear Modulus (GPa) = 16.52141 27.74683 22.13412
#
# Velocity S-wave (km/s) = 2.90827 3.76893 3.36622
# Velocity P-wave (km/s) = 5.65768 6.74652 6.22595
#
# Compressibility (1/GPa) = 0.02469343
#
# Stress axis : x y z
#
# Youngs Moduli (GPa) = 61.25854 64.86815 77.06633
#
# Poissons Ratio (x) = 0.29156 0.15209
# Poissons Ratio (y) = 0.27534 0.27305
# Poissons Ratio (z) = 0.12090 0.22983
#
# Static dielectric constant tensor:
#      x y z
#    x 1.651570 0.000000 0.086160 
#    y 0.000000 1.672440 0.000000 
#    z 0.086160 0.000000 1.459930 
# 
# From -- ./inp_files/64747.got.cif
#   From: 2010.05.17/outbox.cif.g08.bks.cpg/sg13_33_cif.got.tgz:64747.got - 2010.06.03 16:44:36.
