data_PCOD9231403
_publ_section_title
;
Structure prediction by ZEFSAII (Michael W. Deem and Ramdas Pophale) SiO2 
 PCOD9231403
Probable space group: P 2/C
;
_chemical_formula_sum "Si O2"
_cell_formula_units_Z 22
_cell_length_a 5.064111
_cell_length_b 14.886436
_cell_length_c 13.787961
_cell_angle_alpha 90.000000
_cell_angle_beta 110.610446
_cell_angle_gamma 90.000000
_cell_volume 972.898871
_symmetry_space_group_name_H-M "P 2/C"
_symmetry_group_IT_number 13
_symmetry_cell_setting 'monoclinic'
loop_
_space_group_symop_operation_xyz
x,y,z
-x,y,1/2-z
-x,-y,-z
x,-y,1/2+z
loop_
_atom_site_type_symbol
_atom_site_label
_atom_site_fract_x
_atom_site_fract_y
_atom_site_fract_z
Si Si1 0.803327 0.579134 0.021321
Si Si2 0.716781 0.890018 0.471745
Si Si3 0.739562 0.004296 0.168547
Si Si4 0.749524 0.223677 0.479085
Si Si5 0.500000 0.832494 0.750000
Si Si6 0.695941 0.533717 0.681313
O O1 0.891496 0.681303 0.021542
O O2 0.502751 0.580272 0.925242
O O3 0.772360 0.555372 0.130333
O O4 0.000000 0.500000 0.000000
O O5 0.783017 0.961637 0.564974
O O6 0.516404 0.811695 0.492375
O O7 0.008373 0.849361 0.476347
O O8 0.537591 0.943801 0.369788
O O9 0.700372 0.096964 0.221867
O O10 0.000000 0.954769 0.250000
O O11 0.652282 0.223455 0.353508
O O12 0.500000 0.521994 0.750000
O O13 0.000000 0.575487 0.750000
#
# Coordination Sequence:
#
# PCOD9231403 Si02
#       6
#     4   4   4   4   2   4
#     4  11  26  45  76 104 143 190 243 295 358 425
#     4  10  24  39  64  94 138 177 212 288 339 410
#     4  10  20  39  66  93 132 176 225 264 357 418
#     4  11  25  42  63 106 137 171 231 292 343 402
#     4  10  22  38  68 100 132 164 224 294 346 410
#     4  11  24  44  71 104 134 193 239 289 359 429
#
# _framework density 22.612833999999999
#
# number of rings (size 3 to 8) (size 9 to 14) (size 15 to 20)
#    0.000    1.455    3.636    0.000    8.909    2.182 
#    0.000    2.727    6.000    0.000    0.000    0.000 
#    0.000    0.000    0.000    0.000    0.000    0.000 
#
# Total GULP energy -122892.387360 kJ/mol
# GULP energy per Si atom -5586.017607 kJ/mol
# Density = 2.256137 g / cm^3
# Si number density = 22.612834 Si / 1000 Ang^3
#
#
#
# Elastic Constant Matrix: (Units=GPa)
#
#
# Indices 1 2 3 4 5 6 
#
# 1 102.5778 12.2345 27.1421 0.0000 4.9246 0.0000
# 2 12.2345 78.8303 -9.5459 0.0000 -5.1305 0.0000
# 3 27.1421 -9.5459 76.3025 0.0000 8.8204 0.0000
# 4 0.0000 0.0000 0.0000 18.6066 0.0000 -0.9485
# 5 4.9246 -5.1305 8.8204 0.0000 44.3188 0.0000
# 6 0.0000 0.0000 0.0000 -0.9485 0.0000 27.7580
#
#
#
# Elastic Compliance Matrix: (Units=1/GPa)
#
#
# Indices 1 2 3 4 5 6 
#
# 1 0.011158 -0.002281 -0.004177 0.000000 -0.000673 0.000000
# 2 -0.002281 0.013409 0.002334 0.000000 0.001341 0.000000
# 3 -0.004177 0.002334 0.015147 0.000000 -0.002280 0.000000
# 4 0.000000 0.000000 0.000000 0.053838 0.000000 0.001840
# 5 -0.000673 0.001341 -0.002280 0.000000 0.023248 0.000000
# 6 0.000000 0.000000 0.000000 0.001840 0.000000 0.036088
#
#
# Mechanical properties :
#
#
# Convention : Reuss Voigt Hill
#
# Bulk Modulus (GPa) = 31.77968 35.26355 33.52162
# Shear Modulus (GPa) = 29.13309 33.32869 31.23089
#
# Velocity S-wave (km/s) = 3.59324 3.84328 3.72037
# Velocity P-wave (km/s) = 5.59460 5.94330 5.77158
#
# Compressibility (1/GPa) = 0.03146665
#
# Stress axis : x y z
#
# Youngs Moduli (GPa) = 89.61947 74.57408 66.01922
#
# Poissons Ratio (x) = 0.17013 0.27575
# Poissons Ratio (y) = 0.20445 -0.15409
# Poissons Ratio (z) = 0.37433 -0.17406
#
# Static dielectric constant tensor:
#      x y z
#    x 1.881790 0.000000 -0.030590 
#    y 0.000000 1.847000 0.000000 
#    z -0.030590 0.000000 1.840060 
# 
# From -- ./inp_files/44118.got.cif
#   From: 2010.05.17/outbox.cif.g08.bks.cpg/sg13_23_cif.got.tgz:44118.got - 2010.06.03 16:44:36.
