data_PCOD9231609
_publ_section_title
;
Structure prediction by ZEFSAII (Michael W. Deem and Ramdas Pophale) SiO2 
 PCOD9231609
Probable space group: P 2/C
;
_chemical_formula_sum "Si O2"
_cell_formula_units_Z 22
_cell_length_a 16.333286
_cell_length_b 8.898448
_cell_length_c 9.061185
_cell_angle_alpha 90.000000
_cell_angle_beta 125.122984
_cell_angle_gamma 90.000000
_cell_volume 1077.167205
_symmetry_space_group_name_H-M "P 2/C"
_symmetry_group_IT_number 13
_symmetry_cell_setting 'monoclinic'
loop_
_space_group_symop_operation_xyz
x,y,z
-x,y,1/2-z
-x,-y,-z
x,-y,1/2+z
loop_
_atom_site_type_symbol
_atom_site_label
_atom_site_fract_x
_atom_site_fract_y
_atom_site_fract_z
Si Si1 0.518503 0.323053 0.040344
Si Si2 0.002233 0.839173 0.575389
Si Si3 0.163186 0.326755 0.791348
Si Si4 0.500000 0.902593 0.250000
Si Si5 0.640504 0.184380 0.399049
Si Si6 0.106382 0.579623 0.560094
O O1 0.620329 0.283576 0.232707
O O2 0.429944 0.260977 0.051790
O O3 0.500000 0.500000 0.000000
O O4 0.515951 0.211366 0.900153
O O5 0.909197 0.761467 0.395101
O O6 0.000000 0.841497 0.750000
O O7 0.098339 0.742075 0.626153
O O8 0.000000 0.000000 0.500000
O O9 0.189951 0.473419 0.720539
O O10 0.248097 0.211453 0.930741
O O11 0.116816 0.394001 0.896030
O O12 0.594679 0.017221 0.329307
O O13 0.000000 0.500000 0.500000
#
# Coordination Sequence:
#
# PCOD9231609 Si02
#       6
#     4   4   4   2   4   4
#     4  10  21  42  67  92 131 173 213 267 333 405
#     4  11  22  43  62  88 127 172 213 270 345 399
#     4  11  23  40  64  98 127 164 233 271 322 408
#     4  10  20  46  68  88 134 178 214 260 354 406
#     4  10  22  39  62  96 132 168 214 270 327 398
#     4  10  20  40  66  86 128 176 209 274 334 391
#
# _framework density 20.423942
#
# number of rings (size 3 to 8) (size 9 to 14) (size 15 to 20)
#    0.000    1.818    0.000    8.727    2.545    0.000 
#   13.091    0.000    0.000    0.000    0.000    0.000 
#    0.000    0.000    0.000    0.000    0.000    0.000 
#
# Total GULP energy -122516.169686 kJ/mol
# GULP energy per Si atom -5568.916804 kJ/mol
# Density = 2.037746 g / cm^3
# Si number density = 20.423942 Si / 1000 Ang^3
#
#
#
# Elastic Constant Matrix: (Units=GPa)
#
#
# Indices 1 2 3 4 5 6 
#
# 1 31.2638 15.2313 47.1651 0.0000 -9.5310 0.0000
# 2 15.2313 178.3953 78.5508 0.0000 -6.1711 0.0000
# 3 47.1651 78.5508 188.5732 0.0000 -20.4862 0.0000
# 4 0.0000 0.0000 0.0000 191.8600 0.0000 -113.3147
# 5 -9.5310 -6.1711 -20.4862 0.0000 41.9964 0.0000
# 6 0.0000 0.0000 0.0000 -113.3147 0.0000 88.9242
#
#
#
# Elastic Compliance Matrix: (Units=1/GPa)
#
#
# Indices 1 2 3 4 5 6 
#
# 1 0.053022 0.001513 -0.013263 0.000000 0.005786 0.000000
# 2 0.001513 0.006914 -0.003285 0.000000 -0.000243 0.000000
# 3 -0.013263 -0.003285 0.010147 0.000000 0.001457 0.000000
# 4 0.000000 0.000000 0.000000 0.021068 0.000000 0.026847
# 5 0.005786 -0.000243 0.001457 0.000000 0.025800 0.000000
# 6 0.000000 0.000000 0.000000 0.026847 0.000000 0.045456
#
#
# Mechanical properties :
#
#
# Convention : Reuss Voigt Hill
#
# Bulk Modulus (GPa) = 24.99198 75.56964 50.28081
# Shear Modulus (GPa) = 24.29359 81.70846 53.00102
#
# Velocity S-wave (km/s) = 3.45261 6.33191 5.09968
# Velocity P-wave (km/s) = 5.30633 9.51516 7.70375
#
# Compressibility (1/GPa) = 0.04001284
#
# Stress axis : x y z
#
# Youngs Moduli (GPa) = 18.86013 144.62529 98.55035
#
# Poissons Ratio (x) = -0.21886 1.30712
# Poissons Ratio (y) = -0.02854 0.32375
# Poissons Ratio (z) = 0.25015 0.47511
#
# Static dielectric constant tensor:
#      x y z
#    x 2.200800 0.000000 -0.524040 
#    y 0.000000 1.721860 0.000000 
#    z -0.524040 0.000000 2.567960 
# 
# From -- ./inp_files/20976.got.cif
#   From: 2010.05.17/outbox.cif.g08.bks.cpg/sg13_11_cif.got.tgz:20976.got - 2010.06.03 16:44:36.
