data_PCOD9231384
_publ_section_title
;
Structure prediction by ZEFSAII (Michael W. Deem and Ramdas Pophale) SiO2 
 PCOD9231384
Probable space group: P 2/C
;
_chemical_formula_sum "Si O2"
_cell_formula_units_Z 32
_cell_length_a 9.875047
_cell_length_b 18.793759
_cell_length_c 13.915266
_cell_angle_alpha 90.000000
_cell_angle_beta 136.646408
_cell_angle_gamma 90.000000
_cell_volume 1772.899458
_symmetry_space_group_name_H-M "P 2/C"
_symmetry_group_IT_number 13
_symmetry_cell_setting 'monoclinic'
loop_
_space_group_symop_operation_xyz
x,y,z
-x,y,1/2-z
-x,-y,-z
x,-y,1/2+z
loop_
_atom_site_type_symbol
_atom_site_label
_atom_site_fract_x
_atom_site_fract_y
_atom_site_fract_z
Si Si1 0.915178 0.787364 0.399160
Si Si2 0.821469 0.054780 0.913369
Si Si3 0.342574 0.730337 0.587389
Si Si4 0.726083 0.431137 0.383708
Si Si5 0.486514 0.944663 0.079032
Si Si6 0.047466 0.553038 0.886149
Si Si7 0.322077 0.680604 0.089769
Si Si8 0.436517 0.782518 0.426970
O O1 0.887936 0.863637 0.434854
O O2 0.827069 0.726671 0.422619
O O3 0.779530 0.783667 0.234063
O O4 0.141101 0.773312 0.494286
O O5 0.705703 0.046477 0.953689
O O6 0.668070 0.043980 0.746514
O O7 0.000000 0.000000 0.000000
O O8 0.500000 0.750334 0.750000
O O9 0.291512 0.647295 0.579025
O O10 0.428102 0.748375 0.527322
O O11 0.500000 0.455322 0.250000
O O12 0.846596 0.483585 0.515261
O O13 0.852537 0.430595 0.349948
O O14 0.493850 0.864250 0.042165
O O15 0.500000 0.000000 0.000000
O O16 0.000000 0.543869 0.750000
O O17 0.200682 0.617605 0.979269
O O18 0.500000 0.653628 0.250000
O O19 0.423672 0.734265 0.067437
#
# Coordination Sequence:
#
# PCOD9231384 Si02
#       8
#     4   4   4   4   4   4   4   4
#     4  10  20  41  63  86 120 156 206 245 296 364
#     4  10  22  40  62  86 119 160 198 252 300 350
#     4  11  24  40  60  91 126 158 190 256 304 348
#     4  10  24  45  59  89 129 157 200 252 299 359
#     4  10  22  41  60  87 121 155 204 248 296 362
#     4  11  24  41  66  90 120 164 202 246 301 359
#     4  10  20  39  65  91 114 156 202 249 296 357
#     4  10  22  39  65  88 117 161 203 244 299 360
#
# _framework density 18.049530000000001
#
# number of rings (size 3 to 8) (size 9 to 14) (size 15 to 20)
#    0.000    1.750    2.500    0.750    5.250    3.000 
#    2.250    0.000    0.000    0.000    0.000    0.000 
#    0.000    0.000    0.000    0.000    0.000    0.000 
#
# Total GULP energy -178701.210849 kJ/mol
# GULP energy per Si atom -5584.412839 kJ/mol
# Density = 1.800845 g / cm^3
# Si number density = 18.049530 Si / 1000 Ang^3
#
#
#
# Elastic Constant Matrix: (Units=GPa)
#
#
# Indices 1 2 3 4 5 6 
#
# 1 98.6112 41.4516 57.2450 0.0000 -13.8808 0.0000
# 2 41.4516 69.8007 47.7012 0.0000 -14.4753 0.0000
# 3 57.2450 47.7012 78.5605 0.0000 -19.8259 0.0000
# 4 0.0000 0.0000 0.0000 30.0012 0.0000 0.6629
# 5 -13.8808 -14.4753 -19.8259 0.0000 37.1487 0.0000
# 6 0.0000 0.0000 0.0000 0.6629 0.0000 28.9116
#
#
#
# Elastic Compliance Matrix: (Units=1/GPa)
#
#
# Indices 1 2 3 4 5 6 
#
# 1 0.017930 -0.002971 -0.011398 0.000000 -0.000541 0.000000
# 2 -0.002971 0.025091 -0.012577 0.000000 0.001955 0.000000
# 3 -0.011398 -0.012577 0.030462 0.000000 0.007098 0.000000
# 4 0.000000 0.000000 0.000000 0.033349 0.000000 -0.000765
# 5 -0.000541 0.001955 0.007098 0.000000 0.031266 0.000000
# 6 0.000000 0.000000 0.000000 -0.000765 0.000000 0.034606
#
#
# Mechanical properties :
#
#
# Convention : Reuss Voigt Hill
#
# Bulk Modulus (GPa) = 51.04114 59.97422 55.50768
# Shear Modulus (GPa) = 21.44762 25.91730 23.68246
#
# Velocity S-wave (km/s) = 3.45086 3.79344 3.62620
# Velocity P-wave (km/s) = 6.64964 7.24476 6.95357
#
# Compressibility (1/GPa) = 0.01959204
#
# Stress axis : x y z
#
# Youngs Moduli (GPa) = 55.77227 39.85468 32.82770
#
# Poissons Ratio (x) = 0.11841 0.37416
# Poissons Ratio (y) = 0.16570 0.41287
# Poissons Ratio (z) = 0.63568 0.50125
#
# Static dielectric constant tensor:
#      x y z
#    x 1.609540 0.000000 0.004850 
#    y 0.000000 1.597790 0.000000 
#    z 0.004850 0.000000 1.598740 
# 
# From -- ./inp_files/30809.got.cif
#   From: 2010.05.17/outbox.cif.g08.bks.cpg/sg13_16_cif.got.tgz:30809.got - 2010.06.03 16:44:36.
