data_PCOD9231971
_publ_section_title
;
Structure prediction by ZEFSAII (Michael W. Deem and Ramdas Pophale) SiO2 
 PCOD9231971
Probable space group: P 2/C
;
_chemical_formula_sum "Si O2"
_cell_formula_units_Z 28
_cell_length_a 14.030024
_cell_length_b 6.976038
_cell_length_c 15.884358
_cell_angle_alpha 90.000000
_cell_angle_beta 116.757131
_cell_angle_gamma 90.000000
_cell_volume 1388.196317
_symmetry_space_group_name_H-M "P 2/C"
_symmetry_group_IT_number 13
_symmetry_cell_setting 'monoclinic'
loop_
_space_group_symop_operation_xyz
x,y,z
-x,y,1/2-z
-x,-y,-z
x,-y,1/2+z
loop_
_atom_site_type_symbol
_atom_site_label
_atom_site_fract_x
_atom_site_fract_y
_atom_site_fract_z
Si Si1 0.027210 0.796943 0.971221
Si Si2 0.411891 0.165007 0.330136
Si Si3 0.655658 0.197003 0.384525
Si Si4 0.882737 0.170717 0.169282
Si Si5 0.738366 0.502524 0.672675
Si Si6 0.691486 0.096384 0.583834
Si Si7 0.169753 0.525717 0.613508
O O1 0.102293 0.837276 0.923266
O O2 0.915546 0.695388 0.901372
O O3 0.095476 0.645525 0.051700
O O4 0.000000 0.000000 0.000000
O O5 0.531352 0.232506 0.356614
O O6 0.352967 0.120242 0.216476
O O7 0.354123 0.341838 0.352518
O O8 0.401058 0.992198 0.393182
O O9 0.686052 0.072898 0.479935
O O10 0.739364 0.374505 0.409114
O O11 0.837704 0.379641 0.174348
O O12 0.000000 0.134443 0.250000
O O13 0.796476 0.012599 0.160104
O O14 0.703555 0.320900 0.605977
O O15 0.771960 0.449783 0.780470
#
# Coordination Sequence:
#
# PCOD9231971 Si02
#       7
#     4   4   4   4   4   4   4
#     4  11  23  38  60  87 118 164 205 254 301 365
#     4   9  22  42  66  90 128 160 200 264 315 363
#     4  10  20  43  65  91 127 164 203 259 316 373
#     4  11  23  39  57  86 123 162 201 255 309 352
#     4  10  22  40  60  88 125 160 204 257 304 370
#     4  11  23  38  65  94 120 165 211 252 312 379
#     4  10  22  39  60  87 122 161 207 251 309 361
#
# _framework density 20.170058000000001
#
# number of rings (size 3 to 8) (size 9 to 14) (size 15 to 20)
#    0.000    1.714    1.429    2.143    2.000    3.429 
#    0.000   10.000    0.000    0.000    0.000    0.000 
#    0.000    0.000    0.000    0.000    0.000    0.000 
#
# Total GULP energy -155977.392510 kJ/mol
# GULP energy per Si atom -5570.621161 kJ/mol
# Density = 2.012415 g / cm^3
# Si number density = 20.170058 Si / 1000 Ang^3
#
#
#
# Elastic Constant Matrix: (Units=GPa)
#
#
# Indices 1 2 3 4 5 6 
#
# 1 106.0407 30.0097 21.3339 0.0000 -0.7605 0.0000
# 2 30.0097 68.0960 34.4219 0.0000 -7.4652 0.0000
# 3 21.3339 34.4219 53.8632 0.0000 1.6409 0.0000
# 4 0.0000 0.0000 0.0000 30.4848 0.0000 -79.0687
# 5 -0.7605 -7.4652 1.6409 0.0000 35.0090 0.0000
# 6 0.0000 0.0000 0.0000 -79.0687 0.0000 347.4586
#
#
#
# Elastic Compliance Matrix: (Units=1/GPa)
#
#
# Indices 1 2 3 4 5 6 
#
# 1 0.010906 -0.003972 -0.001765 0.000000 -0.000527 0.000000
# 2 -0.003972 0.024161 -0.014042 0.000000 0.005724 0.000000
# 3 -0.001765 -0.014042 0.028371 0.000000 -0.004362 0.000000
# 4 0.000000 0.000000 0.000000 0.080053 0.000000 0.018217
# 5 -0.000527 0.005724 -0.004362 0.000000 0.029978 0.000000
# 6 0.000000 0.000000 0.000000 0.018217 0.000000 0.007024
#
#
# Mechanical properties :
#
#
# Convention : Reuss Voigt Hill
#
# Bulk Modulus (GPa) = 41.87496 44.39233 43.13364
# Shear Modulus (GPa) = 21.92897 92.07277 57.00087
#
# Velocity S-wave (km/s) = 3.30086 6.76368 5.32179
# Velocity P-wave (km/s) = 5.94420 9.11336 7.69372
#
# Compressibility (1/GPa) = 0.02388062
#
# Stress axis : x y z
#
# Youngs Moduli (GPa) = 91.69538 41.38935 35.24711
#
# Poissons Ratio (x) = 0.16438 0.06222
# Poissons Ratio (y) = 0.36417 0.49493
# Poissons Ratio (z) = 0.16187 0.58117
#
# Static dielectric constant tensor:
#      x y z
#    x 1.737250 0.000000 -0.039420 
#    y 0.000000 1.670990 0.000000 
#    z -0.039420 0.000000 1.781050 
# 
# From -- ./inp_files/67610.got.cif
#   From: 2010.05.17/outbox.cif.g08.bks.cpg/sg13_34_cif.got.tgz:67610.got - 2010.06.03 16:44:36.
