data_PCOD9231073
_publ_section_title
;
Structure prediction by ZEFSAII (Michael W. Deem and Ramdas Pophale) SiO2 
 PCOD9231073
Probable space group: P 2/C
;
_chemical_formula_sum "Si O2"
_cell_formula_units_Z 30
_cell_length_a 10.786956
_cell_length_b 8.883428
_cell_length_c 13.973763
_cell_angle_alpha 90.000000
_cell_angle_beta 77.962559
_cell_angle_gamma 90.000000
_cell_volume 1309.594496
_symmetry_space_group_name_H-M "P 2/C"
_symmetry_group_IT_number 13
_symmetry_cell_setting 'monoclinic'
loop_
_space_group_symop_operation_xyz
x,y,z
-x,y,1/2-z
-x,-y,-z
x,-y,1/2+z
loop_
_atom_site_type_symbol
_atom_site_label
_atom_site_fract_x
_atom_site_fract_y
_atom_site_fract_z
Si Si1 0.946583 0.264234 0.650587
Si Si2 0.811339 0.391365 0.990486
Si Si3 0.500000 0.365997 0.250000
Si Si4 0.314325 0.874665 0.080135
Si Si5 0.205398 0.703611 0.593634
Si Si6 0.225903 0.455657 0.293878
Si Si7 0.540116 0.118193 0.400660
Si Si8 0.040272 0.033432 0.135287
O O1 0.832387 0.379181 0.684145
O O2 0.000000 0.246362 0.750000
O O3 0.050345 0.351910 0.571459
O O4 0.937789 0.090148 0.615722
O O5 0.713630 0.299175 0.938239
O O6 0.783986 0.565743 0.979363
O O7 0.803053 0.360514 0.104897
O O8 0.376248 0.465072 0.263988
O O9 0.497472 0.249227 0.337125
O O10 0.394867 0.962852 0.148971
O O11 0.173065 0.941309 0.106974
O O12 0.410846 0.917514 0.978634
O O13 0.185348 0.631196 0.703272
O O14 0.335479 0.800427 0.571439
O O15 0.084847 0.807018 0.587406
O O16 0.000000 0.067825 0.250000
#
# Coordination Sequence:
#
# PCOD9231073 Si02
#       8
#     4   4   2   4   4   4   4   4
#     4  10  20  39  63  87 128 171 215 271 334 388
#     4  11  21  37  64  93 128 169 211 276 332 386
#     4  10  20  38  64 104 134 172 224 272 324 402
#     4   9  18  36  63  88 123 170 216 257 325 387
#     4  10  22  37  64  92 127 170 224 268 332 397
#     4  11  22  39  63 100 129 171 219 271 328 398
#     4   9  18  37  63  90 127 174 215 268 319 385
#     4   9  20  37  62  86 120 168 213 266 324 393
#
# _framework density 22.907852999999999
#
# number of rings (size 3 to 8) (size 9 to 14) (size 15 to 20)
#    0.000    2.133    2.667    0.400    1.867    0.533 
#    0.000    0.667   23.467    0.000    0.000    0.000 
#    0.000    0.000    0.000    0.000    0.000    0.000 
#
# Total GULP energy -167002.364160 kJ/mol
# GULP energy per Si atom -5566.745472 kJ/mol
# Density = 2.285571 g / cm^3
# Si number density = 22.907853 Si / 1000 Ang^3
#
#
#
# Elastic Constant Matrix: (Units=GPa)
#
#
# Indices 1 2 3 4 5 6 
#
# 1 70.5210 52.0351 36.0988 0.0000 -10.3238 0.0000
# 2 52.0351 127.7378 5.5461 0.0000 -7.1970 0.0000
# 3 36.0988 5.5461 79.6505 0.0000 -9.5629 0.0000
# 4 0.0000 0.0000 0.0000 17.4367 0.0000 -32.6051
# 5 -10.3238 -7.1970 -9.5629 0.0000 29.9577 0.0000
# 6 0.0000 0.0000 0.0000 -32.6051 0.0000 128.8188
#
#
#
# Elastic Compliance Matrix: (Units=1/GPa)
#
#
# Indices 1 2 3 4 5 6 
#
# 1 0.028998 -0.011096 -0.011948 0.000000 0.003513 0.000000
# 2 -0.011096 0.012190 0.004235 0.000000 0.000457 0.000000
# 3 -0.011948 0.004235 0.017992 0.000000 0.002643 0.000000
# 4 0.000000 0.000000 0.000000 0.108884 0.000000 0.027559
# 5 0.003513 0.000457 0.002643 0.000000 0.035545 0.000000
# 6 0.000000 0.000000 0.000000 0.027559 0.000000 0.014738
#
#
# Mechanical properties :
#
#
# Convention : Reuss Voigt Hill
#
# Bulk Modulus (GPa) = 46.37620 51.69660 49.03640
# Shear Modulus (GPa) = 19.00044 47.52460 33.26252
#
# Velocity S-wave (km/s) = 2.88311 4.55972 3.81466
# Velocity P-wave (km/s) = 5.60104 7.09490 6.39176
#
# Compressibility (1/GPa) = 0.02156278
#
# Stress axis : x y z
#
# Youngs Moduli (GPa) = 34.48573 82.03222 55.57967
#
# Poissons Ratio (x) = 0.91020 0.66405
# Poissons Ratio (y) = 0.38264 -0.23537
# Poissons Ratio (z) = 0.41202 -0.34738
#
# Static dielectric constant tensor:
#      x y z
#    x 1.954550 0.000000 0.164420 
#    y 0.000000 1.997430 0.000000 
#    z 0.164420 0.000000 2.045960 
# 
# From -- ./inp_files/50300.got.cif
#   From: 2010.05.17/outbox.cif.g08.bks.cpg/sg13_26_cif.got.tgz:50300.got - 2010.06.03 16:44:36.
