data_PCOD9231692
_publ_section_title
;
Structure prediction by ZEFSAII (Michael W. Deem and Ramdas Pophale) SiO2 
 PCOD9231692
Probable space group: P 2/C
;
_chemical_formula_sum "Si O2"
_cell_formula_units_Z 30
_cell_length_a 14.929906
_cell_length_b 19.462022
_cell_length_c 11.281063
_cell_angle_alpha 90.000000
_cell_angle_beta 153.063549
_cell_angle_gamma 90.000000
_cell_volume 1484.892960
_symmetry_space_group_name_H-M "P 2/C"
_symmetry_group_IT_number 13
_symmetry_cell_setting 'monoclinic'
loop_
_space_group_symop_operation_xyz
x,y,z
-x,y,1/2-z
-x,-y,-z
x,-y,1/2+z
loop_
_atom_site_type_symbol
_atom_site_label
_atom_site_fract_x
_atom_site_fract_y
_atom_site_fract_z
Si Si1 0.211621 0.534756 0.730377
Si Si2 0.271373 0.017236 0.746791
Si Si3 0.000000 0.894893 0.750000
Si Si4 0.511778 0.589053 0.627679
Si Si5 0.031717 0.903797 0.148686
Si Si6 0.602747 0.288203 0.681524
Si Si7 0.220410 0.320971 0.362498
Si Si8 0.930500 0.789704 0.471185
O O1 0.276654 0.565137 0.678108
O O2 0.231757 0.599980 0.840362
O O3 0.000000 0.500000 0.500000
O O4 0.371618 0.477030 0.949652
O O5 0.167221 0.057511 0.511468
O O6 0.219327 0.061143 0.803585
O O7 0.151846 0.946337 0.621225
O O8 0.500000 0.000000 0.000000
O O9 0.044584 0.840713 0.696772
O O10 0.500000 0.610092 0.750000
O O11 0.430215 0.650995 0.451050
O O12 0.000000 0.910302 0.250000
O O13 0.043634 0.825186 0.123612
O O14 0.390814 0.279306 0.493539
O O15 0.740542 0.312444 0.952871
O O16 0.704484 0.221173 0.745606
O O17 0.020107 0.285653 0.085533
#
# Coordination Sequence:
#
# PCOD9231692 Si02
#       8
#     4   4   2   4   4   4   4   4
#     4  10  22  38  63  92 119 167 214 263 331 384
#     4  10  22  43  71  96 132 175 213 267 336 387
#     4  10  20  40  70  98 130 162 220 272 310 396
#     4  10  23  40  59  90 133 161 209 272 327 390
#     4  10  23  44  61  97 137 165 217 271 322 402
#     4  10  21  40  62  88 121 169 210 267 325 380
#     4  10  21  38  64  91 121 159 222 266 318 390
#     4  11  21  40  65  90 127 167 212 269 318 374
#
# _framework density 20.203478
#
# number of rings (size 3 to 8) (size 9 to 14) (size 15 to 20)
#    0.000    1.867    2.000    0.800    5.600    3.200 
#    4.800    0.000    0.000    0.000    0.000    0.000 
#    0.000    0.000    0.000    0.000    0.000    0.000 
#
# Total GULP energy -167221.164720 kJ/mol
# GULP energy per Si atom -5574.038824 kJ/mol
# Density = 2.015749 g / cm^3
# Si number density = 20.203478 Si / 1000 Ang^3
#
#
#
# Elastic Constant Matrix: (Units=GPa)
#
#
# Indices 1 2 3 4 5 6 
#
# 1 136.9207 54.2286 48.6545 0.0000 -1.2108 0.0000
# 2 54.2286 64.9578 23.5271 0.0000 -0.2532 0.0000
# 3 48.6545 23.5271 59.5979 0.0000 18.1265 0.0000
# 4 0.0000 0.0000 0.0000 14.5882 0.0000 1.1282
# 5 -1.2108 -0.2532 18.1265 0.0000 34.2370 0.0000
# 6 0.0000 0.0000 0.0000 1.1282 0.0000 40.0294
#
#
#
# Elastic Compliance Matrix: (Units=1/GPa)
#
#
# Indices 1 2 3 4 5 6 
#
# 1 0.014179 -0.008148 -0.010123 0.000000 0.005801 0.000000
# 2 -0.008148 0.023284 -0.002985 0.000000 0.001465 0.000000
# 3 -0.010123 -0.002985 0.031393 0.000000 -0.017001 0.000000
# 4 0.000000 0.000000 0.000000 0.068698 0.000000 -0.001936
# 5 0.005801 0.001465 -0.017001 0.000000 0.038425 0.000000
# 6 0.000000 0.000000 0.000000 -0.001936 0.000000 0.025036
#
#
# Mechanical properties :
#
#
# Convention : Reuss Voigt Hill
#
# Bulk Modulus (GPa) = 37.96134 57.14409 47.55272
# Shear Modulus (GPa) = 19.81694 26.77532 23.29613
#
# Velocity S-wave (km/s) = 3.13528 3.64439 3.39938
# Velocity P-wave (km/s) = 5.65128 6.78635 6.24465
#
# Compressibility (1/GPa) = 0.02634259
#
# Stress axis : x y z
#
# Youngs Moduli (GPa) = 70.52584 42.94862 31.85443
#
# Poissons Ratio (x) = 0.34994 0.32248
# Poissons Ratio (y) = 0.57464 0.09509
# Poissons Ratio (z) = 0.71396 0.12821
#
# Static dielectric constant tensor:
#      x y z
#    x 1.721930 0.000000 -0.018600 
#    y 0.000000 1.711930 0.000000 
#    z -0.018600 0.000000 1.713300 
# 
# From -- ./inp_files/37665.got.cif
#   From: 2010.05.17/outbox.cif.g08.bks.cpg/sg13_19_cif.got.tgz:37665.got - 2010.06.03 16:44:36.
