data_PCOD9231821
_publ_section_title
;
Structure prediction by ZEFSAII (Michael W. Deem and Ramdas Pophale) SiO2 
 PCOD9231821
Probable space group: P 2/C
;
_chemical_formula_sum "Si O2"
_cell_formula_units_Z 32
_cell_length_a 10.677317
_cell_length_b 15.927236
_cell_length_c 14.161983
_cell_angle_alpha 90.000000
_cell_angle_beta 149.885637
_cell_angle_gamma 90.000000
_cell_volume 1208.355191
_symmetry_space_group_name_H-M "P 2/C"
_symmetry_group_IT_number 13
_symmetry_cell_setting 'monoclinic'
loop_
_space_group_symop_operation_xyz
x,y,z
-x,y,1/2-z
-x,-y,-z
x,-y,1/2+z
loop_
_atom_site_type_symbol
_atom_site_label
_atom_site_fract_x
_atom_site_fract_y
_atom_site_fract_z
Si Si1 0.230956 0.139822 0.590834
Si Si2 0.583097 0.777402 0.462676
Si Si3 0.885766 0.114687 0.531147
Si Si4 0.743747 0.597482 0.525252
Si Si5 0.006118 0.402000 0.021212
Si Si6 0.761328 0.307159 0.479081
Si Si7 0.605898 0.084716 0.525518
Si Si8 0.531906 0.566905 0.937611
O O1 0.500000 0.089804 0.750000
O O2 0.202921 0.182909 0.469261
O O3 0.337905 0.204809 0.738620
O O4 0.984482 0.103875 0.485189
O O5 0.618407 0.677449 0.494501
O O6 0.546776 0.833417 0.533929
O O7 0.826878 0.211366 0.514654
O O8 0.658065 0.076788 0.446988
O O9 0.129855 0.090992 0.749006
O O10 0.625388 0.506001 0.427584
O O11 0.000000 0.579644 0.750000
O O12 0.800786 0.630123 0.457851
O O13 0.024526 0.356289 0.935708
O O14 0.266417 0.393365 0.244721
O O15 0.000000 0.500000 0.000000
O O16 0.500000 0.317790 0.250000
O O17 0.715935 0.354956 0.547259
O O18 0.500000 0.000000 0.500000
O O19 0.500000 0.500000 0.000000
#
# Coordination Sequence:
#
# PCOD9231821 Si02
#       8
#     4   4   4   4   4   4   4   4
#     4   7  16  37  62  95 123 160 224 265 314 401
#     4   8  19  36  62  90 128 165 209 280 317 394
#     4  10  20  41  73  94 127 181 211 267 355 404
#     4  12  23  38  57  89 128 181 228 265 337 396
#     4  11  23  40  61  91 130 181 232 285 334 378
#     4  10  23  41  65  96 133 174 236 282 325 407
#     4  10  22  42  68 104 133 159 219 279 345 426
#     4  11  24  41  57  88 139 176 224 293 321 381
#
# _framework density 26.482278999999998
#
# number of rings (size 3 to 8) (size 9 to 14) (size 15 to 20)
#    0.750    1.250    2.500    0.750    1.750    4.000 
#    6.750    0.625    5.500    0.000    0.000    0.000 
#    0.000    0.000    0.000    0.000    0.000    0.000 
#
# Total GULP energy -178222.960684 kJ/mol
# GULP energy per Si atom -5569.467521 kJ/mol
# Density = 2.642200 g / cm^3
# Si number density = 26.482279 Si / 1000 Ang^3
#
#
#
# Elastic Constant Matrix: (Units=GPa)
#
#
# Indices 1 2 3 4 5 6 
#
# 1 197.8718 38.1575 34.8397 0.0000 32.1812 0.0000
# 2 38.1575 117.8898 1.5945 0.0000 20.0928 0.0000
# 3 34.8397 1.5945 48.1010 0.0000 -0.9825 0.0000
# 4 0.0000 0.0000 0.0000 37.5374 0.0000 18.7160
# 5 32.1812 20.0928 -0.9825 0.0000 38.0189 0.0000
# 6 0.0000 0.0000 0.0000 18.7160 0.0000 64.2588
#
#
#
# Elastic Compliance Matrix: (Units=1/GPa)
#
#
# Indices 1 2 3 4 5 6 
#
# 1 0.007113 -0.001300 -0.005221 0.000000 -0.005469 0.000000
# 2 -0.001300 0.009568 0.000544 0.000000 -0.003942 0.000000
# 3 -0.005221 0.000544 0.024650 0.000000 0.004769 0.000000
# 4 0.000000 0.000000 0.000000 0.031166 0.000000 -0.009077
# 5 -0.005469 -0.003942 0.004769 0.000000 0.033139 0.000000
# 6 0.000000 0.000000 0.000000 -0.009077 0.000000 0.018206
#
#
# Mechanical properties :
#
#
# Convention : Reuss Voigt Hill
#
# Bulk Modulus (GPa) = 34.03924 57.00510 45.52217
# Shear Modulus (GPa) = 34.34360 47.24774 40.79567
#
# Velocity S-wave (km/s) = 3.60509 4.22847 3.92916
# Velocity P-wave (km/s) = 5.49640 6.73888 6.14910
#
# Compressibility (1/GPa) = 0.02937786
#
# Stress axis : x y z
#
# Youngs Moduli (GPa) = 140.58687 104.51820 40.56746
#
# Poissons Ratio (x) = 0.13583 0.21179
# Poissons Ratio (y) = 0.18270 -0.02205
# Poissons Ratio (z) = 0.73395 -0.05682
#
# Static dielectric constant tensor:
#      x y z
#    x -25.275350 0.000000 -23.963020 
#    y 0.000000 2.221110 0.000000 
#    z -23.963020 0.000000 -19.287900 
# 
# From -- ./inp_files/66956.got.cif
#   From: 2010.05.17/outbox.cif.g08.bks.cpg/sg13_34_cif.got.tgz:66956.got - 2010.06.03 16:44:36.
