data_PCOD9231513
_publ_section_title
;
Structure prediction by ZEFSAII (Michael W. Deem and Ramdas Pophale) SiO2 
 PCOD9231513
Probable space group: P 2/C
;
_chemical_formula_sum "Si O2"
_cell_formula_units_Z 18
_cell_length_a 10.583855
_cell_length_b 10.678178
_cell_length_c 12.043558
_cell_angle_alpha 90.000000
_cell_angle_beta 39.836760
_cell_angle_gamma 90.000000
_cell_volume 871.935711
_symmetry_space_group_name_H-M "P 2/C"
_symmetry_group_IT_number 13
_symmetry_cell_setting 'monoclinic'
loop_
_space_group_symop_operation_xyz
x,y,z
-x,y,1/2-z
-x,-y,-z
x,-y,1/2+z
loop_
_atom_site_type_symbol
_atom_site_label
_atom_site_fract_x
_atom_site_fract_y
_atom_site_fract_z
Si Si1 0.000000 0.220754 0.750000
Si Si2 0.906946 0.622281 0.697159
Si Si3 0.224866 0.636229 0.293733
Si Si4 0.360721 0.931180 0.945740
Si Si5 0.582153 0.194837 0.504025
O O1 0.117365 0.303455 0.759441
O O2 0.148438 0.132164 0.581854
O O3 0.777591 0.512840 0.727025
O O4 0.000000 0.575432 0.750000
O O5 0.085303 0.656958 0.494352
O O6 0.767140 0.736638 0.824106
O O7 0.437101 0.702555 0.157115
O O8 0.500000 0.897408 0.750000
O O9 0.351109 0.081273 0.962552
O O10 0.457501 0.872736 0.990979
#
# Coordination Sequence:
#
# PCOD9231513 Si02
#       5
#     2   4   4   4   4
#     4  10  20  40  62  82 120 156 192 234 284 348
#     4  11  23  38  62  89 116 152 193 238 292 343
#     4  10  22  41  60  86 119 152 191 239 291 344
#     4  10  22  38  60  86 117 156 192 234 288 339
#     4  10  23  39  58  89 118 150 195 238 285 343
#
# _framework density 20.643723999999999
#
# number of rings (size 3 to 8) (size 9 to 14) (size 15 to 20)
#    0.000    1.778    1.111    2.000    4.667    0.000 
#    0.000    6.667    0.000    0.000    0.000    0.000 
#    0.000    0.000    0.000    0.000    0.000    0.000 
#
# Total GULP energy -100568.258158 kJ/mol
# GULP energy per Si atom -5587.125453 kJ/mol
# Density = 2.059674 g / cm^3
# Si number density = 20.643724 Si / 1000 Ang^3
#
#
#
# Elastic Constant Matrix: (Units=GPa)
#
#
# Indices 1 2 3 4 5 6 
#
# 1 11.7466 -9.7993 -14.8559 0.0000 6.9885 0.0000
# 2 -9.7993 64.2923 31.3499 0.0000 -4.2228 0.0000
# 3 -14.8559 31.3499 120.3771 0.0000 11.8437 0.0000
# 4 0.0000 0.0000 0.0000 68.1448 0.0000 5.8975
# 5 6.9885 -4.2228 11.8437 0.0000 22.8979 0.0000
# 6 0.0000 0.0000 0.0000 5.8975 0.0000 -13.0536
#
#
#
# Elastic Compliance Matrix: (Units=1/GPa)
#
#
# Indices 1 2 3 4 5 6 
#
# 1 0.155043 0.008924 0.022446 0.000000 -0.057284 0.000000
# 2 0.008924 0.019146 -0.004177 0.000000 0.002968 0.000000
# 3 0.022446 -0.004177 0.013607 0.000000 -0.014659 0.000000
# 4 0.000000 0.000000 0.000000 0.014122 0.000000 0.006380
# 5 -0.057284 0.002968 -0.014659 0.000000 0.069285 0.000000
# 6 0.000000 0.000000 0.000000 0.006380 0.000000 -0.073725
#
#
# Mechanical properties :
#
#
# Convention : Reuss Voigt Hill
#
# Bulk Modulus (GPa) = 4.12912 23.31172 13.72042
# Shear Modulus (GPa) = 22.33931 28.24590 25.29260
#
# Velocity S-wave (km/s) = 3.29315 3.70301 3.50408
# Velocity P-wave (km/s) = 4.05762 5.44058 4.79918
#
# Compressibility (1/GPa) = 0.24218256
#
# Stress axis : x y z
#
# Youngs Moduli (GPa) = 6.44981 52.23103 73.48925
#
# Poissons Ratio (x) = -0.46609 -1.64956
# Poissons Ratio (y) = -0.05756 0.30695
# Poissons Ratio (z) = -0.14477 0.21816
#
# Static dielectric constant tensor:
#      x y z
#    x 1.738310 0.000000 0.004230 
#    y 0.000000 1.736650 0.000000 
#    z 0.004230 0.000000 1.680720 
# 
# From -- ./inp_files/25712.got.cif
#   From: 2010.05.17/outbox.cif.g08.bks.cpg/sg13_13_cif.got.tgz:25712.got - 2010.06.03 16:44:36.
