data_PCOD9231621
_publ_section_title
;
Structure prediction by ZEFSAII (Michael W. Deem and Ramdas Pophale) SiO2 
 PCOD9231621
Probable space group: P 2/C
;
_chemical_formula_sum "Si O2"
_cell_formula_units_Z 26
_cell_length_a 15.648488
_cell_length_b 6.332271
_cell_length_c 13.685975
_cell_angle_alpha 90.000000
_cell_angle_beta 61.009412
_cell_angle_gamma 90.000000
_cell_volume 1186.223198
_symmetry_space_group_name_H-M "P 2/C"
_symmetry_group_IT_number 13
_symmetry_cell_setting 'monoclinic'
loop_
_space_group_symop_operation_xyz
x,y,z
-x,y,1/2-z
-x,-y,-z
x,-y,1/2+z
loop_
_atom_site_type_symbol
_atom_site_label
_atom_site_fract_x
_atom_site_fract_y
_atom_site_fract_z
Si Si1 0.535058 0.813131 0.553676
Si Si2 0.392656 0.414899 0.663767
Si Si3 0.111221 0.087039 0.441067
Si Si4 0.866641 0.439094 0.909903
Si Si5 0.914718 0.451639 0.178113
Si Si6 0.788112 0.670974 0.111537
Si Si7 0.500000 0.084162 0.750000
O O1 0.452617 0.634201 0.622657
O O2 0.611452 0.685438 0.442984
O O3 0.500000 0.000000 0.500000
O O4 0.559399 0.929274 0.642705
O O5 0.290325 0.434784 0.775029
O O6 0.444201 0.242942 0.707433
O O7 0.123821 0.227018 0.532277
O O8 0.121492 0.224417 0.336658
O O9 0.198483 0.918628 0.394351
O O10 0.000000 0.000000 0.500000
O O11 0.860938 0.433288 0.797292
O O12 0.970883 0.556609 0.864633
O O13 0.782695 0.578407 0.006252
O O14 0.891887 0.593023 0.096963
#
# Coordination Sequence:
#
# PCOD9231621 Si02
#       7
#     4   4   4   4   4   4   2
#     4   9  20  41  66  87 123 170 201 249 325 391
#     4  10  22  41  63  97 127 159 214 268 320 386
#     4  11  19  38  63  81 123 171 215 257 320 369
#     4  10  21  38  57  86 124 168 215 261 312 368
#     4  10  21  38  57  85 125 168 216 261 311 371
#     4  11  22  40  59  94 127 165 207 273 306 370
#     4  10  20  40  66  92 122 168 204 252 328 390
#
# _framework density 21.918305
#
# number of rings (size 3 to 8) (size 9 to 14) (size 15 to 20)
#    0.000    1.846    3.077    1.385    0.000    6.154 
#   16.615    0.000    0.000    0.000    0.000    0.000 
#    0.000    0.000    0.000    0.000    0.000    0.000 
#
# Total GULP energy -144761.017187 kJ/mol
# GULP energy per Si atom -5567.731430 kJ/mol
# Density = 2.186842 g / cm^3
# Si number density = 21.918305 Si / 1000 Ang^3
#
#
#
# Elastic Constant Matrix: (Units=GPa)
#
#
# Indices 1 2 3 4 5 6 
#
# 1 20.4288 5.5430 18.2354 0.0000 4.4773 0.0000
# 2 5.5430 96.2440 31.0697 0.0000 -3.4354 0.0000
# 3 18.2354 31.0697 143.9566 0.0000 1.4095 0.0000
# 4 0.0000 0.0000 0.0000 36.8024 0.0000 2.2069
# 5 4.4773 -3.4354 1.4095 0.0000 33.5455 0.0000
# 6 0.0000 0.0000 0.0000 2.2069 0.0000 8.2179
#
#
#
# Elastic Compliance Matrix: (Units=1/GPa)
#
#
# Indices 1 2 3 4 5 6 
#
# 1 0.057081 -0.001337 -0.006869 0.000000 -0.007467 0.000000
# 2 -0.001337 0.011252 -0.002273 0.000000 0.001426 0.000000
# 3 -0.006869 -0.002273 0.008304 0.000000 0.000335 0.000000
# 4 0.000000 0.000000 0.000000 0.027617 0.000000 -0.007417
# 5 -0.007467 0.001426 0.000335 0.000000 0.030939 0.000000
# 6 0.000000 0.000000 0.000000 -0.007417 0.000000 0.123678
#
#
# Mechanical properties :
#
#
# Convention : Reuss Voigt Hill
#
# Bulk Modulus (GPa) = 17.95991 41.14731 29.55361
# Shear Modulus (GPa) = 16.75670 29.43189 23.09429
#
# Velocity S-wave (km/s) = 2.76797 3.66840 3.24952
# Velocity P-wave (km/s) = 4.29271 6.06273 5.25281
#
# Compressibility (1/GPa) = 0.05567956
#
# Stress axis : x y z
#
# Youngs Moduli (GPa) = 17.51893 88.87339 120.42404
#
# Poissons Ratio (x) = 0.11878 0.82720
# Poissons Ratio (y) = 0.02341 0.27374
# Poissons Ratio (z) = 0.12034 0.20202
#
# Static dielectric constant tensor:
#      x y z
#    x 1.850400 0.000000 -0.037600 
#    y 0.000000 1.877720 0.000000 
#    z -0.037600 0.000000 1.823950 
# 
# From -- ./inp_files/54388.got.cif
#   From: 2010.05.17/outbox.cif.g08.bks.cpg/sg13_28_cif.got.tgz:54388.got - 2010.06.03 16:44:36.
