data_PCOD9231071
_publ_section_title
;
Structure prediction by ZEFSAII (Michael W. Deem and Ramdas Pophale) SiO2 
 PCOD9231071
Probable space group: P 2/C
;
_chemical_formula_sum "Si O2"
_cell_formula_units_Z 28
_cell_length_a 7.444261
_cell_length_b 9.309233
_cell_length_c 17.805311
_cell_angle_alpha 90.000000
_cell_angle_beta 97.169193
_cell_angle_gamma 90.000000
_cell_volume 1224.267657
_symmetry_space_group_name_H-M "P 2/C"
_symmetry_group_IT_number 13
_symmetry_cell_setting 'monoclinic'
loop_
_space_group_symop_operation_xyz
x,y,z
-x,y,1/2-z
-x,-y,-z
x,-y,1/2+z
loop_
_atom_site_type_symbol
_atom_site_label
_atom_site_fract_x
_atom_site_fract_y
_atom_site_fract_z
Si Si1 0.000000 0.431527 0.250000
Si Si2 0.349816 0.018051 0.182347
Si Si3 0.762800 0.303527 0.368244
Si Si4 0.677992 0.867979 0.483208
Si Si5 0.132157 0.323370 0.848286
Si Si6 0.728541 0.163966 0.511961
Si Si7 0.000000 0.934411 0.250000
Si Si8 0.158314 0.421353 0.555592
O O1 0.905569 0.342268 0.310994
O O2 0.851606 0.538794 0.203852
O O3 0.500000 0.967105 0.250000
O O4 0.348615 0.925289 0.104938
O O5 0.146574 0.013848 0.206437
O O6 0.381388 0.188314 0.168928
O O7 0.835623 0.216895 0.444822
O O8 0.710247 0.456032 0.403655
O O9 0.484644 0.851724 0.512619
O O10 0.759720 0.710006 0.485326
O O11 0.783907 0.998612 0.530028
O O12 0.259273 0.285000 0.923941
O O13 0.122703 0.176002 0.803391
O O14 0.938586 0.349531 0.877709
O O15 0.000000 0.500000 0.500000
#
# Coordination Sequence:
#
# PCOD9231071 Si02
#       8
#     2   4   4   4   4   4   2   4
#     4   9  21  38  62  94 138 164 216 274 322 422
#     4  11  23  42  65  95 133 176 227 281 337 397
#     4  10  22  41  62  94 135 168 219 275 329 406
#     4  10  23  41  63  95 134 166 226 287 325 404
#     4  10  20  38  63  96 124 167 220 269 332 392
#     4  10  21  41  67  94 127 172 226 282 337 386
#     4  11  21  38  70  92 130 178 222 274 330 406
#     4  11  21  40  64  94 130 169 211 273 335 402
#
# _framework density 22.870818
#
# number of rings (size 3 to 8) (size 9 to 14) (size 15 to 20)
#    0.000    1.714    2.857    1.286    0.000    2.286 
#    2.571    7.143    0.000    0.000    0.000    0.000 
#    0.000    0.000    0.000    0.000    0.000    0.000 
#
# Total GULP energy -155951.394321 kJ/mol
# GULP energy per Si atom -5569.692654 kJ/mol
# Density = 2.281876 g / cm^3
# Si number density = 22.870818 Si / 1000 Ang^3
#
#
#
# Elastic Constant Matrix: (Units=GPa)
#
#
# Indices 1 2 3 4 5 6 
#
# 1 59.5831 34.8304 30.8409 0.0000 -18.6551 0.0000
# 2 34.8304 148.7896 38.3102 0.0000 -10.6768 0.0000
# 3 30.8409 38.3102 106.9227 0.0000 -13.8979 0.0000
# 4 0.0000 0.0000 0.0000 30.6020 0.0000 -4.3323
# 5 -18.6551 -10.6768 -13.8979 0.0000 27.4618 0.0000
# 6 0.0000 0.0000 0.0000 -4.3323 0.0000 27.5670
#
#
#
# Elastic Compliance Matrix: (Units=1/GPa)
#
#
# Indices 1 2 3 4 5 6 
#
# 1 0.025526 -0.003916 -0.004178 0.000000 0.013703 0.000000
# 2 -0.003916 0.008075 -0.001821 0.000000 -0.000443 0.000000
# 3 -0.004178 -0.001821 0.011506 0.000000 0.002277 0.000000
# 4 0.000000 0.000000 0.000000 0.033421 0.000000 0.005252
# 5 0.013703 -0.000443 0.002277 0.000000 0.046703 0.000000
# 6 0.000000 0.000000 0.000000 0.005252 0.000000 0.037101
#
#
# Mechanical properties :
#
#
# Convention : Reuss Voigt Hill
#
# Bulk Modulus (GPa) = 39.56451 58.13982 48.85217
# Shear Modulus (GPa) = 26.23466 31.21375 28.72420
#
# Velocity S-wave (km/s) = 3.39053 3.69831 3.54776
# Velocity P-wave (km/s) = 5.71527 6.61156 6.17969
#
# Compressibility (1/GPa) = 0.02527518
#
# Stress axis : x y z
#
# Youngs Moduli (GPa) = 39.17639 123.84222 86.90983
#
# Poissons Ratio (x) = 0.48499 0.36314
# Poissons Ratio (y) = 0.15342 0.15827
# Poissons Ratio (z) = 0.16369 0.22553
#
# Static dielectric constant tensor:
#      x y z
#    x 1.843970 0.000000 0.038040 
#    y 0.000000 1.938230 0.000000 
#    z 0.038040 0.000000 2.028480 
# 
# From -- ./inp_files/63906.got.cif
#   From: 2010.05.17/outbox.cif.g08.bks.cpg/sg13_32_cif.got.tgz:63906.got - 2010.06.03 16:44:36.
