data_PCOD9231681
_publ_section_title
;
Structure prediction by ZEFSAII (Michael W. Deem and Ramdas Pophale) SiO2 
 PCOD9231681
Probable space group: P 2/C
;
_chemical_formula_sum "Si O2"
_cell_formula_units_Z 26
_cell_length_a 12.129910
_cell_length_b 12.575861
_cell_length_c 8.133388
_cell_angle_alpha 90.000000
_cell_angle_beta 118.598486
_cell_angle_gamma 90.000000
_cell_volume 1089.329210
_symmetry_space_group_name_H-M "P 2/C"
_symmetry_group_IT_number 13
_symmetry_cell_setting 'monoclinic'
loop_
_space_group_symop_operation_xyz
x,y,z
-x,y,1/2-z
-x,-y,-z
x,-y,1/2+z
loop_
_atom_site_type_symbol
_atom_site_label
_atom_site_fract_x
_atom_site_fract_y
_atom_site_fract_z
Si Si1 0.439764 0.250499 0.529134
Si Si2 0.184245 0.995079 0.969157
Si Si3 0.324628 0.656951 0.500200
Si Si4 0.640533 0.459708 0.134327
Si Si5 0.639101 0.029966 0.150322
Si Si6 0.089813 0.780624 0.464857
Si Si7 0.000000 0.808021 0.750000
O O1 0.500000 0.227121 0.750000
O O2 0.557976 0.279350 0.494143
O O3 0.351306 0.354880 0.473606
O O4 0.361488 0.154792 0.394087
O O5 0.329052 0.001549 0.138862
O O6 0.228869 0.022673 0.815003
O O7 0.109532 0.885764 0.899877
O O8 0.101734 0.091349 0.975652
O O9 0.279174 0.565560 0.340057
O O10 0.355026 0.584318 0.679652
O O11 0.222535 0.736537 0.497577
O O12 0.500000 0.500000 0.000000
O O13 0.500000 0.000000 0.000000
O O14 0.000000 0.750120 0.250000
O O15 0.049885 0.748051 0.621627
#
# Coordination Sequence:
#
# PCOD9231681 Si02
#       7
#     4   4   4   4   4   4   2
#     4  11  22  40  67 104 148 194 242 284 368 463
#     4  12  23  45  69  99 147 191 251 298 351 457
#     4  11  24  45  71 106 141 189 238 307 371 444
#     4  10  20  40  70 101 137 184 233 280 363 459
#     4  12  25  39  64 108 153 191 229 305 385 438
#     4  12  26  48  77 104 144 190 259 321 366 432
#     4  12  26  50  76 110 132 214 268 300 366 438
#
# _framework density 23.867901
#
# number of rings (size 3 to 8) (size 9 to 14) (size 15 to 20)
#    0.000    0.615    2.308    8.308    0.000    2.462 
#    2.769    0.769    0.000    0.000    0.000    0.000 
#    0.000    0.000    0.000    0.000    0.000    0.000 
#
# Total GULP energy -145011.211363 kJ/mol
# GULP energy per Si atom -5577.354283 kJ/mol
# Density = 2.381358 g / cm^3
# Si number density = 23.867901 Si / 1000 Ang^3
#
#
#
# Elastic Constant Matrix: (Units=GPa)
#
#
# Indices 1 2 3 4 5 6 
#
# 1 119.2337 17.5473 25.1043 0.0000 -19.1730 0.0000
# 2 17.5473 81.1783 21.4126 0.0000 -2.1262 0.0000
# 3 25.1043 21.4126 96.9214 0.0000 3.4713 0.0000
# 4 0.0000 0.0000 0.0000 14.1885 0.0000 -7.0063
# 5 -19.1730 -2.1262 3.4713 0.0000 27.6542 0.0000
# 6 0.0000 0.0000 0.0000 -7.0063 0.0000 27.7448
#
#
#
# Elastic Compliance Matrix: (Units=1/GPa)
#
#
# Indices 1 2 3 4 5 6 
#
# 1 0.010329 -0.001342 -0.002644 0.000000 0.007390 0.000000
# 2 -0.001342 0.013307 -0.002607 0.000000 0.000420 0.000000
# 3 -0.002644 -0.002607 0.011704 0.000000 -0.003503 0.000000
# 4 0.000000 0.000000 0.000000 0.080520 0.000000 0.020334
# 5 0.007390 0.000420 -0.003503 0.000000 0.041756 0.000000
# 6 0.000000 0.000000 0.000000 0.020334 0.000000 0.041178
#
#
# Mechanical properties :
#
#
# Convention : Reuss Voigt Hill
#
# Bulk Modulus (GPa) = 45.13735 47.27355 46.20545
# Shear Modulus (GPa) = 22.79295 29.46878 26.13087
#
# Velocity S-wave (km/s) = 3.09360 3.51759 3.31238
# Velocity P-wave (km/s) = 5.63142 6.02887 5.83353
#
# Compressibility (1/GPa) = 0.02215460
#
# Stress axis : x y z
#
# Youngs Moduli (GPa) = 96.81162 75.14619 85.44159
#
# Poissons Ratio (x) = 0.10084 0.22588
# Poissons Ratio (y) = 0.12991 0.22278
# Poissons Ratio (z) = 0.25594 0.19594
#
# Static dielectric constant tensor:
#      x y z
#    x 1.942890 0.000000 -0.037240 
#    y 0.000000 2.003570 0.000000 
#    z -0.037240 0.000000 2.008980 
# 
# From -- ./inp_files/16607.got.cif
#   From: 2010.05.17/outbox.cif.g08.bks.cpg/sg13_9_cif.got.tgz:16607.got - 2010.06.03 16:44:36.
