data_PCOD9231312
_publ_section_title
;
Structure prediction by ZEFSAII (Michael W. Deem and Ramdas Pophale) SiO2 
 PCOD9231312
Probable space group: P 2/C
;
_chemical_formula_sum "Si O2"
_cell_formula_units_Z 28
_cell_length_a 9.316147
_cell_length_b 8.521267
_cell_length_c 15.138600
_cell_angle_alpha 90.000000
_cell_angle_beta 111.205820
_cell_angle_gamma 90.000000
_cell_volume 1120.407166
_symmetry_space_group_name_H-M "P 2/C"
_symmetry_group_IT_number 13
_symmetry_cell_setting 'monoclinic'
loop_
_space_group_symop_operation_xyz
x,y,z
-x,y,1/2-z
-x,-y,-z
x,-y,1/2+z
loop_
_atom_site_type_symbol
_atom_site_label
_atom_site_fract_x
_atom_site_fract_y
_atom_site_fract_z
Si Si1 0.634117 0.806541 0.020614
Si Si2 0.207004 0.460625 0.032649
Si Si3 0.925769 0.235324 0.990548
Si Si4 0.968722 0.029529 0.636816
Si Si5 0.634059 0.165305 0.709013
Si Si6 0.400986 0.172804 0.316628
Si Si7 0.673850 0.494353 0.251938
O O1 0.797727 0.898289 0.072651
O O2 0.556232 0.807213 0.097189
O O3 0.670945 0.630851 0.998123
O O4 0.520792 0.866555 0.920470
O O5 0.234746 0.438687 0.142387
O O6 0.052247 0.360394 0.983944
O O7 0.209504 0.645238 0.017136
O O8 0.967477 0.140745 0.088680
O O9 0.912277 0.120992 0.903184
O O10 0.000000 0.042401 0.750000
O O11 0.500000 0.158291 0.750000
O O12 0.728156 0.329849 0.738060
O O13 0.697466 0.985270 0.720441
O O14 0.500000 0.193793 0.250000
O O15 0.323249 0.343751 0.312481
O O16 0.500000 0.517439 0.250000
#
# Coordination Sequence:
#
# PCOD9231312 Si02
#       7
#     4   4   4   4   4   4   4
#     4  11  22  42  66  96 132 177 221 283 333 413
#     4  10  20  42  67  92 134 179 222 278 348 396
#     4   9  22  43  67  96 135 174 222 291 335 400
#     4  10  23  43  67 102 132 170 231 277 343 409
#     4  10  24  40  61  95 132 181 222 275 335 398
#     4  10  20  41  63  93 135 172 225 273 335 402
#     4  10  20  39  62  94 130 173 220 272 339 404
#
# _framework density 24.990915000000001
#
# number of rings (size 3 to 8) (size 9 to 14) (size 15 to 20)
#    0.000    2.000    2.857    0.429    2.000    5.143 
#    7.714    1.429    0.000    0.000    0.000    0.000 
#    0.000    0.000    0.000    0.000    0.000    0.000 
#
# Total GULP energy -156044.819489 kJ/mol
# GULP energy per Si atom -5573.029267 kJ/mol
# Density = 2.493403 g / cm^3
# Si number density = 24.990915 Si / 1000 Ang^3
#
#
#
# Elastic Constant Matrix: (Units=GPa)
#
#
# Indices 1 2 3 4 5 6 
#
# 1 40.0671 34.5586 17.7892 0.0000 -2.7674 0.0000
# 2 34.5586 214.5396 35.3415 0.0000 -3.2815 0.0000
# 3 17.7892 35.3415 141.1388 0.0000 -23.1922 0.0000
# 4 0.0000 0.0000 0.0000-1163.6634 0.0000 1376.6818
# 5 -2.7674 -3.2815 -23.1922 0.0000 31.4338 0.0000
# 6 0.0000 0.0000 0.0000 1376.6818 0.0000-1536.4223
#
#
#
# Elastic Compliance Matrix: (Units=1/GPa)
#
#
# Indices 1 2 3 4 5 6 
#
# 1 0.029925 -0.004383 -0.002636 0.000000 0.000232 0.000000
# 2 -0.004383 0.005509 -0.000906 0.000000 -0.000479 0.000000
# 3 -0.002636 -0.000906 0.008638 0.000000 0.006046 0.000000
# 4 0.000000 0.000000 0.000000 0.014309 0.000000 0.012821
# 5 0.000232 -0.000479 0.006046 0.000000 0.036244 0.000000
# 6 0.000000 0.000000 0.000000 0.012821 0.000000 0.010837
#
#
# Mechanical properties :
#
#
# Convention : Reuss Voigt Hill
#
# Bulk Modulus (GPa) = 35.43281 63.45824 49.44552
# Shear Modulus (GPa) = 38.25001 -513.19331 -237.47165
#
# Velocity S-wave (km/s) = 3.91648 -14.34565 -9.75856
# Velocity P-wave (km/s) = 5.88734 15.77813 10.35105
#
# Compressibility (1/GPa) = 0.02822243
#
# Stress axis : x y z
#
# Youngs Moduli (GPa) = 33.41729 181.52169 115.76923
#
# Poissons Ratio (x) = 0.79552 0.30519
# Poissons Ratio (y) = 0.14645 0.10486
# Poissons Ratio (z) = 0.08809 0.16442
#
# Static dielectric constant tensor:
#      x y z
#    x 2.032810 0.000000 0.023880 
#    y 0.000000 2.091290 0.000000 
#    z 0.023880 0.000000 1.974070 
# 
# From -- ./inp_files/50467.got.cif
#   From: 2010.05.17/outbox.cif.g08.bks.cpg/sg13_26_cif.got.tgz:50467.got - 2010.06.03 16:44:36.
