data_PCOD9231527
_publ_section_title
;
Structure prediction by ZEFSAII (Michael W. Deem and Ramdas Pophale) SiO2 
 PCOD9231527
Probable space group: P 2/C
;
_chemical_formula_sum "Si O2"
_cell_formula_units_Z 18
_cell_length_a 6.488595
_cell_length_b 14.601551
_cell_length_c 12.855773
_cell_angle_alpha 90.000000
_cell_angle_beta 135.592234
_cell_angle_gamma 90.000000
_cell_volume 852.309001
_symmetry_space_group_name_H-M "P 2/C"
_symmetry_group_IT_number 13
_symmetry_cell_setting 'monoclinic'
loop_
_space_group_symop_operation_xyz
x,y,z
-x,y,1/2-z
-x,-y,-z
x,-y,1/2+z
loop_
_atom_site_type_symbol
_atom_site_label
_atom_site_fract_x
_atom_site_fract_y
_atom_site_fract_z
Si Si1 0.217995 0.706896 0.579892
Si Si2 0.593432 0.117105 0.483215
Si Si3 0.575670 0.749169 0.398735
Si Si4 0.273779 0.419025 0.907641
Si Si5 0.000000 0.014647 0.250000
O O1 0.500000 0.684248 0.750000
O O2 0.290697 0.800987 0.545730
O O3 0.180938 0.626657 0.482608
O O4 0.918263 0.723898 0.533355
O O5 0.501570 0.162243 0.560745
O O6 0.293165 0.073404 0.327826
O O7 0.858683 0.047448 0.606787
O O8 0.500000 0.761432 0.250000
O O9 0.393795 0.664884 0.381051
O O10 0.000000 0.460489 0.750000
O O11 0.500000 0.500000 0.000000
#
# Coordination Sequence:
#
# PCOD9231527 Si02
#       5
#     4   4   4   4   2
#     4  11  24  42  66  95 127 170 213 256 313 377
#     4  10  22  40  63  89 131 163 214 257 319 363
#     4  11  22  42  67  90 127 172 211 254 316 377
#     4  11  26  44  66  96 129 164 209 259 313 374
#     4  10  20  40  62  90 126 170 202 272 310 366
#
# _framework density 21.119098999999999
#
# number of rings (size 3 to 8) (size 9 to 14) (size 15 to 20)
#    0.000    1.333    2.222    2.667    6.222    3.556 
#    0.000   22.222    0.000    0.000    0.000    0.000 
#    0.000    0.000    0.000    0.000    0.000    0.000 
#
# Total GULP energy -100629.462784 kJ/mol
# GULP energy per Si atom -5590.525710 kJ/mol
# Density = 2.107103 g / cm^3
# Si number density = 21.119099 Si / 1000 Ang^3
#
#
#
# Elastic Constant Matrix: (Units=GPa)
#
#
# Indices 1 2 3 4 5 6 
#
# 1 41.6888 -7.5806 4.4931 0.0000 1.6932 0.0000
# 2 -7.5806 72.8231 24.3163 0.0000 4.0436 0.0000
# 3 4.4931 24.3163 147.1538 0.0000 23.2090 0.0000
# 4 0.0000 0.0000 0.0000 14.3578 0.0000 32.1835
# 5 1.6932 4.0436 23.2090 0.0000 30.9490 0.0000
# 6 0.0000 0.0000 0.0000 32.1835 0.0000 -15.0266
#
#
#
# Elastic Compliance Matrix: (Units=1/GPa)
#
#
# Indices 1 2 3 4 5 6 
#
# 1 0.024687 0.002989 -0.001104 0.000000 -0.000914 0.000000
# 2 0.002989 0.014896 -0.002518 0.000000 -0.000222 0.000000
# 3 -0.001104 -0.002518 0.008148 0.000000 -0.005721 0.000000
# 4 0.000000 0.000000 0.000000 0.012007 0.000000 0.025715
# 5 -0.000914 -0.000222 -0.005721 0.000000 0.036680 0.000000
# 6 0.000000 0.000000 0.000000 0.025715 0.000000 -0.011472
#
#
# Mechanical properties :
#
#
# Convention : Reuss Voigt Hill
#
# Bulk Modulus (GPa) = 21.52123 33.79147 27.65635
# Shear Modulus (GPa) = 49.16506 22.08519 35.62513
#
# Velocity S-wave (km/s) = 4.83016 3.23731 4.11161
# Velocity P-wave (km/s) = 6.42805 5.47802 5.97196
#
# Compressibility (1/GPa) = 0.04646575
#
# Stress axis : x y z
#
# Youngs Moduli (GPa) = 40.50749 67.13177 122.73535
#
# Poissons Ratio (x) = -0.20066 0.13545
# Poissons Ratio (y) = -0.12108 0.30902
# Poissons Ratio (z) = 0.04470 0.16902
#
# Static dielectric constant tensor:
#      x y z
#    x 1.740200 0.000000 -0.006530 
#    y 0.000000 1.744700 0.000000 
#    z -0.006530 0.000000 1.763120 
# 
# From -- ./inp_files/44160.got.cif
#   From: 2010.05.17/outbox.cif.g08.bks.cpg/sg13_23_cif.got.tgz:44160.got - 2010.06.03 16:44:36.
