data_PCOD9231539
_publ_section_title
;
Structure prediction by ZEFSAII (Michael W. Deem and Ramdas Pophale) SiO2 
 PCOD9231539
Probable space group: P 2/C
;
_chemical_formula_sum "Si O2"
_cell_formula_units_Z 14
_cell_length_a 4.905650
_cell_length_b 8.968155
_cell_length_c 14.080293
_cell_angle_alpha 90.000000
_cell_angle_beta 54.579010
_cell_angle_gamma 90.000000
_cell_volume 504.805350
_symmetry_space_group_name_H-M "P 2/C"
_symmetry_group_IT_number 13
_symmetry_cell_setting 'monoclinic'
loop_
_space_group_symop_operation_xyz
x,y,z
-x,y,1/2-z
-x,-y,-z
x,-y,1/2+z
loop_
_atom_site_type_symbol
_atom_site_label
_atom_site_fract_x
_atom_site_fract_y
_atom_site_fract_z
Si Si1 0.500000 0.100384 0.250000
Si Si2 0.303674 0.114906 0.929301
Si Si3 0.124117 0.611724 0.330544
Si Si4 0.093502 0.696721 0.619563
O O1 0.231878 0.212835 0.347684
O O2 0.415537 0.983618 0.181773
O O3 0.178990 0.247817 0.886278
O O4 0.378940 0.201406 0.012925
O O5 0.000000 0.000000 0.000000
O O6 0.500000 0.544457 0.250000
O O7 0.894902 0.475194 0.412377
O O8 0.000000 0.652705 0.250000
O O9 0.000000 0.695738 0.750000
#
# Coordination Sequence:
#
# PCOD9231539 Si02
#       4
#     2   4   4   4
#     4  10  20  40  62  94 134 174 226 272 338 390
#     4  10  22  41  65  98 135 174 221 278 335 399
#     4  11  23  46  71  98 136 175 226 278 331 401
#     4  10  22  41  64  95 133 176 227 273 331 398
#
# _framework density 27.733461999999999
#
# number of rings (size 3 to 8) (size 9 to 14) (size 15 to 20)
#    0.000    1.714    2.857    0.857    0.000    5.714 
#   10.286    4.286    0.000    0.000    0.000    0.000 
#    0.000    0.000    0.000    0.000    0.000    0.000 
#
# Total GULP energy -78141.433282 kJ/mol
# GULP energy per Si atom -5581.530949 kJ/mol
# Density = 2.767034 g / cm^3
# Si number density = 27.733462 Si / 1000 Ang^3
#
#
#
# Elastic Constant Matrix: (Units=GPa)
#
#
# Indices 1 2 3 4 5 6 
#
# 1 84.3040 15.6205 20.5049 0.0000 14.1899 0.0000
# 2 15.6205 207.4094 57.3203 0.0000 18.6036 0.0000
# 3 20.5049 57.3203 88.2499 0.0000 25.4681 0.0000
# 4 0.0000 0.0000 0.0000 40.4342 0.0000 17.9788
# 5 14.1899 18.6036 25.4681 0.0000 53.6487 0.0000
# 6 0.0000 0.0000 0.0000 17.9788 0.0000 9.9368
#
#
#
# Elastic Compliance Matrix: (Units=1/GPa)
#
#
# Indices 1 2 3 4 5 6 
#
# 1 0.012814 -0.000146 -0.002224 0.000000 -0.002283 0.000000
# 2 -0.000146 0.005881 -0.003718 0.000000 -0.000236 0.000000
# 3 -0.002224 -0.003718 0.015899 0.000000 -0.005670 0.000000
# 4 0.000000 0.000000 0.000000 0.126504 0.000000 -0.228887
# 5 -0.002283 -0.000236 -0.005670 0.000000 0.022017 0.000000
# 6 0.000000 0.000000 0.000000 -0.228887 0.000000 0.514764
#
#
# Mechanical properties :
#
#
# Convention : Reuss Voigt Hill
#
# Bulk Modulus (GPa) = 44.60397 62.98384 53.79390
# Shear Modulus (GPa) = 6.96836 39.90512 23.43674
#
# Velocity S-wave (km/s) = 1.58684 3.79737 2.91016
# Velocity P-wave (km/s) = 4.41310 6.47969 5.54355
#
# Compressibility (1/GPa) = 0.02241953
#
# Stress axis : x y z
#
# Youngs Moduli (GPa) = 78.03961 170.03891 62.89517
#
# Poissons Ratio (x) = 0.02477 0.13987
# Poissons Ratio (y) = 0.01137 0.23384
# Poissons Ratio (z) = 0.17355 0.63219
#
# Static dielectric constant tensor:
#      x y z
#    x 2.191920 0.000000 0.032720 
#    y 0.000000 2.100780 0.000000 
#    z 0.032720 0.000000 2.444200 
# 
# From -- ./inp_files/25256.got.cif
#   From: 2010.05.17/outbox.cif.g08.bks.cpg/sg13_13_cif.got.tgz:25256.got - 2010.06.03 16:44:36.
