data_PCOD9231848
_publ_section_title
;
Structure prediction by ZEFSAII (Michael W. Deem and Ramdas Pophale) SiO2 
 PCOD9231848
Probable space group: P 2/C
;
_chemical_formula_sum "Si O2"
_cell_formula_units_Z 20
_cell_length_a 7.327405
_cell_length_b 7.252458
_cell_length_c 18.689376
_cell_angle_alpha 90.000000
_cell_angle_beta 49.981510
_cell_angle_gamma 90.000000
_cell_volume 760.617909
_symmetry_space_group_name_H-M "P 2/C"
_symmetry_group_IT_number 13
_symmetry_cell_setting 'monoclinic'
loop_
_space_group_symop_operation_xyz
x,y,z
-x,y,1/2-z
-x,-y,-z
x,-y,1/2+z
loop_
_atom_site_type_symbol
_atom_site_label
_atom_site_fract_x
_atom_site_fract_y
_atom_site_fract_z
Si Si1 0.367827 0.470126 0.668065
Si Si2 0.277494 0.231577 0.984235
Si Si3 0.167827 0.584001 0.860603
Si Si4 0.754964 0.861881 0.852407
Si Si5 0.343031 0.988366 0.850011
O O1 0.451542 0.301073 0.598072
O O2 0.275550 0.640574 0.645636
O O3 0.619886 0.516336 0.642874
O O4 0.901831 0.401889 0.456017
O O5 0.187731 0.131709 0.934060
O O6 0.256272 0.104091 0.060119
O O7 0.192357 0.470537 0.780662
O O8 0.234837 0.806137 0.839694
O O9 0.000000 0.916226 0.750000
O O10 0.529461 0.927942 0.864086
O O11 0.500000 0.087608 0.750000
#
# Coordination Sequence:
#
# PCOD9231848 Si02
#       5
#     4   4   4   4   4
#     4  10  21  39  62  90 127 158 201 249 302 374
#     4  12  23  36  68  97 116 162 213 250 302 367
#     4  10  20  42  63  87 126 165 195 249 317 357
#     4  11  21  42  64  86 128 167 195 248 322 359
#     4  11  22  41  63  90 126 159 208 257 300 367
#
# _framework density 26.294409000000002
#
# number of rings (size 3 to 8) (size 9 to 14) (size 15 to 20)
#    0.000    1.200    6.000    2.400    2.800    0.000 
#    0.000    1.000    0.000    0.000    0.000    0.000 
#    0.000    0.000    0.000    0.000    0.000    0.000 
#
# Total GULP energy -111670.260640 kJ/mol
# GULP energy per Si atom -5583.513032 kJ/mol
# Density = 2.623456 g / cm^3
# Si number density = 26.294409 Si / 1000 Ang^3
#
#
#
# Elastic Constant Matrix: (Units=GPa)
#
#
# Indices 1 2 3 4 5 6 
#
# 1 46.3068 -17.9404 5.8755 0.0000 2.8445 0.0000
# 2 -17.9404 43.8308 28.0935 0.0000 -9.4528 0.0000
# 3 5.8755 28.0935 208.7859 0.0000 10.9606 0.0000
# 4 0.0000 0.0000 0.0000 33.3782 0.0000 -0.5780
# 5 2.8445 -9.4528 10.9606 0.0000 43.8204 0.0000
# 6 0.0000 0.0000 0.0000 -0.5780 0.0000 27.9459
#
#
#
# Elastic Compliance Matrix: (Units=1/GPa)
#
#
# Indices 1 2 3 4 5 6 
#
# 1 0.026870 0.013035 -0.002600 0.000000 0.001718 0.000000
# 2 0.013035 0.033141 -0.005226 0.000000 0.007610 0.000000
# 3 -0.002600 -0.005226 0.005691 0.000000 -0.002382 0.000000
# 4 0.000000 0.000000 0.000000 0.029970 0.000000 0.000620
# 5 0.001718 0.007610 -0.002382 0.000000 0.024946 0.000000
# 6 0.000000 0.000000 0.000000 0.000620 0.000000 0.035796
#
#
# Mechanical properties :
#
#
# Convention : Reuss Voigt Hill
#
# Bulk Modulus (GPa) = 13.13712 36.77565 24.95639
# Shear Modulus (GPa) = 29.17671 39.88857 34.53264
#
# Velocity S-wave (km/s) = 3.33470 3.89909 3.62789
# Velocity P-wave (km/s) = 4.45354 5.85551 5.20197
#
# Compressibility (1/GPa) = 0.07612020
#
# Stress axis : x y z
#
# Youngs Moduli (GPa) = 37.21671 30.17401 175.71703
#
# Poissons Ratio (x) = -0.39333 0.45692
# Poissons Ratio (y) = -0.48513 0.91824
# Poissons Ratio (z) = 0.09678 0.15768
#
# Static dielectric constant tensor:
#      x y z
#    x 2.077040 0.000000 -0.022380 
#    y 0.000000 2.156400 0.000000 
#    z -0.022380 0.000000 2.204300 
# 
# From -- ./inp_files/63663.got.cif
#   From: 2010.05.17/outbox.cif.g08.bks.cpg/sg13_32_cif.got.tgz:63663.got - 2010.06.03 16:44:36.
