data_PCOD9231197
_publ_section_title
;
Structure prediction by ZEFSAII (Michael W. Deem and Ramdas Pophale) SiO2 
 PCOD9231197
Probable space group: P 2/C
;
_chemical_formula_sum "Si O2"
_cell_formula_units_Z 30
_cell_length_a 12.488523
_cell_length_b 14.031432
_cell_length_c 16.651226
_cell_angle_alpha 90.000000
_cell_angle_beta 147.641572
_cell_angle_gamma 90.000000
_cell_volume 1561.661069
_symmetry_space_group_name_H-M "P 2/C"
_symmetry_group_IT_number 13
_symmetry_cell_setting 'monoclinic'
loop_
_space_group_symop_operation_xyz
x,y,z
-x,y,1/2-z
-x,-y,-z
x,-y,1/2+z
loop_
_atom_site_type_symbol
_atom_site_label
_atom_site_fract_x
_atom_site_fract_y
_atom_site_fract_z
Si Si1 0.358959 0.720445 0.736217
Si Si2 0.449414 0.398895 0.006131
Si Si3 0.449025 0.217358 0.898292
Si Si4 0.984431 0.786830 0.402654
Si Si5 0.468131 0.909745 0.901720
Si Si6 0.955908 0.001562 0.818388
Si Si7 0.653546 0.083297 0.919783
Si Si8 0.000000 0.663212 0.250000
O O1 0.500000 0.701809 0.750000
O O2 0.408141 0.636629 0.830692
O O3 0.426323 0.820435 0.818115
O O4 0.137621 0.741835 0.562772
O O5 0.500000 0.500000 0.000000
O O6 0.484173 0.317724 0.961213
O O7 0.212905 0.391920 0.880246
O O8 0.246689 0.222747 0.719311
O O9 0.624855 0.175231 0.956856
O O10 0.419776 0.140209 0.952154
O O11 0.009409 0.728980 0.335074
O O12 0.005009 0.897861 0.392142
O O13 0.261597 0.957782 0.800674
O O14 0.588497 0.990258 0.930497
O O15 0.000000 0.006962 0.750000
O O16 0.118402 0.929786 0.958918
O O17 0.500000 0.087238 0.750000
#
# Coordination Sequence:
#
# PCOD9231197 Si02
#       8
#     4   4   4   4   4   4   4   2
#     4  11  22  39  65  96 127 158 211 269 313 371
#     4  10  23  45  70  92 118 159 207 269 331 387
#     4  10  22  40  59  83 125 165 210 259 320 375
#     4  11  20  34  62  92 122 165 209 261 309 357
#     4  11  22  39  55  87 132 174 216 263 301 374
#     4  12  22  34  59  89 128 183 225 249 305 380
#     4  12  24  35  53  85 127 170 212 258 312 371
#     4  10  20  38  68  92 116 160 204 252 316 392
#
# _framework density 19.210315000000001
#
# number of rings (size 3 to 8) (size 9 to 14) (size 15 to 20)
#    0.000    1.067    4.667    3.200    3.733    1.067 
#    0.000    6.000    0.000    0.000    0.000    0.000 
#    0.000    0.000    0.000    0.000    0.000    0.000 
#
# Total GULP energy -167553.389310 kJ/mol
# GULP energy per Si atom -5585.112977 kJ/mol
# Density = 1.916659 g / cm^3
# Si number density = 19.210315 Si / 1000 Ang^3
#
#
#
# Elastic Constant Matrix: (Units=GPa)
#
#
# Indices 1 2 3 4 5 6 
#
# 1 39.2778 43.9804 19.2468 0.0000 8.3157 0.0000
# 2 43.9804 123.8516 39.7141 0.0000 1.3292 0.0000
# 3 19.2468 39.7141 132.6803 0.0000 1.3025 0.0000
# 4 0.0000 0.0000 0.0000 18.7119 0.0000 -2.1960
# 5 8.3157 1.3292 1.3025 0.0000 28.7119 0.0000
# 6 0.0000 0.0000 0.0000 -2.1960 0.0000 27.9028
#
#
#
# Elastic Compliance Matrix: (Units=1/GPa)
#
#
# Indices 1 2 3 4 5 6 
#
# 1 0.046914 -0.015907 -0.001919 0.000000 -0.012764 0.000000
# 2 -0.015907 0.014328 -0.002021 0.000000 0.004036 0.000000
# 3 -0.001919 -0.002021 0.008417 0.000000 0.000267 0.000000
# 4 0.000000 0.000000 0.000000 0.053940 0.000000 0.004245
# 5 -0.012764 0.004036 0.000267 0.000000 0.038327 0.000000
# 6 0.000000 0.000000 0.000000 0.004245 0.000000 0.036173
#
#
# Mechanical properties :
#
#
# Convention : Reuss Voigt Hill
#
# Bulk Modulus (GPa) = 33.37138 55.74357 44.55748
# Shear Modulus (GPa) = 20.17919 27.92321 24.05120
#
# Velocity S-wave (km/s) = 3.24456 3.81669 3.54219
# Velocity P-wave (km/s) = 5.60763 6.96443 6.32253
#
# Compressibility (1/GPa) = 0.02996580
#
# Stress axis : x y z
#
# Youngs Moduli (GPa) = 21.31568 69.79580 118.80091
#
# Poissons Ratio (x) = 1.11025 0.22795
# Poissons Ratio (y) = 0.33907 0.24005
# Poissons Ratio (z) = 0.04090 0.14103
#
# Static dielectric constant tensor:
#      x y z
#    x 1.692630 0.000000 -0.001590 
#    y 0.000000 1.632220 0.000000 
#    z -0.001590 0.000000 1.730410 
# 
# From -- ./inp_files/68586.got.cif
#   From: 2010.05.17/outbox.cif.g08.bks.cpg/sg13_35_cif.got.tgz:68586.got - 2010.06.03 16:44:36.
