data_PCOD9231570
_publ_section_title
;
Structure prediction by ZEFSAII (Michael W. Deem and Ramdas Pophale) SiO2 
 PCOD9231570
Probable space group: P 2/C
;
_chemical_formula_sum "Si O2"
_cell_formula_units_Z 24
_cell_length_a 16.974984
_cell_length_b 7.662629
_cell_length_c 24.137213
_cell_angle_alpha 90.000000
_cell_angle_beta 159.142490
_cell_angle_gamma 90.000000
_cell_volume 1117.839145
_symmetry_space_group_name_H-M "P 2/C"
_symmetry_group_IT_number 13
_symmetry_cell_setting 'monoclinic'
loop_
_space_group_symop_operation_xyz
x,y,z
-x,y,1/2-z
-x,-y,-z
x,-y,1/2+z
loop_
_atom_site_type_symbol
_atom_site_label
_atom_site_fract_x
_atom_site_fract_y
_atom_site_fract_z
Si Si1 0.475503 0.290395 0.495804
Si Si2 0.447409 0.184501 0.604493
Si Si3 0.018790 0.309592 0.148988
Si Si4 0.651288 0.123466 0.393249
Si Si5 0.949920 0.304832 0.782038
Si Si6 0.857893 0.857761 0.440495
O O1 0.500000 0.500000 0.500000
O O2 0.460621 0.245860 0.550610
O O3 0.708944 0.217401 0.628058
O O4 0.248700 0.222773 0.319658
O O5 0.208592 0.247829 0.470425
O O6 0.670916 0.244381 0.782853
O O7 0.461238 0.977787 0.629003
O O8 0.048237 0.507138 0.187645
O O9 0.996271 0.276037 0.068835
O O10 0.500000 0.233017 0.250000
O O11 0.862146 0.208065 0.559861
O O12 0.734024 0.975319 0.405042
O O13 0.000000 0.322750 0.750000
O O14 0.000000 0.000000 0.500000
#
# Coordination Sequence:
#
# PCOD9231570 Si02
#       6
#     4   4   4   4   4   4
#     4  10  21  38  60  89 122 160 206 257 309 371
#     4  10  20  40  64  88 121 162 204 254 309 370
#     4  10  21  39  62  88 121 162 205 253 308 371
#     4   9  21  38  58  87 121 156 199 249 306 367
#     4  11  23  40  60  90 125 161 207 261 315 374
#     4  10  21  39  61  88 121 159 202 248 302 369
#
# _framework density 21.469995000000001
#
# number of rings (size 3 to 8) (size 9 to 14) (size 15 to 20)
#    0.000    2.000    0.000    5.000    0.000    6.667 
#    0.000   12.500    0.000    0.000    0.000    0.000 
#    0.000    0.000    0.000    0.000    0.000    0.000 
#
# Total GULP energy -133649.223391 kJ/mol
# GULP energy per Si atom -5568.717641 kJ/mol
# Density = 2.142113 g / cm^3
# Si number density = 21.469995 Si / 1000 Ang^3
#
#
#
# Elastic Constant Matrix: (Units=GPa)
#
#
# Indices 1 2 3 4 5 6 
#
# 1 120.3793 28.7804 72.4770 0.0000 -7.8661 0.0000
# 2 28.7804 20.4504 41.8036 0.0000 3.4050 0.0000
# 3 72.4770 41.8036 230.9717 0.0000 -31.0945 0.0000
# 4 0.0000 0.0000 0.0000 38.2608 0.0000 -10.2822
# 5 -7.8661 3.4050 -31.0945 0.0000 28.5656 0.0000
# 6 0.0000 0.0000 0.0000 -10.2822 0.0000 34.0101
#
#
#
# Elastic Compliance Matrix: (Units=1/GPa)
#
#
# Indices 1 2 3 4 5 6 
#
# 1 0.013510 -0.021194 0.000513 0.000000 0.006805 0.000000
# 2 -0.021194 0.138096 -0.025010 0.000000 -0.049522 0.000000
# 3 0.000513 -0.025010 0.010681 0.000000 0.014749 0.000000
# 4 0.000000 0.000000 0.000000 0.028448 0.000000 0.008600
# 5 0.006805 -0.049522 0.014749 0.000000 0.058838 0.000000
# 6 0.000000 0.000000 0.000000 0.008600 0.000000 0.032003
#
#
# Mechanical properties :
#
#
# Convention : Reuss Voigt Hill
#
# Bulk Modulus (GPa) = 14.10369 73.10260 43.60314
# Shear Modulus (GPa) = 12.60734 35.41664 24.01199
#
# Velocity S-wave (km/s) = 2.42587 4.06592 3.34787
# Velocity P-wave (km/s) = 3.79865 7.49432 5.94115
#
# Compressibility (1/GPa) = 0.07090341
#
# Stress axis : x y z
#
# Youngs Moduli (GPa) = 74.01808 7.24135 93.62556
#
# Poissons Ratio (x) = 0.15347 -0.04799
# Poissons Ratio (y) = 1.56875 2.34160
# Poissons Ratio (z) = -0.03794 0.18111
#
# Static dielectric constant tensor:
#      x y z
#    x 1.814450 0.000000 0.085220 
#    y 0.000000 1.756740 0.000000 
#    z 0.085220 0.000000 2.000700 
# 
# From -- ./inp_files/88042.got.cif
#   From: 2010.05.17/outbox.cif.g08.bks.cpg/sg13_45_cif.got.tgz:88042.got - 2010.06.03 16:44:36.
