data_PCOD9231654
_publ_section_title
;
Structure prediction by ZEFSAII (Michael W. Deem and Ramdas Pophale) SiO2 
 PCOD9231654
Probable space group: P 2/C
;
_chemical_formula_sum "Si O2"
_cell_formula_units_Z 18
_cell_length_a 8.422585
_cell_length_b 17.765874
_cell_length_c 5.214036
_cell_angle_alpha 90.000000
_cell_angle_beta 82.810847
_cell_angle_gamma 90.000000
_cell_volume 774.066495
_symmetry_space_group_name_H-M "P 2/C"
_symmetry_group_IT_number 13
_symmetry_cell_setting 'monoclinic'
loop_
_space_group_symop_operation_xyz
x,y,z
-x,y,1/2-z
-x,-y,-z
x,-y,1/2+z
loop_
_atom_site_type_symbol
_atom_site_label
_atom_site_fract_x
_atom_site_fract_y
_atom_site_fract_z
Si Si1 0.160718 0.297994 0.394712
Si Si2 0.818716 0.467339 0.003823
Si Si3 0.810093 0.049020 0.513587
Si Si4 0.000000 0.825565 0.250000
Si Si5 0.500000 0.237216 0.250000
Si Si6 0.500000 0.864224 0.250000
O O1 0.172420 0.378377 0.531970
O O2 0.126008 0.229784 0.594176
O O3 0.333863 0.282375 0.231769
O O4 0.000000 0.301713 0.250000
O O5 0.739632 0.489125 0.287155
O O6 0.000000 0.500000 0.000000
O O7 0.637369 0.081920 0.613816
O O8 0.922978 0.119405 0.556705
O O9 0.830720 0.015612 0.226479
O O10 0.465360 0.187431 0.509572
#
# Coordination Sequence:
#
# PCOD9231654 Si02
#       6
#     4   4   4   2   2   2
#     4  12  26  45  78 104 146 197 235 298 363 420
#     4  10  20  40  68 103 140 183 236 281 344 429
#     4  12  26  45  70 101 137 185 241 298 361 429
#     4  12  26  44  70 100 144 184 242 300 360 426
#     4  12  28  47  72 113 144 182 250 300 348 439
#     4  12  24  51  70  97 150 184 238 304 364 427
#
# _framework density 23.253814999999999
#
# number of rings (size 3 to 8) (size 9 to 14) (size 15 to 20)
#    0.000    0.444    4.444    5.333    3.111    0.000 
#    0.000    1.111    0.000    0.000    0.000    0.000 
#    0.000    0.000    0.000    0.000    0.000    0.000 
#
# Total GULP energy -100657.939747 kJ/mol
# GULP energy per Si atom -5592.107764 kJ/mol
# Density = 2.320089 g / cm^3
# Si number density = 23.253815 Si / 1000 Ang^3
#
#
#
# Elastic Constant Matrix: (Units=GPa)
#
#
# Indices 1 2 3 4 5 6 
#
# 1 106.5785 27.6317 -6.6123 0.0000 -18.2651 0.0000
# 2 27.6317 142.1330 16.0280 0.0000 -5.6320 0.0000
# 3 -6.6123 16.0280 98.8405 0.0000 10.4947 0.0000
# 4 0.0000 0.0000 0.0000 -76.5050 0.0000 165.9637
# 5 -18.2651 -5.6320 10.4947 0.0000 29.0395 0.0000
# 6 0.0000 0.0000 0.0000 165.9637 0.0000 -250.7892
#
#
#
# Elastic Compliance Matrix: (Units=1/GPa)
#
#
# Indices 1 2 3 4 5 6 
#
# 1 0.011004 -0.001927 0.000367 0.000000 0.006415 0.000000
# 2 -0.001927 0.007604 -0.001445 0.000000 0.000785 0.000000
# 3 0.000367 -0.001445 0.010796 0.000000 -0.003951 0.000000
# 4 0.000000 0.000000 0.000000 0.030008 0.000000 0.019858
# 5 0.006415 0.000785 -0.003951 0.000000 0.040051 0.000000
# 6 0.000000 0.000000 0.000000 0.019858 0.000000 0.009154
#
#
# Mechanical properties :
#
#
# Convention : Reuss Voigt Hill
#
# Bulk Modulus (GPa) = 42.74331 46.84964 44.79648
# Shear Modulus (GPa) = 40.84121 -38.95063 0.94529
#
# Velocity S-wave (km/s) = 4.19540 -4.09714 0.63827
# Velocity P-wave (km/s) = 6.47222 1.48030 4.45524
#
# Compressibility (1/GPa) = 0.02339547
#
# Stress axis : x y z
#
# Youngs Moduli (GPa) = 90.87243 131.50412 92.62901
#
# Poissons Ratio (x) = 0.25335 -0.03404
# Poissons Ratio (y) = 0.17507 0.13389
# Poissons Ratio (z) = -0.03339 0.19008
#
# Static dielectric constant tensor:
#      x y z
#    x 2.020260 0.000000 0.081640 
#    y 0.000000 1.835900 0.000000 
#    z 0.081640 0.000000 1.896710 
# 
# From -- ./inp_files/1316.got.cif
#   From: 2010.05.17/outbox.cif.g08.bks.cpg/sg13_1_cif.got.tgz:1316.got - 2010.06.03 16:44:36.
