data_PCOD9231266
_publ_section_title
;
Structure prediction by ZEFSAII (Michael W. Deem and Ramdas Pophale) SiO2 
 PCOD9231266
Probable space group: P 2/C
;
_chemical_formula_sum "Si O2"
_cell_formula_units_Z 32
_cell_length_a 12.746598
_cell_length_b 16.396447
_cell_length_c 18.590101
_cell_angle_alpha 90.000000
_cell_angle_beta 153.570284
_cell_angle_gamma 90.000000
_cell_volume 1729.350658
_symmetry_space_group_name_H-M "P 2/C"
_symmetry_group_IT_number 13
_symmetry_cell_setting 'monoclinic'
loop_
_space_group_symop_operation_xyz
x,y,z
-x,y,1/2-z
-x,-y,-z
x,-y,1/2+z
loop_
_atom_site_type_symbol
_atom_site_label
_atom_site_fract_x
_atom_site_fract_y
_atom_site_fract_z
Si Si1 0.134167 0.917445 0.898902
Si Si2 0.275691 0.617899 0.562925
Si Si3 0.037018 0.950694 0.448572
Si Si4 0.234592 0.223427 0.113088
Si Si5 0.433502 0.912232 0.428238
Si Si6 0.481483 0.374046 0.442695
Si Si7 0.717315 0.205156 0.188214
Si Si8 0.876421 0.517678 0.251137
O O1 0.000000 0.960627 0.750000
O O2 0.948147 0.846746 0.806073
O O3 0.377519 0.885302 0.016521
O O4 0.178028 0.984619 0.986267
O O5 0.500000 0.594207 0.750000
O O6 0.140703 0.694301 0.517629
O O7 0.390432 0.640437 0.555710
O O8 0.085382 0.547856 0.430844
O O9 0.808623 0.926826 0.261347
O O10 0.143271 0.863517 0.531675
O O11 0.000000 0.000000 0.500000
O O12 0.500000 0.227059 0.250000
O O13 0.234617 0.223326 0.198926
O O14 0.489428 0.850848 0.528434
O O15 0.500000 0.000000 0.500000
O O16 0.350171 0.292073 0.387182
O O17 0.281676 0.443902 0.316419
O O18 0.690122 0.409127 0.621027
O O19 0.000000 0.497131 0.250000
#
# Coordination Sequence:
#
# PCOD9231266 Si02
#       8
#     4   4   4   4   4   4   4   4
#     4  10  22  39  58  83 117 155 202 247 298 361
#     4  10  20  39  60  92 122 156 198 249 308 366
#     4  12  24  38  61  87 118 158 205 259 306 354
#     4  11  23  38  58  90 120 156 198 253 311 359
#     4  11  23  40  58  84 117 158 206 248 300 370
#     4  10  20  39  64  87 123 159 197 255 300 375
#     4  11  21  41  58  86 118 158 201 245 305 363
#     4   9  21  38  62  95 121 156 205 246 312 374
#
# _framework density 18.504055000000001
#
# number of rings (size 3 to 8) (size 9 to 14) (size 15 to 20)
#    0.000    1.500    6.250    0.000    5.250    2.000 
#    0.000    0.000    0.000    0.000    0.000    0.000 
#    0.000    0.000    0.000    0.000    0.000    0.000 
#
# Total GULP energy -178147.916265 kJ/mol
# GULP energy per Si atom -5567.122383 kJ/mol
# Density = 1.846194 g / cm^3
# Si number density = 18.504055 Si / 1000 Ang^3
#
#
#
# Elastic Constant Matrix: (Units=GPa)
#
#
# Indices 1 2 3 4 5 6 
#
# 1 59.0359 17.8998 -3.3533 0.0000 -6.3000 0.0000
# 2 17.8998 102.7469 32.5246 0.0000 -11.3075 0.0000
# 3 -3.3533 32.5246 50.7350 0.0000 -1.7784 0.0000
# 4 0.0000 0.0000 0.0000 32.9553 0.0000 3.2004
# 5 -6.3000 -11.3075 -1.7784 0.0000 25.3125 0.0000
# 6 0.0000 0.0000 0.0000 3.2004 0.0000 26.7459
#
#
#
# Elastic Compliance Matrix: (Units=1/GPa)
#
#
# Indices 1 2 3 4 5 6 
#
# 1 0.018775 -0.004215 0.004051 0.000000 0.003075 0.000000
# 2 -0.004215 0.013799 -0.008968 0.000000 0.004485 0.000000
# 3 0.004051 -0.008968 0.025685 0.000000 -0.001193 0.000000
# 4 0.000000 0.000000 0.000000 0.030701 0.000000 -0.003674
# 5 0.003075 0.004485 -0.001193 0.000000 0.042191 0.000000
# 6 0.000000 0.000000 0.000000 -0.003674 0.000000 0.037828
#
#
# Mechanical properties :
#
#
# Convention : Reuss Voigt Hill
#
# Bulk Modulus (GPa) = 25.00262 34.07334 29.53798
# Shear Modulus (GPa) = 24.92833 28.03253 26.48043
#
# Velocity S-wave (km/s) = 3.67438 3.89645 3.78704
# Velocity P-wave (km/s) = 5.61629 6.22069 5.92620
#
# Compressibility (1/GPa) = 0.03999580
#
# Stress axis : x y z
#
# Youngs Moduli (GPa) = 53.26248 72.46788 38.93327
#
# Poissons Ratio (x) = 0.30543 -0.15770
# Poissons Ratio (y) = 0.22448 0.34914
# Poissons Ratio (z) = -0.21574 0.64986
#
# Static dielectric constant tensor:
#      x y z
#    x 1.659310 0.000000 0.009180 
#    y 0.000000 1.921230 0.000000 
#    z 0.009180 0.000000 1.571110 
# 
# From -- ./inp_files/66935.got.cif
#   From: 2010.05.17/outbox.cif.g08.bks.cpg/sg13_34_cif.got.tgz:66935.got - 2010.06.03 16:44:36.
