data_PCOD9231825
_publ_section_title
;
Structure prediction by ZEFSAII (Michael W. Deem and Ramdas Pophale) SiO2 
 PCOD9231825
Probable space group: P 2/C
;
_chemical_formula_sum "Si O2"
_cell_formula_units_Z 24
_cell_length_a 17.917068
_cell_length_b 10.207534
_cell_length_c 11.192232
_cell_angle_alpha 90.000000
_cell_angle_beta 31.561972
_cell_angle_gamma 90.000000
_cell_volume 1071.408775
_symmetry_space_group_name_H-M "P 2/C"
_symmetry_group_IT_number 13
_symmetry_cell_setting 'monoclinic'
loop_
_space_group_symop_operation_xyz
x,y,z
-x,y,1/2-z
-x,-y,-z
x,-y,1/2+z
loop_
_atom_site_type_symbol
_atom_site_label
_atom_site_fract_x
_atom_site_fract_y
_atom_site_fract_z
Si Si1 0.886434 0.069750 0.008068
Si Si2 0.500000 0.667441 0.250000
Si Si3 0.393089 0.785065 0.634669
Si Si4 0.385668 0.699423 0.009345
Si Si5 0.918802 0.206435 0.586494
Si Si6 0.307404 0.494974 0.828492
Si Si7 0.000000 0.616067 0.750000
O O1 0.000000 0.041960 0.750000
O O2 0.956636 0.188772 0.987458
O O3 0.730647 0.110707 0.177669
O O4 0.880556 0.939677 0.095120
O O5 0.423672 0.757570 0.453509
O O6 0.609517 0.577330 0.176595
O O7 0.541107 0.808264 0.503708
O O8 0.339473 0.645695 0.760229
O O9 0.231788 0.734814 0.166558
O O10 0.356968 0.579740 0.139475
O O11 0.500000 0.679617 0.750000
O O12 0.972820 0.292165 0.401749
O O13 0.140964 0.469388 0.074411
#
# Coordination Sequence:
#
# PCOD9231825 Si02
#       7
#     4   2   4   4   4   4   2
#     4  11  23  42  62  89 122 153 202 249 296 348
#     4  10  20  42  56  86 124 162 196 236 292 364
#     4  11  24  37  61  92 120 159 194 246 298 347
#     4  10  21  40  61  90 120 155 201 240 296 354
#     4  10  22  42  66  84 117 164 195 250 297 341
#     4  10  23  36  64  86 122 160 193 244 296 350
#     4  10  20  44  60  90 114 158 208 238 292 366
#
# _framework density 22.400416
#
# number of rings (size 3 to 8) (size 9 to 14) (size 15 to 20)
#    0.000    1.667    0.833    4.000    5.833    0.667 
#    1.500    2.500    0.000    0.000    0.000    0.000 
#    0.000    0.000    0.000    0.000    0.000    0.000 
#
# Total GULP energy -134228.731817 kJ/mol
# GULP energy per Si atom -5592.863826 kJ/mol
# Density = 2.234943 g / cm^3
# Si number density = 22.400416 Si / 1000 Ang^3
#
#
#
# Elastic Constant Matrix: (Units=GPa)
#
#
# Indices 1 2 3 4 5 6 
#
# 1 66.4823 -5.5201 23.0325 0.0000 7.6917 0.0000
# 2 -5.5201 21.6591 12.8952 0.0000 -2.9108 0.0000
# 3 23.0325 12.8952 137.2517 0.0000 3.1067 0.0000
# 4 0.0000 0.0000 0.0000 -5.2559 0.0000 -11.3042
# 5 7.6917 -2.9108 3.1067 0.0000 39.8643 0.0000
# 6 0.0000 0.0000 0.0000 -11.3042 0.0000 22.5345
#
#
#
# Elastic Compliance Matrix: (Units=1/GPa)
#
#
# Indices 1 2 3 4 5 6 
#
# 1 0.017000 0.005984 -0.003357 0.000000 -0.002582 0.000000
# 2 0.005984 0.051636 -0.005925 0.000000 0.003077 0.000000
# 3 -0.003357 -0.005925 0.008416 0.000000 -0.000441 0.000000
# 4 0.000000 0.000000 0.000000 -0.091520 0.000000 -0.045910
# 5 -0.002582 0.003077 -0.000441 0.000000 0.025842 0.000000
# 6 0.000000 0.000000 0.000000 -0.045910 0.000000 0.021346
#
#
# Mechanical properties :
#
#
# Convention : Reuss Voigt Hill
#
# Bulk Modulus (GPa) = 14.19309 31.80092 22.99701
# Shear Modulus (GPa) = 79.61622 24.42762 52.02192
#
# Velocity S-wave (km/s) = 5.96820 3.30585 4.82432
# Velocity P-wave (km/s) = 7.33774 5.36646 6.42812
#
# Compressibility (1/GPa) = 0.07045680
#
# Stress axis : x y z
#
# Youngs Moduli (GPa) = 58.82341 19.36621 118.82359
#
# Poissons Ratio (x) = -0.11589 0.39884
# Poissons Ratio (y) = -0.35201 0.70406
# Poissons Ratio (z) = 0.19745 0.11475
#
# Static dielectric constant tensor:
#      x y z
#    x 1.889310 0.000000 -0.017660 
#    y 0.000000 1.804040 0.000000 
#    z -0.017660 0.000000 1.821820 
# 
# From -- ./inp_files/39137.got.cif
#   From: 2010.05.17/outbox.cif.g08.bks.cpg/sg13_20_cif.got.tgz:39137.got - 2010.06.03 16:44:36.
