data_PCOD9231522
_publ_section_title
;
Structure prediction by ZEFSAII (Michael W. Deem and Ramdas Pophale) SiO2 
 PCOD9231522
Probable space group: P 2/C
;
_chemical_formula_sum "Si O2"
_cell_formula_units_Z 24
_cell_length_a 7.738181
_cell_length_b 11.488309
_cell_length_c 23.435654
_cell_angle_alpha 90.000000
_cell_angle_beta 34.885412
_cell_angle_gamma 90.000000
_cell_volume 1191.572004
_symmetry_space_group_name_H-M "P 2/C"
_symmetry_group_IT_number 13
_symmetry_cell_setting 'monoclinic'
loop_
_space_group_symop_operation_xyz
x,y,z
-x,y,1/2-z
-x,-y,-z
x,-y,1/2+z
loop_
_atom_site_type_symbol
_atom_site_label
_atom_site_fract_x
_atom_site_fract_y
_atom_site_fract_z
Si Si1 0.154472 0.720963 0.149771
Si Si2 0.870942 0.313097 0.459859
Si Si3 0.833361 0.050536 0.920272
Si Si4 0.241696 0.439096 0.531168
Si Si5 0.312083 0.216103 0.435869
Si Si6 0.220413 0.826787 0.783933
O O1 0.087686 0.849984 0.146512
O O2 0.048743 0.632252 0.129426
O O3 0.000000 0.691341 0.250000
O O4 0.516435 0.713832 0.059127
O O5 0.917475 0.451178 0.454672
O O6 0.057741 0.243274 0.457016
O O7 0.983409 0.272599 0.366645
O O8 0.808854 0.117337 0.987784
O O9 0.066185 0.946506 0.845983
O O10 0.500000 0.000000 0.000000
O O11 0.500000 0.500000 0.500000
O O12 0.355475 0.337996 0.458072
O O13 0.624937 0.178088 0.320123
O O14 0.500000 0.804832 0.750000
#
# Coordination Sequence:
#
# PCOD9231522 Si02
#       6
#     4   4   4   4   4   4
#     4  10  22  38  59  89 121 163 206 252 309 361
#     4  10  20  40  62  89 126 157 207 256 302 376
#     4  11  23  40  58  89 126 161 209 254 302 368
#     4   9  20  40  61  90 125 156 206 259 305 368
#     4  10  23  40  64  90 123 167 202 252 319 362
#     4  10  23  39  63  94 122 163 208 250 308 372
#
# _framework density 20.141463000000002
#
# number of rings (size 3 to 8) (size 9 to 14) (size 15 to 20)
#    0.000    2.000    1.667    0.500    2.333    6.667 
#    0.000    4.167    0.000    0.000    0.000    0.000 
#    0.000    0.000    0.000    0.000    0.000    0.000 
#
# Total GULP energy -133807.077615 kJ/mol
# GULP energy per Si atom -5575.294901 kJ/mol
# Density = 2.009562 g / cm^3
# Si number density = 20.141463 Si / 1000 Ang^3
#
#
#
# Elastic Constant Matrix: (Units=GPa)
#
#
# Indices 1 2 3 4 5 6 
#
# 1 41.9360 6.2920 21.1264 0.0000 3.2578 0.0000
# 2 6.2920 119.3126 53.2402 0.0000 8.6744 0.0000
# 3 21.1264 53.2402 153.5506 0.0000 5.5019 0.0000
# 4 0.0000 0.0000 0.0000 -2.5890 0.0000 2.9641
# 5 3.2578 8.6744 5.5019 0.0000 29.4557 0.0000
# 6 0.0000 0.0000 0.0000 2.9641 0.0000 34.8625
#
#
#
# Elastic Compliance Matrix: (Units=1/GPa)
#
#
# Indices 1 2 3 4 5 6 
#
# 1 0.025780 0.000418 -0.003610 0.000000 -0.002300 0.000000
# 2 0.000418 0.010079 -0.003467 0.000000 -0.002367 0.000000
# 3 -0.003610 -0.003467 0.008215 0.000000 -0.000114 0.000000
# 4 0.000000 0.000000 0.000000 -0.351990 0.000000 0.029927
# 5 -0.002300 -0.002367 -0.000114 0.000000 0.034922 0.000000
# 6 0.000000 0.000000 0.000000 0.029927 0.000000 0.026140
#
#
# Mechanical properties :
#
#
# Convention : Reuss Voigt Hill
#
# Bulk Modulus (GPa) = 32.51272 52.90182 42.70727
# Shear Modulus (GPa) = -22.39293 27.95521 2.78114
#
# Velocity S-wave (km/s) = -3.33796 3.72955 1.17635
# Velocity P-wave (km/s) = 1.14947 6.69838 4.80570
#
# Compressibility (1/GPa) = 0.03075719
#
# Stress axis : x y z
#
# Youngs Moduli (GPa) = 38.78941 99.22087 121.72207
#
# Poissons Ratio (x) = -0.04151 0.43937
# Poissons Ratio (y) = -0.01623 0.42204
# Poissons Ratio (z) = 0.14002 0.34403
#
# Static dielectric constant tensor:
#      x y z
#    x 1.751700 0.000000 0.030290 
#    y 0.000000 1.716470 0.000000 
#    z 0.030290 0.000000 1.731780 
# 
# From -- ./inp_files/76184.got.cif
#   From: 2010.05.17/outbox.cif.g08.bks.cpg/sg13_39_cif.got.tgz:76184.got - 2010.06.03 16:44:36.
