data_PCOD9231449
_publ_section_title
;
Structure prediction by ZEFSAII (Michael W. Deem and Ramdas Pophale) SiO2 
 PCOD9231449
Probable space group: P 2/C
;
_chemical_formula_sum "Si O2"
_cell_formula_units_Z 20
_cell_length_a 20.280220
_cell_length_b 5.270711
_cell_length_c 13.772894
_cell_angle_alpha 90.000000
_cell_angle_beta 148.118165
_cell_angle_gamma 90.000000
_cell_volume 777.571085
_symmetry_space_group_name_H-M "P 2/C"
_symmetry_group_IT_number 13
_symmetry_cell_setting 'monoclinic'
loop_
_space_group_symop_operation_xyz
x,y,z
-x,y,1/2-z
-x,-y,-z
x,-y,1/2+z
loop_
_atom_site_type_symbol
_atom_site_label
_atom_site_fract_x
_atom_site_fract_y
_atom_site_fract_z
Si Si1 0.110754 0.212948 0.467293
Si Si2 0.732569 0.349515 0.588958
Si Si3 0.353374 0.060392 0.204737
Si Si4 0.015195 0.711497 0.385579
Si Si5 0.378774 0.851216 0.957107
O O1 0.000000 0.246906 0.250000
O O2 0.112335 0.483530 0.521121
O O3 0.235079 0.126111 0.568624
O O4 0.068735 0.981990 0.483403
O O5 0.675865 0.264415 0.414150
O O6 0.881191 0.356703 0.759481
O O7 0.678348 0.614836 0.557608
O O8 0.691720 0.115601 0.606840
O O9 0.373131 0.188220 0.334278
O O10 0.477359 0.903563 0.336756
O O11 0.000000 0.745964 0.250000
#
# Coordination Sequence:
#
# PCOD9231449 Si02
#       5
#     4   4   4   4   4
#     4  10  20  39  72 101 135 206 233 282 387 420
#     4  12  25  50  76 109 153 193 254 305 369 454
#     4  11  26  52  78 104 166 189 240 328 365 433
#     4  10  20  39  70 103 139 192 244 287 370 434
#     4  11  30  47  76 122 137 201 259 292 383 452
#
# _framework density 25.721119999999999
#
# number of rings (size 3 to 8) (size 9 to 14) (size 15 to 20)
#    0.000    1.200    4.000    1.800    2.800   11.200 
#    0.000    6.000    0.000    0.000    0.000    0.000 
#    0.000    0.000    0.000    0.000    0.000    0.000 
#
# Total GULP energy -112247.176225 kJ/mol
# GULP energy per Si atom -5612.358811 kJ/mol
# Density = 2.566258 g / cm^3
# Si number density = 25.721120 Si / 1000 Ang^3
#
#
#
# Elastic Constant Matrix: (Units=GPa)
#
#
# Indices 1 2 3 4 5 6 
#
# 1 128.7087 24.3503 34.2524 0.0000 10.0769 0.0000
# 2 24.3503 159.9173 11.9863 0.0000 20.0691 0.0000
# 3 34.2524 11.9863 104.0423 0.0000 34.4151 0.0000
# 4 0.0000 0.0000 0.0000 8.3773 0.0000 15.6836
# 5 10.0769 20.0691 34.4151 0.0000 64.3316 0.0000
# 6 0.0000 0.0000 0.0000 15.6836 0.0000 27.8713
#
#
#
# Elastic Compliance Matrix: (Units=1/GPa)
#
#
# Indices 1 2 3 4 5 6 
#
# 1 0.008727 -0.001181 -0.002924 0.000000 0.000566 0.000000
# 2 -0.001181 0.006669 0.000301 0.000000 -0.002056 0.000000
# 3 -0.002924 0.000301 0.012659 0.000000 -0.006408 0.000000
# 4 0.000000 0.000000 0.000000 -2.231292 0.000000 1.255586
# 5 0.000566 -0.002056 -0.006408 0.000000 0.019525 0.000000
# 6 0.000000 0.000000 0.000000 1.255586 0.000000 -0.670660
#
#
# Mechanical properties :
#
#
# Convention : Reuss Voigt Hill
#
# Bulk Modulus (GPa) = 48.90897 59.31623 54.11260
# Shear Modulus (GPa) = -1.76060 41.58799 19.91370
#
# Velocity S-wave (km/s) = -0.82824 4.02541 2.78549
# Velocity P-wave (km/s) = 4.25931 6.68705 5.60617
#
# Compressibility (1/GPa) = 0.02044615
#
# Stress axis : x y z
#
# Youngs Moduli (GPa) = 114.59061 149.95831 78.99458
#
# Poissons Ratio (x) = 0.17704 0.23098
# Poissons Ratio (y) = 0.13529 -0.02374
# Poissons Ratio (z) = 0.33507 -0.04507
#
# Static dielectric constant tensor:
#      x y z
#    x 2.030590 0.000000 -0.093330 
#    y 0.000000 2.058340 0.000000 
#    z -0.093330 0.000000 2.103210 
# 
# From -- ./inp_files/56690.got.cif
#   From: 2010.05.17/outbox.cif.g08.bks.cpg/sg13_29_cif.got.tgz:56690.got - 2010.06.03 16:44:36.
