data_PCOD9231444
_publ_section_title
;
Structure prediction by ZEFSAII (Michael W. Deem and Ramdas Pophale) SiO2 
 PCOD9231444
Probable space group: P 2/C
;
_chemical_formula_sum "Si O2"
_cell_formula_units_Z 32
_cell_length_a 19.208943
_cell_length_b 5.315582
_cell_length_c 17.291781
_cell_angle_alpha 90.000000
_cell_angle_beta 127.668344
_cell_angle_gamma 90.000000
_cell_volume 1397.586058
_symmetry_space_group_name_H-M "P 2/C"
_symmetry_group_IT_number 13
_symmetry_cell_setting 'monoclinic'
loop_
_space_group_symop_operation_xyz
x,y,z
-x,y,1/2-z
-x,-y,-z
x,-y,1/2+z
loop_
_atom_site_type_symbol
_atom_site_label
_atom_site_fract_x
_atom_site_fract_y
_atom_site_fract_z
Si Si1 0.127071 0.080690 0.218611
Si Si2 0.832610 0.658822 0.061172
Si Si3 0.618204 0.436568 0.655081
Si Si4 0.940319 0.145318 0.113079
Si Si5 0.225997 0.640515 0.647131
Si Si6 0.925475 0.283781 0.936602
Si Si7 0.551713 0.188244 0.978565
Si Si8 0.711329 0.118214 0.594850
O O1 0.168433 0.203491 0.169803
O O2 0.042358 0.207043 0.199316
O O3 0.087275 0.817520 0.158903
O O4 0.208973 0.065067 0.330471
O O5 0.881547 0.392325 0.087872
O O6 0.757924 0.668383 0.075914
O O7 0.901866 0.886892 0.120925
O O8 0.784040 0.728677 0.947349
O O9 0.676681 0.590373 0.755080
O O10 0.525703 0.322373 0.622319
O O11 0.593932 0.608324 0.564821
O O12 0.676790 0.221379 0.653816
O O13 0.943427 0.101076 0.021141
O O14 0.172262 0.381409 0.611459
O O15 0.000000 0.500000 0.000000
O O16 0.500000 0.000000 0.000000
O O17 0.631369 0.024979 0.998484
#
# Coordination Sequence:
#
# PCOD9231444 Si02
#       8
#     4   4   4   4   4   4   4   4
#     4  12  21  37  64  93 126 175 247 272 319 400
#     4  11  27  43  64  95 146 182 218 277 355 392
#     4  10  20  39  69 100 126 162 230 278 334 409
#     4  11  24  41  61  93 136 184 231 282 325 391
#     4  11  21  37  66 100 126 176 231 284 325 409
#     4  11  20  36  59  92 126 171 232 289 319 368
#     4   9  20  39  68  99 127 160 214 283 341 398
#     4  11  24  41  66 100 134 182 216 285 346 417
#
# _framework density 22.896623000000002
#
# number of rings (size 3 to 8) (size 9 to 14) (size 15 to 20)
#    0.000    1.250    5.000    1.875    1.750    0.500 
#    0.000    2.500    0.000    8.250    0.000    0.000 
#    0.000    0.000    0.000    0.000    0.000    0.000 
#
# Total GULP energy -178597.896771 kJ/mol
# GULP energy per Si atom -5581.184274 kJ/mol
# Density = 2.284451 g / cm^3
# Si number density = 22.896623 Si / 1000 Ang^3
#
#
#
# Elastic Constant Matrix: (Units=GPa)
#
#
# Indices 1 2 3 4 5 6 
#
# 1 98.8946 29.7825 49.9263 0.0000 26.3947 0.0000
# 2 29.7825 68.5665 15.9600 0.0000 17.4583 0.0000
# 3 49.9263 15.9600 98.7750 0.0000 35.4039 0.0000
# 4 0.0000 0.0000 0.0000 32.1850 0.0000 6.3231
# 5 26.3947 17.4583 35.4039 0.0000 40.9025 0.0000
# 6 0.0000 0.0000 0.0000 6.3231 0.0000 41.3958
#
#
#
# Elastic Compliance Matrix: (Units=1/GPa)
#
#
# Indices 1 2 3 4 5 6 
#
# 1 0.015223 -0.004529 -0.005994 0.000000 -0.002702 0.000000
# 2 -0.004529 0.017713 0.001580 0.000000 -0.006005 0.000000
# 3 -0.005994 0.001580 0.017041 0.000000 -0.011556 0.000000
# 4 0.000000 0.000000 0.000000 0.032032 0.000000 -0.004893
# 5 -0.002702 -0.006005 -0.011556 0.000000 0.038757 0.000000
# 6 0.000000 0.000000 0.000000 -0.004893 0.000000 0.024904
#
#
# Mechanical properties :
#
#
# Convention : Reuss Voigt Hill
#
# Bulk Modulus (GPa) = 31.16339 50.84153 41.00246
# Shear Modulus (GPa) = 28.69374 34.26780 31.48077
#
# Velocity S-wave (km/s) = 3.54388 3.87283 3.71200
# Velocity P-wave (km/s) = 5.51230 6.50011 6.02648
#
# Compressibility (1/GPa) = 0.03208894
#
# Stress axis : x y z
#
# Youngs Moduli (GPa) = 65.68983 56.45596 58.68328
#
# Poissons Ratio (x) = 0.25569 0.35177
# Poissons Ratio (y) = 0.29751 -0.09269
# Poissons Ratio (z) = 0.39377 -0.08917
#
# Static dielectric constant tensor:
#      x y z
#    x 1.912700 0.000000 0.008440 
#    y 0.000000 2.091680 0.000000 
#    z 0.008440 0.000000 1.919050 
# 
# From -- ./inp_files/70302.got.cif
#   From: 2010.05.17/outbox.cif.g08.bks.cpg/sg13_36_cif.got.tgz:70302.got - 2010.06.03 16:44:36.
