data_PCOD9231164
_publ_section_title
;
Structure prediction by ZEFSAII (Michael W. Deem and Ramdas Pophale) SiO2 
 PCOD9231164
Probable space group: P 2/C
;
_chemical_formula_sum "Si O2"
_cell_formula_units_Z 26
_cell_length_a 10.574719
_cell_length_b 8.951890
_cell_length_c 19.577024
_cell_angle_alpha 90.000000
_cell_angle_beta 142.206070
_cell_angle_gamma 90.000000
_cell_volume 1135.705015
_symmetry_space_group_name_H-M "P 2/C"
_symmetry_group_IT_number 13
_symmetry_cell_setting 'monoclinic'
loop_
_space_group_symop_operation_xyz
x,y,z
-x,y,1/2-z
-x,-y,-z
x,-y,1/2+z
loop_
_atom_site_type_symbol
_atom_site_label
_atom_site_fract_x
_atom_site_fract_y
_atom_site_fract_z
Si Si1 0.258749 0.614255 0.100206
Si Si2 0.251143 0.897774 0.014914
Si Si3 0.304473 0.952032 0.346553
Si Si4 0.500000 0.655566 0.750000
Si Si5 0.179716 0.236989 0.222747
Si Si6 0.088910 0.161958 0.891207
Si Si7 0.961007 0.530615 0.365377
O O1 0.305701 0.783505 0.098899
O O2 0.398117 0.464928 0.154332
O O3 0.799503 0.614856 0.345204
O O4 0.075942 0.570600 0.970677
O O5 0.462787 0.899683 0.063003
O O6 0.044632 0.835313 0.889539
O O7 0.183208 0.071745 0.996046
O O8 0.211753 0.902601 0.378896
O O9 0.149744 0.878198 0.225102
O O10 0.284198 0.128578 0.322319
O O11 0.669596 0.748513 0.779574
O O12 0.139195 0.409067 0.226982
O O13 0.103529 0.339890 0.897737
#
# Coordination Sequence:
#
# PCOD9231164 Si02
#       7
#     4   4   4   2   4   4   4
#     4   9  20  36  61  89 126 158 208 264 312 378
#     4  10  21  40  61  92 129 164 206 259 324 370
#     4  10  22  41  61  89 128 170 207 259 310 376
#     4  10  20  38  66  90 126 170 214 258 318 380
#     4   9  21  41  62  91 129 164 215 257 315 377
#     4  10  22  40  63  89 126 165 216 262 306 374
#     4   9  19  40  63  89 122 166 206 261 315 371
#
# _framework density 22.893267999999999
#
# number of rings (size 3 to 8) (size 9 to 14) (size 15 to 20)
#    0.000    2.462    0.000    1.385    6.462    0.615 
#    5.538   12.308    0.000    0.000    0.000    0.000 
#    0.000    0.000    0.000    0.000    0.000    0.000 
#
# Total GULP energy -144739.477785 kJ/mol
# GULP energy per Si atom -5566.902992 kJ/mol
# Density = 2.284116 g / cm^3
# Si number density = 22.893268 Si / 1000 Ang^3
#
#
#
# Elastic Constant Matrix: (Units=GPa)
#
#
# Indices 1 2 3 4 5 6 
#
# 1 80.0204 71.5718 45.6167 0.0000 23.0399 0.0000
# 2 71.5718 152.3547 10.1667 0.0000 -6.0330 0.0000
# 3 45.6167 10.1667 68.0402 0.0000 25.3593 0.0000
# 4 0.0000 0.0000 0.0000 30.7849 0.0000 -4.2904
# 5 23.0399 -6.0330 25.3593 0.0000 31.1486 0.0000
# 6 0.0000 0.0000 0.0000 -4.2904 0.0000 26.3506
#
#
#
# Elastic Compliance Matrix: (Units=1/GPa)
#
#
# Indices 1 2 3 4 5 6 
#
# 1 0.060087 -0.027702 -0.025239 0.000000 -0.029262 0.000000
# 2 -0.027702 0.019602 0.009462 0.000000 0.016583 0.000000
# 3 -0.025239 0.009462 0.032392 0.000000 -0.005871 0.000000
# 4 0.000000 0.000000 0.000000 0.033238 0.000000 0.005412
# 5 -0.029262 0.016583 -0.005871 0.000000 0.061740 0.000000
# 6 0.000000 0.000000 0.000000 0.005412 0.000000 0.038831
#
#
# Mechanical properties :
#
#
# Convention : Reuss Voigt Hill
#
# Bulk Modulus (GPa) = 39.80025 61.68062 50.74044
# Shear Modulus (GPa) = 14.65326 29.19418 21.92372
#
# Velocity S-wave (km/s) = 2.53270 3.57491 3.09795
# Velocity P-wave (km/s) = 5.09663 6.63635 5.91679
#
# Compressibility (1/GPa) = 0.02512547
#
# Stress axis : x y z
#
# Youngs Moduli (GPa) = 16.64261 51.01460 30.87137
#
# Poissons Ratio (x) = 1.41318 0.77916
# Poissons Ratio (y) = 0.46103 -0.29212
# Poissons Ratio (z) = 0.42004 -0.48273
#
# Static dielectric constant tensor:
#      x y z
#    x 1.888650 0.000000 0.002060 
#    y 0.000000 1.982680 0.000000 
#    z 0.002060 0.000000 1.968050 
# 
# From -- ./inp_files/86446.got.cif
#   From: 2010.05.17/outbox.cif.g08.bks.cpg/sg13_44_cif.got.tgz:86446.got - 2010.06.03 16:44:36.
