data_PCOD9231576
_publ_section_title
;
Structure prediction by ZEFSAII (Michael W. Deem and Ramdas Pophale) SiO2 
 PCOD9231576
Probable space group: P 2/C
;
_chemical_formula_sum "Si O2"
_cell_formula_units_Z 30
_cell_length_a 13.737853
_cell_length_b 6.002290
_cell_length_c 18.721165
_cell_angle_alpha 90.000000
_cell_angle_beta 109.889887
_cell_angle_gamma 90.000000
_cell_volume 1451.634910
_symmetry_space_group_name_H-M "P 2/C"
_symmetry_group_IT_number 13
_symmetry_cell_setting 'monoclinic'
loop_
_space_group_symop_operation_xyz
x,y,z
-x,y,1/2-z
-x,-y,-z
x,-y,1/2+z
loop_
_atom_site_type_symbol
_atom_site_label
_atom_site_fract_x
_atom_site_fract_y
_atom_site_fract_z
Si Si1 0.394998 0.419323 0.888643
Si Si2 0.916015 0.074113 0.330976
Si Si3 0.449846 0.891098 0.162332
Si Si4 0.776335 0.268274 0.875935
Si Si5 0.809960 0.546434 0.743367
Si Si6 0.000000 0.266880 0.750000
Si Si7 0.039198 0.255590 0.482155
Si Si8 0.554144 0.192311 0.466888
O O1 0.462025 0.249604 0.856896
O O2 0.298397 0.506725 0.820800
O O3 0.469523 0.622928 0.926746
O O4 0.366631 0.302942 0.957262
O O5 0.852525 0.204604 0.255238
O O6 0.992173 0.239595 0.391584
O O7 0.826452 0.954654 0.354227
O O8 0.987975 0.885333 0.316265
O O9 0.500000 0.965439 0.250000
O O10 0.346547 0.746946 0.148388
O O11 0.412755 0.086463 0.099695
O O12 0.802426 0.458906 0.823839
O O13 0.840069 0.277195 0.966085
O O14 0.896409 0.407528 0.723808
O O15 0.000000 0.500000 0.500000
O O16 0.000000 0.000000 0.500000
O O17 0.500000 0.000000 0.500000
#
# Coordination Sequence:
#
# PCOD9231576 Si02
#       8
#     4   4   4   4   4   2   4   4
#     4  10  22  41  64  91 129 171 213 270 328 392
#     4  10  22  39  64  90 125 169 214 269 335 395
#     4  11  22  38  62 100 129 165 223 271 322 401
#     4  10  22  38  60  94 129 166 211 267 333 395
#     4  11  21  39  63  88 125 163 213 274 328 393
#     4  10  24  40  58  94 120 158 224 266 324 402
#     4  10  20  40  64  90 128 171 216 271 338 401
#     4   9  22  42  62  86 128 170 214 260 322 394
#
# _framework density 20.666352
#
# number of rings (size 3 to 8) (size 9 to 14) (size 15 to 20)
#    0.000    1.867    2.667    0.400    1.867    3.733 
#    0.000    6.667    0.000    0.000    0.000    0.000 
#    0.000    0.000    0.000    0.000    0.000    0.000 
#
# Total GULP energy -167054.062437 kJ/mol
# GULP energy per Si atom -5568.468748 kJ/mol
# Density = 2.061931 g / cm^3
# Si number density = 20.666352 Si / 1000 Ang^3
#
#
#
# Elastic Constant Matrix: (Units=GPa)
#
#
# Indices 1 2 3 4 5 6 
#
# 1 61.3527 -9.1891 18.6069 0.0000 0.5589 0.0000
# 2 -9.1891 47.3019 -1.5933 0.0000 -17.2709 0.0000
# 3 18.6069 -1.5933 93.3301 0.0000 8.0760 0.0000
# 4 0.0000 0.0000 0.0000 6.0638 0.0000 2.3766
# 5 0.5589 -17.2709 8.0760 0.0000 23.1346 0.0000
# 6 0.0000 0.0000 0.0000 2.3766 0.0000 5.4552
#
#
#
# Elastic Compliance Matrix: (Units=1/GPa)
#
#
# Indices 1 2 3 4 5 6 
#
# 1 0.018229 0.005158 -0.003961 0.000000 0.004793 0.000000
# 2 0.005158 0.030707 -0.002554 0.000000 0.023691 0.000000
# 3 -0.003961 -0.002554 0.011979 0.000000 -0.005993 0.000000
# 4 0.000000 0.000000 0.000000 0.198873 0.000000 -0.086642
# 5 0.004793 0.023691 -0.005993 0.000000 0.062887 0.000000
# 6 0.000000 0.000000 0.000000 -0.086642 0.000000 0.221060
#
#
# Mechanical properties :
#
#
# Convention : Reuss Voigt Hill
#
# Bulk Modulus (GPa) = 17.18184 24.18151 20.68168
# Shear Modulus (GPa) = 8.83626 19.87473 14.35550
#
# Velocity S-wave (km/s) = 2.07001 3.10449 2.63845
# Velocity P-wave (km/s) = 3.74770 4.95749 4.39443
#
# Compressibility (1/GPa) = 0.05820098
#
# Stress axis : x y z
#
# Youngs Moduli (GPa) = 54.85661 32.56620 83.47729
#
# Poissons Ratio (x) = -0.16797 0.33065
# Poissons Ratio (y) = -0.28294 0.21321
# Poissons Ratio (z) = 0.21729 0.08318
#
# Static dielectric constant tensor:
#      x y z
#    x 1.713060 0.000000 -0.030280 
#    y 0.000000 1.793540 0.000000 
#    z -0.030280 0.000000 1.773570 
# 
# From -- ./inp_files/79364.got.cif
#   From: 2010.05.17/outbox.cif.g08.bks.cpg/sg13_40_cif.got.tgz:79364.got - 2010.06.03 16:44:36.
