data_PCOD9231979
_publ_section_title
;
Structure prediction by ZEFSAII (Michael W. Deem and Ramdas Pophale) SiO2 
 PCOD9231979
Probable space group: P 2/C
;
_chemical_formula_sum "Si O2"
_cell_formula_units_Z 30
_cell_length_a 12.599069
_cell_length_b 8.523198
_cell_length_c 12.584595
_cell_angle_alpha 90.000000
_cell_angle_beta 72.542174
_cell_angle_gamma 90.000000
_cell_volume 1289.141058
_symmetry_space_group_name_H-M "P 2/C"
_symmetry_group_IT_number 13
_symmetry_cell_setting 'monoclinic'
loop_
_space_group_symop_operation_xyz
x,y,z
-x,y,1/2-z
-x,-y,-z
x,-y,1/2+z
loop_
_atom_site_type_symbol
_atom_site_label
_atom_site_fract_x
_atom_site_fract_y
_atom_site_fract_z
Si Si1 0.308486 0.682658 0.847770
Si Si2 0.151110 0.512220 0.532953
Si Si3 0.678568 0.077360 0.475117
Si Si4 0.313508 0.427455 0.669614
Si Si5 0.831394 0.099122 0.237539
Si Si6 0.807355 0.797489 0.134239
Si Si7 0.000000 0.628335 0.750000
Si Si8 0.536157 0.242247 0.018419
O O1 0.329119 0.548559 0.757665
O O2 0.274311 0.840026 0.798122
O O3 0.198841 0.632271 0.949986
O O4 0.417038 0.689856 0.887062
O O5 0.246357 0.513840 0.595628
O O6 0.141732 0.661378 0.456715
O O7 0.043146 0.520258 0.640416
O O8 0.786226 0.059687 0.368389
O O9 0.714888 0.131942 0.581118
O O10 0.591892 0.202491 0.453477
O O11 0.610195 0.916355 0.490481
O O12 0.243140 0.288110 0.746919
O O13 0.424083 0.354655 0.587618
O O14 0.909986 0.249489 0.229802
O O15 0.875388 0.946327 0.161046
#
# Coordination Sequence:
#
# PCOD9231979 Si02
#       8
#     4   4   4   4   4   4   2   4
#     4  10  21  42  68  96 134 176 222 273 337 404
#     4  10  23  43  66  96 133 172 225 277 333 405
#     4  11  22  42  64 103 139 170 226 281 323 404
#     4  10  20  43  67  99 136 180 221 270 337 402
#     4  12  24  43  68  97 136 174 227 286 331 397
#     4  11  22  42  70  94 138 179 216 281 334 390
#     4  12  24  44  72  94 130 178 220 292 342 392
#     4  10  22  39  68  99 137 181 219 269 338 398
#
# _framework density 23.271308000000001
#
# number of rings (size 3 to 8) (size 9 to 14) (size 15 to 20)
#    0.000    1.333    5.333    0.000    0.000    2.133 
#    0.000   15.333    0.000    0.000    0.000    0.000 
#    0.000    0.000    0.000    0.000    0.000    0.000 
#
# Total GULP energy -167561.576756 kJ/mol
# GULP energy per Si atom -5585.385892 kJ/mol
# Density = 2.321834 g / cm^3
# Si number density = 23.271308 Si / 1000 Ang^3
#
#
#
# Elastic Constant Matrix: (Units=GPa)
#
#
# Indices 1 2 3 4 5 6 
#
# 1 43.9862 2.6500 18.2459 0.0000 8.2470 0.0000
# 2 2.6500 57.1213 25.0640 0.0000 4.6017 0.0000
# 3 18.2459 25.0640 103.2718 0.0000 -0.9524 0.0000
# 4 0.0000 0.0000 0.0000 33.6281 0.0000 1.1633
# 5 8.2470 4.6017 -0.9524 0.0000 30.8870 0.0000
# 6 0.0000 0.0000 0.0000 1.1633 0.0000 30.8544
#
#
#
# Elastic Compliance Matrix: (Units=1/GPa)
#
#
# Indices 1 2 3 4 5 6 
#
# 1 0.026124 0.001608 -0.005074 0.000000 -0.007371 0.000000
# 2 0.001608 0.019987 -0.005168 0.000000 -0.003567 0.000000
# 3 -0.005074 -0.005168 0.011857 0.000000 0.002490 0.000000
# 4 0.000000 0.000000 0.000000 0.029776 0.000000 -0.001123
# 5 -0.007371 -0.003567 0.002490 0.000000 0.034952 0.000000
# 6 0.000000 0.000000 0.000000 -0.001123 0.000000 0.032453
#
#
# Mechanical properties :
#
#
# Convention : Reuss Voigt Hill
#
# Bulk Modulus (GPa) = 24.56942 32.92212 28.74577
# Shear Modulus (GPa) = 26.88419 29.63519 28.25969
#
# Velocity S-wave (km/s) = 3.40258 3.57244 3.48854
# Velocity P-wave (km/s) = 5.10074 5.58518 5.34844
#
# Compressibility (1/GPa) = 0.04070101
#
# Stress axis : x y z
#
# Youngs Moduli (GPa) = 38.27856 50.03276 84.33956
#
# Poissons Ratio (x) = -0.08046 0.42793
# Poissons Ratio (y) = -0.06156 0.43585
# Poissons Ratio (z) = 0.19422 0.25856
#
# Static dielectric constant tensor:
#      x y z
#    x 1.875080 0.000000 -0.017530 
#    y 0.000000 1.942590 0.000000 
#    z -0.017530 0.000000 1.887190 
# 
# From -- ./inp_files/36426.got.cif
#   From: 2010.05.17/outbox.cif.g08.bks.cpg/sg13_19_cif.got.tgz:36426.got - 2010.06.03 16:44:36.
