data_PCOD9231373
_publ_section_title
;
Structure prediction by ZEFSAII (Michael W. Deem and Ramdas Pophale) SiO2 
 PCOD9231373
Probable space group: P 2/C
;
_chemical_formula_sum "Si O2"
_cell_formula_units_Z 24
_cell_length_a 5.708987
_cell_length_b 7.654682
_cell_length_c 25.462289
_cell_angle_alpha 90.000000
_cell_angle_beta 109.049246
_cell_angle_gamma 90.000000
_cell_volume 1051.780238
_symmetry_space_group_name_H-M "P 2/C"
_symmetry_group_IT_number 13
_symmetry_cell_setting 'monoclinic'
loop_
_space_group_symop_operation_xyz
x,y,z
-x,y,1/2-z
-x,-y,-z
x,-y,1/2+z
loop_
_atom_site_type_symbol
_atom_site_label
_atom_site_fract_x
_atom_site_fract_y
_atom_site_fract_z
Si Si1 0.303475 0.605328 0.544061
Si Si2 0.586140 0.234907 0.966561
Si Si3 0.302591 0.740192 0.854180
Si Si4 0.037422 0.094204 0.433270
Si Si5 0.500000 0.686837 0.250000
Si Si6 0.419589 0.913887 0.139942
Si Si7 0.000000 0.519527 0.750000
O O1 0.237333 0.402444 0.533298
O O2 0.400349 0.683905 0.496029
O O3 0.528914 0.602170 0.602528
O O4 0.128291 0.747647 0.557071
O O5 0.460093 0.169028 0.903996
O O6 0.746870 0.083410 0.007193
O O7 0.157965 0.837642 0.889275
O O8 0.118641 0.643046 0.802596
O O9 0.469286 0.893491 0.840771
O O10 0.859618 0.938117 0.402809
O O11 0.445722 0.800043 0.193686
O O12 0.241051 0.584557 0.244432
#
# Coordination Sequence:
#
# PCOD9231373 Si02
#       7
#     4   4   4   4   2   4   2
#     4   9  20  40  64 102 141 187 239 294 367 439
#     4  10  20  39  65 101 142 186 238 301 362 443
#     4  10  25  43  72  99 144 189 242 301 373 442
#     4  10  22  39  67 104 139 191 232 297 378 439
#     4  12  32  52  78 112 144 198 254 314 366 438
#     4  11  26  43  70 103 148 181 249 303 378 424
#     4  12  30  52  80 104 146 200 258 300 376 442
#
# _framework density 22.818453999999999
#
# number of rings (size 3 to 8) (size 9 to 14) (size 15 to 20)
#    0.000    1.667    0.000    2.000   11.667    7.333 
#    0.000    0.000    0.000    0.000    0.000    0.000 
#    0.000    0.000    0.000    0.000    0.000    0.000 
#
# Total GULP energy -134046.697306 kJ/mol
# GULP energy per Si atom -5585.279054 kJ/mol
# Density = 2.276652 g / cm^3
# Si number density = 22.818454 Si / 1000 Ang^3
#
#
#
# Elastic Constant Matrix: (Units=GPa)
#
#
# Indices 1 2 3 4 5 6 
#
# 1 74.5008 32.4302 34.5208 0.0000 8.3853 0.0000
# 2 32.4302 112.5566 64.3957 0.0000 13.0730 0.0000
# 3 34.5208 64.3957 196.3883 0.0000 9.7266 0.0000
# 4 0.0000 0.0000 0.0000 28.6062 0.0000 26.8111
# 5 8.3853 13.0730 9.7266 0.0000 20.9896 0.0000
# 6 0.0000 0.0000 0.0000 26.8111 0.0000 23.3384
#
#
#
# Elastic Compliance Matrix: (Units=1/GPa)
#
#
# Indices 1 2 3 4 5 6 
#
# 1 0.015983 -0.003300 -0.001549 0.000000 -0.003613 0.000000
# 2 -0.003300 0.012218 -0.003188 0.000000 -0.004814 0.000000
# 3 -0.001549 -0.003188 0.006428 0.000000 -0.000375 0.000000
# 4 0.000000 0.000000 0.000000 -0.455718 0.000000 0.523527
# 5 -0.003613 -0.004814 -0.000375 0.000000 0.052258 0.000000
# 6 0.000000 0.000000 0.000000 0.523527 0.000000 -0.558578
#
#
# Mechanical properties :
#
#
# Convention : Reuss Voigt Hill
#
# Bulk Modulus (GPa) = 53.88761 71.79323 62.84042
# Shear Modulus (GPa) = -5.52394 31.39345 12.93475
#
# Velocity S-wave (km/s) = -1.55759 3.71319 2.38345
# Velocity P-wave (km/s) = 4.52021 7.06504 5.93073
#
# Compressibility (1/GPa) = 0.01855714
#
# Stress axis : x y z
#
# Youngs Moduli (GPa) = 62.56594 81.84574 155.56857
#
# Poissons Ratio (x) = 0.27005 0.24092
# Poissons Ratio (y) = 0.20644 0.49594
# Poissons Ratio (z) = 0.09689 0.26092
#
# Static dielectric constant tensor:
#      x y z
#    x 1.989220 0.000000 0.036910 
#    y 0.000000 1.882400 0.000000 
#    z 0.036910 0.000000 1.798520 
# 
# From -- ./inp_files/83331.got.cif
#   From: 2010.05.17/outbox.cif.g08.bks.cpg/sg13_42_cif.got.tgz:83331.got - 2010.06.03 16:44:36.
