data_PCOD9231090
_publ_section_title
;
Structure prediction by ZEFSAII (Michael W. Deem and Ramdas Pophale) SiO2 
 PCOD9231090
Probable space group: P 2/C
;
_chemical_formula_sum "Si O2"
_cell_formula_units_Z 20
_cell_length_a 7.590234
_cell_length_b 23.386781
_cell_length_c 7.843700
_cell_angle_alpha 90.000000
_cell_angle_beta 37.492047
_cell_angle_gamma 90.000000
_cell_volume 847.452067
_symmetry_space_group_name_H-M "P 2/C"
_symmetry_group_IT_number 13
_symmetry_cell_setting 'monoclinic'
loop_
_space_group_symop_operation_xyz
x,y,z
-x,y,1/2-z
-x,-y,-z
x,-y,1/2+z
loop_
_atom_site_type_symbol
_atom_site_label
_atom_site_fract_x
_atom_site_fract_y
_atom_site_fract_z
Si Si1 0.339315 0.055469 0.048000
Si Si2 0.827639 0.641480 0.548462
Si Si3 0.308569 0.451656 0.059341
Si Si4 0.586907 0.827093 0.384407
Si Si5 0.908026 0.762381 0.621241
O O1 0.000000 0.051253 0.250000
O O2 0.500000 0.062474 0.750000
O O3 0.446143 0.113500 0.059388
O O4 0.500000 0.000000 0.000000
O O5 0.500000 0.654877 0.750000
O O6 0.787781 0.597558 0.734881
O O7 0.973560 0.700352 0.497163
O O8 0.000000 0.619492 0.250000
O O9 0.000000 0.478806 0.250000
O O10 0.500000 0.430909 0.750000
O O11 0.500000 0.500000 0.000000
O O12 0.500000 0.822768 0.250000
O O13 0.428382 0.777540 0.609540
O O14 0.923477 0.811993 0.111634
O O15 0.000000 0.763480 0.750000
#
# Coordination Sequence:
#
# PCOD9231090 Si02
#       5
#     4   4   4   4   4
#     4  11  22  39  61  91 128 172 221 278 339 405
#     4  12  26  45  67 100 142 179 219 281 348 408
#     4  12  27  49  76 106 140 185 234 282 336 407
#     4   9  18  35  61  87 118 163 217 270 327 398
#     4  10  20  38  64  90 118 165 222 271 325 398
#
# _framework density 23.600155000000001
#
# number of rings (size 3 to 8) (size 9 to 14) (size 15 to 20)
#    0.000    1.200    0.000    7.800    0.000    4.000 
#    0.000    6.000    0.000    0.000    0.000    0.000 
#    0.000    0.000    0.000    0.000    0.000    0.000 
#
# Total GULP energy -111588.978892 kJ/mol
# GULP energy per Si atom -5579.448945 kJ/mol
# Density = 2.354644 g / cm^3
# Si number density = 23.600155 Si / 1000 Ang^3
#
#
#
# Elastic Constant Matrix: (Units=GPa)
#
#
# Indices 1 2 3 4 5 6 
#
# 1 73.4071 36.8180 51.0546 0.0000 -2.3476 0.0000
# 2 36.8180 148.8023 61.4908 0.0000 5.1694 0.0000
# 3 51.0546 61.4908 196.4382 0.0000 -10.9966 0.0000
# 4 0.0000 0.0000 0.0000 31.7218 0.0000 -2.0121
# 5 -2.3476 5.1694 -10.9966 0.0000 48.9222 0.0000
# 6 0.0000 0.0000 0.0000 -2.0121 0.0000 11.2716
#
#
#
# Elastic Compliance Matrix: (Units=1/GPa)
#
#
# Indices 1 2 3 4 5 6 
#
# 1 0.017615 -0.002854 -0.003666 0.000000 0.000323 0.000000
# 2 -0.002854 0.008274 -0.001929 0.000000 -0.001445 0.000000
# 3 -0.003666 -0.001929 0.006734 0.000000 0.001541 0.000000
# 4 0.000000 0.000000 0.000000 0.031885 0.000000 0.005692
# 5 0.000323 -0.001445 0.001541 0.000000 0.020955 0.000000
# 6 0.000000 0.000000 0.000000 0.005692 0.000000 0.089735
#
#
# Mechanical properties :
#
#
# Convention : Reuss Voigt Hill
#
# Bulk Modulus (GPa) = 63.60322 79.70824 71.65573
# Shear Modulus (GPa) = 25.33721 36.33539 30.83630
#
# Velocity S-wave (km/s) = 3.28014 3.92806 3.61863
# Velocity P-wave (km/s) = 6.43076 7.37704 6.92009
#
# Compressibility (1/GPa) = 0.01572247
#
# Stress axis : x y z
#
# Youngs Moduli (GPa) = 56.77071 120.86157 148.50666
#
# Poissons Ratio (x) = 0.34500 0.54450
# Poissons Ratio (y) = 0.16205 0.28647
# Poissons Ratio (z) = 0.20815 0.23314
#
# Static dielectric constant tensor:
#      x y z
#    x 1.971140 0.000000 -0.127890 
#    y 0.000000 2.293960 0.000000 
#    z -0.127890 0.000000 2.243280 
# 
# From -- ./inp_files/13795.got.cif
#   From: 2010.05.17/outbox.cif.g08.bks.cpg/sg13_7_cif.got.tgz:13795.got - 2010.06.03 16:44:36.
