data_PCOD9231374
_publ_section_title
;
Structure prediction by ZEFSAII (Michael W. Deem and Ramdas Pophale) SiO2 
 PCOD9231374
Probable space group: P 2/C
;
_chemical_formula_sum "Si O2"
_cell_formula_units_Z 28
_cell_length_a 24.911841
_cell_length_b 8.957816
_cell_length_c 22.983264
_cell_angle_alpha 90.000000
_cell_angle_beta 17.304647
_cell_angle_gamma 90.000000
_cell_volume 1525.587113
_symmetry_space_group_name_H-M "P 2/C"
_symmetry_group_IT_number 13
_symmetry_cell_setting 'monoclinic'
loop_
_space_group_symop_operation_xyz
x,y,z
-x,y,1/2-z
-x,-y,-z
x,-y,1/2+z
loop_
_atom_site_type_symbol
_atom_site_label
_atom_site_fract_x
_atom_site_fract_y
_atom_site_fract_z
Si Si1 0.245660 0.298533 0.155362
Si Si2 0.306049 0.553372 0.177982
Si Si3 0.472728 0.954270 0.096102
Si Si4 0.469508 0.265250 0.405416
Si Si5 0.776987 0.447691 0.913324
Si Si6 0.201156 0.529401 0.971675
Si Si7 0.843205 0.261460 0.561929
O O1 0.219210 0.410973 0.237033
O O2 0.291990 0.410102 0.053544
O O3 0.053620 0.227154 0.339423
O O4 0.390615 0.176506 0.024818
O O5 0.196002 0.630280 0.342743
O O6 0.500000 0.500000 0.000000
O O7 0.352330 0.671860 0.080331
O O8 0.275624 0.883765 0.306689
O O9 0.494164 0.095231 0.116251
O O10 0.500000 0.000000 0.000000
O O11 0.345427 0.307837 0.478798
O O12 0.655193 0.359186 0.206506
O O13 0.990667 0.427990 0.678003
O O14 0.765751 0.472174 0.993644
O O15 0.220127 0.363183 0.926468
#
# Coordination Sequence:
#
# PCOD9231374 Si02
#       7
#     4   4   4   4   4   4   4
#     4  10  22  37  60  85 113 151 193 238 283 330
#     4  11  17  36  57  83 116 145 191 240 276 330
#     4  12  24  39  52  83 127 156 183 226 281 353
#     4  11  21  35  57  82 118 154 183 226 285 340
#     4   9  21  40  62  88 108 140 198 247 277 330
#     4  10  20  39  65  85 109 145 192 244 287 323
#     4  11  21  37  60  86 113 152 192 234 287 332
#
# _framework density 18.353588999999999
#
# number of rings (size 3 to 8) (size 9 to 14) (size 15 to 20)
#    0.000    1.429    4.286    1.714    0.000    1.714 
#    0.000    2.857    0.000    3.429    0.000    0.000 
#    0.000    0.000    0.000    0.000    0.000    0.000 
#
# Total GULP energy -156244.426477 kJ/mol
# GULP energy per Si atom -5580.158088 kJ/mol
# Density = 1.831182 g / cm^3
# Si number density = 18.353589 Si / 1000 Ang^3
#
#
#
# Elastic Constant Matrix: (Units=GPa)
#
#
# Indices 1 2 3 4 5 6 
#
# 1 96.8425 39.3189 19.2039 0.0000 -3.1825 0.0000
# 2 39.3189 91.6283 25.4033 0.0000 -14.1091 0.0000
# 3 19.2039 25.4033 55.4351 0.0000 -6.5547 0.0000
# 4 0.0000 0.0000 0.0000 22.8421 0.0000 -6.1555
# 5 -3.1825 -14.1091 -6.5547 0.0000 25.1678 0.0000
# 6 0.0000 0.0000 0.0000 -6.1555 0.0000 21.0050
#
#
#
# Elastic Compliance Matrix: (Units=1/GPa)
#
#
# Indices 1 2 3 4 5 6 
#
# 1 0.012810 -0.005147 -0.002300 0.000000 -0.001864 0.000000
# 2 -0.005147 0.015413 -0.004473 0.000000 0.006825 0.000000
# 3 -0.002300 -0.004473 0.021208 0.000000 0.002725 0.000000
# 4 0.000000 0.000000 0.000000 0.047533 0.000000 0.013930
# 5 -0.001864 0.006825 0.002725 0.000000 0.044033 0.000000
# 6 0.000000 0.000000 0.000000 0.013930 0.000000 0.051690
#
#
# Mechanical properties :
#
#
# Convention : Reuss Voigt Hill
#
# Bulk Modulus (GPa) = 39.07442 45.75091 42.41266
# Shear Modulus (GPa) = 22.21655 24.46827 23.34241
#
# Velocity S-wave (km/s) = 3.48296 3.65521 3.57012
# Velocity P-wave (km/s) = 6.12460 6.54184 6.33665
#
# Compressibility (1/GPa) = 0.02559219
#
# Stress axis : x y z
#
# Youngs Moduli (GPa) = 78.06165 64.87936 47.15225
#
# Poissons Ratio (x) = 0.33391 0.10844
# Poissons Ratio (y) = 0.40175 0.21093
# Poissons Ratio (z) = 0.17953 0.29022
#
# Static dielectric constant tensor:
#      x y z
#    x 1.672950 0.000000 -0.003910 
#    y 0.000000 1.612690 0.000000 
#    z -0.003910 0.000000 1.653130 
# 
# From -- ./inp_files/82125.got.cif
#   From: 2010.05.17/outbox.cif.g08.bks.cpg/sg13_42_cif.got.tgz:82125.got - 2010.06.03 16:44:36.
