data_PCOD9231011
_publ_section_title
;
Structure prediction by ZEFSAII (Michael W. Deem and Ramdas Pophale) SiO2 
 PCOD9231011
Probable space group: P 2/C
;
_chemical_formula_sum "Si O2"
_cell_formula_units_Z 26
_cell_length_a 23.685453
_cell_length_b 11.104474
_cell_length_c 23.561172
_cell_angle_alpha 90.000000
_cell_angle_beta 168.262403
_cell_angle_gamma 90.000000
_cell_volume 1260.640248
_symmetry_space_group_name_H-M "P 2/C"
_symmetry_group_IT_number 13
_symmetry_cell_setting 'monoclinic'
loop_
_space_group_symop_operation_xyz
x,y,z
-x,y,1/2-z
-x,-y,-z
x,-y,1/2+z
loop_
_atom_site_type_symbol
_atom_site_label
_atom_site_fract_x
_atom_site_fract_y
_atom_site_fract_z
Si Si1 0.649846 0.279161 0.082143
Si Si2 0.587542 0.683324 0.770330
Si Si3 0.000000 0.616288 0.750000
Si Si4 0.238945 0.011342 0.283243
Si Si5 0.114179 0.364513 0.613327
Si Si6 0.557942 0.413091 0.733394
Si Si7 0.091502 0.775902 0.205918
O O1 0.956327 0.312357 0.403844
O O2 0.686476 0.136542 0.112329
O O3 0.436518 0.328901 0.920850
O O4 0.542074 0.347254 0.921054
O O5 0.500000 0.694280 0.750000
O O6 0.686995 0.546308 0.855272
O O7 0.333956 0.711327 0.479238
O O8 0.829423 0.773889 0.989653
O O9 0.736281 0.559534 0.523740
O O10 0.796146 0.667347 0.499503
O O11 0.185299 0.905761 0.275409
O O12 0.500000 0.000000 0.500000
O O13 0.000000 0.000000 0.000000
O O14 0.000000 0.500000 0.500000
O O15 0.024888 0.300559 0.583610
#
# Coordination Sequence:
#
# PCOD9231011 Si02
#       7
#     4   4   2   4   4   4   4
#     4  12  23  41  67  98 133 180 220 279 333 422
#     4  12  24  41  66  96 134 173 224 286 349 409
#     4  10  20  38  62  90 132 170 220 270 324 428
#     4  12  23  45  68  95 134 183 232 267 332 410
#     4  12  23  39  62 102 142 165 212 277 353 413
#     4  11  22  39  66  98 131 174 224 268 359 408
#     4  12  24  40  66  97 130 181 228 276 336 414
#
# _framework density 20.624441000000001
#
# number of rings (size 3 to 8) (size 9 to 14) (size 15 to 20)
#    0.000    0.308    4.615    6.462    0.000    0.000 
#    0.000    0.000    6.769    0.000    0.000    0.000 
#    0.000    0.000    0.000    0.000    0.000    0.000 
#
# Total GULP energy -144831.783332 kJ/mol
# GULP energy per Si atom -5570.453205 kJ/mol
# Density = 2.057750 g / cm^3
# Si number density = 20.624441 Si / 1000 Ang^3
#
#
#
# Elastic Constant Matrix: (Units=GPa)
#
#
# Indices 1 2 3 4 5 6 
#
# 1 106.1196 58.2827 28.1439 0.0000 -10.9621 0.0000
# 2 58.2827 128.7488 4.3558 0.0000 5.6317 0.0000
# 3 28.1439 4.3558 126.4392 0.0000 -1.6997 0.0000
# 4 0.0000 0.0000 0.0000 -3.5904 0.0000 13.1479
# 5 -10.9621 5.6317 -1.6997 0.0000 42.9198 0.0000
# 6 0.0000 0.0000 0.0000 13.1479 0.0000 13.4003
#
#
#
# Elastic Compliance Matrix: (Units=1/GPa)
#
#
# Indices 1 2 3 4 5 6 
#
# 1 0.014230 -0.006535 -0.002883 0.000000 0.004378 0.000000
# 2 -0.006535 0.010824 0.001041 0.000000 -0.003048 0.000000
# 3 -0.002883 0.001041 0.008508 0.000000 -0.000536 0.000000
# 4 0.000000 0.000000 0.000000 -0.060640 0.000000 0.059498
# 5 0.004378 -0.003048 -0.000536 0.000000 0.024796 0.000000
# 6 0.000000 0.000000 0.000000 0.059498 0.000000 0.016248
#
#
# Mechanical properties :
#
#
# Convention : Reuss Voigt Hill
#
# Bulk Modulus (GPa) = 59.50583 60.31914 59.91248
# Shear Modulus (GPa) = 137.65614 28.58095 83.11854
#
# Velocity S-wave (km/s) = 8.17857 3.72665 6.35519
# Velocity P-wave (km/s) = 10.86739 6.91571 9.10844
#
# Compressibility (1/GPa) = 0.01680508
#
# Stress axis : x y z
#
# Youngs Moduli (GPa) = 70.27585 92.38979 117.54093
#
# Poissons Ratio (x) = 0.60381 0.33891
# Poissons Ratio (y) = 0.45929 -0.12235
# Poissons Ratio (z) = 0.20263 -0.09617
#
# Static dielectric constant tensor:
#      x y z
#    x 1.780060 0.000000 0.001720 
#    y 0.000000 2.082690 0.000000 
#    z 0.001720 0.000000 1.826360 
# 
# From -- ./inp_files/89141.got.cif
#   From: 2010.05.17/outbox.cif.g08.bks.cpg/sg13_45_cif.got.tgz:89141.got - 2010.06.03 16:44:36.
