data_PCOD9231423
_publ_section_title
;
Structure prediction by ZEFSAII (Michael W. Deem and Ramdas Pophale) SiO2 
 PCOD9231423
Probable space group: P 2/C
;
_chemical_formula_sum "Si O2"
_cell_formula_units_Z 20
_cell_length_a 8.986877
_cell_length_b 4.975301
_cell_length_c 19.169674
_cell_angle_alpha 90.000000
_cell_angle_beta 74.664393
_cell_angle_gamma 90.000000
_cell_volume 826.603130
_symmetry_space_group_name_H-M "P 2/C"
_symmetry_group_IT_number 13
_symmetry_cell_setting 'monoclinic'
loop_
_space_group_symop_operation_xyz
x,y,z
-x,y,1/2-z
-x,-y,-z
x,-y,1/2+z
loop_
_atom_site_type_symbol
_atom_site_label
_atom_site_fract_x
_atom_site_fract_y
_atom_site_fract_z
Si Si1 0.478679 0.477505 0.672048
Si Si2 0.190515 0.445382 0.897826
Si Si3 0.857569 0.746156 0.464483
Si Si4 0.157636 0.554655 0.242514
Si Si5 0.257962 0.760088 0.609511
O O1 0.500000 0.578620 0.750000
O O2 0.633768 0.338250 0.626132
O O3 0.319675 0.306602 0.700398
O O4 0.427146 0.700371 0.621336
O O5 0.163917 0.525753 0.821469
O O6 0.044378 0.261118 0.935991
O O7 0.184118 0.698768 0.950064
O O8 0.791733 0.479879 0.435678
O O9 0.780401 0.982191 0.430636
O O10 0.000000 0.710868 0.250000
O O11 0.843172 0.298735 0.308802
#
# Coordination Sequence:
#
# PCOD9231423 Si02
#       5
#     4   4   4   4   4
#     4   8  18  38  69  94 135 171 231 281 338 396
#     4  10  20  39  67  97 135 173 224 282 342 399
#     4  11  24  42  67  97 134 174 222 279 343 411
#     4   9  17  41  65  94 128 177 224 273 330 411
#     4  10  23  44  64  98 129 177 225 272 340 408
#
# _framework density 24.195408
#
# number of rings (size 3 to 8) (size 9 to 14) (size 15 to 20)
#    1.200    1.200    2.000    0.000    0.000    4.800 
#    3.600    3.000    0.000    0.000    0.000    0.000 
#    0.000    0.000    0.000    0.000    0.000    0.000 
#
# Total GULP energy -111398.597427 kJ/mol
# GULP energy per Si atom -5569.929871 kJ/mol
# Density = 2.414034 g / cm^3
# Si number density = 24.195408 Si / 1000 Ang^3
#
#
#
# Elastic Constant Matrix: (Units=GPa)
#
#
# Indices 1 2 3 4 5 6 
#
# 1 187.0655 18.3335 35.0168 0.0000 -17.1657 0.0000
# 2 18.3335 85.0554 9.3725 0.0000 9.1750 0.0000
# 3 35.0168 9.3725 79.5154 0.0000 -8.4273 0.0000
# 4 0.0000 0.0000 0.0000 4.4066 0.0000 -2.3313
# 5 -17.1657 9.1750 -8.4273 0.0000 37.8604 0.0000
# 6 0.0000 0.0000 0.0000 -2.3313 0.0000 25.9360
#
#
#
# Elastic Compliance Matrix: (Units=1/GPa)
#
#
# Indices 1 2 3 4 5 6 
#
# 1 0.006143 -0.001355 -0.002269 0.000000 0.002608 0.000000
# 2 -0.001355 0.012621 -0.001311 0.000000 -0.003965 0.000000
# 3 -0.002269 -0.001311 0.013984 0.000000 0.002402 0.000000
# 4 0.000000 0.000000 0.000000 0.238262 0.000000 0.021417
# 5 0.002608 -0.003965 0.002402 0.000000 0.029091 0.000000
# 6 0.000000 0.000000 0.000000 0.021417 0.000000 0.040482
#
#
# Mechanical properties :
#
#
# Convention : Reuss Voigt Hill
#
# Bulk Modulus (GPa) = 43.71039 53.00911 48.35975
# Shear Modulus (GPa) = 13.96339 32.90149 23.43244
#
# Velocity S-wave (km/s) = 2.40492 3.69158 3.11540
# Velocity P-wave (km/s) = 5.08097 6.33456 5.74208
#
# Compressibility (1/GPa) = 0.02287786
#
# Stress axis : x y z
#
# Youngs Moduli (GPa) = 162.79678 79.23068 71.50817
#
# Poissons Ratio (x) = 0.10739 0.16224
# Poissons Ratio (y) = 0.22065 0.09375
# Poissons Ratio (z) = 0.36936 0.10387
#
# Static dielectric constant tensor:
#      x y z
#    x 2.046330 0.000000 -0.026460 
#    y 0.000000 1.921430 0.000000 
#    z -0.026460 0.000000 1.931860 
# 
# From -- ./inp_files/74459.got.cif
#   From: 2010.05.17/outbox.cif.g08.bks.cpg/sg13_38_cif.got.tgz:74459.got - 2010.06.03 16:44:36.
