data_PCOD9231381
_publ_section_title
;
Structure prediction by ZEFSAII (Michael W. Deem and Ramdas Pophale) SiO2 
 PCOD9231381
Probable space group: P 2/C
;
_chemical_formula_sum "Si O2"
_cell_formula_units_Z 32
_cell_length_a 15.029862
_cell_length_b 11.987222
_cell_length_c 17.760367
_cell_angle_alpha 90.000000
_cell_angle_beta 150.439696
_cell_angle_gamma 90.000000
_cell_volume 1578.596826
_symmetry_space_group_name_H-M "P 2/C"
_symmetry_group_IT_number 13
_symmetry_cell_setting 'monoclinic'
loop_
_space_group_symop_operation_xyz
x,y,z
-x,y,1/2-z
-x,-y,-z
x,-y,1/2+z
loop_
_atom_site_type_symbol
_atom_site_label
_atom_site_fract_x
_atom_site_fract_y
_atom_site_fract_z
Si Si1 0.205665 0.681386 0.871014
Si Si2 0.219718 0.542018 0.731941
Si Si3 0.806882 0.059609 0.151316
Si Si4 0.004004 0.325490 0.949459
Si Si5 0.967830 0.927233 0.402183
Si Si6 0.439309 0.480807 0.618928
Si Si7 0.810975 0.684255 0.067784
Si Si8 0.332847 0.909212 0.571394
O O1 0.247291 0.603766 0.830346
O O2 0.226809 0.809824 0.862946
O O3 0.000000 0.665860 0.750000
O O4 0.350096 0.639777 0.038863
O O5 0.088565 0.624449 0.587674
O O6 0.394538 0.513960 0.811601
O O7 0.129044 0.421650 0.676930
O O8 0.000000 0.050997 0.250000
O O9 0.827744 0.988282 0.243025
O O10 0.665520 0.005641 0.989625
O O11 0.924166 0.200734 0.893289
O O12 0.155814 0.319487 0.997249
O O13 0.153321 0.922523 0.490400
O O14 0.000000 0.000000 0.500000
O O15 0.500000 0.491647 0.750000
O O16 0.284502 0.569575 0.484424
O O17 0.000000 0.698901 0.250000
O O18 0.689315 0.792974 0.990030
O O19 0.500000 0.907733 0.750000
#
# Coordination Sequence:
#
# PCOD9231381 Si02
#       8
#     4   4   4   4   4   4   4   4
#     4  11  24  41  65  87 126 174 209 251 320 384
#     4  11  23  40  61  95 130 160 209 263 316 376
#     4   9  20  41  61  89 120 163 213 252 305 384
#     4  10  21  37  64  91 124 163 205 256 317 378
#     4  10  20  39  65  90 120 166 210 252 310 380
#     4  12  24  40  62  95 130 161 215 266 317 372
#     4  11  21  39  66  93 122 167 210 256 320 383
#     4  10  21  38  64  91 123 158 206 267 314 365
#
# _framework density 20.271166999999998
#
# number of rings (size 3 to 8) (size 9 to 14) (size 15 to 20)
#    0.000    1.500    1.250    5.250    3.500    0.500 
#    2.250    0.625    0.000    0.000    0.000    0.000 
#    0.000    0.000    0.000    0.000    0.000    0.000 
#
# Total GULP energy -178683.561160 kJ/mol
# GULP energy per Si atom -5583.861286 kJ/mol
# Density = 2.022503 g / cm^3
# Si number density = 20.271167 Si / 1000 Ang^3
#
#
#
# Elastic Constant Matrix: (Units=GPa)
#
#
# Indices 1 2 3 4 5 6 
#
# 1 49.7868 39.5753 5.4644 0.0000 -13.4075 0.0000
# 2 39.5753 172.5107 60.4783 0.0000 -15.1620 0.0000
# 3 5.4644 60.4783 111.9959 0.0000 -21.9202 0.0000
# 4 0.0000 0.0000 0.0000 15.6793 0.0000 -11.1288
# 5 -13.4075 -15.1620 -21.9202 0.0000 23.6136 0.0000
# 6 0.0000 0.0000 0.0000 -11.1288 0.0000 19.2708
#
#
#
# Elastic Compliance Matrix: (Units=1/GPa)
#
#
# Indices 1 2 3 4 5 6 
#
# 1 0.030215 -0.007485 0.006091 0.000000 0.018005 0.000000
# 2 -0.007485 0.009034 -0.005144 0.000000 -0.003225 0.000000
# 3 0.006091 -0.005144 0.013980 0.000000 0.013133 0.000000
# 4 0.000000 0.000000 0.000000 0.108079 0.000000 0.062415
# 5 0.018005 -0.003225 0.013133 0.000000 0.062692 0.000000
# 6 0.000000 0.000000 0.000000 0.062415 0.000000 0.087936
#
#
# Mechanical properties :
#
#
# Convention : Reuss Voigt Hill
#
# Bulk Modulus (GPa) = 24.90400 60.59216 42.74808
# Shear Modulus (GPa) = 14.77560 26.96444 20.87002
#
# Velocity S-wave (km/s) = 2.70274 3.65113 3.21213
# Velocity P-wave (km/s) = 4.69594 6.90869 5.90685
#
# Compressibility (1/GPa) = 0.04015419
#
# Stress axis : x y z
#
# Youngs Moduli (GPa) = 33.09585 110.69479 71.53040
#
# Poissons Ratio (x) = 0.82852 -0.43573
# Poissons Ratio (y) = 0.24771 0.36797
# Poissons Ratio (z) = -0.20160 0.56944
#
# Static dielectric constant tensor:
#      x y z
#    x 1.575900 0.000000 0.058170 
#    y 0.000000 1.745390 0.000000 
#    z 0.058170 0.000000 1.696640 
# 
# From -- ./inp_files/68715.got.cif
#   From: 2010.05.17/outbox.cif.g08.bks.cpg/sg13_35_cif.got.tgz:68715.got - 2010.06.03 16:44:36.
