data_PCOD9231352
_publ_section_title
;
Structure prediction by ZEFSAII (Michael W. Deem and Ramdas Pophale) SiO2 
 PCOD9231352
Probable space group: P 2/C
;
_chemical_formula_sum "Si O2"
_cell_formula_units_Z 26
_cell_length_a 12.917084
_cell_length_b 15.376568
_cell_length_c 13.208695
_cell_angle_alpha 90.000000
_cell_angle_beta 153.830998
_cell_angle_gamma 90.000000
_cell_volume 1157.024205
_symmetry_space_group_name_H-M "P 2/C"
_symmetry_group_IT_number 13
_symmetry_cell_setting 'monoclinic'
loop_
_space_group_symop_operation_xyz
x,y,z
-x,y,1/2-z
-x,-y,-z
x,-y,1/2+z
loop_
_atom_site_type_symbol
_atom_site_label
_atom_site_fract_x
_atom_site_fract_y
_atom_site_fract_z
Si Si1 0.389337 0.373192 0.433771
Si Si2 0.806794 0.770583 0.876273
Si Si3 0.000000 0.244191 0.750000
Si Si4 0.608771 0.110542 0.479002
Si Si5 0.156841 0.912303 0.113817
Si Si6 0.243748 0.512433 0.154706
Si Si7 0.000000 0.560584 0.750000
Si Si8 0.500000 0.043415 0.750000
O O1 0.340811 0.283176 0.335269
O O2 0.398005 0.438294 0.343580
O O3 0.624810 0.397059 0.702340
O O4 0.171045 0.390294 0.319820
O O5 0.638071 0.847344 0.766563
O O6 0.895674 0.715895 0.053291
O O7 0.010212 0.824315 0.000380
O O8 0.199237 0.181350 0.881571
O O9 0.640534 0.091344 0.624112
O O10 0.633111 0.020444 0.443880
O O11 0.293277 0.910089 0.128339
O O12 0.000000 0.000000 0.000000
O O13 0.000000 0.500000 0.000000
O O14 0.178850 0.508430 0.979937
#
# Coordination Sequence:
#
# PCOD9231352 Si02
#       8
#     4   4   2   4   4   4   2   2
#     4  10  22  41  65  98 138 173 218 274 334 408
#     4  11  23  41  64  97 138 175 227 289 346 406
#     4  10  20  39  64  89 128 176 224 278 352 405
#     4  11  21  41  62  89 123 173 227 292 348 400
#     4  11  24  41  63  93 129 174 237 290 344 421
#     4   9  20  40  69  95 126 174 218 261 322 408
#     4  10  20  41  68  97 134 176 218 258 334 399
#     4  12  20  40  66  88 124 182 230 292 350 408
#
# _framework density 22.471440000000001
#
# number of rings (size 3 to 8) (size 9 to 14) (size 15 to 20)
#    0.000    1.538    3.077    1.846    0.000    5.538 
#    2.769    7.692    0.000    0.000    0.000    0.000 
#    0.000    0.000    0.000    0.000    0.000    0.000 
#
# Total GULP energy -144932.974962 kJ/mol
# GULP energy per Si atom -5574.345191 kJ/mol
# Density = 2.242029 g / cm^3
# Si number density = 22.471440 Si / 1000 Ang^3
#
#
#
# Elastic Constant Matrix: (Units=GPa)
#
#
# Indices 1 2 3 4 5 6 
#
# 1 131.3162 28.6134 30.1153 0.0000 -4.9304 0.0000
# 2 28.6134 55.6933 21.0770 0.0000 -10.8132 0.0000
# 3 30.1153 21.0770 103.9111 0.0000 -20.4294 0.0000
# 4 0.0000 0.0000 0.0000 -62.2719 0.0000 36.8555
# 5 -4.9304 -10.8132 -20.4294 0.0000 40.9003 0.0000
# 6 0.0000 0.0000 0.0000 36.8555 0.0000 3.2593
#
#
#
# Elastic Compliance Matrix: (Units=1/GPa)
#
#
# Indices 1 2 3 4 5 6 
#
# 1 0.008904 -0.004022 -0.001955 0.000000 -0.000966 0.000000
# 2 -0.004022 0.021733 -0.002449 0.000000 0.004038 0.000000
# 3 -0.001955 -0.002449 0.011658 0.000000 0.004940 0.000000
# 4 0.000000 0.000000 0.000000 -0.002088 0.000000 0.023606
# 5 -0.000966 0.004038 0.004940 0.000000 0.027868 0.000000
# 6 0.000000 0.000000 0.000000 0.023606 0.000000 0.039885
#
#
# Mechanical properties :
#
#
# Convention : Reuss Voigt Hill
#
# Bulk Modulus (GPa) = 39.30312 50.05910 44.68111
# Shear Modulus (GPa) = 37.51167 10.45188 23.98177
#
# Velocity S-wave (km/s) = 4.09014 2.15900 3.27036
# Velocity P-wave (km/s) = 6.31141 5.34230 5.84697
#
# Compressibility (1/GPa) = 0.02544327
#
# Stress axis : x y z
#
# Youngs Moduli (GPa) = 112.31392 46.01377 85.77809
#
# Poissons Ratio (x) = 0.18508 0.16766
# Poissons Ratio (y) = 0.45176 0.21004
# Poissons Ratio (z) = 0.21952 0.11267
#
# Static dielectric constant tensor:
#      x y z
#    x 1.862140 0.000000 0.010850 
#    y 0.000000 1.864750 0.000000 
#    z 0.010850 0.000000 1.858170 
# 
# From -- ./inp_files/34813.got.cif
#   From: 2010.05.17/outbox.cif.g08.bks.cpg/sg13_18_cif.got.tgz:34813.got - 2010.06.03 16:44:36.
