data_PCOD9231025
_publ_section_title
;
Structure prediction by ZEFSAII (Michael W. Deem and Ramdas Pophale) SiO2 
 PCOD9231025
Probable space group: P 2/C
;
_chemical_formula_sum "Si O2"
_cell_formula_units_Z 26
_cell_length_a 27.240575
_cell_length_b 5.007296
_cell_length_c 19.596194
_cell_angle_alpha 90.000000
_cell_angle_beta 156.892394
_cell_angle_gamma 90.000000
_cell_volume 1049.024910
_symmetry_space_group_name_H-M "P 2/C"
_symmetry_group_IT_number 13
_symmetry_cell_setting 'monoclinic'
loop_
_space_group_symop_operation_xyz
x,y,z
-x,y,1/2-z
-x,-y,-z
x,-y,1/2+z
loop_
_atom_site_type_symbol
_atom_site_label
_atom_site_fract_x
_atom_site_fract_y
_atom_site_fract_z
Si Si1 0.777922 0.248629 0.384813
Si Si2 0.170685 0.248025 0.373464
Si Si3 0.745062 0.271385 0.756287
Si Si4 0.598073 0.389835 0.743174
Si Si5 0.500000 0.685612 0.750000
Si Si6 0.500000 0.500000 0.500000
Si Si7 0.000000 0.559436 0.250000
Si Si8 0.232886 0.770584 0.371532
O O1 0.811881 0.462435 0.369883
O O2 0.649532 0.379506 0.253466
O O3 0.882828 0.266688 0.576363
O O4 0.768177 0.965592 0.338489
O O5 0.280584 0.240709 0.571805
O O6 0.215314 0.468727 0.375274
O O7 0.050251 0.368340 0.255183
O O8 0.150069 0.968757 0.310534
O O9 0.600489 0.351072 0.576601
O O10 0.785200 0.204010 0.731483
O O11 0.531947 0.509960 0.724413
O O12 0.514088 0.253332 0.579385
O O13 0.375893 0.849691 0.573759
#
# Coordination Sequence:
#
# PCOD9231025 Si02
#       8
#     4   4   4   4   2   2   2   4
#     4  10  24  42  69  98 135 175 246 293 347 420
#     4  10  24  42  69  95 134 174 244 290 347 420
#     4  11  23  43  65 102 142 181 229 289 348 430
#     4   9  20  38  60  98 124 179 226 278 337 423
#     4  10  20  38  62  92 138 186 218 274 344 420
#     4  10  20  38  66  92 142 184 220 270 348 412
#     4  10  24  50  74  98 130 190 238 318 364 404
#     4  11  23  43  63 102 141 181 228 286 347 430
#
# _framework density 24.784922000000002
#
# number of rings (size 3 to 8) (size 9 to 14) (size 15 to 20)
#    0.000    1.846    1.538    0.923    0.000   18.462 
#    8.308    4.615    0.000    0.000    0.000    0.000 
#    0.000    0.000    0.000    0.000    0.000    0.000 
#
# Total GULP energy -145131.999025 kJ/mol
# GULP energy per Si atom -5581.999963 kJ/mol
# Density = 2.472851 g / cm^3
# Si number density = 24.784922 Si / 1000 Ang^3
#
#
#
# Elastic Constant Matrix: (Units=GPa)
#
#
# Indices 1 2 3 4 5 6 
#
# 1 155.5276 13.8165 21.0222 0.0000 -33.0049 0.0000
# 2 13.8165 91.0447 14.2945 0.0000 -12.2623 0.0000
# 3 21.0222 14.2945 55.2784 0.0000 -4.4719 0.0000
# 4 0.0000 0.0000 0.0000 14.7058 0.0000 -5.1598
# 5 -33.0049 -12.2623 -4.4719 0.0000 35.0987 0.0000
# 6 0.0000 0.0000 0.0000 -5.1598 0.0000 31.5125
#
#
#
# Elastic Compliance Matrix: (Units=1/GPa)
#
#
# Indices 1 2 3 4 5 6 
#
# 1 0.008383 0.000163 -0.002615 0.000000 0.007607 0.000000
# 2 0.000163 0.011937 -0.002828 0.000000 0.003963 0.000000
# 3 -0.002615 -0.002828 0.019741 0.000000 -0.000932 0.000000
# 4 0.000000 0.000000 0.000000 0.072145 0.000000 0.011813
# 5 0.007607 0.003963 -0.000932 0.000000 0.036910 0.000000
# 6 0.000000 0.000000 0.000000 0.011813 0.000000 0.033668
#
#
# Mechanical properties :
#
#
# Convention : Reuss Voigt Hill
#
# Bulk Modulus (GPa) = 33.89798 44.45745 39.17772
# Shear Modulus (GPa) = 24.60917 33.11122 28.86020
#
# Velocity S-wave (km/s) = 3.15446 3.65902 3.41607
# Velocity P-wave (km/s) = 5.19366 5.98561 5.60364
#
# Compressibility (1/GPa) = 0.02950028
#
# Stress axis : x y z
#
# Youngs Moduli (GPa) = 119.29045 83.77532 50.65709
#
# Poissons Ratio (x) = -0.01365 0.13246
# Poissons Ratio (y) = -0.01943 0.14326
# Poissons Ratio (z) = 0.31192 0.23692
#
# Static dielectric constant tensor:
#      x y z
#    x 1.829290 0.000000 0.223900 
#    y 0.000000 1.596980 0.000000 
#    z 0.223900 0.000000 1.450930 
# 
# From -- ./inp_files/71006.got.cif
#   From: 2010.05.17/outbox.cif.g08.bks.cpg/sg13_36_cif.got.tgz:71006.got - 2010.06.03 16:44:36.
