data_PCOD9231689
_publ_section_title
;
Structure prediction by ZEFSAII (Michael W. Deem and Ramdas Pophale) SiO2 
 PCOD9231689
Probable space group: P 2/C
;
_chemical_formula_sum "Si O2"
_cell_formula_units_Z 26
_cell_length_a 20.648714
_cell_length_b 5.253295
_cell_length_c 8.868540
_cell_angle_alpha 90.000000
_cell_angle_beta 86.885760
_cell_angle_gamma 90.000000
_cell_volume 960.583422
_symmetry_space_group_name_H-M "P 2/C"
_symmetry_group_IT_number 13
_symmetry_cell_setting 'monoclinic'
loop_
_space_group_symop_operation_xyz
x,y,z
-x,y,1/2-z
-x,-y,-z
x,-y,1/2+z
loop_
_atom_site_type_symbol
_atom_site_label
_atom_site_fract_x
_atom_site_fract_y
_atom_site_fract_z
Si Si1 0.582589 0.813426 0.999336
Si Si2 0.691085 0.161922 0.913410
Si Si3 0.500000 0.134366 0.250000
Si Si4 0.000000 0.500000 0.500000
Si Si5 0.884758 0.250745 0.143108
Si Si6 0.808821 0.836793 0.946637
Si Si7 0.296204 0.472967 0.863199
Si Si8 0.000000 0.900967 0.250000
O O1 0.622577 0.032828 0.906849
O O2 0.540344 0.698258 0.867195
O O3 0.540627 0.951767 0.132745
O O4 0.639003 0.649394 0.070062
O O5 0.750557 0.983525 0.870914
O O6 0.698739 0.409228 0.811014
O O7 0.699470 0.237923 0.086621
O O8 0.922346 0.499918 0.575945
O O9 0.020242 0.276829 0.611360
O O10 0.845500 0.297838 0.303154
O O11 0.848091 0.058769 0.032317
O O12 0.945713 0.090720 0.198774
O O13 0.770853 0.645102 0.063630
#
# Coordination Sequence:
#
# PCOD9231689 Si02
#       8
#     4   4   2   2   4   4   4   2
#     4  10  22  43  66  95 147 186 245 292 355 421
#     4  11  25  43  69 107 138 188 234 307 360 421
#     4  10  20  40  70  94 134 208 236 286 352 426
#     4  12  28  46  76 102 140 194 226 284 372 428
#     4  12  26  51  70 108 142 188 235 301 356 451
#     4  11  26  48  75 100 145 179 243 294 360 431
#     4  11  25  43  69 104 139 184 235 304 360 421
#     4  12  28  48  72 104 146 184 234 288 356 438
#
# _framework density 27.066880999999999
#
# number of rings (size 3 to 8) (size 9 to 14) (size 15 to 20)
#    0.000    0.923    4.615    0.923    6.462    2.462 
#    0.000    4.615    0.000    0.000    0.000    0.000 
#    0.000    0.000    0.000    0.000    0.000    0.000 
#
# Total GULP energy -145179.435750 kJ/mol
# GULP energy per Si atom -5583.824452 kJ/mol
# Density = 2.700528 g / cm^3
# Si number density = 27.066881 Si / 1000 Ang^3
#
#
#
# Elastic Constant Matrix: (Units=GPa)
#
#
# Indices 1 2 3 4 5 6 
#
# 1 134.3118 -4.4003 65.8501 0.0000 -3.7145 0.0000
# 2 -4.4003 14.9340 18.3624 0.0000 11.8785 0.0000
# 3 65.8501 18.3624 123.8496 0.0000 3.1294 0.0000
# 4 0.0000 0.0000 0.0000 39.6492 0.0000 -7.2193
# 5 -3.7145 11.8785 3.1294 0.0000 46.6427 0.0000
# 6 0.0000 0.0000 0.0000 -7.2193 0.0000 31.7872
#
#
#
# Elastic Compliance Matrix: (Units=1/GPa)
#
#
# Indices 1 2 3 4 5 6 
#
# 1 0.012323 0.016815 -0.008977 0.000000 -0.002699 0.000000
# 2 0.016815 0.129177 -0.027342 0.000000 -0.029724 0.000000
# 3 -0.008977 -0.027342 0.016772 0.000000 0.005123 0.000000
# 4 0.000000 0.000000 0.000000 0.026309 0.000000 0.005975
# 5 -0.002699 -0.029724 0.005123 0.000000 0.028451 0.000000
# 6 0.000000 0.000000 0.000000 0.005975 0.000000 0.032816
#
#
# Mechanical properties :
#
#
# Convention : Reuss Voigt Hill
#
# Bulk Modulus (GPa) = 8.38475 48.07998 28.23236
# Shear Modulus (GPa) = 15.40317 36.50137 25.95227
#
# Velocity S-wave (km/s) = 2.38812 3.67626 3.09984
# Velocity P-wave (km/s) = 3.27241 5.98513 4.82341
#
# Compressibility (1/GPa) = 0.11926420
#
# Stress axis : x y z
#
# Youngs Moduli (GPa) = 81.15083 7.74134 59.62490
#
# Poissons Ratio (x) = -0.13017 0.53524
# Poissons Ratio (y) = -1.36455 1.63024
# Poissons Ratio (z) = 0.72847 0.21166
#
# Static dielectric constant tensor:
#      x y z
#    x 2.622190 0.000000 -0.289130 
#    y 0.000000 2.130430 0.000000 
#    z -0.289130 0.000000 2.246670 
# 
# From -- ./inp_files/23759.got.cif
#   From: 2010.05.17/outbox.cif.g08.bks.cpg/sg13_12_cif.got.tgz:23759.got - 2010.06.03 16:44:36.
