data_PCOD9231589
_publ_section_title
;
Structure prediction by ZEFSAII (Michael W. Deem and Ramdas Pophale) SiO2 
 PCOD9231589
Probable space group: P 2/C
;
_chemical_formula_sum "Si O2"
_cell_formula_units_Z 26
_cell_length_a 11.419416
_cell_length_b 8.659237
_cell_length_c 27.225203
_cell_angle_alpha 90.000000
_cell_angle_beta 153.354387
_cell_angle_gamma 90.000000
_cell_volume 1207.337802
_symmetry_space_group_name_H-M "P 2/C"
_symmetry_group_IT_number 13
_symmetry_cell_setting 'monoclinic'
loop_
_space_group_symop_operation_xyz
x,y,z
-x,y,1/2-z
-x,-y,-z
x,-y,1/2+z
loop_
_atom_site_type_symbol
_atom_site_label
_atom_site_fract_x
_atom_site_fract_y
_atom_site_fract_z
Si Si1 0.188550 0.877092 0.214356
Si Si2 0.740587 0.700563 0.999335
Si Si3 0.043330 0.381828 0.404882
Si Si4 0.500000 0.062438 0.250000
Si Si5 0.156245 0.817762 0.758592
Si Si6 0.850831 0.308620 0.434535
Si Si7 0.529333 0.592964 0.206988
O O1 0.385204 0.732459 0.295783
O O2 0.900446 0.805892 0.097355
O O3 0.297433 0.967261 0.207109
O O4 0.187982 0.002943 0.256687
O O5 0.747818 0.520702 0.018553
O O6 0.447017 0.747824 0.875441
O O7 0.916449 0.721146 0.015595
O O8 0.009199 0.261049 0.348035
O O9 0.040529 0.308431 0.458483
O O10 0.772482 0.476657 0.299629
O O11 0.646926 0.176630 0.342538
O O12 0.000000 0.795572 0.750000
O O13 0.712381 0.476160 0.387607
O O14 0.500000 0.663109 0.250000
#
# Coordination Sequence:
#
# PCOD9231589 Si02
#       7
#     4   4   4   2   4   4   4
#     4  11  23  40  63 102 137 169 220 271 323 415
#     4  11  24  41  67 101 131 172 226 260 343 403
#     4  10  20  40  65 100 131 164 218 273 312 411
#     4  12  18  36  68  94 148 170 206 266 334 408
#     4  12  26  49  68  86 133 185 227 287 325 358
#     4  11  17  38  65  97 137 172 194 264 343 402
#     4   9  16  32  63  89 133 164 195 256 327 384
#
# _framework density 21.534984000000001
#
# number of rings (size 3 to 8) (size 9 to 14) (size 15 to 20)
#    0.000    1.231    7.692    0.462    0.000    1.846 
#    2.769    3.077    0.000    0.000    0.000    0.000 
#    0.000    0.000    0.000    0.000    0.000    0.000 
#
# Total GULP energy -145027.878825 kJ/mol
# GULP energy per Si atom -5577.995339 kJ/mol
# Density = 2.148597 g / cm^3
# Si number density = 21.534984 Si / 1000 Ang^3
#
#
#
# Elastic Constant Matrix: (Units=GPa)
#
#
# Indices 1 2 3 4 5 6 
#
# 1 82.8558 12.7452 8.6654 0.0000 1.9062 0.0000
# 2 12.7452 62.8573 14.6538 0.0000 1.4817 0.0000
# 3 8.6654 14.6538 76.8249 0.0000 6.5336 0.0000
# 4 0.0000 0.0000 0.0000 38.3319 0.0000 -10.6658
# 5 1.9062 1.4817 6.5336 0.0000 13.9760 0.0000
# 6 0.0000 0.0000 0.0000 -10.6658 0.0000 15.5206
#
#
#
# Elastic Compliance Matrix: (Units=1/GPa)
#
#
# Indices 1 2 3 4 5 6 
#
# 1 0.012541 -0.002312 -0.000884 0.000000 -0.001052 0.000000
# 2 -0.002312 0.017077 -0.002988 0.000000 -0.000098 0.000000
# 3 -0.000884 -0.002988 0.014214 0.000000 -0.006208 0.000000
# 4 0.000000 0.000000 0.000000 0.032256 0.000000 0.022166
# 5 -0.001052 -0.000098 -0.006208 0.000000 0.074607 0.000000
# 6 0.000000 0.000000 0.000000 0.022166 0.000000 0.079663
#
#
# Mechanical properties :
#
#
# Convention : Reuss Voigt Hill
#
# Bulk Modulus (GPa) = 31.78249 32.74076 32.26163
# Shear Modulus (GPa) = 19.74608 25.99729 22.87168
#
# Velocity S-wave (km/s) = 3.03137 3.47826 3.26248
# Velocity P-wave (km/s) = 5.20027 5.60068 5.40419
#
# Compressibility (1/GPa) = 0.03146386
#
# Stress axis : x y z
#
# Youngs Moduli (GPa) = 79.73537 58.55907 70.35210
#
# Poissons Ratio (x) = 0.13539 0.06220
# Poissons Ratio (y) = 0.18435 0.21022
# Poissons Ratio (z) = 0.07050 0.17498
#
# Static dielectric constant tensor:
#      x y z
#    x 1.771750 0.000000 0.012410 
#    y 0.000000 1.802900 0.000000 
#    z 0.012410 0.000000 1.894200 
# 
# From -- ./inp_files/53361.got.cif
#   From: 2010.05.17/outbox.cif.g08.bks.cpg/sg13_27_cif.got.tgz:53361.got - 2010.06.03 16:44:36.
