data_PCOD9231661
_publ_section_title
;
Structure prediction by ZEFSAII (Michael W. Deem and Ramdas Pophale) SiO2 
 PCOD9231661
Probable space group: P 2/C
;
_chemical_formula_sum "Si O2"
_cell_formula_units_Z 22
_cell_length_a 8.056160
_cell_length_b 15.100295
_cell_length_c 8.753953
_cell_angle_alpha 90.000000
_cell_angle_beta 91.605680
_cell_angle_gamma 90.000000
_cell_volume 1064.503669
_symmetry_space_group_name_H-M "P 2/C"
_symmetry_group_IT_number 13
_symmetry_cell_setting 'monoclinic'
loop_
_space_group_symop_operation_xyz
x,y,z
-x,y,1/2-z
-x,-y,-z
x,-y,1/2+z
loop_
_atom_site_type_symbol
_atom_site_label
_atom_site_fract_x
_atom_site_fract_y
_atom_site_fract_z
Si Si1 0.500000 0.501799 0.250000
Si Si2 0.806722 0.089378 0.192917
Si Si3 0.621153 0.213944 0.969686
Si Si4 0.306480 0.909427 0.470272
Si Si5 0.617492 0.627195 0.979488
Si Si6 0.171150 0.253338 0.824369
O O1 0.571735 0.563526 0.119990
O O2 0.629786 0.435350 0.333838
O O3 0.759822 0.172856 0.085013
O O4 0.706060 0.091836 0.348160
O O5 0.000000 0.083561 0.250000
O O6 0.739067 0.004294 0.098722
O O7 0.483516 0.136547 0.937164
O O8 0.524658 0.297416 0.039977
O O9 0.698256 0.246801 0.811986
O O10 0.168276 0.844132 0.396100
O O11 0.774047 0.682286 0.039321
O O12 0.000000 0.281594 0.750000
#
# Coordination Sequence:
#
# PCOD9231661 Si02
#       6
#     2   4   4   4   4   4
#     4  10  20  40  68  92 120 160 206 256 300 384
#     4  12  24  39  60  93 129 167 206 261 311 355
#     4  11  23  40  61  92 122 165 214 253 306 372
#     4  11  23  39  61  87 124 171 215 251 297 368
#     4  10  21  39  67  91 123 160 208 250 310 370
#     4  11  22  41  63  91 128 165 205 261 318 363
#
# _framework density 20.666910000000001
#
# number of rings (size 3 to 8) (size 9 to 14) (size 15 to 20)
#    0.000    1.091    1.818    6.000    5.091    1.455 
#    0.000    0.909    0.000    0.000    0.000    0.000 
#    0.000    0.000    0.000    0.000    0.000    0.000 
#
# Total GULP energy -122908.635502 kJ/mol
# GULP energy per Si atom -5586.756159 kJ/mol
# Density = 2.061987 g / cm^3
# Si number density = 20.666910 Si / 1000 Ang^3
#
#
#
# Elastic Constant Matrix: (Units=GPa)
#
#
# Indices 1 2 3 4 5 6 
#
# 1 82.9160 23.5931 9.1314 0.0000 13.2775 0.0000
# 2 23.5931 107.2385 14.6792 0.0000 20.1752 0.0000
# 3 9.1314 14.6792 55.8200 0.0000 12.2128 0.0000
# 4 0.0000 0.0000 0.0000 18.4230 0.0000 1.4599
# 5 13.2775 20.1752 12.2128 0.0000 20.8149 0.0000
# 6 0.0000 0.0000 0.0000 1.4599 0.0000 -5.2165
#
#
#
# Elastic Compliance Matrix: (Units=1/GPa)
#
#
# Indices 1 2 3 4 5 6 
#
# 1 0.013677 -0.001664 -0.000280 0.000000 -0.006948 0.000000
# 2 -0.001664 0.011629 -0.000633 0.000000 -0.009838 0.000000
# 3 -0.000280 -0.000633 0.020598 0.000000 -0.011293 0.000000
# 4 0.000000 0.000000 0.000000 0.053102 0.000000 0.014862
# 5 -0.006948 -0.009838 -0.011293 0.000000 0.068636 0.000000
# 6 0.000000 0.000000 0.000000 0.014862 0.000000 -0.187540
#
#
# Mechanical properties :
#
#
# Convention : Reuss Voigt Hill
#
# Bulk Modulus (GPa) = 24.53985 37.86468 31.20226
# Shear Modulus (GPa) = -4306.32071 20.04234 -2143.13919
#
# Velocity S-wave (km/s) = -45.69685 3.11751 -32.23727
# Velocity P-wave (km/s) = 52.65330 5.59639 37.02061
#
# Compressibility (1/GPa) = 0.04075005
#
# Stress axis : x y z
#
# Youngs Moduli (GPa) = 73.11469 85.99450 48.54873
#
# Poissons Ratio (x) = 0.14306 0.01358
# Poissons Ratio (y) = 0.12164 0.03075
# Poissons Ratio (z) = 0.02046 0.05446
#
# Static dielectric constant tensor:
#      x y z
#    x 1.770100 0.000000 -0.000830 
#    y 0.000000 1.748000 0.000000 
#    z -0.000830 0.000000 1.747370 
# 
# From -- ./inp_files/12253.got.cif
#   From: 2010.05.17/outbox.cif.g08.bks.cpg/sg13_7_cif.got.tgz:12253.got - 2010.06.03 16:44:36.
