data_PCOD9231690
_publ_section_title
;
Structure prediction by ZEFSAII (Michael W. Deem and Ramdas Pophale) SiO2 
 PCOD9231690
Probable space group: P 2/C
;
_chemical_formula_sum "Si O2"
_cell_formula_units_Z 22
_cell_length_a 5.730365
_cell_length_b 5.074932
_cell_length_c 29.544307
_cell_angle_alpha 90.000000
_cell_angle_beta 100.379046
_cell_angle_gamma 90.000000
_cell_volume 845.125808
_symmetry_space_group_name_H-M "P 2/C"
_symmetry_group_IT_number 13
_symmetry_cell_setting 'monoclinic'
loop_
_space_group_symop_operation_xyz
x,y,z
-x,y,1/2-z
-x,-y,-z
x,-y,1/2+z
loop_
_atom_site_type_symbol
_atom_site_label
_atom_site_fract_x
_atom_site_fract_y
_atom_site_fract_z
Si Si1 0.630397 0.459614 0.957273
Si Si2 0.500000 0.320654 0.250000
Si Si3 0.803819 0.669480 0.838692
Si Si4 0.848951 0.046637 0.706088
Si Si5 0.139055 0.055236 0.073216
Si Si6 0.802457 0.707332 0.113202
O O1 0.747147 0.177182 0.951980
O O2 0.410169 0.459918 0.914415
O O3 0.827428 0.683579 0.955474
O O4 0.500000 0.500000 0.000000
O O5 0.362450 0.465171 0.204731
O O6 0.334783 0.129072 0.273425
O O7 0.957179 0.458600 0.871400
O O8 0.717489 0.866726 0.875422
O O9 0.976641 0.848982 0.814413
O O10 0.740814 0.214807 0.662211
O O11 0.000000 0.197466 0.750000
O O12 0.885576 0.948911 0.083410
#
# Coordination Sequence:
#
# PCOD9231690 Si02
#       6
#     4   2   4   4   4   4
#     4  12  28  47  76 110 142 188 243 300 370 439
#     4  10  20  40  70  96 148 180 240 288 352 418
#     4  10  22  42  67 104 136 195 233 292 352 429
#     4   9  21  40  64 101 142 186 242 288 354 424
#     4  11  25  49  72 107 144 190 236 297 370 426
#     4  11  25  45  74 100 152 187 245 299 361 436
#
# _framework density 26.031627
#
# number of rings (size 3 to 8) (size 9 to 14) (size 15 to 20)
#    0.000    1.455    1.818    1.636    7.636    3.636 
#    0.000    4.545    0.000    0.000    0.000    0.000 
#    0.000    0.000    0.000    0.000    0.000    0.000 
#
# Total GULP energy -123070.191433 kJ/mol
# GULP energy per Si atom -5594.099611 kJ/mol
# Density = 2.597238 g / cm^3
# Si number density = 26.031627 Si / 1000 Ang^3
#
#
#
# Elastic Constant Matrix: (Units=GPa)
#
#
# Indices 1 2 3 4 5 6 
#
# 1 42.7030 21.8152 28.6670 0.0000 -8.8780 0.0000
# 2 21.8152 118.0501 32.6488 0.0000 -15.4605 0.0000
# 3 28.6670 32.6488 109.9250 0.0000 -28.3536 0.0000
# 4 0.0000 0.0000 0.0000 15.1155 0.0000 -38.5329
# 5 -8.8780 -15.4605 -28.3536 0.0000 61.8162 0.0000
# 6 0.0000 0.0000 0.0000 -38.5329 0.0000 30.3527
#
#
#
# Elastic Compliance Matrix: (Units=1/GPa)
#
#
# Indices 1 2 3 4 5 6 
#
# 1 0.029773 -0.003633 -0.006597 0.000000 0.000341 0.000000
# 2 -0.003633 0.009750 -0.001649 0.000000 0.001160 0.000000
# 3 -0.006597 -0.001649 0.012427 0.000000 0.004340 0.000000
# 4 0.000000 0.000000 0.000000 -0.029584 0.000000 -0.037557
# 5 0.000341 0.001160 0.004340 0.000000 0.018507 0.000000
# 6 0.000000 0.000000 0.000000 -0.037557 0.000000 -0.014733
#
#
# Mechanical properties :
#
#
# Convention : Reuss Voigt Hill
#
# Bulk Modulus (GPa) = 35.47142 48.54890 42.01016
# Shear Modulus (GPa) = 84.32120 33.96003 59.14062
#
# Velocity S-wave (km/s) = 5.69756 3.61580 4.77159
# Velocity P-wave (km/s) = 7.54578 6.01020 6.82133
#
# Compressibility (1/GPa) = 0.02819171
#
# Stress axis : x y z
#
# Youngs Moduli (GPa) = 33.58723 102.56001 80.47040
#
# Poissons Ratio (x) = 0.37256 0.53090
# Poissons Ratio (y) = 0.12201 0.13272
# Poissons Ratio (z) = 0.22159 0.16915
#
# Static dielectric constant tensor:
#      x y z
#    x 2.046060 0.000000 0.053380 
#    y 0.000000 2.084850 0.000000 
#    z 0.053380 0.000000 2.056670 
# 
# From -- ./inp_files/94616.got.cif
#   From: 2010.05.17/outbox.cif.g08.bks.cpg/sg13_48_cif.got.tgz:94616.got - 2010.06.03 16:44:36.
