data_PCOD9231514
_publ_section_title
;
Structure prediction by ZEFSAII (Michael W. Deem and Ramdas Pophale) SiO2 
 PCOD9231514
Probable space group: P 2/C
;
_chemical_formula_sum "Si O2"
_cell_formula_units_Z 28
_cell_length_a 15.513158
_cell_length_b 8.626692
_cell_length_c 20.677240
_cell_angle_alpha 90.000000
_cell_angle_beta 30.664755
_cell_angle_gamma 90.000000
_cell_volume 1411.299156
_symmetry_space_group_name_H-M "P 2/C"
_symmetry_group_IT_number 13
_symmetry_cell_setting 'monoclinic'
loop_
_space_group_symop_operation_xyz
x,y,z
-x,y,1/2-z
-x,-y,-z
x,-y,1/2+z
loop_
_atom_site_type_symbol
_atom_site_label
_atom_site_fract_x
_atom_site_fract_y
_atom_site_fract_z
Si Si1 0.410250 0.158695 0.578283
Si Si2 0.809856 0.618126 0.363679
Si Si3 0.500000 0.740660 0.250000
Si Si4 0.161560 0.956195 0.813270
Si Si5 0.699159 0.648963 0.847219
Si Si6 0.500000 0.762245 0.750000
Si Si7 0.509025 0.479683 0.137572
Si Si8 0.220856 0.996747 0.926111
O O1 0.299376 0.241097 0.594829
O O2 0.565899 0.277987 0.484999
O O3 0.500000 0.000000 0.500000
O O4 0.279633 0.101117 0.716348
O O5 0.812768 0.473893 0.311484
O O6 0.703445 0.556316 0.493415
O O7 0.000000 0.669582 0.250000
O O8 0.495809 0.635413 0.188027
O O9 0.667372 0.847519 0.142457
O O10 0.216669 0.797250 0.741894
O O11 0.188346 0.945871 0.872817
O O12 0.964981 0.986832 0.924485
O O13 0.599269 0.549927 0.857326
O O14 0.555733 0.652837 0.771930
O O15 0.346635 0.868391 0.873610
#
# Coordination Sequence:
#
# PCOD9231514 Si02
#       8
#     4   4   2   4   4   2   4   4
#     4   9  20  40  65  89 118 167 201 244 312 373
#     4  11  25  39  64  97 124 157 208 265 306 363
#     4  10  24  38  64  90 120 164 200 252 306 362
#     4  10  21  39  62  89 123 156 213 251 307 361
#     4  10  21  42  65  89 123 167 200 245 317 382
#     4  10  20  40  62  86 122 166 200 254 306 362
#     4  10  21  41  62  87 124 161 204 240 317 382
#     4  10  22  38  59  90 121 162 203 262 296 358
#
# _framework density 19.839876
#
# number of rings (size 3 to 8) (size 9 to 14) (size 15 to 20)
#    0.000    2.000    1.429    1.714    8.000    0.000 
#    0.000    3.571    0.000    0.000    0.000    0.000 
#    0.000    0.000    0.000    0.000    0.000    0.000 
#
# Total GULP energy -156106.291529 kJ/mol
# GULP energy per Si atom -5575.224697 kJ/mol
# Density = 1.979472 g / cm^3
# Si number density = 19.839876 Si / 1000 Ang^3
#
#
#
# Elastic Constant Matrix: (Units=GPa)
#
#
# Indices 1 2 3 4 5 6 
#
# 1 15.0693 19.9003 4.4807 0.0000 -3.5621 0.0000
# 2 19.9003 102.7769 22.9112 0.0000 -0.0111 0.0000
# 3 4.4807 22.9112 89.9225 0.0000 -9.1569 0.0000
# 4 0.0000 0.0000 0.0000 20.8824 0.0000 4.5959
# 5 -3.5621 -0.0111 -9.1569 0.0000 35.0109 0.0000
# 6 0.0000 0.0000 0.0000 4.5959 0.0000 7.5567
#
#
#
# Elastic Compliance Matrix: (Units=1/GPa)
#
#
# Indices 1 2 3 4 5 6 
#
# 1 0.092212 -0.018075 0.000992 0.000000 0.009636 0.000000
# 2 -0.018075 0.013875 -0.002899 0.000000 -0.002593 0.000000
# 3 0.000992 -0.002899 0.012143 0.000000 0.003276 0.000000
# 4 0.000000 0.000000 0.000000 0.055288 0.000000 -0.033626
# 5 0.009636 -0.002593 0.003276 0.000000 0.030399 0.000000
# 6 0.000000 0.000000 0.000000 -0.033626 0.000000 0.152784
#
#
# Mechanical properties :
#
#
# Convention : Reuss Voigt Hill
#
# Bulk Modulus (GPa) = 12.77666 33.59477 23.18571
# Shear Modulus (GPa) = 11.82719 23.38843 17.60781
#
# Velocity S-wave (km/s) = 2.44423 3.43718 2.98232
# Velocity P-wave (km/s) = 3.79731 5.72031 4.85497
#
# Compressibility (1/GPa) = 0.07826771
#
# Stress axis : x y z
#
# Youngs Moduli (GPa) = 10.84454 72.06981 82.34901
#
# Poissons Ratio (x) = 1.30264 -0.08166
# Poissons Ratio (y) = 0.19601 0.23870
# Poissons Ratio (z) = -0.01075 0.20891
#
# Static dielectric constant tensor:
#      x y z
#    x 1.715390 0.000000 0.012420 
#    y 0.000000 1.717000 0.000000 
#    z 0.012420 0.000000 1.707690 
# 
# From -- ./inp_files/79789.got.cif
#   From: 2010.05.17/outbox.cif.g08.bks.cpg/sg13_40_cif.got.tgz:79789.got - 2010.06.03 16:44:36.
