data_PCOD9231029
_publ_section_title
;
Structure prediction by ZEFSAII (Michael W. Deem and Ramdas Pophale) SiO2 
 PCOD9231029
Probable space group: P 2/C
;
_chemical_formula_sum "Si O2"
_cell_formula_units_Z 26
_cell_length_a 13.870014
_cell_length_b 10.403992
_cell_length_c 9.354911
_cell_angle_alpha 90.000000
_cell_angle_beta 71.690408
_cell_angle_gamma 90.000000
_cell_volume 1281.602656
_symmetry_space_group_name_H-M "P 2/C"
_symmetry_group_IT_number 13
_symmetry_cell_setting 'monoclinic'
loop_
_space_group_symop_operation_xyz
x,y,z
-x,y,1/2-z
-x,-y,-z
x,-y,1/2+z
loop_
_atom_site_type_symbol
_atom_site_label
_atom_site_fract_x
_atom_site_fract_y
_atom_site_fract_z
Si Si1 0.641130 0.217327 0.502387
Si Si2 0.500000 0.938340 0.250000
Si Si3 0.339608 0.850277 0.807573
Si Si4 0.695730 0.664837 0.452703
Si Si5 0.890995 0.170998 0.764597
Si Si6 0.379507 0.468529 0.797377
Si Si7 0.823839 0.967407 0.019744
O O1 0.645411 0.242603 0.332852
O O2 0.640897 0.344256 0.595194
O O3 0.734153 0.121824 0.497330
O O4 0.540181 0.146147 0.602035
O O5 0.589330 0.029869 0.257867
O O6 0.229162 0.914092 0.870618
O O7 0.363426 0.786387 0.949286
O O8 0.799515 0.730290 0.346315
O O9 0.694427 0.572862 0.593021
O O10 0.645607 0.582155 0.350046
O O11 0.882235 0.121210 0.605824
O O12 0.000000 0.230024 0.750000
O O13 0.881010 0.042826 0.867897
O O14 0.500000 0.504908 0.750000
#
# Coordination Sequence:
#
# PCOD9231029 Si02
#       7
#     4   2   4   4   4   4   4
#     4  11  20  37  58  87 128 168 208 254 311 368
#     4  10  22  30  58  92 126 166 210 252 312 384
#     4  10  22  35  59  89 132 163 205 256 319 371
#     4  11  26  44  62  93 124 168 220 269 309 372
#     4  11  22  42  69  97 129 165 206 263 327 384
#     4  12  25  42  65  85 128 173 221 262 309 365
#     4  10  20  38  62  94 129 160 197 257 318 386
#
# _framework density 20.287099999999999
#
# number of rings (size 3 to 8) (size 9 to 14) (size 15 to 20)
#    0.000    1.231    3.846    2.308    3.231    0.000 
#    0.000    0.769    0.000    0.000    0.000    0.000 
#    0.000    0.000    0.000    0.000    0.000    0.000 
#
# Total GULP energy -145021.601785 kJ/mol
# GULP energy per Si atom -5577.753915 kJ/mol
# Density = 2.024093 g / cm^3
# Si number density = 20.287100 Si / 1000 Ang^3
#
#
#
# Elastic Constant Matrix: (Units=GPa)
#
#
# Indices 1 2 3 4 5 6 
#
# 1 74.7302 7.6329 35.6339 0.0000 8.6840 0.0000
# 2 7.6329 63.8540 22.3574 0.0000 2.3315 0.0000
# 3 35.6339 22.3574 86.8669 0.0000 20.8181 0.0000
# 4 0.0000 0.0000 0.0000 32.9310 0.0000 -4.5001
# 5 8.6840 2.3315 20.8181 0.0000 25.5041 0.0000
# 6 0.0000 0.0000 0.0000 -4.5001 0.0000 11.0677
#
#
#
# Elastic Compliance Matrix: (Units=1/GPa)
#
#
# Indices 1 2 3 4 5 6 
#
# 1 0.016647 0.000438 -0.006929 0.000000 -0.000052 0.000000
# 2 0.000438 0.017357 -0.005260 0.000000 0.002558 0.000000
# 3 -0.006929 -0.005260 0.018682 0.000000 -0.012409 0.000000
# 4 0.000000 0.000000 0.000000 0.032153 0.000000 0.013073
# 5 -0.000052 0.002558 -0.012409 0.000000 0.049123 0.000000
# 6 0.000000 0.000000 0.000000 0.013073 0.000000 0.095669
#
#
# Mechanical properties :
#
#
# Convention : Reuss Voigt Hill
#
# Bulk Modulus (GPa) = 34.26538 39.63325 36.94931
# Shear Modulus (GPa) = 19.02163 24.55569 21.78866
#
# Velocity S-wave (km/s) = 3.06538 3.48287 3.28077
# Velocity P-wave (km/s) = 5.42731 5.97933 5.70999
#
# Compressibility (1/GPa) = 0.02918397
#
# Stress axis : x y z
#
# Youngs Moduli (GPa) = 60.07176 57.61491 53.52783
#
# Poissons Ratio (x) = -0.02524 0.37089
# Poissons Ratio (y) = -0.02631 0.28155
# Poissons Ratio (z) = 0.41623 0.30304
#
# Static dielectric constant tensor:
#      x y z
#    x 1.751290 0.000000 -0.007840 
#    y 0.000000 1.754150 0.000000 
#    z -0.007840 0.000000 1.776120 
# 
# From -- ./inp_files/18696.got.cif
#   From: 2010.05.17/outbox.cif.g08.bks.cpg/sg13_10_cif.got.tgz:18696.got - 2010.06.03 16:44:36.
