data_PCOD9231488
_publ_section_title
;
Structure prediction by ZEFSAII (Michael W. Deem and Ramdas Pophale) SiO2 
 PCOD9231488
Probable space group: P 2/C
;
_chemical_formula_sum "Si O2"
_cell_formula_units_Z 28
_cell_length_a 8.422573
_cell_length_b 6.553763
_cell_length_c 28.059992
_cell_angle_alpha 90.000000
_cell_angle_beta 59.193635
_cell_angle_gamma 90.000000
_cell_volume 1330.353887
_symmetry_space_group_name_H-M "P 2/C"
_symmetry_group_IT_number 13
_symmetry_cell_setting 'monoclinic'
loop_
_space_group_symop_operation_xyz
x,y,z
-x,y,1/2-z
-x,-y,-z
x,-y,1/2+z
loop_
_atom_site_type_symbol
_atom_site_label
_atom_site_fract_x
_atom_site_fract_y
_atom_site_fract_z
Si Si1 0.688232 0.153806 0.364372
Si Si2 0.831221 0.463024 0.422873
Si Si3 0.000000 0.721192 0.750000
Si Si4 0.623887 0.182803 0.157415
Si Si5 0.500000 0.854111 0.250000
Si Si6 0.987267 0.898743 0.950333
Si Si7 0.190341 0.478784 0.806274
Si Si8 0.661363 0.123905 0.948865
O O1 0.746958 0.304399 0.397866
O O2 0.516004 0.245345 0.362533
O O3 0.859771 0.144797 0.302304
O O4 0.644897 0.938612 0.396055
O O5 0.900151 0.329343 0.457453
O O6 0.681024 0.637114 0.455081
O O7 0.012773 0.555157 0.368105
O O8 0.886124 0.582800 0.730115
O O9 0.680722 0.360107 0.185199
O O10 0.812847 0.109617 0.104291
O O11 0.525400 0.001011 0.200949
O O12 0.683211 0.715268 0.224153
O O13 0.852712 0.038005 0.939938
O O14 0.000000 0.000000 0.000000
O O15 0.500000 0.000000 0.000000
#
# Coordination Sequence:
#
# PCOD9231488 Si02
#       8
#     4   4   2   4   2   4   4   4
#     4  10  22  38  61  87 121 161 203 255 308 365
#     4   9  22  42  62  86 122 163 203 255 311 370
#     4  10  20  40  60  84 122 160 204 256 298 360
#     4  11  23  40  61  92 124 157 206 256 303 370
#     4  12  22  36  62  90 124 160 196 250 306 364
#     4  10  22  42  64  90 123 160 206 259 314 371
#     4  10  22  39  58  87 124 160 203 250 312 371
#     4  11  23  41  63  91 123 162 212 255 308 375
#
# _framework density 21.047032999999999
#
# number of rings (size 3 to 8) (size 9 to 14) (size 15 to 20)
#    0.000    1.714    0.000    4.714    0.000    7.429 
#    0.000    7.143    0.000    0.000    0.000    0.000 
#    0.000    0.000    0.000    0.000    0.000    0.000 
#
# Total GULP energy -156450.522303 kJ/mol
# GULP energy per Si atom -5587.518654 kJ/mol
# Density = 2.099913 g / cm^3
# Si number density = 21.047033 Si / 1000 Ang^3
#
#
#
# Elastic Constant Matrix: (Units=GPa)
#
#
# Indices 1 2 3 4 5 6 
#
# 1 122.9336 32.7455 34.8800 0.0000 7.7333 0.0000
# 2 32.7455 101.7201 58.0084 0.0000 -4.7081 0.0000
# 3 34.8800 58.0084 96.8654 0.0000 -1.8628 0.0000
# 4 0.0000 0.0000 0.0000 24.4221 0.0000 -17.2327
# 5 7.7333 -4.7081 -1.8628 0.0000 33.5071 0.0000
# 6 0.0000 0.0000 0.0000 -17.2327 0.0000 29.8840
#
#
#
# Elastic Compliance Matrix: (Units=1/GPa)
#
#
# Indices 1 2 3 4 5 6 
#
# 1 0.009450 -0.001811 -0.002368 0.000000 -0.002567 0.000000
# 2 -0.001811 0.015363 -0.008508 0.000000 0.002104 0.000000
# 3 -0.002368 -0.008508 0.016276 0.000000 0.000256 0.000000
# 4 0.000000 0.000000 0.000000 0.069038 0.000000 0.039811
# 5 -0.002567 0.002104 0.000256 0.000000 0.030747 0.000000
# 6 0.000000 0.000000 0.000000 0.039811 0.000000 0.056420
#
#
# Mechanical properties :
#
#
# Convention : Reuss Voigt Hill
#
# Bulk Modulus (GPa) = 63.62723 63.64300 63.63511
# Shear Modulus (GPa) = 21.93900 30.62164 26.28032
#
# Velocity S-wave (km/s) = 3.23209 3.81847 3.53745
# Velocity P-wave (km/s) = 6.65020 7.05302 6.85457
#
# Compressibility (1/GPa) = 0.01571654
#
# Stress axis : x y z
#
# Youngs Moduli (GPa) = 105.81899 65.09211 61.43984
#
# Poissons Ratio (x) = 0.11786 0.14549
# Poissons Ratio (y) = 0.19160 0.52271
# Poissons Ratio (z) = 0.25057 0.55378
#
# Static dielectric constant tensor:
#      x y z
#    x 1.738460 0.000000 0.008030 
#    y 0.000000 1.842910 0.000000 
#    z 0.008030 0.000000 1.773360 
# 
# From -- ./inp_files/95616.got.cif
#   From: 2010.05.17/outbox.cif.g08.bks.cpg/sg13_48_cif.got.tgz:95616.got - 2010.06.03 16:44:36.
