data_PCOD9231213
_publ_section_title
;
Structure prediction by ZEFSAII (Michael W. Deem and Ramdas Pophale) SiO2 
 PCOD9231213
Probable space group: P 2/C
;
_chemical_formula_sum "Si O2"
_cell_formula_units_Z 24
_cell_length_a 8.995957
_cell_length_b 5.564709
_cell_length_c 22.522554
_cell_angle_alpha 90.000000
_cell_angle_beta 75.040308
_cell_angle_gamma 90.000000
_cell_volume 1089.263611
_symmetry_space_group_name_H-M "P 2/C"
_symmetry_group_IT_number 13
_symmetry_cell_setting 'monoclinic'
loop_
_space_group_symop_operation_xyz
x,y,z
-x,y,1/2-z
-x,-y,-z
x,-y,1/2+z
loop_
_atom_site_type_symbol
_atom_site_label
_atom_site_fract_x
_atom_site_fract_y
_atom_site_fract_z
Si Si1 0.608985 0.505676 0.931108
Si Si2 0.806646 0.300404 0.179255
Si Si3 0.500000 0.859458 0.750000
Si Si4 0.042620 0.456578 0.562768
Si Si5 0.000000 0.453774 0.750000
Si Si6 0.959072 0.920337 0.353773
Si Si7 0.369247 0.014016 0.139820
O O1 0.785550 0.537800 0.936660
O O2 0.601343 0.245459 0.896520
O O3 0.561964 0.744458 0.898186
O O4 0.500000 0.500000 0.000000
O O5 0.625707 0.297277 0.201713
O O6 0.863237 0.399884 0.236116
O O7 0.904777 0.429939 0.117361
O O8 0.874893 0.032970 0.171368
O O9 0.582150 0.001265 0.795898
O O10 0.048895 0.175001 0.578922
O O11 0.000000 0.500000 0.500000
O O12 0.058187 0.297035 0.689928
O O13 0.812735 0.071147 0.349938
#
# Coordination Sequence:
#
# PCOD9231213 Si02
#       7
#     4   4   2   4   2   4   4
#     4  11  25  48  76 102 144 190 241 298 358 433
#     4  11  23  43  63  98 138 179 238 292 359 426
#     4  12  28  40  68 106 148 190 238 310 358 448
#     4  10  24  43  69 102 131 184 236 299 350 425
#     4  10  20  38  70  88 130 180 230 284 352 430
#     4  10  21  43  67  94 130 183 234 283 356 424
#     4  11  25  47  69 106 141 190 237 291 368 421
#
# _framework density 22.033234
#
# number of rings (size 3 to 8) (size 9 to 14) (size 15 to 20)
#    0.000    1.333    1.667    3.000    7.000    2.667 
#    3.000    0.000    0.000    0.000    0.000    0.000 
#    0.000    0.000    0.000    0.000    0.000    0.000 
#
# Total GULP energy -133723.948538 kJ/mol
# GULP energy per Si atom -5571.831189 kJ/mol
# Density = 2.198309 g / cm^3
# Si number density = 22.033234 Si / 1000 Ang^3
#
#
#
# Elastic Constant Matrix: (Units=GPa)
#
#
# Indices 1 2 3 4 5 6 
#
# 1 111.5619 28.4758 67.4615 0.0000 -4.8955 0.0000
# 2 28.4758 80.8459 59.3232 0.0000 16.2576 0.0000
# 3 67.4615 59.3232 156.5009 0.0000 11.9151 0.0000
# 4 0.0000 0.0000 0.0000 36.9999 0.0000 5.8689
# 5 -4.8955 16.2576 11.9151 0.0000 48.9343 0.0000
# 6 0.0000 0.0000 0.0000 5.8689 0.0000 45.6894
#
#
#
# Elastic Compliance Matrix: (Units=1/GPa)
#
#
# Indices 1 2 3 4 5 6 
#
# 1 0.012520 -0.001209 -0.005161 0.000000 0.002911 0.000000
# 2 -0.001209 0.018138 -0.005998 0.000000 -0.004687 0.000000
# 3 -0.005161 -0.005998 0.010979 0.000000 -0.001197 0.000000
# 4 0.000000 0.000000 0.000000 0.027589 0.000000 -0.003544
# 5 0.002911 -0.004687 -0.001197 0.000000 0.022575 0.000000
# 6 0.000000 0.000000 0.000000 -0.003544 0.000000 0.022342
#
#
# Mechanical properties :
#
#
# Convention : Reuss Voigt Hill
#
# Bulk Modulus (GPa) = 59.15777 73.26997 66.21387
# Shear Modulus (GPa) = 34.59903 39.23461 36.91682
#
# Velocity S-wave (km/s) = 3.96701 4.22441 4.09774
# Velocity P-wave (km/s) = 6.92030 7.55782 7.24608
#
# Compressibility (1/GPa) = 0.01690395
#
# Stress axis : x y z
#
# Youngs Moduli (GPa) = 79.86941 55.13168 91.08394
#
# Poissons Ratio (x) = 0.06663 0.47004
# Poissons Ratio (y) = 0.09653 0.54630
# Poissons Ratio (z) = 0.41217 0.33067
#
# Static dielectric constant tensor:
#      x y z
#    x 1.781990 0.000000 -0.011540 
#    y 0.000000 1.931960 0.000000 
#    z -0.011540 0.000000 1.816370 
# 
# From -- ./inp_files/84321.got.cif
#   From: 2010.05.17/outbox.cif.g08.bks.cpg/sg13_43_cif.got.tgz:84321.got - 2010.06.03 16:44:36.
