data_PCOD9231366
_publ_section_title
;
Structure prediction by ZEFSAII (Michael W. Deem and Ramdas Pophale) SiO2 
 PCOD9231366
Probable space group: P 2/C
;
_chemical_formula_sum "Si O2"
_cell_formula_units_Z 26
_cell_length_a 19.031823
_cell_length_b 6.294148
_cell_length_c 12.332582
_cell_angle_alpha 90.000000
_cell_angle_beta 123.966294
_cell_angle_gamma 90.000000
_cell_volume 1225.230459
_symmetry_space_group_name_H-M "P 2/C"
_symmetry_group_IT_number 13
_symmetry_cell_setting 'monoclinic'
loop_
_space_group_symop_operation_xyz
x,y,z
-x,y,1/2-z
-x,-y,-z
x,-y,1/2+z
loop_
_atom_site_type_symbol
_atom_site_label
_atom_site_fract_x
_atom_site_fract_y
_atom_site_fract_z
Si Si1 0.383694 0.913374 0.322017
Si Si2 0.543607 0.695404 0.471684
Si Si3 0.925006 0.006602 0.348169
Si Si4 0.705350 0.478904 0.635307
Si Si5 0.135311 0.341386 0.864861
Si Si6 0.000000 0.658798 0.750000
Si Si7 0.230190 0.160783 0.147378
O O1 0.464368 0.795607 0.339415
O O2 0.335203 0.740726 0.355589
O O3 0.422047 0.111502 0.423312
O O4 0.310530 0.015443 0.186812
O O5 0.500000 0.500000 0.500000
O O6 0.630378 0.595036 0.502795
O O7 0.950920 0.199035 0.293165
O O8 0.834141 0.047408 0.324875
O O9 0.916496 0.799514 0.265912
O O10 0.000000 0.000000 0.500000
O O11 0.787124 0.444081 0.633127
O O12 0.733745 0.628453 0.761030
O O13 0.072446 0.511597 0.863137
O O14 0.175932 0.205376 0.994830
#
# Coordination Sequence:
#
# PCOD9231366 Si02
#       7
#     4   4   4   4   4   2   4
#     4   9  17  36  64  92 131 171 213 272 335 388
#     4   8  16  32  64  97 125 174 215 263 339 392
#     4  12  26  45  66  95 131 175 224 279 342 397
#     4  10  20  39  64  95 130 173 217 272 334 391
#     4  12  26  42  66  99 129 182 230 275 338 406
#     4  12  26  44  64  92 134 174 226 282 338 404
#     4  11  23  40  65  95 130 172 223 279 329 396
#
# _framework density 21.220497999999999
#
# number of rings (size 3 to 8) (size 9 to 14) (size 15 to 20)
#    0.000    1.538    3.077    2.308    2.154    2.462 
#    0.000    0.000    0.000   42.462    0.000    0.000 
#    0.000    0.000    0.000    0.000    0.000    0.000 
#
# Total GULP energy -145058.160961 kJ/mol
# GULP energy per Si atom -5579.160037 kJ/mol
# Density = 2.117220 g / cm^3
# Si number density = 21.220498 Si / 1000 Ang^3
#
#
#
# Elastic Constant Matrix: (Units=GPa)
#
#
# Indices 1 2 3 4 5 6 
#
# 1 79.6403 32.4105 35.7769 0.0000 28.6254 0.0000
# 2 32.4105 70.8295 6.1454 0.0000 16.2880 0.0000
# 3 35.7769 6.1454 55.1416 0.0000 20.2937 0.0000
# 4 0.0000 0.0000 0.0000 695.5867 0.0000 327.7644
# 5 28.6254 16.2880 20.2937 0.0000 33.9181 0.0000
# 6 0.0000 0.0000 0.0000 327.7644 0.0000 185.4570
#
#
#
# Elastic Compliance Matrix: (Units=1/GPa)
#
#
# Indices 1 2 3 4 5 6 
#
# 1 0.024468 -0.007892 -0.011273 0.000000 -0.010115 0.000000
# 2 -0.007892 0.018493 0.004971 0.000000 -0.005194 0.000000
# 3 -0.011273 0.004971 0.028562 0.000000 -0.009962 0.000000
# 4 0.000000 0.000000 0.000000 0.008597 0.000000 -0.015194
# 5 -0.010115 -0.005194 -0.009962 0.000000 0.046474 0.000000
# 6 0.000000 0.000000 0.000000 -0.015194 0.000000 0.032245
#
#
# Mechanical properties :
#
#
# Convention : Reuss Voigt Hill
#
# Bulk Modulus (GPa) = 23.18320 39.36414 31.27367
# Shear Modulus (GPa) = 24.80086 191.74427 108.27256
#
# Velocity S-wave (km/s) = 3.42237 9.51600 7.15076
# Velocity P-wave (km/s) = 5.15416 11.80378 9.10754
#
# Compressibility (1/GPa) = 0.04313467
#
# Stress axis : x y z
#
# Youngs Moduli (GPa) = 40.86920 54.07481 35.01197
#
# Poissons Ratio (x) = 0.42676 0.39470
# Poissons Ratio (y) = 0.32254 -0.17405
# Poissons Ratio (z) = 0.46073 -0.26882
#
# Static dielectric constant tensor:
#      x y z
#    x 1.752900 0.000000 0.008030 
#    y 0.000000 1.796000 0.000000 
#    z 0.008030 0.000000 1.536620 
# 
# From -- ./inp_files/56594.got.cif
#   From: 2010.05.17/outbox.cif.g08.bks.cpg/sg13_29_cif.got.tgz:56594.got - 2010.06.03 16:44:36.
