data_PCOD9231728
_publ_section_title
;
Structure prediction by ZEFSAII (Michael W. Deem and Ramdas Pophale) SiO2 
 PCOD9231728
Probable space group: P 2/C
;
_chemical_formula_sum "Si O2"
_cell_formula_units_Z 28
_cell_length_a 20.034124
_cell_length_b 8.487237
_cell_length_c 12.501602
_cell_angle_alpha 90.000000
_cell_angle_beta 31.618276
_cell_angle_gamma 90.000000
_cell_volume 1114.415279
_symmetry_space_group_name_H-M "P 2/C"
_symmetry_group_IT_number 13
_symmetry_cell_setting 'monoclinic'
loop_
_space_group_symop_operation_xyz
x,y,z
-x,y,1/2-z
-x,-y,-z
x,-y,1/2+z
loop_
_atom_site_type_symbol
_atom_site_label
_atom_site_fract_x
_atom_site_fract_y
_atom_site_fract_z
Si Si1 0.651388 0.146140 0.911828
Si Si2 0.984638 0.291672 0.957347
Si Si3 0.380005 0.251019 0.300299
Si Si4 0.370157 0.398883 0.893099
Si Si5 0.117119 0.770598 0.665054
Si Si6 0.178364 0.078512 0.448898
Si Si7 0.199199 0.562179 0.282788
O O1 0.728384 0.994254 0.769589
O O2 0.736255 0.290537 0.749830
O O3 0.505272 0.170732 0.077454
O O4 0.642072 0.172114 0.052595
O O5 0.941083 0.238072 0.135736
O O6 0.903667 0.443476 0.030118
O O7 0.947408 0.149454 0.932882
O O8 0.125366 0.357259 0.782542
O O9 0.402729 0.436884 0.288073
O O10 0.258482 0.215042 0.395393
O O11 0.500000 0.311244 0.750000
O O12 0.253366 0.315208 0.993657
O O13 0.310227 0.453812 0.087187
O O14 0.150209 0.940637 0.571180
O O15 0.000000 0.709994 0.750000
#
# Coordination Sequence:
#
# PCOD9231728 Si02
#       7
#     4   4   4   4   4   4   4
#     4  10  20  41  62  90 136 173 221 283 336 398
#     4  10  23  43  68  99 137 175 230 283 337 399
#     4  10  21  41  67  93 130 179 226 279 340 411
#     4  10  20  45  72 100 132 179 228 287 342 393
#     4  11  26  45  69 100 138 179 228 282 343 408
#     4  12  25  40  63 101 138 180 224 271 351 415
#     4   9  19  41  72  91 126 182 220 281 337 391
#
# _framework density 25.125285000000002
#
# number of rings (size 3 to 8) (size 9 to 14) (size 15 to 20)
#    0.000    1.714    2.857    2.143    0.000    9.143 
#   12.857    1.429    0.000    0.000    0.000    0.000 
#    0.000    0.000    0.000    0.000    0.000    0.000 
#
# Total GULP energy -156564.581736 kJ/mol
# GULP energy per Si atom -5591.592205 kJ/mol
# Density = 2.506810 g / cm^3
# Si number density = 25.125285 Si / 1000 Ang^3
#
#
#
# Elastic Constant Matrix: (Units=GPa)
#
#
# Indices 1 2 3 4 5 6 
#
# 1 115.2707 41.8140 38.6523 0.0000 -16.1329 0.0000
# 2 41.8140 74.9226 25.4398 0.0000 -0.0725 0.0000
# 3 38.6523 25.4398 110.5859 0.0000 -27.2111 0.0000
# 4 0.0000 0.0000 0.0000 26.3947 0.0000 -7.7925
# 5 -16.1329 -0.0725 -27.2111 0.0000 35.1584 0.0000
# 6 0.0000 0.0000 0.0000 -7.7925 0.0000 45.1036
#
#
#
# Elastic Compliance Matrix: (Units=1/GPa)
#
#
# Indices 1 2 3 4 5 6 
#
# 1 0.012079 -0.006129 -0.001793 0.000000 0.004143 0.000000
# 2 -0.006129 0.017875 -0.003277 0.000000 -0.005312 0.000000
# 3 -0.001793 -0.003277 0.012623 0.000000 0.008940 0.000000
# 4 0.000000 0.000000 0.000000 0.039923 0.000000 0.006897
# 5 0.004143 -0.005312 0.008940 0.000000 0.037252 0.000000
# 6 0.000000 0.000000 0.000000 0.006897 0.000000 0.023363
#
#
# Mechanical properties :
#
#
# Convention : Reuss Voigt Hill
#
# Bulk Modulus (GPa) = 49.55243 56.95458 53.25350
# Shear Modulus (GPa) = 29.02948 34.32288 31.67618
#
# Velocity S-wave (km/s) = 3.40279 3.70005 3.55453
# Velocity P-wave (km/s) = 5.93326 6.40088 6.17150
#
# Compressibility (1/GPa) = 0.02018065
#
# Stress axis : x y z
#
# Youngs Moduli (GPa) = 82.78614 55.94399 79.21993
#
# Poissons Ratio (x) = 0.34286 0.14203
# Poissons Ratio (y) = 0.50737 0.25960
# Poissons Ratio (z) = 0.14842 0.18332
#
# Static dielectric constant tensor:
#      x y z
#    x 1.986990 0.000000 0.009610 
#    y 0.000000 1.971130 0.000000 
#    z 0.009610 0.000000 2.020200 
# 
# From -- ./inp_files/57440.got.cif
#   From: 2010.05.17/outbox.cif.g08.bks.cpg/sg13_29_cif.got.tgz:57440.got - 2010.06.03 16:44:36.
