data_PCOD9231777
_publ_section_title
;
Structure prediction by ZEFSAII (Michael W. Deem and Ramdas Pophale) SiO2 
 PCOD9231777
Probable space group: P 2/C
;
_chemical_formula_sum "Si O2"
_cell_formula_units_Z 30
_cell_length_a 21.776471
_cell_length_b 5.384170
_cell_length_c 24.307978
_cell_angle_alpha 90.000000
_cell_angle_beta 155.750588
_cell_angle_gamma 90.000000
_cell_volume 1170.549661
_symmetry_space_group_name_H-M "P 2/C"
_symmetry_group_IT_number 13
_symmetry_cell_setting 'monoclinic'
loop_
_space_group_symop_operation_xyz
x,y,z
-x,y,1/2-z
-x,-y,-z
x,-y,1/2+z
loop_
_atom_site_type_symbol
_atom_site_label
_atom_site_fract_x
_atom_site_fract_y
_atom_site_fract_z
Si Si1 0.565700 0.357465 0.697751
Si Si2 0.067791 0.780184 0.480444
Si Si3 0.983601 0.406379 0.140776
Si Si4 0.707369 0.917985 0.412368
Si Si5 0.309115 0.854979 0.755050
Si Si6 0.768838 0.950284 0.691322
Si Si7 0.000000 0.200596 0.750000
Si Si8 0.311734 0.962241 0.987038
O O1 0.618447 0.280882 0.802253
O O2 0.612602 0.622012 0.711866
O O3 0.388037 0.308860 0.548983
O O4 0.635312 0.125494 0.719893
O O5 0.056831 0.494647 0.453950
O O6 0.133615 0.823123 0.594337
O O7 0.204862 0.890749 0.555443
O O8 0.906973 0.887802 0.329866
O O9 0.985400 0.629591 0.184658
O O10 0.141344 0.273646 0.264335
O O11 0.848191 0.238140 0.049304
O O12 0.631335 0.044923 0.404197
O O13 0.321886 0.850790 0.830959
O O14 0.667161 0.061369 0.558957
O O15 0.141605 0.036116 0.853993
#
# Coordination Sequence:
#
# PCOD9231777 Si02
#       8
#     4   4   4   4   4   4   2   4
#     4  11  27  46  71  97 137 189 240 281 348 414
#     4  10  20  41  67 100 131 174 227 283 348 400
#     4  11  20  37  70  98 133 175 222 283 352 412
#     4  10  21  43  64 100 136 176 225 294 344 422
#     4  11  26  48  69 100 141 187 237 291 331 417
#     4  11  25  40  67 102 140 180 235 283 356 410
#     4  12  22  40  72 104 144 174 226 306 364 432
#     4  12  24  44  66 101 137 179 228 291 359 427
#
# _framework density 25.628986000000001
#
# number of rings (size 3 to 8) (size 9 to 14) (size 15 to 20)
#    0.000    1.067    4.000    2.400    1.867    3.733 
#    0.000    1.333    0.000    0.000    0.000    0.000 
#    0.000    0.000    0.000    0.000    0.000    0.000 
#
# Total GULP energy -167281.691778 kJ/mol
# GULP energy per Si atom -5576.056393 kJ/mol
# Density = 2.557065 g / cm^3
# Si number density = 25.628986 Si / 1000 Ang^3
#
#
#
# Elastic Constant Matrix: (Units=GPa)
#
#
# Indices 1 2 3 4 5 6 
#
# 1 134.4111 41.7248 39.7861 0.0000 -29.5149 0.0000
# 2 41.7248 86.0253 19.2228 0.0000 0.3704 0.0000
# 3 39.7861 19.2228 79.4444 0.0000 -15.7116 0.0000
# 4 0.0000 0.0000 0.0000 36.3654 0.0000 -13.7151
# 5 -29.5149 0.3704 -15.7116 0.0000 45.0697 0.0000
# 6 0.0000 0.0000 0.0000 -13.7151 0.0000 5.6289
#
#
#
# Elastic Compliance Matrix: (Units=1/GPa)
#
#
# Indices 1 2 3 4 5 6 
#
# 1 0.011257 -0.004763 -0.003243 0.000000 0.006281 0.000000
# 2 -0.004763 0.014367 -0.001860 0.000000 -0.003885 0.000000
# 3 -0.003243 -0.001860 0.015299 0.000000 0.003225 0.000000
# 4 0.000000 0.000000 0.000000 0.339176 0.000000 0.826413
# 5 0.006281 -0.003885 0.003225 0.000000 0.027457 0.000000
# 6 0.000000 0.000000 0.000000 0.826413 0.000000 2.191230
#
#
# Mechanical properties :
#
#
# Convention : Reuss Voigt Hill
#
# Bulk Modulus (GPa) = 47.18566 55.70536 51.44551
# Shear Modulus (GPa) = 1.90434 30.68929 16.29682
#
# Velocity S-wave (km/s) = 0.86293 3.46417 2.52439
# Velocity P-wave (km/s) = 4.40952 6.14679 5.34916
#
# Compressibility (1/GPa) = 0.02119288
#
# Stress axis : x y z
#
# Youngs Moduli (GPa) = 88.83004 69.60549 65.36214
#
# Poissons Ratio (x) = 0.33150 0.21199
# Poissons Ratio (y) = 0.42305 0.12154
# Poissons Ratio (z) = 0.28810 0.12943
#
# Static dielectric constant tensor:
#      x y z
#    x 2.169160 0.000000 -0.022470 
#    y 0.000000 1.987660 0.000000 
#    z -0.022470 0.000000 2.139830 
# 
# From -- ./inp_files/88362.got.cif
#   From: 2010.05.17/outbox.cif.g08.bks.cpg/sg13_45_cif.got.tgz:88362.got - 2010.06.03 16:44:36.
