data_PCOD9231221
_publ_section_title
;
Structure prediction by ZEFSAII (Michael W. Deem and Ramdas Pophale) SiO2 
 PCOD9231221
Probable space group: P 2/C
;
_chemical_formula_sum "Si O2"
_cell_formula_units_Z 20
_cell_length_a 11.273134
_cell_length_b 5.649023
_cell_length_c 21.655490
_cell_angle_alpha 90.000000
_cell_angle_beta 145.472225
_cell_angle_gamma 90.000000
_cell_volume 781.664196
_symmetry_space_group_name_H-M "P 2/C"
_symmetry_group_IT_number 13
_symmetry_cell_setting 'monoclinic'
loop_
_space_group_symop_operation_xyz
x,y,z
-x,y,1/2-z
-x,-y,-z
x,-y,1/2+z
loop_
_atom_site_type_symbol
_atom_site_label
_atom_site_fract_x
_atom_site_fract_y
_atom_site_fract_z
Si Si1 0.671082 0.381745 0.905432
Si Si2 0.500000 0.273566 0.250000
Si Si3 0.735016 0.914380 0.266542
Si Si4 0.744232 0.006496 0.624879
Si Si5 0.000000 0.000000 0.000000
Si Si6 0.265800 0.495032 0.427619
O O1 0.691403 0.585994 0.863107
O O2 0.424925 0.308881 0.798224
O O3 0.813696 0.162788 0.948794
O O4 0.723707 0.476562 0.994744
O O5 0.596058 0.122670 0.236683
O O6 0.761988 0.971810 0.206217
O O7 0.926890 0.909777 0.396454
O O8 0.828028 0.252422 0.631922
O O9 0.500000 0.000000 0.500000
O O10 0.826985 0.754703 0.635421
O O11 0.500000 0.500000 0.500000
#
# Coordination Sequence:
#
# PCOD9231221 Si02
#       6
#     4   2   4   4   2   4
#     4  12  24  44  70 102 151 195 254 312 382 463
#     4  12  22  42  72 100 140 212 248 306 380 474
#     4  12  24  44  70 101 149 191 249 311 384 462
#     4  10  20  38  71 104 130 184 245 303 371 439
#     4  12  26  46  62 112 152 194 244 318 390 468
#     4  10  20  38  71 105 130 186 248 304 371 445
#
# _framework density 25.586433
#
# number of rings (size 3 to 8) (size 9 to 14) (size 15 to 20)
#    0.000    0.800    8.000    2.400    0.000    0.800 
#    0.000    1.000    0.000    2.400    0.000    0.000 
#    0.000    0.000    0.000    0.000    0.000    0.000 
#
# Total GULP energy -111469.971553 kJ/mol
# GULP energy per Si atom -5573.498578 kJ/mol
# Density = 2.552820 g / cm^3
# Si number density = 25.586433 Si / 1000 Ang^3
#
#
#
# Elastic Constant Matrix: (Units=GPa)
#
#
# Indices 1 2 3 4 5 6 
#
# 1 100.4664 59.8208 78.2614 0.0000 -55.7266 0.0000
# 2 59.8208 175.2481 58.0687 0.0000 -37.3855 0.0000
# 3 78.2614 58.0687 195.1333 0.0000 -52.4803 0.0000
# 4 0.0000 0.0000 0.0000 14.7998 0.0000 -8.6368
# 5 -55.7266 -37.3855 -52.4803 0.0000 73.7808 0.0000
# 6 0.0000 0.0000 0.0000 -8.6368 0.0000 12.8358
#
#
#
# Elastic Compliance Matrix: (Units=1/GPa)
#
#
# Indices 1 2 3 4 5 6 
#
# 1 0.022162 -0.003528 -0.004721 0.000000 0.011594 0.000000
# 2 -0.003528 0.007227 -0.000578 0.000000 0.000586 0.000000
# 3 -0.004721 -0.000578 0.007608 0.000000 0.001553 0.000000
# 4 0.000000 0.000000 0.000000 0.111255 0.000000 0.074860
# 5 0.011594 0.000586 0.001553 0.000000 0.023712 0.000000
# 6 0.000000 0.000000 0.000000 0.074860 0.000000 0.128278
#
#
# Mechanical properties :
#
#
# Convention : Reuss Voigt Hill
#
# Bulk Modulus (GPa) = 51.69526 95.90551 73.80038
# Shear Modulus (GPa) = 15.41578 38.59641 27.00609
#
# Velocity S-wave (km/s) = 2.45725 3.88812 3.25235
# Velocity P-wave (km/s) = 5.31966 7.59743 6.55819
#
# Compressibility (1/GPa) = 0.01934413
#
# Stress axis : x y z
#
# Youngs Moduli (GPa) = 45.12209 138.37031 131.44606
#
# Poissons Ratio (x) = 0.48811 0.62051
# Poissons Ratio (y) = 0.15917 0.07600
# Poissons Ratio (z) = 0.21300 0.08000
#
# Static dielectric constant tensor:
#      x y z
#    x 1.965170 0.000000 0.068010 
#    y 0.000000 2.129390 0.000000 
#    z 0.068010 0.000000 2.039470 
# 
# From -- ./inp_files/77391.got.cif
#   From: 2010.05.17/outbox.cif.g08.bks.cpg/sg13_39_cif.got.tgz:77391.got - 2010.06.03 16:44:36.
