data_PCOD9231729
_publ_section_title
;
Structure prediction by ZEFSAII (Michael W. Deem and Ramdas Pophale) SiO2 
 PCOD9231729
Probable space group: P 2/C
;
_chemical_formula_sum "Si O2"
_cell_formula_units_Z 24
_cell_length_a 11.845097
_cell_length_b 5.244744
_cell_length_c 18.316204
_cell_angle_alpha 90.000000
_cell_angle_beta 66.850707
_cell_angle_gamma 90.000000
_cell_volume 1046.266656
_symmetry_space_group_name_H-M "P 2/C"
_symmetry_group_IT_number 13
_symmetry_cell_setting 'monoclinic'
loop_
_space_group_symop_operation_xyz
x,y,z
-x,y,1/2-z
-x,-y,-z
x,-y,1/2+z
loop_
_atom_site_type_symbol
_atom_site_label
_atom_site_fract_x
_atom_site_fract_y
_atom_site_fract_z
Si Si1 0.332717 0.091230 0.477942
Si Si2 0.911057 0.212458 0.489280
Si Si3 0.553140 0.699516 0.427589
Si Si4 0.810489 0.658284 0.161402
Si Si5 0.932062 0.815831 0.689878
Si Si6 0.568915 0.454665 0.167513
O O1 0.325687 0.207590 0.561637
O O2 0.349307 0.292947 0.409262
O O3 0.220010 0.913329 0.491929
O O4 0.457684 0.930164 0.444287
O O5 0.882988 0.394720 0.565495
O O6 0.965239 0.266627 0.396006
O O7 0.000000 0.000000 0.500000
O O8 0.500000 0.500000 0.500000
O O9 0.541636 0.568579 0.352990
O O10 0.838236 0.422236 0.208180
O O11 0.666240 0.655361 0.176693
O O12 0.862958 0.923667 0.181095
O O13 0.000000 0.848010 0.750000
O O14 0.500000 0.309594 0.250000
#
# Coordination Sequence:
#
# PCOD9231729 Si02
#       6
#     4   4   4   4   4   4
#     4  10  20  41  62  92 130 171 224 268 326 406
#     4  10  21  41  71  96 127 177 220 273 329 402
#     4   9  20  39  61  87 129 168 218 269 327 392
#     4  11  23  45  66  97 135 175 224 274 329 410
#     4  11  25  45  67 101 135 172 220 278 341 395
#     4  11  23  39  63  96 129 173 221 278 335 386
#
# _framework density 22.938704000000001
#
# number of rings (size 3 to 8) (size 9 to 14) (size 15 to 20)
#    0.000    1.667    1.667    3.000    0.000    3.333 
#    9.000    0.000    0.000    0.000    0.000    0.000 
#    0.000    0.000    0.000    0.000    0.000    0.000 
#
# Total GULP energy -133825.378661 kJ/mol
# GULP energy per Si atom -5576.057444 kJ/mol
# Density = 2.288649 g / cm^3
# Si number density = 22.938704 Si / 1000 Ang^3
#
#
#
# Elastic Constant Matrix: (Units=GPa)
#
#
# Indices 1 2 3 4 5 6 
#
# 1 90.1686 35.2530 55.4426 0.0000 36.6418 0.0000
# 2 35.2530 95.6387 24.2570 0.0000 23.7628 0.0000
# 3 55.4426 24.2570 107.9706 0.0000 30.2227 0.0000
# 4 0.0000 0.0000 0.0000 16.0464 0.0000 11.4920
# 5 36.6418 23.7628 30.2227 0.0000 35.3087 0.0000
# 6 0.0000 0.0000 0.0000 11.4920 0.0000 41.1184
#
#
#
# Elastic Compliance Matrix: (Units=1/GPa)
#
#
# Indices 1 2 3 4 5 6 
#
# 1 0.022749 -0.002704 -0.006543 0.000000 -0.016187 0.000000
# 2 -0.002704 0.012906 0.000177 0.000000 -0.006032 0.000000
# 3 -0.006543 0.000177 0.014090 0.000000 -0.005390 0.000000
# 4 0.000000 0.000000 0.000000 0.077915 0.000000 -0.021776
# 5 -0.016187 -0.006032 -0.005390 0.000000 0.053794 0.000000
# 6 0.000000 0.000000 0.000000 -0.021776 0.000000 0.030406
#
#
# Mechanical properties :
#
#
# Convention : Reuss Voigt Hill
#
# Bulk Modulus (GPa) = 31.63881 58.18702 44.91291
# Shear Modulus (GPa) = 20.78703 30.41636 25.60169
#
# Velocity S-wave (km/s) = 3.01358 3.64536 3.34442
# Velocity P-wave (km/s) = 5.09231 6.56807 5.87670
#
# Compressibility (1/GPa) = 0.03160676
#
# Stress axis : x y z
#
# Youngs Moduli (GPa) = 43.95887 77.48092 70.96985
#
# Poissons Ratio (x) = 0.20949 0.46434
# Poissons Ratio (y) = 0.11886 -0.01258
# Poissons Ratio (z) = 0.28761 -0.01373
#
# Static dielectric constant tensor:
#      x y z
#    x 1.858930 0.000000 0.034160 
#    y 0.000000 1.907850 0.000000 
#    z 0.034160 0.000000 1.921400 
# 
# From -- ./inp_files/65305.got.cif
#   From: 2010.05.17/outbox.cif.g08.bks.cpg/sg13_33_cif.got.tgz:65305.got - 2010.06.03 16:44:36.
