data_PCOD9231456
_publ_section_title
;
Structure prediction by ZEFSAII (Michael W. Deem and Ramdas Pophale) SiO2 
 PCOD9231456
Probable space group: P 2/C
;
_chemical_formula_sum "Si O2"
_cell_formula_units_Z 14
_cell_length_a 9.098420
_cell_length_b 8.743924
_cell_length_c 13.442237
_cell_angle_alpha 90.000000
_cell_angle_beta 146.642623
_cell_angle_gamma 90.000000
_cell_volume 588.024828
_symmetry_space_group_name_H-M "P 2/C"
_symmetry_group_IT_number 13
_symmetry_cell_setting 'monoclinic'
loop_
_space_group_symop_operation_xyz
x,y,z
-x,y,1/2-z
-x,-y,-z
x,-y,1/2+z
loop_
_atom_site_type_symbol
_atom_site_label
_atom_site_fract_x
_atom_site_fract_y
_atom_site_fract_z
Si Si1 0.570602 0.694616 0.434296
Si Si2 0.000000 0.916828 0.750000
Si Si3 0.728193 0.363521 0.533082
Si Si4 0.934259 0.873012 0.382971
O O1 0.649783 0.526190 0.443538
O O2 0.489681 0.678014 0.506451
O O3 0.311574 0.761637 0.233143
O O4 0.814103 0.812044 0.576570
O O5 0.155950 0.031671 0.765681
O O6 0.000000 0.389330 0.750000
O O7 0.809950 0.230306 0.502944
O O8 0.000000 0.000000 0.500000
#
# Coordination Sequence:
#
# PCOD9231456 Si02
#       4
#     4   2   4   4
#     4  10  20  39  71  95 131 181 223 282 346 410
#     4  12  22  40  66 100 136 178 230 284 350 396
#     4   9  18  40  70  98 129 178 234 276 345 410
#     4  11  24  41  67 104 138 176 228 286 346 407
#
# _framework density 23.808517999999999
#
# number of rings (size 3 to 8) (size 9 to 14) (size 15 to 20)
#    0.000    1.714    5.714    0.857    0.000    1.143 
#    0.000    1.429   12.571    0.000    0.000    0.000 
#    0.000    0.000    0.000    0.000    0.000    0.000 
#
# Total GULP energy -78317.001667 kJ/mol
# GULP energy per Si atom -5594.071548 kJ/mol
# Density = 2.375433 g / cm^3
# Si number density = 23.808518 Si / 1000 Ang^3
#
#
#
# Elastic Constant Matrix: (Units=GPa)
#
#
# Indices 1 2 3 4 5 6 
#
# 1 68.8565 57.4482 14.0820 0.0000 0.3452 0.0000
# 2 57.4482 202.7164 46.4755 0.0000 -6.8380 0.0000
# 3 14.0820 46.4755 52.1012 0.0000 -9.8645 0.0000
# 4 0.0000 0.0000 0.0000 32.4238 0.0000 -4.9073
# 5 0.3452 -6.8380 -9.8645 0.0000 26.0311 0.0000
# 6 0.0000 0.0000 0.0000 -4.9073 0.0000 53.9376
#
#
#
# Elastic Compliance Matrix: (Units=1/GPa)
#
#
# Indices 1 2 3 4 5 6 
#
# 1 0.019119 -0.005298 -0.000811 0.000000 -0.001953 0.000000
# 2 -0.005298 0.007675 -0.005408 0.000000 0.000037 0.000000
# 3 -0.000811 -0.005408 0.025822 0.000000 0.008376 0.000000
# 4 0.000000 0.000000 0.000000 0.031272 0.000000 0.002845
# 5 -0.001953 0.000037 0.008376 0.000000 0.041625 0.000000
# 6 0.000000 0.000000 0.000000 0.002845 0.000000 0.018799
#
#
# Mechanical properties :
#
#
# Convention : Reuss Voigt Hill
#
# Bulk Modulus (GPa) = 33.80351 62.18728 47.99539
# Shear Modulus (GPa) = 28.21550 36.18971 32.20261
#
# Velocity S-wave (km/s) = 3.44626 3.90299 3.68172
# Velocity P-wave (km/s) = 5.48311 6.81818 6.18676
#
# Compressibility (1/GPa) = 0.02958273
#
# Stress axis : x y z
#
# Youngs Moduli (GPa) = 52.30432 130.28535 38.72628
#
# Poissons Ratio (x) = 0.69025 0.03142
# Poissons Ratio (y) = 0.27711 0.20942
# Poissons Ratio (z) = 0.04243 0.70454
#
# Static dielectric constant tensor:
#      x y z
#    x 2.020110 0.000000 -0.061240 
#    y 0.000000 1.874210 0.000000 
#    z -0.061240 0.000000 1.873330 
# 
# From -- ./inp_files/10807.got.cif
#   From: 2010.05.17/outbox.cif.g08.bks.cpg/sg13_6_cif.got.tgz:10807.got - 2010.06.03 16:44:36.
