data_PCOD9231644
_publ_section_title
;
Structure prediction by ZEFSAII (Michael W. Deem and Ramdas Pophale) SiO2 
 PCOD9231644
Probable space group: P 2/C
;
_chemical_formula_sum "Si O2"
_cell_formula_units_Z 20
_cell_length_a 12.924835
_cell_length_b 8.377953
_cell_length_c 8.802849
_cell_angle_alpha 90.000000
_cell_angle_beta 84.953928
_cell_angle_gamma 90.000000
_cell_volume 949.510368
_symmetry_space_group_name_H-M "P 2/C"
_symmetry_group_IT_number 13
_symmetry_cell_setting 'monoclinic'
loop_
_space_group_symop_operation_xyz
x,y,z
-x,y,1/2-z
-x,-y,-z
x,-y,1/2+z
loop_
_atom_site_type_symbol
_atom_site_label
_atom_site_fract_x
_atom_site_fract_y
_atom_site_fract_z
Si Si1 0.802584 0.874117 0.139663
Si Si2 0.391580 0.291354 0.702386
Si Si3 0.681169 0.398377 0.103535
Si Si4 0.802603 0.820666 0.798399
Si Si5 0.890710 0.579891 0.995390
O O1 0.702245 0.828686 0.249974
O O2 0.850597 0.036483 0.195353
O O3 0.770138 0.888435 0.967222
O O4 0.875738 0.718821 0.124193
O O5 0.500000 0.227027 0.750000
O O6 0.388143 0.338408 0.526497
O O7 0.367872 0.452711 0.801476
O O8 0.709737 0.257785 0.215981
O O9 0.791559 0.463048 0.022246
O O10 0.877260 0.675397 0.838416
O O11 0.000000 0.500000 0.000000
#
# Coordination Sequence:
#
# PCOD9231644 Si02
#       5
#     4   4   4   4   4
#     4   9  21  40  63  94 133 167 217 266 335 378
#     4  11  21  38  62  95 131 175 224 270 326 390
#     4  11  20  39  62  93 132 169 221 279 316 386
#     4  10  20  40  67  91 134 170 211 276 335 375
#     4   9  21  39  67  93 125 173 225 258 333 393
#
# _framework density 21.063486999999999
#
# number of rings (size 3 to 8) (size 9 to 14) (size 15 to 20)
#    1.200    0.800    2.000    1.800    0.000    0.800 
#    0.000    6.000    4.400    0.000    0.000    0.000 
#    0.000    0.000    0.000    0.000    0.000    0.000 
#
# Total GULP energy -111596.570049 kJ/mol
# GULP energy per Si atom -5579.828502 kJ/mol
# Density = 2.101555 g / cm^3
# Si number density = 21.063487 Si / 1000 Ang^3
#
#
#
# Elastic Constant Matrix: (Units=GPa)
#
#
# Indices 1 2 3 4 5 6 
#
# 1 51.3329 8.1525 1.9256 0.0000 8.1492 0.0000
# 2 8.1525 56.3904 19.3146 0.0000 7.0707 0.0000
# 3 1.9256 19.3146 82.2066 0.0000 25.8586 0.0000
# 4 0.0000 0.0000 0.0000 47.4698 0.0000 13.3362
# 5 8.1492 7.0707 25.8586 0.0000 26.6739 0.0000
# 6 0.0000 0.0000 0.0000 13.3362 0.0000 6.8187
#
#
#
# Elastic Compliance Matrix: (Units=1/GPa)
#
#
# Indices 1 2 3 4 5 6 
#
# 1 0.021190 -0.002984 0.002867 0.000000 -0.008462 0.000000
# 2 -0.002984 0.019726 -0.004614 0.000000 0.000155 0.000000
# 3 0.002867 -0.004614 0.018807 0.000000 -0.017885 0.000000
# 4 0.000000 0.000000 0.000000 0.046758 0.000000 -0.091451
# 5 -0.008462 0.000155 -0.017885 0.000000 0.057372 0.000000
# 6 0.000000 0.000000 0.000000 -0.091451 0.000000 0.325516
#
#
# Mechanical properties :
#
#
# Convention : Reuss Voigt Hill
#
# Bulk Modulus (GPa) = 19.89637 27.63501 23.76569
# Shear Modulus (GPa) = 9.69771 26.89498 18.29634
#
# Velocity S-wave (km/s) = 2.14803 3.57718 2.95045
# Velocity P-wave (km/s) = 3.95202 5.49636 4.78688
#
# Compressibility (1/GPa) = 0.05026043
#
# Stress axis : x y z
#
# Youngs Moduli (GPa) = 47.19110 50.69527 53.17131
#
# Poissons Ratio (x) = 0.15129 -0.15242
# Poissons Ratio (y) = 0.14084 0.24531
# Poissons Ratio (z) = -0.13527 0.23389
#
# Static dielectric constant tensor:
#      x y z
#    x 1.737190 0.000000 0.002870 
#    y 0.000000 1.800270 0.000000 
#    z 0.002870 0.000000 1.792100 
# 
# From -- ./inp_files/14827.got.cif
#   From: 2010.05.17/outbox.cif.g08.bks.cpg/sg13_8_cif.got.tgz:14827.got - 2010.06.03 16:44:36.
