data_PCOD9231983
_publ_section_title
;
Structure prediction by ZEFSAII (Michael W. Deem and Ramdas Pophale) SiO2 
 PCOD9231983
Probable space group: P 2/C
;
_chemical_formula_sum "Si O2"
_cell_formula_units_Z 28
_cell_length_a 15.190690
_cell_length_b 7.047237
_cell_length_c 22.297608
_cell_angle_alpha 90.000000
_cell_angle_beta 30.448182
_cell_angle_gamma 90.000000
_cell_volume 1209.639727
_symmetry_space_group_name_H-M "P 2/C"
_symmetry_group_IT_number 13
_symmetry_cell_setting 'monoclinic'
loop_
_space_group_symop_operation_xyz
x,y,z
-x,y,1/2-z
-x,-y,-z
x,-y,1/2+z
loop_
_atom_site_type_symbol
_atom_site_label
_atom_site_fract_x
_atom_site_fract_y
_atom_site_fract_z
Si Si1 0.596936 0.375636 0.850587
Si Si2 0.750664 0.526466 0.386815
Si Si3 0.133626 0.334785 0.354821
Si Si4 0.804349 0.128529 0.933006
Si Si5 0.405951 0.050294 0.187744
Si Si6 0.861411 0.363655 0.010003
Si Si7 0.500000 0.726244 0.750000
Si Si8 0.000000 0.803631 0.750000
O O1 0.686571 0.375189 0.863546
O O2 0.704712 0.519160 0.746094
O O3 0.603500 0.172257 0.816286
O O4 0.406595 0.450687 0.979142
O O5 0.843983 0.684087 0.371612
O O6 0.860625 0.342093 0.304625
O O7 0.225163 0.148979 0.273096
O O8 0.084345 0.309081 0.453998
O O9 0.971696 0.454600 0.424204
O O10 0.899015 0.942363 0.854129
O O11 0.594472 0.106230 0.049554
O O12 0.867894 0.184608 0.961973
O O13 0.425798 0.133038 0.243005
O O14 0.655415 0.401008 0.133758
#
# Coordination Sequence:
#
# PCOD9231983 Si02
#       8
#     4   4   4   4   4   4   2   2
#     4  11  24  44  68  99 141 180 230 284 352 418
#     4  11  26  45  65 101 138 183 233 284 351 418
#     4  10  21  43  67 100 140 180 227 284 350 414
#     4  11  23  45  69 101 140 180 235 295 341 415
#     4  10  20  43  70 102 136 186 231 285 350 411
#     4   9  21  42  69  98 138 180 226 288 349 409
#     4   8  18  40  70 100 142 174 234 290 346 418
#     4  12  26  44  70 100 138 186 234 288 358 406
#
# _framework density 23.147387999999999
#
# number of rings (size 3 to 8) (size 9 to 14) (size 15 to 20)
#    0.000    1.714    2.857    0.429    4.000    1.714 
#    2.571    6.429    0.000    0.000    0.000    0.000 
#    0.000    0.000    0.000    0.000    0.000    0.000 
#
# Total GULP energy -156363.880037 kJ/mol
# GULP energy per Si atom -5584.424287 kJ/mol
# Density = 2.309470 g / cm^3
# Si number density = 23.147388 Si / 1000 Ang^3
#
#
#
# Elastic Constant Matrix: (Units=GPa)
#
#
# Indices 1 2 3 4 5 6 
#
# 1 43.6524 20.3831 17.3110 0.0000 -0.0972 0.0000
# 2 20.3831 110.9809 44.2851 0.0000 -0.4622 0.0000
# 3 17.3110 44.2851 120.1087 0.0000 -6.4690 0.0000
# 4 0.0000 0.0000 0.0000 32.5080 0.0000 -2.4754
# 5 -0.0972 -0.4622 -6.4690 0.0000 25.8814 0.0000
# 6 0.0000 0.0000 0.0000 -2.4754 0.0000 26.0087
#
#
#
# Elastic Compliance Matrix: (Units=1/GPa)
#
#
# Indices 1 2 3 4 5 6 
#
# 1 0.025592 -0.003774 -0.002327 0.000000 -0.000553 0.000000
# 2 -0.003774 0.011138 -0.003601 0.000000 -0.000715 0.000000
# 3 -0.002327 -0.003601 0.010121 0.000000 0.002457 0.000000
# 4 0.000000 0.000000 0.000000 0.030986 0.000000 0.002949
# 5 -0.000553 -0.000715 0.002457 0.000000 0.039237 0.000000
# 6 0.000000 0.000000 0.000000 0.002949 0.000000 0.038729
#
#
# Mechanical properties :
#
#
# Convention : Reuss Voigt Hill
#
# Bulk Modulus (GPa) = 36.43400 48.74450 42.58925
# Shear Modulus (GPa) = 27.12137 29.73049 28.42593
#
# Velocity S-wave (km/s) = 3.42670 3.58774 3.50814
# Velocity P-wave (km/s) = 5.60629 6.18599 5.90326
#
# Compressibility (1/GPa) = 0.02744689
#
# Stress axis : x y z
#
# Youngs Moduli (GPa) = 39.07469 89.78487 98.80228
#
# Poissons Ratio (x) = 0.33886 0.22988
# Poissons Ratio (y) = 0.14748 0.35580
# Poissons Ratio (z) = 0.09092 0.32333
#
# Static dielectric constant tensor:
#      x y z
#    x 1.952970 0.000000 -0.014760 
#    y 0.000000 1.799840 0.000000 
#    z -0.014760 0.000000 1.935350 
# 
# From -- ./inp_files/93162.got.cif
#   From: 2010.05.17/outbox.cif.g08.bks.cpg/sg13_47_cif.got.tgz:93162.got - 2010.06.03 16:44:36.
