data_PCOD9231546
_publ_section_title
;
Structure prediction by ZEFSAII (Michael W. Deem and Ramdas Pophale) SiO2 
 PCOD9231546
Probable space group: P 2/C
;
_chemical_formula_sum "Si O2"
_cell_formula_units_Z 28
_cell_length_a 17.853497
_cell_length_b 6.927102
_cell_length_c 13.109789
_cell_angle_alpha 90.000000
_cell_angle_beta 118.784847
_cell_angle_gamma 90.000000
_cell_volume 1420.986086
_symmetry_space_group_name_H-M "P 2/C"
_symmetry_group_IT_number 13
_symmetry_cell_setting 'monoclinic'
loop_
_space_group_symop_operation_xyz
x,y,z
-x,y,1/2-z
-x,-y,-z
x,-y,1/2+z
loop_
_atom_site_type_symbol
_atom_site_label
_atom_site_fract_x
_atom_site_fract_y
_atom_site_fract_z
Si Si1 0.724785 0.028438 0.394051
Si Si2 0.995113 0.807431 0.590717
Si Si3 0.132041 0.881667 0.147439
Si Si4 0.000000 0.511873 0.250000
Si Si5 0.416809 0.141968 0.565847
Si Si6 0.566054 0.816371 0.661822
Si Si7 0.500000 0.469789 0.750000
Si Si8 0.880300 0.150302 0.619361
O O1 0.779661 0.891708 0.355222
O O2 0.651167 0.121410 0.277140
O O3 0.796486 0.158580 0.495090
O O4 0.673805 0.932011 0.453585
O O5 0.077048 0.920249 0.602223
O O6 0.029188 0.635297 0.681965
O O7 0.932218 0.743274 0.457790
O O8 0.937668 0.964347 0.619824
O O9 0.142019 0.860439 0.274712
O O10 0.934471 0.655053 0.152118
O O11 0.417361 0.193582 0.447508
O O12 0.438103 0.325735 0.649309
O O13 0.489984 0.975262 0.627339
O O14 0.539244 0.612770 0.691888
#
# Coordination Sequence:
#
# PCOD9231546 Si02
#       8
#     4   4   4   2   4   4   2   4
#     4  11  22  43  63  95 135 168 215 268 327 390
#     4  10  21  40  63  86 122 167 220 264 321 382
#     4  10  20  40  63  87 124 170 208 271 320 377
#     4  12  20  40  66  88 124 168 220 270 322 386
#     4  11  23  44  72  96 130 186 206 261 341 393
#     4  11  23  44  70  96 136 170 219 266 326 401
#     4  12  20  44  72 104 124 172 224 270 308 408
#     4  11  22  41  64  90 128 169 218 270 319 382
#
# _framework density 19.704626999999999
#
# number of rings (size 3 to 8) (size 9 to 14) (size 15 to 20)
#    0.000    1.143    5.714    1.286    0.000    0.571 
#    5.143    0.000    0.000    0.000    0.000    0.000 
#    0.000    0.000    0.000    0.000    0.000    0.000 
#
# Total GULP energy -156133.316636 kJ/mol
# GULP energy per Si atom -5576.189880 kJ/mol
# Density = 1.965978 g / cm^3
# Si number density = 19.704627 Si / 1000 Ang^3
#
#
#
# Elastic Constant Matrix: (Units=GPa)
#
#
# Indices 1 2 3 4 5 6 
#
# 1 111.2935 28.6132 31.7541 0.0000 -7.8119 0.0000
# 2 28.6132 78.2796 19.9317 0.0000 -0.9009 0.0000
# 3 31.7541 19.9317 88.9972 0.0000 -15.6584 0.0000
# 4 0.0000 0.0000 0.0000 27.8304 0.0000 -10.4631
# 5 -7.8119 -0.9009 -15.6584 0.0000 41.4132 0.0000
# 6 0.0000 0.0000 0.0000 -10.4631 0.0000 11.3498
#
#
#
# Elastic Compliance Matrix: (Units=1/GPa)
#
#
# Indices 1 2 3 4 5 6 
#
# 1 0.010699 -0.003146 -0.002967 0.000000 0.000828 0.000000
# 2 -0.003146 0.014504 -0.002330 0.000000 -0.001159 0.000000
# 3 -0.002967 -0.002330 0.013615 0.000000 0.004538 0.000000
# 4 0.000000 0.000000 0.000000 0.054991 0.000000 0.050695
# 5 0.000828 -0.001159 0.004538 0.000000 0.025993 0.000000
# 6 0.000000 0.000000 0.000000 0.050695 0.000000 0.134843
#
#
# Mechanical properties :
#
#
# Convention : Reuss Voigt Hill
#
# Bulk Modulus (GPa) = 45.59364 48.79649 47.19506
# Shear Modulus (GPa) = 17.93129 29.33674 23.63402
#
# Velocity S-wave (km/s) = 3.01990 3.86272 3.46701
# Velocity P-wave (km/s) = 5.94546 6.68669 6.32694
#
# Compressibility (1/GPa) = 0.02193288
#
# Stress axis : x y z
#
# Youngs Moduli (GPa) = 93.46961 68.94436 73.44765
#
# Poissons Ratio (x) = 0.21687 0.21793
# Poissons Ratio (y) = 0.29402 0.17113
# Poissons Ratio (z) = 0.27734 0.16064
#
# Static dielectric constant tensor:
#      x y z
#    x 1.707470 0.000000 -0.026280 
#    y 0.000000 1.742620 0.000000 
#    z -0.026280 0.000000 1.733000 
# 
# From -- ./inp_files/54742.got.cif
#   From: 2010.05.17/outbox.cif.g08.bks.cpg/sg13_28_cif.got.tgz:54742.got - 2010.06.03 16:44:36.
