data_PCOD9231637
_publ_section_title
;
Structure prediction by ZEFSAII (Michael W. Deem and Ramdas Pophale) SiO2 
 PCOD9231637
Probable space group: P 2/C
;
_chemical_formula_sum "Si O2"
_cell_formula_units_Z 30
_cell_length_a 7.455813
_cell_length_b 15.644989
_cell_length_c 10.788644
_cell_angle_alpha 90.000000
_cell_angle_beta 98.832986
_cell_angle_gamma 90.000000
_cell_volume 1243.528301
_symmetry_space_group_name_H-M "P 2/C"
_symmetry_group_IT_number 13
_symmetry_cell_setting 'monoclinic'
loop_
_space_group_symop_operation_xyz
x,y,z
-x,y,1/2-z
-x,-y,-z
x,-y,1/2+z
loop_
_atom_site_type_symbol
_atom_site_label
_atom_site_fract_x
_atom_site_fract_y
_atom_site_fract_z
Si Si1 0.336987 0.434588 0.138420
Si Si2 0.716971 0.924287 0.793512
Si Si3 0.336884 0.193388 0.658494
Si Si4 0.709036 0.036312 0.017368
Si Si5 0.591576 0.667226 0.523070
Si Si6 0.206817 0.264876 0.230516
Si Si7 0.000000 0.716654 0.250000
Si Si8 0.098416 0.580715 0.066772
O O1 0.500000 0.429140 0.250000
O O2 0.436770 0.404298 0.022285
O O3 0.212270 0.352779 0.153863
O O4 0.250252 0.526390 0.156792
O O5 0.500000 0.933477 0.750000
O O6 0.786110 0.955666 0.665007
O O7 0.751966 0.825273 0.827789
O O8 0.790876 0.976644 0.918432
O O9 0.500000 0.149128 0.750000
O O10 0.279256 0.130140 0.543070
O O11 0.427421 0.274980 0.599998
O O12 0.172325 0.225460 0.728307
O O13 0.500000 0.000000 0.000000
O O14 0.634526 0.724916 0.647854
O O15 0.787188 0.623970 0.528445
O O16 0.000000 0.255998 0.250000
O O17 0.011011 0.649744 0.366383
O O18 0.000000 0.500000 0.000000
#
# Coordination Sequence:
#
# PCOD9231637 Si02
#       8
#     4   4   4   4   4   4   2   4
#     4  10  23  38  66  93 126 173 227 283 340 417
#     4  10  20  40  66  98 135 170 232 285 346 426
#     4  11  23  45  69  93 139 183 230 286 358 434
#     4  10  21  40  72 103 133 179 233 293 348 428
#     4  10  22  41  62  94 124 175 224 283 337 420
#     4  11  22  40  63  93 133 174 218 284 356 410
#     4  10  28  44  62 100 138 182 228 290 356 426
#     4  11  24  40  64  92 132 170 225 288 342 413
#
# _framework density 24.124903
#
# number of rings (size 3 to 8) (size 9 to 14) (size 15 to 20)
#    0.000    1.600    1.333    3.600    8.400    2.133 
#    1.200    0.667    0.000    0.000    0.000    0.000 
#    0.000    0.000    0.000    0.000    0.000    0.000 
#
# Total GULP energy -167335.015259 kJ/mol
# GULP energy per Si atom -5577.833842 kJ/mol
# Density = 2.406999 g / cm^3
# Si number density = 24.124903 Si / 1000 Ang^3
#
#
#
# Elastic Constant Matrix: (Units=GPa)
#
#
# Indices 1 2 3 4 5 6 
#
# 1 62.7688 13.7154 28.3343 0.0000 -12.6585 0.0000
# 2 13.7154 112.3679 28.3749 0.0000 -17.3357 0.0000
# 3 28.3343 28.3749 81.1366 0.0000 -23.2969 0.0000
# 4 0.0000 0.0000 0.0000 39.3342 0.0000 -8.7075
# 5 -12.6585 -17.3357 -23.2969 0.0000 31.5887 0.0000
# 6 0.0000 0.0000 0.0000 -8.7075 0.0000 11.0742
#
#
#
# Elastic Compliance Matrix: (Units=1/GPa)
#
#
# Indices 1 2 3 4 5 6 
#
# 1 0.019228 -0.000415 -0.005611 0.000000 0.003340 0.000000
# 2 -0.000415 0.010104 -0.002340 0.000000 0.003653 0.000000
# 3 -0.005611 -0.002340 0.017873 0.000000 0.009649 0.000000
# 4 0.000000 0.000000 0.000000 0.030781 0.000000 0.024203
# 5 0.003340 0.003653 0.009649 0.000000 0.042116 0.000000
# 6 0.000000 0.000000 0.000000 0.024203 0.000000 0.109330
#
#
# Mechanical properties :
#
#
# Convention : Reuss Voigt Hill
#
# Bulk Modulus (GPa) = 32.81397 44.12469 38.46933
# Shear Modulus (GPa) = 19.50661 28.78932 24.14797
#
# Velocity S-wave (km/s) = 2.84662 3.45823 3.16722
# Velocity P-wave (km/s) = 4.94323 5.85454 5.41808
#
# Compressibility (1/GPa) = 0.03047482
#
# Stress axis : x y z
#
# Youngs Moduli (GPa) = 52.00633 98.96627 55.94986
#
# Poissons Ratio (x) = 0.04106 0.31393
# Poissons Ratio (y) = 0.02158 0.13091
# Poissons Ratio (z) = 0.29180 0.23156
#
# Static dielectric constant tensor:
#      x y z
#    x 0.682120 0.000000 -0.529170 
#    y 0.000000 2.065300 0.000000 
#    z -0.529170 0.000000 1.989900 
# 
# From -- ./inp_files/30153.got.cif
#   From: 2010.05.17/outbox.cif.g08.bks.cpg/sg13_16_cif.got.tgz:30153.got - 2010.06.03 16:44:36.
