data_PCOD9231779
_publ_section_title
;
Structure prediction by ZEFSAII (Michael W. Deem and Ramdas Pophale) SiO2 
 PCOD9231779
Probable space group: P 2/C
;
_chemical_formula_sum "Si O2"
_cell_formula_units_Z 26
_cell_length_a 24.672977
_cell_length_b 8.978027
_cell_length_c 18.879850
_cell_angle_alpha 90.000000
_cell_angle_beta 160.992961
_cell_angle_gamma 90.000000
_cell_volume 1362.065023
_symmetry_space_group_name_H-M "P 2/C"
_symmetry_group_IT_number 13
_symmetry_cell_setting 'monoclinic'
loop_
_space_group_symop_operation_xyz
x,y,z
-x,y,1/2-z
-x,-y,-z
x,-y,1/2+z
loop_
_atom_site_type_symbol
_atom_site_label
_atom_site_fract_x
_atom_site_fract_y
_atom_site_fract_z
Si Si1 0.372036 0.556885 0.490166
Si Si2 0.118694 0.819067 0.170570
Si Si3 0.000000 0.113560 0.750000
Si Si4 0.756840 0.625306 0.944698
Si Si5 0.023718 0.083054 0.146147
Si Si6 0.158631 0.599757 0.833593
Si Si7 0.141779 0.408273 0.092087
O O1 0.264797 0.706019 0.368483
O O2 0.561299 0.605167 0.715366
O O3 0.323592 0.447492 0.494699
O O4 0.291705 0.474471 0.323042
O O5 0.130401 0.968372 0.230712
O O6 0.109870 0.858563 0.076566
O O7 0.947262 0.734224 0.981822
O O8 0.848434 0.224136 0.584147
O O9 0.043354 0.009471 0.870111
O O10 0.796788 0.623655 0.910963
O O11 0.835540 0.487830 0.085348
O O12 0.126370 0.225852 0.299232
O O13 0.006077 0.529444 0.599462
#
# Coordination Sequence:
#
# PCOD9231779 Si02
#       7
#     4   4   2   4   4   4   4
#     4  11  22  40  65  94 119 165 212 266 301 359
#     4  10  20  41  67  88 123 164 217 243 309 381
#     4  12  24  40  60  94 128 174 204 246 332 380
#     4  12  24  41  62  92 130 160 212 262 311 365
#     4  11  22  37  68  90 121 169 204 251 307 387
#     4  11  21  39  65  91 120 159 211 254 310 370
#     4  11  19  41  65  92 117 164 214 253 302 371
#
# _framework density 19.088664000000001
#
# number of rings (size 3 to 8) (size 9 to 14) (size 15 to 20)
#    0.000    0.923    6.154    2.769    2.154    0.000 
#    0.000    3.846    0.000    0.000    0.000    0.000 
#    0.000    0.000    0.000    0.000    0.000    0.000 
#
# Total GULP energy -145164.636762 kJ/mol
# GULP energy per Si atom -5583.255260 kJ/mol
# Density = 1.904522 g / cm^3
# Si number density = 19.088664 Si / 1000 Ang^3
#
#
#
# Elastic Constant Matrix: (Units=GPa)
#
#
# Indices 1 2 3 4 5 6 
#
# 1 79.5176 28.3773 28.3966 0.0000 -1.0171 0.0000
# 2 28.3773 137.2154 40.6840 0.0000 2.5239 0.0000
# 3 28.3966 40.6840 96.6950 0.0000 15.7036 0.0000
# 4 0.0000 0.0000 0.0000 4.9054 0.0000 -10.4751
# 5 -1.0171 2.5239 15.7036 0.0000 32.1521 0.0000
# 6 0.0000 0.0000 0.0000 -10.4751 0.0000 42.8768
#
#
#
# Elastic Compliance Matrix: (Units=1/GPa)
#
#
# Indices 1 2 3 4 5 6 
#
# 1 0.014693 -0.001924 -0.003916 0.000000 0.002529 0.000000
# 2 -0.001924 0.008618 -0.003194 0.000000 0.000823 0.000000
# 3 -0.003916 -0.003194 0.013919 0.000000 -0.006672 0.000000
# 4 0.000000 0.000000 0.000000 0.426220 0.000000 0.104129
# 5 0.002529 0.000823 -0.006672 0.000000 0.034376 0.000000
# 6 0.000000 0.000000 0.000000 0.104129 0.000000 0.048762
#
#
# Mechanical properties :
#
#
# Convention : Reuss Voigt Hill
#
# Bulk Modulus (GPa) = 52.18901 56.48265 54.33583
# Shear Modulus (GPa) = 8.75588 30.38486 19.57037
#
# Velocity S-wave (km/s) = 2.14404 3.99403 3.20540
# Velocity P-wave (km/s) = 5.79041 7.13608 6.49817
#
# Compressibility (1/GPa) = 0.01916112
#
# Stress axis : x y z
#
# Youngs Moduli (GPa) = 68.05823 116.03962 71.84224
#
# Poissons Ratio (x) = 0.22327 0.28134
# Poissons Ratio (y) = 0.13095 0.22950
# Poissons Ratio (z) = 0.26652 0.37068
#
# Static dielectric constant tensor:
#      x y z
#    x 1.706070 0.000000 -0.036600 
#    y 0.000000 1.673200 0.000000 
#    z -0.036600 0.000000 1.671170 
# 
# From -- ./inp_files/71341.got.cif
#   From: 2010.05.17/outbox.cif.g08.bks.cpg/sg13_36_cif.got.tgz:71341.got - 2010.06.03 16:44:36.
