data_PCOD9231059
_publ_section_title
;
Structure prediction by ZEFSAII (Michael W. Deem and Ramdas Pophale) SiO2 
 PCOD9231059
Probable space group: P 2/C
;
_chemical_formula_sum "Si O2"
_cell_formula_units_Z 26
_cell_length_a 7.137195
_cell_length_b 12.438720
_cell_length_c 18.639631
_cell_angle_alpha 90.000000
_cell_angle_beta 49.128187
_cell_angle_gamma 90.000000
_cell_volume 1251.304932
_symmetry_space_group_name_H-M "P 2/C"
_symmetry_group_IT_number 13
_symmetry_cell_setting 'monoclinic'
loop_
_space_group_symop_operation_xyz
x,y,z
-x,y,1/2-z
-x,-y,-z
x,-y,1/2+z
loop_
_atom_site_type_symbol
_atom_site_label
_atom_site_fract_x
_atom_site_fract_y
_atom_site_fract_z
Si Si1 0.739079 0.319103 0.972845
Si Si2 0.596288 0.688805 0.086623
Si Si3 0.524322 0.886468 0.577263
Si Si4 0.249324 0.044109 0.276518
Si Si5 0.776859 0.093937 0.487012
Si Si6 0.000000 0.500000 0.000000
Si Si7 0.834505 0.204609 0.720932
O O1 0.551809 0.334012 0.951582
O O2 0.822099 0.426856 0.990822
O O3 0.981547 0.260328 0.880311
O O4 0.619727 0.234614 0.059635
O O5 0.391033 0.719753 0.197632
O O6 0.754751 0.798973 0.038293
O O7 0.781147 0.593398 0.058424
O O8 0.290295 0.917539 0.684658
O O9 0.450988 0.893505 0.512036
O O10 0.724706 0.981196 0.539910
O O11 0.500000 0.084984 0.250000
O O12 0.018569 0.088264 0.377941
O O13 0.243252 0.914927 0.281824
O O14 0.000000 0.185990 0.750000
#
# Coordination Sequence:
#
# PCOD9231059 Si02
#       7
#     4   4   4   4   4   2   4
#     4  10  23  42  68  97 127 172 217 265 321 379
#     4  10  23  42  68  97 127 172 217 265 321 379
#     4  10  20  38  63  91 128 165 204 255 321 386
#     4  12  24  32  58  99 140 166 203 252 319 402
#     4  10  20  38  63  91 128 165 204 255 321 386
#     4  12  26  42  66  82 132 164 224 276 308 370
#     4  10  20  40  66  95 128 162 215 265 314 383
#
# _framework density 20.778310000000001
#
# number of rings (size 3 to 8) (size 9 to 14) (size 15 to 20)
#    0.000    1.538    3.077    1.846    4.308    0.615 
#    0.000    3.077    0.000    3.692    0.000    0.000 
#    0.000    0.000    0.000    0.000    0.000    0.000 
#
# Total GULP energy -144742.650408 kJ/mol
# GULP energy per Si atom -5567.025016 kJ/mol
# Density = 2.073102 g / cm^3
# Si number density = 20.778310 Si / 1000 Ang^3
#
#
#
# Elastic Constant Matrix: (Units=GPa)
#
#
# Indices 1 2 3 4 5 6 
#
# 1 84.3467 26.4586 7.8229 0.0000 -8.0466 0.0000
# 2 26.4586 53.8092 25.6422 0.0000 -12.8287 0.0000
# 3 7.8229 25.6422 91.0055 0.0000 -27.1507 0.0000
# 4 0.0000 0.0000 0.0000 2.2429 0.0000 -9.6756
# 5 -8.0466 -12.8287 -27.1507 0.0000 30.7832 0.0000
# 6 0.0000 0.0000 0.0000 -9.6756 0.0000 29.6584
#
#
#
# Elastic Compliance Matrix: (Units=1/GPa)
#
#
# Indices 1 2 3 4 5 6 
#
# 1 0.014157 -0.007156 0.001376 0.000000 0.001932 0.000000
# 2 -0.007156 0.025643 -0.005401 0.000000 0.004052 0.000000
# 3 0.001376 -0.005401 0.016051 0.000000 0.012266 0.000000
# 4 0.000000 0.000000 0.000000 -1.094572 0.000000 -0.357086
# 5 0.001932 0.004052 0.012266 0.000000 0.045497 0.000000
# 6 0.000000 0.000000 0.000000 -0.357086 0.000000 -0.082776
#
#
# Mechanical properties :
#
#
# Convention : Reuss Voigt Hill
#
# Bulk Modulus (GPa) = 29.86140 38.77875 34.32008
# Shear Modulus (GPa) = -4.79629 23.81942 9.51157
#
# Velocity S-wave (km/s) = -1.52096 3.38947 2.14186
# Velocity P-wave (km/s) = 3.36425 5.83280 4.76129
#
# Compressibility (1/GPa) = 0.03348805
#
# Stress axis : x y z
#
# Youngs Moduli (GPa) = 70.63439 38.99692 62.29982
#
# Poissons Ratio (x) = 0.27908 -0.08571
# Poissons Ratio (y) = 0.50549 0.33650
# Poissons Ratio (z) = -0.09718 0.21063
#
# Static dielectric constant tensor:
#      x y z
#    x 1.834300 0.000000 0.036630 
#    y 0.000000 1.708080 0.000000 
#    z 0.036630 0.000000 1.740240 
# 
# From -- ./inp_files/76368.got.cif
#   From: 2010.05.17/outbox.cif.g08.bks.cpg/sg13_39_cif.got.tgz:76368.got - 2010.06.03 16:44:36.
