data_PCOD9231992
_publ_section_title
;
Structure prediction by ZEFSAII (Michael W. Deem and Ramdas Pophale) SiO2 
 PCOD9231992
Probable space group: P 2/C
;
_chemical_formula_sum "Si O2"
_cell_formula_units_Z 14
_cell_length_a 5.175573
_cell_length_b 10.564705
_cell_length_c 12.419197
_cell_angle_alpha 90.000000
_cell_angle_beta 113.939165
_cell_angle_gamma 90.000000
_cell_volume 620.646775
_symmetry_space_group_name_H-M "P 2/C"
_symmetry_group_IT_number 13
_symmetry_cell_setting 'monoclinic'
loop_
_space_group_symop_operation_xyz
x,y,z
-x,y,1/2-z
-x,-y,-z
x,-y,1/2+z
loop_
_atom_site_type_symbol
_atom_site_label
_atom_site_fract_x
_atom_site_fract_y
_atom_site_fract_z
Si Si1 0.804316 0.749333 0.893308
Si Si2 0.000000 0.554343 0.750000
Si Si3 0.774375 0.312616 0.627997
Si Si4 0.365137 0.864383 0.957681
O O1 0.861283 0.639761 0.817903
O O2 0.496945 0.807023 0.869410
O O3 0.030055 0.858484 0.903752
O O4 0.884413 0.693704 0.024656
O O5 0.763508 0.458581 0.662366
O O6 0.491074 0.231059 0.569847
O O7 0.000000 0.255177 0.750000
O O8 0.500000 0.000000 0.000000
#
# Coordination Sequence:
#
# PCOD9231992 Si02
#       4
#     4   2   4   4
#     4  10  22  41  62  96 122 172 207 268 317 371
#     4  10  20  44  60 102 130 164 216 262 328 378
#     4   8  21  40  63  94 124 168 204 268 315 372
#     4  10  22  43  65  90 128 169 219 258 314 381
#
# _framework density 22.557113999999999
#
# number of rings (size 3 to 8) (size 9 to 14) (size 15 to 20)
#    2.571    0.000    0.000    1.714    0.000    3.429 
#    7.714    2.857    0.000    0.000    0.000    0.000 
#    0.000    0.000    0.000    0.000    0.000    0.000 
#
# Total GULP energy -77980.719064 kJ/mol
# GULP energy per Si atom -5570.051362 kJ/mol
# Density = 2.250577 g / cm^3
# Si number density = 22.557114 Si / 1000 Ang^3
#
#
#
# Elastic Constant Matrix: (Units=GPa)
#
#
# Indices 1 2 3 4 5 6 
#
# 1 77.2150 3.9790 23.8063 0.0000 3.3954 0.0000
# 2 3.9790 94.2642 16.8568 0.0000 -0.8019 0.0000
# 3 23.8063 16.8568 75.5908 0.0000 -21.1205 0.0000
# 4 0.0000 0.0000 0.0000 14.3959 0.0000 -1.1092
# 5 3.3954 -0.8019 -21.1205 0.0000 28.2352 0.0000
# 6 0.0000 0.0000 0.0000 -1.1092 0.0000 16.4277
#
#
#
# Elastic Compliance Matrix: (Units=1/GPa)
#
#
# Indices 1 2 3 4 5 6 
#
# 1 0.015363 0.000528 -0.006913 0.000000 -0.007003 0.000000
# 2 0.000528 0.011151 -0.003265 0.000000 -0.002189 0.000000
# 3 -0.006913 -0.003265 0.020658 0.000000 0.016191 0.000000
# 4 0.000000 0.000000 0.000000 0.069827 0.000000 0.004715
# 5 -0.007003 -0.002189 0.016191 0.000000 0.048308 0.000000
# 6 0.000000 0.000000 0.000000 0.004715 0.000000 0.061191
#
#
# Mechanical properties :
#
#
# Convention : Reuss Voigt Hill
#
# Bulk Modulus (GPa) = 35.87622 37.37270 36.62446
# Shear Modulus (GPa) = 19.60096 25.30697 22.45397
#
# Velocity S-wave (km/s) = 2.95099 3.35312 3.15846
# Velocity P-wave (km/s) = 5.24884 5.62096 5.43808
#
# Compressibility (1/GPa) = 0.02787362
#
# Stress axis : x y z
#
# Youngs Moduli (GPa) = 65.09165 89.67514 48.40681
#
# Poissons Ratio (x) = -0.04736 0.33463
# Poissons Ratio (y) = -0.03438 0.15803
# Poissons Ratio (z) = 0.44998 0.29276
#
# Static dielectric constant tensor:
#      x y z
#    x 1.873760 0.000000 0.077870 
#    y 0.000000 1.805040 0.000000 
#    z 0.077870 0.000000 1.944790 
# 
# From -- ./inp_files/43119.got.cif
#   From: 2010.05.17/outbox.cif.g08.bks.cpg/sg13_22_cif.got.tgz:43119.got - 2010.06.03 16:44:36.
