data_PCOD9231104
_publ_section_title
;
Structure prediction by ZEFSAII (Michael W. Deem and Ramdas Pophale) SiO2 
 PCOD9231104
Probable space group: P 2/C
;
_chemical_formula_sum "Si O2"
_cell_formula_units_Z 22
_cell_length_a 6.005499
_cell_length_b 16.381000
_cell_length_c 11.475701
_cell_angle_alpha 90.000000
_cell_angle_beta 66.150528
_cell_angle_gamma 90.000000
_cell_volume 1032.535755
_symmetry_space_group_name_H-M "P 2/C"
_symmetry_group_IT_number 13
_symmetry_cell_setting 'monoclinic'
loop_
_space_group_symop_operation_xyz
x,y,z
-x,y,1/2-z
-x,-y,-z
x,-y,1/2+z
loop_
_atom_site_type_symbol
_atom_site_label
_atom_site_fract_x
_atom_site_fract_y
_atom_site_fract_z
Si Si1 0.069557 0.132266 0.994265
Si Si2 0.768453 0.440679 0.035280
Si Si3 0.490370 0.396975 0.886419
Si Si4 0.768261 0.984052 0.396780
Si Si5 0.024351 0.308164 0.107139
Si Si6 0.500000 0.089099 0.750000
O O1 0.335389 0.138167 0.876123
O O2 0.883014 0.092431 0.941309
O O3 0.997641 0.220004 0.054908
O O4 0.092126 0.065774 0.093351
O O5 0.558589 0.505177 0.106891
O O6 0.808582 0.368133 0.115057
O O7 0.728939 0.397585 0.918016
O O8 0.000000 0.500000 0.000000
O O9 0.500000 0.368254 0.750000
O O10 0.274796 0.350021 0.003294
O O11 0.704422 0.962875 0.276898
O O12 0.500000 0.000000 0.500000
O O13 0.000000 0.300312 0.250000
#
# Coordination Sequence:
#
# PCOD9231104 Si02
#       6
#     4   4   4   4   4   2
#     4  10  22  40  62  94 129 173 215 274 331 395
#     4   9  22  41  66  96 127 166 216 274 329 395
#     4  10  23  43  70  94 125 175 223 266 330 410
#     4   9  20  39  64  91 124 171 223 269 324 394
#     4  11  26  41  62  98 138 168 215 280 339 391
#     4  10  20  38  64  92 124 168 230 270 318 394
#
# _framework density 21.306768000000002
#
# number of rings (size 3 to 8) (size 9 to 14) (size 15 to 20)
#    0.000    2.182    0.000    0.545    8.909    9.455 
#    3.273    0.000    0.000    0.000    0.000    0.000 
#    0.000    0.000    0.000    0.000    0.000    0.000 
#
# Total GULP energy -122567.189835 kJ/mol
# GULP energy per Si atom -5571.235902 kJ/mol
# Density = 2.125827 g / cm^3
# Si number density = 21.306768 Si / 1000 Ang^3
#
#
#
# Elastic Constant Matrix: (Units=GPa)
#
#
# Indices 1 2 3 4 5 6 
#
# 1 75.0429 30.3377 25.2628 0.0000 19.4687 0.0000
# 2 30.3377 148.4685 35.3263 0.0000 7.1955 0.0000
# 3 25.2628 35.3263 115.5151 0.0000 -3.7731 0.0000
# 4 0.0000 0.0000 0.0000 25.4859 0.0000 1.1599
# 5 19.4687 7.1955 -3.7731 0.0000 34.8626 0.0000
# 6 0.0000 0.0000 0.0000 1.1599 0.0000 16.1254
#
#
#
# Elastic Compliance Matrix: (Units=1/GPa)
#
#
# Indices 1 2 3 4 5 6 
#
# 1 0.018069 -0.002362 -0.003555 0.000000 -0.009988 0.000000
# 2 -0.002362 0.007680 -0.001847 0.000000 -0.000466 0.000000
# 3 -0.003555 -0.001847 0.010112 0.000000 0.003461 0.000000
# 4 0.000000 0.000000 0.000000 0.039366 0.000000 -0.002832
# 5 -0.009988 -0.000466 0.003461 0.000000 0.034732 0.000000
# 6 0.000000 0.000000 0.000000 -0.002832 0.000000 0.062218
#
#
# Mechanical properties :
#
#
# Convention : Reuss Voigt Hill
#
# Bulk Modulus (GPa) = 49.18461 57.87558 53.53010
# Shear Modulus (GPa) = 25.70899 31.83477 28.77188
#
# Velocity S-wave (km/s) = 3.47740 3.86957 3.67872
# Velocity P-wave (km/s) = 6.26556 6.86926 6.57434
#
# Compressibility (1/GPa) = 0.02033156
#
# Stress axis : x y z
#
# Youngs Moduli (GPa) = 55.34452 130.20418 98.88809
#
# Poissons Ratio (x) = 0.30755 0.35159
# Poissons Ratio (y) = 0.13073 0.18268
# Poissons Ratio (z) = 0.19677 0.24054
#
# Static dielectric constant tensor:
#      x y z
#    x 1.863380 0.000000 0.016290 
#    y 0.000000 1.738160 0.000000 
#    z 0.016290 0.000000 1.891910 
# 
# From -- ./inp_files/26196.got.cif
#   From: 2010.05.17/outbox.cif.g08.bks.cpg/sg13_14_cif.got.tgz:26196.got - 2010.06.03 16:44:36.
