data_PCOD9231247
_publ_section_title
;
Structure prediction by ZEFSAII (Michael W. Deem and Ramdas Pophale) SiO2 
 PCOD9231247
Probable space group: P 2/C
;
_chemical_formula_sum "Si O2"
_cell_formula_units_Z 30
_cell_length_a 13.436485
_cell_length_b 8.167323
_cell_length_c 20.338895
_cell_angle_alpha 90.000000
_cell_angle_beta 143.670890
_cell_angle_gamma 90.000000
_cell_volume 1322.282806
_symmetry_space_group_name_H-M "P 2/C"
_symmetry_group_IT_number 13
_symmetry_cell_setting 'monoclinic'
loop_
_space_group_symop_operation_xyz
x,y,z
-x,y,1/2-z
-x,-y,-z
x,-y,1/2+z
loop_
_atom_site_type_symbol
_atom_site_label
_atom_site_fract_x
_atom_site_fract_y
_atom_site_fract_z
Si Si1 0.806833 0.302513 0.628816
Si Si2 0.146318 0.078401 0.380705
Si Si3 0.687593 0.481509 0.437229
Si Si4 0.530761 0.194425 0.009890
Si Si5 0.185384 0.166479 0.543578
Si Si6 0.621569 0.299888 0.204130
Si Si7 0.500000 0.052242 0.250000
Si Si8 0.095702 0.669850 0.552790
O O1 0.754880 0.429088 0.544499
O O2 0.648170 0.288465 0.595880
O O3 0.000000 0.340147 0.750000
O O4 0.812068 0.114385 0.606036
O O5 0.311122 0.191712 0.455193
O O6 0.100455 0.100501 0.431919
O O7 0.000000 0.116980 0.250000
O O8 0.742194 0.654897 0.438052
O O9 0.488049 0.458069 0.334466
O O10 0.766662 0.343569 0.430626
O O11 0.595667 0.259715 0.114590
O O12 0.500000 0.000000 0.000000
O O13 0.338023 0.055607 0.647105
O O14 0.044624 0.191802 0.524362
O O15 0.810201 0.320492 0.327743
O O16 0.546900 0.156164 0.210199
O O17 0.000000 0.500000 0.500000
#
# Coordination Sequence:
#
# PCOD9231247 Si02
#       8
#     4   4   4   4   4   4   2   4
#     4   9  19  37  60  87 114 161 208 251 309 371
#     4  10  20  39  59  84 124 155 204 264 308 359
#     4  10  21  41  63  83 127 165 205 253 307 379
#     4   9  18  35  60  87 119 156 204 252 308 365
#     4  11  25  39  58  94 124 161 205 257 313 361
#     4  11  21  41  66  89 120 170 205 249 320 374
#     4  12  24  38  62  92 128 158 202 258 314 374
#     4  10  22  39  61  88 120 166 206 248 306 372
#
# _framework density 22.688037000000001
#
# number of rings (size 3 to 8) (size 9 to 14) (size 15 to 20)
#    0.000    1.867    1.333    3.200    3.733    1.067 
#    9.600    2.667    0.000    0.000    0.000    0.000 
#    0.000    0.000    0.000    0.000    0.000    0.000 
#
# Total GULP energy -167496.518880 kJ/mol
# GULP energy per Si atom -5583.217296 kJ/mol
# Density = 2.263640 g / cm^3
# Si number density = 22.688037 Si / 1000 Ang^3
#
#
#
# Elastic Constant Matrix: (Units=GPa)
#
#
# Indices 1 2 3 4 5 6 
#
# 1 49.4644 3.1452 -7.6292 0.0000 6.2379 0.0000
# 2 3.1452 54.0949 18.1859 0.0000 3.6758 0.0000
# 3 -7.6292 18.1859 100.1974 0.0000 18.9072 0.0000
# 4 0.0000 0.0000 0.0000 29.8326 0.0000 2.1225
# 5 6.2379 3.6758 18.9072 0.0000 24.0140 0.0000
# 6 0.0000 0.0000 0.0000 2.1225 0.0000 10.0834
#
#
#
# Elastic Compliance Matrix: (Units=1/GPa)
#
#
# Indices 1 2 3 4 5 6 
#
# 1 0.021924 -0.001916 0.003566 0.000000 -0.008209 0.000000
# 2 -0.001916 0.019856 -0.003841 0.000000 0.000482 0.000000
# 3 0.003566 -0.003841 0.012934 0.000000 -0.010522 0.000000
# 4 0.000000 0.000000 0.000000 0.034030 0.000000 -0.007163
# 5 -0.008209 0.000482 -0.010522 0.000000 0.051986 0.000000
# 6 0.000000 0.000000 0.000000 -0.007163 0.000000 0.100681
#
#
# Mechanical properties :
#
#
# Convention : Reuss Voigt Hill
#
# Bulk Modulus (GPa) = 19.86756 25.68449 22.77602
# Shear Modulus (GPa) = 19.04261 25.45631 22.24946
#
# Velocity S-wave (km/s) = 2.90025 3.35328 3.13496
# Velocity P-wave (km/s) = 4.47114 5.13205 4.81296
#
# Compressibility (1/GPa) = 0.05033332
#
# Stress axis : x y z
#
# Youngs Moduli (GPa) = 45.61284 50.36302 77.31281
#
# Poissons Ratio (x) = 0.09648 -0.27571
# Poissons Ratio (y) = 0.08738 0.29694
# Poissons Ratio (z) = -0.16266 0.19343
#
# Static dielectric constant tensor:
#      x y z
#    x 1.870700 0.000000 0.050450 
#    y 0.000000 1.783950 0.000000 
#    z 0.050450 0.000000 1.862490 
# 
# From -- ./inp_files/87312.got.cif
#   From: 2010.05.17/outbox.cif.g08.bks.cpg/sg13_44_cif.got.tgz:87312.got - 2010.06.03 16:44:36.
