data_PCOD9231655
_publ_section_title
;
Structure prediction by ZEFSAII (Michael W. Deem and Ramdas Pophale) SiO2 
 PCOD9231655
Probable space group: P 2/C
;
_chemical_formula_sum "Si O2"
_cell_formula_units_Z 26
_cell_length_a 15.704711
_cell_length_b 13.204024
_cell_length_c 11.516617
_cell_angle_alpha 90.000000
_cell_angle_beta 153.275080
_cell_angle_gamma 90.000000
_cell_volume 1073.967956
_symmetry_space_group_name_H-M "P 2/C"
_symmetry_group_IT_number 13
_symmetry_cell_setting 'monoclinic'
loop_
_space_group_symop_operation_xyz
x,y,z
-x,y,1/2-z
-x,-y,-z
x,-y,1/2+z
loop_
_atom_site_type_symbol
_atom_site_label
_atom_site_fract_x
_atom_site_fract_y
_atom_site_fract_z
Si Si1 0.000000 0.795399 0.250000
Si Si2 0.065579 0.252110 0.445446
Si Si3 0.828628 0.125762 0.320210
Si Si4 0.681898 0.642267 0.908568
Si Si5 0.909732 0.529056 0.765632
Si Si6 0.584379 0.048041 0.481833
Si Si7 0.504172 0.746734 0.009571
O O1 0.858029 0.717436 0.140988
O O2 0.123548 0.863844 0.485517
O O3 0.004065 0.179096 0.472465
O O4 0.933063 0.351049 0.293147
O O5 0.000000 0.195372 0.250000
O O6 0.283974 0.286288 0.697867
O O7 0.637496 0.196197 0.073470
O O8 0.780242 0.014546 0.217075
O O9 0.720163 0.535089 0.017058
O O10 0.620444 0.656194 0.699035
O O11 0.000000 0.496501 0.750000
O O12 0.000000 0.500000 0.000000
O O13 0.500000 0.032064 0.250000
O O14 0.500000 0.000000 0.500000
O O15 0.560516 0.164726 0.486466
O O16 0.500000 0.683456 0.750000
#
# Coordination Sequence:
#
# PCOD9231655 Si02
#       7
#     2   4   4   4   4   4   4
#     4  10  20  40  68 106 132 180 244 284 338 420
#     4  11  26  45  65 103 146 180 232 295 357 420
#     4  10  23  42  72  98 144 187 230 289 354 420
#     4  11  21  40  71  97 133 183 234 288 342 413
#     4  11  24  44  67 101 143 177 235 302 343 413
#     4  10  23  42  70 106 140 181 240 290 343 427
#     4  10  23  44  71 100 133 191 236 284 350 426
#
# _framework density 24.209291
#
# number of rings (size 3 to 8) (size 9 to 14) (size 15 to 20)
#    0.000    1.538    0.769    3.231    6.462    3.077 
#    6.923    3.846    0.000    0.000    0.000    0.000 
#    0.000    0.000    0.000    0.000    0.000    0.000 
#
# Total GULP energy -144810.299657 kJ/mol
# GULP energy per Si atom -5569.626910 kJ/mol
# Density = 2.415419 g / cm^3
# Si number density = 24.209291 Si / 1000 Ang^3
#
#
#
# Elastic Constant Matrix: (Units=GPa)
#
#
# Indices 1 2 3 4 5 6 
#
# 1 75.8266 9.1855 28.5991 0.0000 0.5490 0.0000
# 2 9.1855 84.0175 53.0586 0.0000 -5.7306 0.0000
# 3 28.5991 53.0586 129.8393 0.0000 6.8084 0.0000
# 4 0.0000 0.0000 0.0000 30.8779 0.0000 -16.7143
# 5 0.5490 -5.7306 6.8084 0.0000 44.2433 0.0000
# 6 0.0000 0.0000 0.0000 -16.7143 0.0000 -27.0366
#
#
#
# Elastic Compliance Matrix: (Units=1/GPa)
#
#
# Indices 1 2 3 4 5 6 
#
# 1 0.014412 0.000638 -0.003458 0.000000 0.000436 0.000000
# 2 0.000638 0.016507 -0.007055 0.000000 0.003216 0.000000
# 3 -0.003458 -0.007055 0.011485 0.000000 -0.002638 0.000000
# 4 0.000000 0.000000 0.000000 0.024265 0.000000 -0.015001
# 5 0.000436 0.003216 -0.002638 0.000000 0.023419 0.000000
# 6 0.000000 0.000000 0.000000 -0.015001 0.000000 -0.027713
#
#
# Mechanical properties :
#
#
# Convention : Reuss Voigt Hill
#
# Bulk Modulus (GPa) = 44.14229 52.37442 48.25836
# Shear Modulus (GPa) = 55.75612 22.87293 39.31452
#
# Velocity S-wave (km/s) = 4.80426 3.07709 4.03419
# Velocity P-wave (km/s) = 7.00341 5.85710 6.45575
#
# Compressibility (1/GPa) = 0.02265401
#
# Stress axis : x y z
#
# Youngs Moduli (GPa) = 69.38773 60.58009 87.07216
#
# Poissons Ratio (x) = -0.03864 0.30109
# Poissons Ratio (y) = -0.04426 0.61427
# Poissons Ratio (z) = 0.23994 0.42738
#
# Static dielectric constant tensor:
#      x y z
#    x 2.094050 0.000000 0.002190 
#    y 0.000000 1.944260 0.000000 
#    z 0.002190 0.000000 2.179220 
# 
# From -- ./inp_files/39353.got.cif
#   From: 2010.05.17/outbox.cif.g08.bks.cpg/sg13_20_cif.got.tgz:39353.got - 2010.06.03 16:44:36.
