data_PCOD9231134
_publ_section_title
;
Structure prediction by ZEFSAII (Michael W. Deem and Ramdas Pophale) SiO2 
 PCOD9231134
Probable space group: P 2/C
;
_chemical_formula_sum "Si O2"
_cell_formula_units_Z 24
_cell_length_a 19.345081
_cell_length_b 6.197905
_cell_length_c 14.334199
_cell_angle_alpha 90.000000
_cell_angle_beta 45.297130
_cell_angle_gamma 90.000000
_cell_volume 1221.559052
_symmetry_space_group_name_H-M "P 2/C"
_symmetry_group_IT_number 13
_symmetry_cell_setting 'monoclinic'
loop_
_space_group_symop_operation_xyz
x,y,z
-x,y,1/2-z
-x,-y,-z
x,-y,1/2+z
loop_
_atom_site_type_symbol
_atom_site_label
_atom_site_fract_x
_atom_site_fract_y
_atom_site_fract_z
Si Si1 0.252869 0.210030 0.958508
Si Si2 0.385870 0.940103 0.718568
Si Si3 0.440791 0.701100 0.011407
Si Si4 0.764255 0.459658 0.866131
Si Si5 0.109776 0.170878 0.612108
Si Si6 0.787485 0.597253 0.643098
O O1 0.248933 0.391515 0.881767
O O2 0.343914 0.057455 0.849246
O O3 0.254978 0.329454 0.054112
O O4 0.157440 0.061397 0.048786
O O5 0.484374 0.806400 0.632426
O O6 0.299405 0.775402 0.769732
O O7 0.410492 0.122607 0.618237
O O8 0.341054 0.631638 0.059289
O O9 0.500000 0.500000 0.000000
O O10 0.826246 0.295188 0.870211
O O11 0.813778 0.522687 0.721537
O O12 0.126439 0.301466 0.500235
O O13 0.000000 0.160340 0.750000
#
# Coordination Sequence:
#
# PCOD9231134 Si02
#       6
#     4   4   4   4   4   4
#     4  10  22  41  63  92 133 165 213 272 315 383
#     4  10  20  38  65  92 133 171 209 264 312 371
#     4  11  21  37  66  95 130 171 215 259 310 382
#     4  11  23  40  69  93 127 175 214 260 326 384
#     4  10  25  44  65  96 125 162 215 274 331 388
#     4  10  21  43  67  92 132 168 211 266 322 385
#
# _framework density 19.647024999999999
#
# number of rings (size 3 to 8) (size 9 to 14) (size 15 to 20)
#    0.000    1.667    3.333    0.000    2.333    3.333 
#    0.000   21.667    0.000    0.000    0.000    0.000 
#    0.000    0.000    0.000    0.000    0.000    0.000 
#
# Total GULP energy -134010.732161 kJ/mol
# GULP energy per Si atom -5583.780507 kJ/mol
# Density = 1.960231 g / cm^3
# Si number density = 19.647025 Si / 1000 Ang^3
#
#
#
# Elastic Constant Matrix: (Units=GPa)
#
#
# Indices 1 2 3 4 5 6 
#
# 1 63.3742 35.0358 46.0088 0.0000 4.2491 0.0000
# 2 35.0358 108.2887 58.1472 0.0000 -4.0934 0.0000
# 3 46.0088 58.1472 150.4971 0.0000 -8.3168 0.0000
# 4 0.0000 0.0000 0.0000 31.2445 0.0000 5.5258
# 5 4.2491 -4.0934 -8.3168 0.0000 42.7435 0.0000
# 6 0.0000 0.0000 0.0000 5.5258 0.0000 15.9542
#
#
#
# Elastic Compliance Matrix: (Units=1/GPa)
#
#
# Indices 1 2 3 4 5 6 
#
# 1 0.022377 -0.004538 -0.005291 0.000000 -0.003689 0.000000
# 2 -0.004538 0.012575 -0.003416 0.000000 0.000991 0.000000
# 3 -0.005291 -0.003416 0.009698 0.000000 0.002086 0.000000
# 4 0.000000 0.000000 0.000000 0.034094 0.000000 -0.011809
# 5 -0.003689 0.000991 0.002086 0.000000 0.024263 0.000000
# 6 0.000000 0.000000 0.000000 -0.011809 0.000000 0.066770
#
#
# Mechanical properties :
#
#
# Convention : Reuss Voigt Hill
#
# Bulk Modulus (GPa) = 55.07339 66.72705 60.90022
# Shear Modulus (GPa) = 24.71337 30.18631 27.44984
#
# Velocity S-wave (km/s) = 3.55049 3.92399 3.74190
# Velocity P-wave (km/s) = 6.70077 7.38694 7.05220
#
# Compressibility (1/GPa) = 0.01815759
#
# Stress axis : x y z
#
# Youngs Moduli (GPa) = 44.68901 79.52459 103.11893
#
# Poissons Ratio (x) = 0.36088 0.54564
# Poissons Ratio (y) = 0.20280 0.35230
# Poissons Ratio (z) = 0.23647 0.27169
#
# Static dielectric constant tensor:
#      x y z
#    x 1.648950 0.000000 0.016130 
#    y 0.000000 1.724720 0.000000 
#    z 0.016130 0.000000 1.688150 
# 
# From -- ./inp_files/52255.got.cif
#   From: 2010.05.17/outbox.cif.g08.bks.cpg/sg13_27_cif.got.tgz:52255.got - 2010.06.03 16:44:36.
