data_PCOD9231789
_publ_section_title
;
Structure prediction by ZEFSAII (Michael W. Deem and Ramdas Pophale) SiO2 
 PCOD9231789
Probable space group: P 2/C
;
_chemical_formula_sum "Si O2"
_cell_formula_units_Z 16
_cell_length_a 11.175106
_cell_length_b 7.642373
_cell_length_c 8.816220
_cell_angle_alpha 90.000000
_cell_angle_beta 89.227668
_cell_angle_gamma 90.000000
_cell_volume 752.874943
_symmetry_space_group_name_H-M "P 2/C"
_symmetry_group_IT_number 13
_symmetry_cell_setting 'monoclinic'
loop_
_space_group_symop_operation_xyz
x,y,z
-x,y,1/2-z
-x,-y,-z
x,-y,1/2+z
loop_
_atom_site_type_symbol
_atom_site_label
_atom_site_fract_x
_atom_site_fract_y
_atom_site_fract_z
Si Si1 0.870625 0.130005 0.824610
Si Si2 0.276932 0.090364 0.969709
Si Si3 0.621735 0.395675 0.342252
Si Si4 0.716237 0.304351 0.040523
O O1 0.774730 0.148615 0.690542
O O2 0.841886 0.276908 0.951077
O O3 0.000000 0.128798 0.750000
O O4 0.834511 0.952474 0.914844
O O5 0.359839 0.233146 0.045311
O O6 0.332094 0.895707 0.949892
O O7 0.500000 0.388305 0.250000
O O8 0.636466 0.570759 0.438239
O O9 0.721538 0.380586 0.208304
#
# Coordination Sequence:
#
# PCOD9231789 Si02
#       4
#     4   4   4   4
#     4  10  20  41  68  91 122 162 199 255 317 354
#     4  10  21  41  63  91 127 153 212 248 298 375
#     4  12  24  41  64  90 126 168 201 255 308 353
#     4  10  23  40  59  93 126 155 212 249 293 376
#
# _framework density 21.25187
#
# number of rings (size 3 to 8) (size 9 to 14) (size 15 to 20)
#    1.500    0.000    2.500    3.000    0.000    2.000 
#    0.000    6.250    0.000    0.000    0.000    0.000 
#    0.000    0.000    0.000    0.000    0.000    0.000 
#
# Total GULP energy -89202.974612 kJ/mol
# GULP energy per Si atom -5575.185913 kJ/mol
# Density = 2.120350 g / cm^3
# Si number density = 21.251870 Si / 1000 Ang^3
#
#
#
# Elastic Constant Matrix: (Units=GPa)
#
#
# Indices 1 2 3 4 5 6 
#
# 1 26.9793 15.3053 -2.5822 0.0000 -12.4160 0.0000
# 2 15.3053 102.7180 31.1455 0.0000 16.8270 0.0000
# 3 -2.5822 31.1455 109.6208 0.0000 -1.4862 0.0000
# 4 0.0000 0.0000 0.0000 19.3026 0.0000 2.0584
# 5 -12.4160 16.8270 -1.4862 0.0000 26.5140 0.0000
# 6 0.0000 0.0000 0.0000 2.0584 0.0000 13.8174
#
#
#
# Elastic Compliance Matrix: (Units=1/GPa)
#
#
# Indices 1 2 3 4 5 6 
#
# 1 0.071366 -0.020852 0.008244 0.000000 0.047115 0.000000
# 2 -0.020852 0.018193 -0.005954 0.000000 -0.021645 0.000000
# 3 0.008244 -0.005954 0.011120 0.000000 0.008263 0.000000
# 4 0.000000 0.000000 0.000000 0.052643 0.000000 -0.007842
# 5 0.047115 -0.021645 0.008263 0.000000 0.073979 0.000000
# 6 0.000000 0.000000 0.000000 -0.007842 0.000000 0.073541
#
#
# Mechanical properties :
#
#
# Convention : Reuss Voigt Hill
#
# Bulk Modulus (GPa) = 15.73387 36.33948 26.03667
# Shear Modulus (GPa) = 13.92173 24.95676 19.43925
#
# Velocity S-wave (km/s) = 2.56224 3.43057 3.02769
# Velocity P-wave (km/s) = 4.02157 5.72960 4.94981
#
# Compressibility (1/GPa) = 0.06355716
#
# Stress axis : x y z
#
# Youngs Moduli (GPa) = 14.01223 54.96481 89.92669
#
# Poissons Ratio (x) = 1.14612 -0.74139
# Poissons Ratio (y) = 0.29218 0.53540
# Poissons Ratio (z) = -0.11552 0.32725
#
# Static dielectric constant tensor:
#      x y z
#    x 1.800170 0.000000 -0.059620 
#    y 0.000000 1.765810 0.000000 
#    z -0.059620 0.000000 1.774200 
# 
# From -- ./inp_files/10752.got.cif
#   From: 2010.05.17/outbox.cif.g08.bks.cpg/sg13_6_cif.got.tgz:10752.got - 2010.06.03 16:44:36.
