data_PCOD9231168
_publ_section_title
;
Structure prediction by ZEFSAII (Michael W. Deem and Ramdas Pophale) SiO2 
 PCOD9231168
Probable space group: P 2/C
;
_chemical_formula_sum "Si O2"
_cell_formula_units_Z 22
_cell_length_a 8.553104
_cell_length_b 11.240683
_cell_length_c 12.799096
_cell_angle_alpha 90.000000
_cell_angle_beta 65.461587
_cell_angle_gamma 90.000000
_cell_volume 1119.401407
_symmetry_space_group_name_H-M "P 2/C"
_symmetry_group_IT_number 13
_symmetry_cell_setting 'monoclinic'
loop_
_space_group_symop_operation_xyz
x,y,z
-x,y,1/2-z
-x,-y,-z
x,-y,1/2+z
loop_
_atom_site_type_symbol
_atom_site_label
_atom_site_fract_x
_atom_site_fract_y
_atom_site_fract_z
Si Si1 0.578039 0.564690 0.331220
Si Si2 0.583088 0.120655 0.021619
Si Si3 0.000000 0.207330 0.250000
Si Si4 0.678333 0.192248 0.767536
Si Si5 0.846715 0.031962 0.119899
Si Si6 0.671607 0.332644 0.427439
O O1 0.500000 0.507460 0.250000
O O2 0.709713 0.666626 0.257565
O O3 0.657032 0.459359 0.375228
O O4 0.424741 0.634877 0.436090
O O5 0.696033 0.087476 0.090163
O O6 0.446456 0.224681 0.083641
O O7 0.679839 0.165031 0.890866
O O8 0.500000 0.000000 0.000000
O O9 0.099344 0.122811 0.304307
O O10 0.135723 0.284196 0.143407
O O11 0.500000 0.177400 0.750000
O O12 0.796188 0.094192 0.683182
O O13 0.000000 0.000000 0.000000
#
# Coordination Sequence:
#
# PCOD9231168 Si02
#       6
#     4   4   2   4   4   4
#     4   9  21  41  73  88 124 175 237 270 313 407
#     4  11  21  38  67  93 128 173 221 261 333 405
#     4  12  28  40  62 100 146 166 212 290 346 400
#     4  10  20  38  66  93 122 171 219 274 324 396
#     4  12  25  39  62  97 139 174 216 278 339 404
#     4  10  23  44  64 100 128 175 225 276 338 401
#
# _framework density 19.653361
#
# number of rings (size 3 to 8) (size 9 to 14) (size 15 to 20)
#    0.000    1.455    1.818    3.273    7.636    0.000 
#    0.000    7.273    0.000    0.000    0.000    0.000 
#    0.000    0.000    0.000    0.000    0.000    0.000 
#
# Total GULP energy -122546.353352 kJ/mol
# GULP energy per Si atom -5570.288789 kJ/mol
# Density = 1.960863 g / cm^3
# Si number density = 19.653361 Si / 1000 Ang^3
#
#
#
# Elastic Constant Matrix: (Units=GPa)
#
#
# Indices 1 2 3 4 5 6 
#
# 1 75.5357 46.7521 40.7461 0.0000 8.9424 0.0000
# 2 46.7521 127.5583 47.9642 0.0000 -7.8350 0.0000
# 3 40.7461 47.9642 73.1019 0.0000 7.6033 0.0000
# 4 0.0000 0.0000 0.0000 40.4308 0.0000 -6.8245
# 5 8.9424 -7.8350 7.6033 0.0000 39.4299 0.0000
# 6 0.0000 0.0000 0.0000 -6.8245 0.0000 18.7168
#
#
#
# Elastic Compliance Matrix: (Units=1/GPa)
#
#
# Indices 1 2 3 4 5 6 
#
# 1 0.021195 -0.004980 -0.008106 0.000000 -0.004233 0.000000
# 2 -0.004980 0.012060 -0.005616 0.000000 0.004609 0.000000
# 3 -0.008106 -0.005616 0.022254 0.000000 -0.003569 0.000000
# 4 0.000000 0.000000 0.000000 0.026356 0.000000 0.009610
# 5 -0.004233 0.004609 -0.003569 0.000000 0.027926 0.000000
# 6 0.000000 0.000000 0.000000 0.009610 0.000000 0.056932
#
#
# Mechanical properties :
#
#
# Convention : Reuss Voigt Hill
#
# Bulk Modulus (GPa) = 55.23661 60.79122 58.01392
# Shear Modulus (GPa) = 23.79131 29.09774 26.44452
#
# Velocity S-wave (km/s) = 3.48307 3.85196 3.67215
# Velocity P-wave (km/s) = 6.65899 7.12617 6.89654
#
# Compressibility (1/GPa) = 0.01810393
#
# Stress axis : x y z
#
# Youngs Moduli (GPa) = 47.18091 82.92008 44.93644
#
# Poissons Ratio (x) = 0.41298 0.36424
# Poissons Ratio (y) = 0.23498 0.25237
# Poissons Ratio (z) = 0.38244 0.46569
#
# Static dielectric constant tensor:
#      x y z
#    x 1.717840 0.000000 -0.018600 
#    y 0.000000 1.715400 0.000000 
#    z -0.018600 0.000000 1.758150 
# 
# From -- ./inp_files/29355.got.cif
#   From: 2010.05.17/outbox.cif.g08.bks.cpg/sg13_15_cif.got.tgz:29355.got - 2010.06.03 16:44:36.
