data_PCOD9231720
_publ_section_title
;
Structure prediction by ZEFSAII (Michael W. Deem and Ramdas Pophale) SiO2 
 PCOD9231720
Probable space group: P 2/C
;
_chemical_formula_sum "Si O2"
_cell_formula_units_Z 24
_cell_length_a 19.807548
_cell_length_b 5.388537
_cell_length_c 12.322277
_cell_angle_alpha 90.000000
_cell_angle_beta 128.274781
_cell_angle_gamma 90.000000
_cell_volume 1032.498358
_symmetry_space_group_name_H-M "P 2/C"
_symmetry_group_IT_number 13
_symmetry_cell_setting 'monoclinic'
loop_
_space_group_symop_operation_xyz
x,y,z
-x,y,1/2-z
-x,-y,-z
x,-y,1/2+z
loop_
_atom_site_type_symbol
_atom_site_label
_atom_site_fract_x
_atom_site_fract_y
_atom_site_fract_z
Si Si1 0.378509 0.904487 0.824563
Si Si2 0.555935 0.305123 0.489330
Si Si3 0.741261 0.790763 0.613574
Si Si4 0.952656 0.251910 0.086983
Si Si5 0.106305 0.752951 0.563766
Si Si6 0.701075 0.698255 0.965730
O O1 0.476858 0.880405 0.883624
O O2 0.349092 0.781375 0.909334
O O3 0.318451 0.788566 0.674245
O O4 0.375173 0.193001 0.855417
O O5 0.500000 0.500000 0.500000
O O6 0.608814 0.339759 0.433057
O O7 0.813364 0.757893 0.775988
O O8 0.745843 0.564813 0.533424
O O9 0.746222 0.064524 0.567131
O O10 0.000000 0.252848 0.250000
O O11 0.024796 0.247792 0.064264
O O12 0.899918 0.504225 0.013800
O O13 0.898920 0.000151 0.014621
#
# Coordination Sequence:
#
# PCOD9231720 Si02
#       6
#     4   4   4   4   4   4
#     4  10  23  39  60  87 117 157 199 251 301 349
#     4  10  20  41  61  82 118 154 202 254 294 348
#     4  11  24  40  59  89 125 154 196 246 297 357
#     4  10  21  39  64  89 118 157 200 238 289 353
#     4  10  22  39  60  90 123 155 194 246 291 347
#     4  11  24  39  61  88 117 160 202 241 300 358
#
# _framework density 23.244589999999999
#
# number of rings (size 3 to 8) (size 9 to 14) (size 15 to 20)
#    0.000    1.667    1.667    2.000    2.333    2.667 
#    0.000    0.000    0.000    0.000    0.000    0.000 
#    0.000    0.000    0.000    0.000    0.000    0.000 
#
# Total GULP energy -133913.342717 kJ/mol
# GULP energy per Si atom -5579.722613 kJ/mol
# Density = 2.319168 g / cm^3
# Si number density = 23.244590 Si / 1000 Ang^3
#
#
#
# Elastic Constant Matrix: (Units=GPa)
#
#
# Indices 1 2 3 4 5 6 
#
# 1 63.7223 12.0744 -14.2064 0.0000 -4.6293 0.0000
# 2 12.0744 168.1001 66.6483 0.0000 -6.7865 0.0000
# 3 -14.2064 66.6483 104.4903 0.0000 -3.1803 0.0000
# 4 0.0000 0.0000 0.0000 33.3778 0.0000 6.3915
# 5 -4.6293 -6.7865 -3.1803 0.0000 33.9917 0.0000
# 6 0.0000 0.0000 0.0000 6.3915 0.0000 -4.7237
#
#
#
# Elastic Compliance Matrix: (Units=1/GPa)
#
#
# Indices 1 2 3 4 5 6 
#
# 1 0.017332 -0.002834 0.004231 0.000000 0.002191 0.000000
# 2 -0.002834 0.008468 -0.005764 0.000000 0.000766 0.000000
# 3 0.004231 -0.005764 0.013844 0.000000 0.000721 0.000000
# 4 0.000000 0.000000 0.000000 0.023795 0.000000 0.032196
# 5 0.002191 0.000766 0.000721 0.000000 0.029938 0.000000
# 6 0.000000 0.000000 0.000000 0.032196 0.000000 -0.168134
#
#
# Mechanical properties :
#
#
# Convention : Reuss Voigt Hill
#
# Bulk Modulus (GPa) = 32.35077 51.70502 42.02790
# Shear Modulus (GPa) = -89.73453 30.64892 -29.54281
#
# Velocity S-wave (km/s) = -6.21999 3.63511 -3.56891
# Velocity P-wave (km/s) = 6.13487 6.31751 1.06636
#
# Compressibility (1/GPa) = 0.03091116
#
# Stress axis : x y z
#
# Youngs Moduli (GPa) = 57.69521 118.08581 72.23535
#
# Poissons Ratio (x) = 0.33465 -0.30561
# Poissons Ratio (y) = 0.16351 0.41633
# Poissons Ratio (z) = -0.24410 0.68059
#
# Static dielectric constant tensor:
#      x y z
#    x 1.943930 0.000000 0.011640 
#    y 0.000000 2.128040 0.000000 
#    z 0.011640 0.000000 1.875350 
# 
# From -- ./inp_files/41289.got.cif
#   From: 2010.05.17/outbox.cif.g08.bks.cpg/sg13_21_cif.got.tgz:41289.got - 2010.06.03 16:44:36.
