data_PCOD9231879
_publ_section_title
;
Structure prediction by ZEFSAII (Michael W. Deem and Ramdas Pophale) SiO2 
 PCOD9231879
Probable space group: P 2/C
;
_chemical_formula_sum "Si O2"
_cell_formula_units_Z 30
_cell_length_a 11.399493
_cell_length_b 9.299003
_cell_length_c 16.411981
_cell_angle_alpha 90.000000
_cell_angle_beta 122.476145
_cell_angle_gamma 90.000000
_cell_volume 1467.666097
_symmetry_space_group_name_H-M "P 2/C"
_symmetry_group_IT_number 13
_symmetry_cell_setting 'monoclinic'
loop_
_space_group_symop_operation_xyz
x,y,z
-x,y,1/2-z
-x,-y,-z
x,-y,1/2+z
loop_
_atom_site_type_symbol
_atom_site_label
_atom_site_fract_x
_atom_site_fract_y
_atom_site_fract_z
Si Si1 0.172281 0.401036 0.626434
Si Si2 0.370454 0.424367 0.903232
Si Si3 0.593813 0.733614 0.391294
Si Si4 0.500000 0.002383 0.750000
Si Si5 0.158982 0.775738 0.282861
Si Si6 0.230183 0.916131 0.735776
Si Si7 0.963784 0.296109 0.413704
Si Si8 0.211792 0.705151 0.881157
O O1 0.315066 0.362633 0.635268
O O2 0.161046 0.340872 0.712093
O O3 0.140958 0.569961 0.617776
O O4 0.059062 0.315958 0.528832
O O5 0.453150 0.351152 0.859774
O O6 0.268375 0.289804 0.890143
O O7 0.265235 0.557285 0.862171
O O8 0.500000 0.500000 0.000000
O O9 0.566390 0.887347 0.340415
O O10 0.680211 0.749932 0.507215
O O11 0.380489 0.911423 0.749325
O O12 0.000000 0.794099 0.250000
O O13 0.208238 0.922453 0.259014
O O14 0.117242 0.852513 0.630362
O O15 0.213184 0.819517 0.809785
O O16 0.066286 0.314381 0.374111
#
# Coordination Sequence:
#
# PCOD9231879 Si02
#       8
#     4   4   4   2   4   4   4   4
#     4  10  21  40  69  93 128 173 216 274 336 391
#     4  10  21  40  67  95 126 170 223 276 331 390
#     4  10  20  42  66  91 131 168 218 277 334 392
#     4  12  24  44  60  90 132 178 220 272 336 410
#     4  12  23  39  64  96 130 177 224 271 333 407
#     4  12  25  42  63  94 135 178 218 269 341 404
#     4  10  22  41  64  99 132 164 217 277 335 396
#     4  10  22  40  66  96 129 168 215 281 331 395
#
# _framework density 20.440617
#
# number of rings (size 3 to 8) (size 9 to 14) (size 15 to 20)
#    0.000    1.333    2.667    2.800    0.000    3.200 
#    2.400    1.333    0.000    0.000    0.000    0.000 
#    0.000    0.000    0.000    0.000    0.000    0.000 
#
# Total GULP energy -167314.112251 kJ/mol
# GULP energy per Si atom -5577.137075 kJ/mol
# Density = 2.039409 g / cm^3
# Si number density = 20.440617 Si / 1000 Ang^3
#
#
#
# Elastic Constant Matrix: (Units=GPa)
#
#
# Indices 1 2 3 4 5 6 
#
# 1 99.4531 -10.8419 8.6859 0.0000 17.7226 0.0000
# 2 -10.8419 64.0454 21.9712 0.0000 15.1295 0.0000
# 3 8.6859 21.9712 73.4396 0.0000 -1.9891 0.0000
# 4 0.0000 0.0000 0.0000 17.2023 0.0000 8.5786
# 5 17.7226 15.1295 -1.9891 0.0000 26.3096 0.0000
# 6 0.0000 0.0000 0.0000 8.5786 0.0000 39.7472
#
#
#
# Elastic Compliance Matrix: (Units=1/GPa)
#
#
# Indices 1 2 3 4 5 6 
#
# 1 0.013521 0.006808 -0.003997 0.000000 -0.013325 0.000000
# 2 0.006808 0.024237 -0.008576 0.000000 -0.019172 0.000000
# 3 -0.003997 -0.008576 0.016896 0.000000 0.008901 0.000000
# 4 0.000000 0.000000 0.000000 0.065143 0.000000 -0.014060
# 5 -0.013325 -0.019172 0.008901 0.000000 0.058683 0.000000
# 6 0.000000 0.000000 0.000000 -0.014060 0.000000 0.028193
#
#
# Mechanical properties :
#
#
# Convention : Reuss Voigt Hill
#
# Bulk Modulus (GPa) = 23.18863 30.72987 26.95925
# Shear Modulus (GPa) = 21.49823 31.12668 26.31245
#
# Velocity S-wave (km/s) = 3.24657 3.90652 3.59174
# Velocity P-wave (km/s) = 5.04209 5.95099 5.51529
#
# Compressibility (1/GPa) = 0.04312458
#
# Stress axis : x y z
#
# Youngs Moduli (GPa) = 73.96090 41.25885 59.18556
#
# Poissons Ratio (x) = -0.28087 0.23655
# Poissons Ratio (y) = -0.50350 0.50755
# Poissons Ratio (z) = 0.29560 0.35382
#
# Static dielectric constant tensor:
#      x y z
#    x 1.722320 0.000000 0.059850 
#    y 0.000000 1.695070 0.000000 
#    z 0.059850 0.000000 1.832510 
# 
# From -- ./inp_files/66323.got.cif
#   From: 2010.05.17/outbox.cif.g08.bks.cpg/sg13_34_cif.got.tgz:66323.got - 2010.06.03 16:44:36.
