data_PCOD9231400
_publ_section_title
;
Structure prediction by ZEFSAII (Michael W. Deem and Ramdas Pophale) SiO2 
 PCOD9231400
Probable space group: P 2/C
;
_chemical_formula_sum "Si O2"
_cell_formula_units_Z 24
_cell_length_a 15.661981
_cell_length_b 8.071609
_cell_length_c 21.270650
_cell_angle_alpha 90.000000
_cell_angle_beta 22.773181
_cell_angle_gamma 90.000000
_cell_volume 1040.861233
_symmetry_space_group_name_H-M "P 2/C"
_symmetry_group_IT_number 13
_symmetry_cell_setting 'monoclinic'
loop_
_space_group_symop_operation_xyz
x,y,z
-x,y,1/2-z
-x,-y,-z
x,-y,1/2+z
loop_
_atom_site_type_symbol
_atom_site_label
_atom_site_fract_x
_atom_site_fract_y
_atom_site_fract_z
Si Si1 0.981701 0.833304 0.160940
Si Si2 0.515833 0.885289 0.669845
Si Si3 0.615484 0.616151 0.472596
Si Si4 0.076309 0.309626 0.938049
Si Si5 0.512991 0.503412 0.314799
Si Si6 0.228916 0.120250 0.261082
O O1 0.834373 0.703590 0.298718
O O2 0.999035 0.763627 0.077615
O O3 0.852000 0.005150 0.239728
O O4 0.225801 0.868589 0.021340
O O5 0.500000 0.957112 0.750000
O O6 0.423657 0.694175 0.734795
O O7 0.358671 0.978491 0.728090
O O8 0.500000 0.500000 0.500000
O O9 0.655658 0.523009 0.512184
O O10 0.420934 0.752992 0.612074
O O11 0.333631 0.351583 0.762783
O O12 0.000000 0.500000 0.000000
O O13 0.977615 0.206003 0.063332
O O14 0.500000 0.548571 0.250000
#
# Coordination Sequence:
#
# PCOD9231400 Si02
#       6
#     4   4   4   4   4   4
#     4  12  24  41  68 101 137 188 231 284 361 416
#     4  10  20  39  66  91 135 181 230 276 346 424
#     4  11  22  43  71  98 135 186 232 291 354 417
#     4  12  19  40  68  96 135 177 233 285 339 416
#     4  10  21  39  66 101 130 175 238 286 335 421
#     4  11  24  41  65 101 138 183 231 289 347 423
#
# _framework density 23.057828000000001
#
# number of rings (size 3 to 8) (size 9 to 14) (size 15 to 20)
#    0.000    1.000    6.667    2.000    0.000    2.667 
#    3.000    0.000    0.000    0.000    0.000    0.000 
#    0.000    0.000    0.000    0.000    0.000    0.000 
#
# Total GULP energy -133732.818629 kJ/mol
# GULP energy per Si atom -5572.200776 kJ/mol
# Density = 2.300535 g / cm^3
# Si number density = 23.057828 Si / 1000 Ang^3
#
#
#
# Elastic Constant Matrix: (Units=GPa)
#
#
# Indices 1 2 3 4 5 6 
#
# 1 70.6001 14.3848 22.9531 0.0000 0.6337 0.0000
# 2 14.3848 62.6747 26.4235 0.0000 -9.4378 0.0000
# 3 22.9531 26.4235 142.5570 0.0000 -3.6865 0.0000
# 4 0.0000 0.0000 0.0000 26.5202 0.0000 -0.0896
# 5 0.6337 -9.4378 -3.6865 0.0000 39.3878 0.0000
# 6 0.0000 0.0000 0.0000 -0.0896 0.0000 29.9759
#
#
#
# Elastic Compliance Matrix: (Units=1/GPa)
#
#
# Indices 1 2 3 4 5 6 
#
# 1 0.015402 -0.002870 -0.001977 0.000000 -0.001121 0.000000
# 2 -0.002870 0.018448 -0.002849 0.000000 0.004200 0.000000
# 3 -0.001977 -0.002849 0.007863 0.000000 0.000085 0.000000
# 4 0.000000 0.000000 0.000000 0.037707 0.000000 0.000113
# 5 -0.001121 0.004200 0.000085 0.000000 0.026421 0.000000
# 6 0.000000 0.000000 0.000000 0.000113 0.000000 0.033360
#
#
# Mechanical properties :
#
#
# Convention : Reuss Voigt Hill
#
# Bulk Modulus (GPa) = 37.99206 44.81719 41.40462
# Shear Modulus (GPa) = 30.60602 33.31482 31.96042
#
# Velocity S-wave (km/s) = 3.64725 3.80523 3.72707
# Velocity P-wave (km/s) = 5.85228 6.22779 6.04295
#
# Compressibility (1/GPa) = 0.02632129
#
# Stress axis : x y z
#
# Youngs Moduli (GPa) = 64.92723 54.20773 127.17440
#
# Poissons Ratio (x) = 0.15559 0.25140
# Poissons Ratio (y) = 0.18636 0.36227
# Poissons Ratio (z) = 0.12835 0.15441
#
# Static dielectric constant tensor:
#      x y z
#    x 2.031780 0.000000 0.006770 
#    y 0.000000 1.900630 0.000000 
#    z 0.006770 0.000000 1.987290 
# 
# From -- ./inp_files/87995.got.cif
#   From: 2010.05.17/outbox.cif.g08.bks.cpg/sg13_44_cif.got.tgz:87995.got - 2010.06.03 16:44:36.
