data_PCOD9231853
_publ_section_title
;
Structure prediction by ZEFSAII (Michael W. Deem and Ramdas Pophale) SiO2 
 PCOD9231853
Probable space group: P 2/C
;
_chemical_formula_sum "Si O2"
_cell_formula_units_Z 26
_cell_length_a 27.864086
_cell_length_b 9.068379
_cell_length_c 12.012697
_cell_angle_alpha 90.000000
_cell_angle_beta 24.644221
_cell_angle_gamma 90.000000
_cell_volume 1265.705686
_symmetry_space_group_name_H-M "P 2/C"
_symmetry_group_IT_number 13
_symmetry_cell_setting 'monoclinic'
loop_
_space_group_symop_operation_xyz
x,y,z
-x,y,1/2-z
-x,-y,-z
x,-y,1/2+z
loop_
_atom_site_type_symbol
_atom_site_label
_atom_site_fract_x
_atom_site_fract_y
_atom_site_fract_z
Si Si1 0.125741 0.986446 0.488995
Si Si2 0.500000 0.941174 0.750000
Si Si3 0.323677 0.779680 0.976397
Si Si4 0.822750 0.212273 0.309161
Si Si5 0.955155 0.597754 0.694606
Si Si6 0.289976 0.954338 0.831050
Si Si7 0.187405 0.487369 0.809442
O O1 0.119100 0.107782 0.405049
O O2 0.223647 0.869849 0.251454
O O3 0.174241 0.058110 0.500651
O O4 0.000000 0.917936 0.750000
O O5 0.558650 0.840904 0.720979
O O6 0.600972 0.035003 0.480124
O O7 0.299454 0.610636 0.054619
O O8 0.307604 0.824677 0.882267
O O9 0.898797 0.260377 0.255326
O O10 0.722924 0.107898 0.571295
O O11 0.799136 0.361794 0.288347
O O12 0.000000 0.500000 0.500000
O O13 0.077176 0.608671 0.499588
O O14 0.856539 0.506805 0.970190
#
# Coordination Sequence:
#
# PCOD9231853 Si02
#       7
#     4   2   4   4   4   4   4
#     4  10  23  34  58  89 128 157 202 248 302 364
#     4  10  20  42  64  82 114 160 212 256 312 368
#     4  10  22  37  61  87 117 159 205 261 304 360
#     4  10  22  37  58  88 124 162 197 246 300 369
#     4   9  19  32  53  79 119 164 193 225 285 363
#     4  10  22  40  61  89 115 161 205 261 312 355
#     4  10  21  35  57  86 119 160 205 238 301 367
#
# _framework density 20.541900999999999
#
# number of rings (size 3 to 8) (size 9 to 14) (size 15 to 20)
#    0.000    2.154    0.000    2.308   10.769    2.462 
#    0.000    0.769    0.000    9.231    0.000    0.000 
#    0.000    0.000    0.000    0.000    0.000    0.000 
#
# Total GULP energy -144843.363512 kJ/mol
# GULP energy per Si atom -5570.898597 kJ/mol
# Density = 2.049515 g / cm^3
# Si number density = 20.541901 Si / 1000 Ang^3
#
#
#
# Elastic Constant Matrix: (Units=GPa)
#
#
# Indices 1 2 3 4 5 6 
#
# 1 69.7505 -7.5284 34.0235 0.0000 13.5531 0.0000
# 2 -7.5284 44.3385 11.6112 0.0000 11.6476 0.0000
# 3 34.0235 11.6112 69.6426 0.0000 5.6682 0.0000
# 4 0.0000 0.0000 0.0000 5.8209 0.0000 9.8188
# 5 13.5531 11.6476 5.6682 0.0000 33.4968 0.0000
# 6 0.0000 0.0000 0.0000 9.8188 0.0000 25.2433
#
#
#
# Elastic Compliance Matrix: (Units=1/GPa)
#
#
# Indices 1 2 3 4 5 6 
#
# 1 0.023557 0.010101 -0.012301 0.000000 -0.010962 0.000000
# 2 0.010101 0.030015 -0.008879 0.000000 -0.013021 0.000000
# 3 -0.012301 -0.008879 0.021488 0.000000 0.004428 0.000000
# 4 0.000000 0.000000 0.000000 0.499561 0.000000 -0.194312
# 5 -0.010962 -0.013021 0.004428 0.000000 0.038067 0.000000
# 6 0.000000 0.000000 0.000000 -0.194312 0.000000 0.115195
#
#
# Mechanical properties :
#
#
# Convention : Reuss Voigt Hill
#
# Bulk Modulus (GPa) = 18.90271 28.88270 23.89271
# Shear Modulus (GPa) = 6.51317 22.62056 14.56687
#
# Velocity S-wave (km/s) = 1.78257 3.32202 2.66584
# Velocity P-wave (km/s) = 3.66862 5.36706 4.59696
#
# Compressibility (1/GPa) = 0.05290246
#
# Stress axis : x y z
#
# Youngs Moduli (GPa) = 42.44990 33.31704 46.53673
#
# Poissons Ratio (x) = -0.33653 0.57243
# Poissons Ratio (y) = -0.42878 0.41321
# Poissons Ratio (z) = 0.52216 0.29583
#
# Static dielectric constant tensor:
#      x y z
#    x 1.891420 0.000000 0.032610 
#    y 0.000000 1.915940 0.000000 
#    z 0.032610 0.000000 1.749610 
# 
# From -- ./inp_files/42259.got.cif
#   From: 2010.05.17/outbox.cif.g08.bks.cpg/sg13_22_cif.got.tgz:42259.got - 2010.06.03 16:44:36.
