data_PCOD9231866
_publ_section_title
;
Structure prediction by ZEFSAII (Michael W. Deem and Ramdas Pophale) SiO2 
 PCOD9231866
Probable space group: P 2/C
;
_chemical_formula_sum "Si O2"
_cell_formula_units_Z 28
_cell_length_a 17.126432
_cell_length_b 6.411518
_cell_length_c 12.643356
_cell_angle_alpha 90.000000
_cell_angle_beta 117.752272
_cell_angle_gamma 90.000000
_cell_volume 1228.621950
_symmetry_space_group_name_H-M "P 2/C"
_symmetry_group_IT_number 13
_symmetry_cell_setting 'monoclinic'
loop_
_space_group_symop_operation_xyz
x,y,z
-x,y,1/2-z
-x,-y,-z
x,-y,1/2+z
loop_
_atom_site_type_symbol
_atom_site_label
_atom_site_fract_x
_atom_site_fract_y
_atom_site_fract_z
Si Si1 0.446525 0.849778 0.044125
Si Si2 0.807911 0.663091 0.871666
Si Si3 0.908807 0.045857 0.882773
Si Si4 0.142763 0.689206 0.963011
Si Si5 0.000000 0.033270 0.250000
Si Si6 0.291835 0.553462 0.890723
Si Si7 0.350139 0.223679 0.085450
Si Si8 0.500000 0.539522 0.250000
O O1 0.503929 0.689031 0.149971
O O2 0.395305 0.003819 0.092194
O O3 0.374923 0.709734 0.937142
O O4 0.500000 0.000000 0.000000
O O5 0.862705 0.825416 0.838955
O O6 0.755387 0.531119 0.751170
O O7 0.736240 0.781904 0.897563
O O8 0.870536 0.537963 0.992067
O O9 0.940037 0.113547 0.786987
O O10 0.848595 0.178113 0.923091
O O11 0.000000 0.000000 0.000000
O O12 0.225718 0.654174 0.937611
O O13 0.065814 0.810523 0.853529
O O14 0.323096 0.333506 0.958033
O O15 0.417020 0.388023 0.181342
#
# Coordination Sequence:
#
# PCOD9231866 Si02
#       8
#     4   4   4   4   2   4   4   2
#     4  11  25  41  68  96 130 177 213 268 334 384
#     4  11  23  42  69  93 128 173 211 273 325 381
#     4  10  22  41  65  92 130 167 212 263 321 385
#     4  10  22  44  63  95 130 170 217 266 319 387
#     4  10  20  42  64  96 134 164 212 266 318 400
#     4  10  23  42  63  97 131 168 222 272 320 390
#     4  10  24  42  65  96 132 171 226 264 328 388
#     4  10  24  42  64  98 134 170 220 272 312 394
#
# _framework density 22.789759
#
# number of rings (size 3 to 8) (size 9 to 14) (size 15 to 20)
#    0.000    1.714    1.429    1.286    6.000    4.571 
#   10.286    1.429    0.000    0.000    0.000    0.000 
#    0.000    0.000    0.000    0.000    0.000    0.000 
#
# Total GULP energy -156316.360201 kJ/mol
# GULP energy per Si atom -5582.727150 kJ/mol
# Density = 2.273789 g / cm^3
# Si number density = 22.789759 Si / 1000 Ang^3
#
#
#
# Elastic Constant Matrix: (Units=GPa)
#
#
# Indices 1 2 3 4 5 6 
#
# 1 45.4728 4.0039 4.6771 0.0000 -18.9111 0.0000
# 2 4.0039 39.0520 16.4727 0.0000 1.3111 0.0000
# 3 4.6771 16.4727 80.8962 0.0000 -2.3895 0.0000
# 4 0.0000 0.0000 0.0000 20.6053 0.0000 -3.1586
# 5 -18.9111 1.3111 -2.3895 0.0000 30.3908 0.0000
# 6 0.0000 0.0000 0.0000 -3.1586 0.0000 6.5631
#
#
#
# Elastic Compliance Matrix: (Units=1/GPa)
#
#
# Indices 1 2 3 4 5 6 
#
# 1 0.030219 -0.003536 -0.000468 0.000000 0.018920 0.000000
# 2 -0.003536 0.028511 -0.005716 0.000000 -0.003880 0.000000
# 3 -0.000468 -0.005716 0.013583 0.000000 0.001023 0.000000
# 4 0.000000 0.000000 0.000000 0.052397 0.000000 0.025217
# 5 0.018920 -0.003880 0.001023 0.000000 0.044926 0.000000
# 6 0.000000 0.000000 0.000000 0.025217 0.000000 0.164503
#
#
# Mechanical properties :
#
#
# Convention : Reuss Voigt Hill
#
# Bulk Modulus (GPa) = 18.91345 23.96983 21.44164
# Shear Modulus (GPa) = 13.46975 20.86299 17.16637
#
# Velocity S-wave (km/s) = 2.43378 3.02893 2.74752
# Velocity P-wave (km/s) = 4.02676 4.77213 4.41520
#
# Compressibility (1/GPa) = 0.05287241
#
# Stress axis : x y z
#
# Youngs Moduli (GPa) = 33.09175 35.07464 73.62317
#
# Poissons Ratio (x) = 0.12402 0.03448
# Poissons Ratio (y) = 0.11701 0.42081
# Poissons Ratio (z) = 0.01550 0.20048
#
# Static dielectric constant tensor:
#      x y z
#    x 1.895980 0.000000 0.083130 
#    y 0.000000 1.754220 0.000000 
#    z 0.083130 0.000000 2.158740 
# 
# From -- ./inp_files/54534.got.cif
#   From: 2010.05.17/outbox.cif.g08.bks.cpg/sg13_28_cif.got.tgz:54534.got - 2010.06.03 16:44:36.
