data_PCOD9231207
_publ_section_title
;
Structure prediction by ZEFSAII (Michael W. Deem and Ramdas Pophale) SiO2 
 PCOD9231207
Probable space group: P 2/C
;
_chemical_formula_sum "Si O2"
_cell_formula_units_Z 20
_cell_length_a 16.854772
_cell_length_b 11.414766
_cell_length_c 13.445204
_cell_angle_alpha 90.000000
_cell_angle_beta 161.143982
_cell_angle_gamma 90.000000
_cell_volume 836.019977
_symmetry_space_group_name_H-M "P 2/C"
_symmetry_group_IT_number 13
_symmetry_cell_setting 'monoclinic'
loop_
_space_group_symop_operation_xyz
x,y,z
-x,y,1/2-z
-x,-y,-z
x,-y,1/2+z
loop_
_atom_site_type_symbol
_atom_site_label
_atom_site_fract_x
_atom_site_fract_y
_atom_site_fract_z
Si Si1 0.500000 0.246694 0.750000
Si Si2 0.106711 0.573663 0.766256
Si Si3 0.800956 0.716164 0.268721
Si Si4 0.135383 0.093435 0.090454
Si Si5 0.500000 0.372413 0.250000
Si Si6 0.693326 0.107105 0.818445
O O1 0.321408 0.337822 0.482299
O O2 0.699257 0.165775 0.932231
O O3 0.000000 0.602568 0.750000
O O4 0.894779 0.596856 0.433351
O O5 0.254647 0.452804 0.957977
O O6 0.780968 0.803475 0.338293
O O7 0.988081 0.785300 0.417215
O O8 0.548928 0.700192 0.908629
O O9 0.401946 0.104725 0.454810
O O10 0.191136 0.020183 0.056778
O O11 0.000000 0.000000 0.000000
#
# Coordination Sequence:
#
# PCOD9231207 Si02
#       6
#     2   4   4   4   2   4
#     4  11  20  38  67 102 130 173 228 271 324 398
#     4  11  23  42  67 100 126 175 231 279 337 389
#     4  11  22  44  68  93 141 173 220 286 333 397
#     4   9  20  39  64  96 131 172 213 269 335 395
#     4  11  28  42  65  98 132 179 232 275 344 400
#     4  10  20  38  68  99 132 171 227 268 326 414
#
# _framework density 23.922872999999999
#
# number of rings (size 3 to 8) (size 9 to 14) (size 15 to 20)
#    0.000    1.600    4.000    0.600    0.000    2.400 
#    0.000   11.000    0.000    0.000    0.000    0.000 
#    0.000    0.000    0.000    0.000    0.000    0.000 
#
# Total GULP energy -111472.921188 kJ/mol
# GULP energy per Si atom -5573.646059 kJ/mol
# Density = 2.386842 g / cm^3
# Si number density = 23.922873 Si / 1000 Ang^3
#
#
#
# Elastic Constant Matrix: (Units=GPa)
#
#
# Indices 1 2 3 4 5 6 
#
# 1 73.6378 34.2254 20.0732 0.0000 -6.2332 0.0000
# 2 34.2254 78.9339 15.1130 0.0000 -1.3600 0.0000
# 3 20.0732 15.1130 104.0568 0.0000 -27.1369 0.0000
# 4 0.0000 0.0000 0.0000 27.9364 0.0000 6.3084
# 5 -6.2332 -1.3600 -27.1369 0.0000 45.1119 0.0000
# 6 0.0000 0.0000 0.0000 6.3084 0.0000 22.2684
#
#
#
# Elastic Compliance Matrix: (Units=1/GPa)
#
#
# Indices 1 2 3 4 5 6 
#
# 1 0.017581 -0.007205 -0.002097 0.000000 0.000950 0.000000
# 2 -0.007205 0.016014 -0.001269 0.000000 -0.001276 0.000000
# 3 -0.002097 -0.001269 0.011995 0.000000 0.006888 0.000000
# 4 0.000000 0.000000 0.000000 0.038242 0.000000 -0.010834
# 5 0.000950 -0.001276 0.006888 0.000000 0.026403 0.000000
# 6 0.000000 0.000000 0.000000 -0.010834 0.000000 0.047976
#
#
# Mechanical properties :
#
#
# Convention : Reuss Voigt Hill
#
# Bulk Modulus (GPa) = 40.90295 43.93907 42.42101
# Shear Modulus (GPa) = 26.66640 31.54448 29.10544
#
# Velocity S-wave (km/s) = 3.34231 3.63518 3.49182
# Velocity P-wave (km/s) = 5.65947 6.00218 5.83335
#
# Compressibility (1/GPa) = 0.02444812
#
# Stress axis : x y z
#
# Youngs Moduli (GPa) = 56.87996 62.44599 83.36687
#
# Poissons Ratio (x) = 0.44993 0.17483
# Poissons Ratio (y) = 0.40983 0.10576
# Poissons Ratio (z) = 0.11928 0.07922
#
# Static dielectric constant tensor:
#      x y z
#    x 2.042830 0.000000 -0.031050 
#    y 0.000000 2.010140 0.000000 
#    z -0.031050 0.000000 1.940340 
# 
# From -- ./inp_files/55575.got.cif
#   From: 2010.05.17/outbox.cif.g08.bks.cpg/sg13_28_cif.got.tgz:55575.got - 2010.06.03 16:44:36.
