data_PCOD9231343
_publ_section_title
;
Structure prediction by ZEFSAII (Michael W. Deem and Ramdas Pophale) SiO2 
 PCOD9231343
Probable space group: P 2/C
;
_chemical_formula_sum "Si O2"
_cell_formula_units_Z 22
_cell_length_a 7.766950
_cell_length_b 5.149023
_cell_length_c 28.562969
_cell_angle_alpha 90.000000
_cell_angle_beta 89.927692
_cell_angle_gamma 90.000000
_cell_volume 1142.295179
_symmetry_space_group_name_H-M "P 2/C"
_symmetry_group_IT_number 13
_symmetry_cell_setting 'monoclinic'
loop_
_space_group_symop_operation_xyz
x,y,z
-x,y,1/2-z
-x,-y,-z
x,-y,1/2+z
loop_
_atom_site_type_symbol
_atom_site_label
_atom_site_fract_x
_atom_site_fract_y
_atom_site_fract_z
Si Si1 0.000000 0.960335 0.250000
Si Si2 0.616055 0.300861 0.413886
Si Si3 0.613293 0.798930 0.084561
Si Si4 0.891478 0.803554 0.840545
Si Si5 0.878472 0.249555 0.499180
Si Si6 0.894173 0.713054 0.158541
O O1 0.113700 0.134920 0.214940
O O2 0.107908 0.785934 0.286339
O O3 0.535391 0.584477 0.419607
O O4 0.713366 0.266239 0.364555
O O5 0.759309 0.254765 0.453359
O O6 0.468306 0.084033 0.418212
O O7 0.751112 0.756605 0.043467
O O8 0.715139 0.751031 0.132781
O O9 0.025238 0.569555 0.848330
O O10 0.972767 0.069000 0.861318
O O11 0.000000 0.500000 0.500000
O O12 0.000000 0.000000 0.500000
#
# Coordination Sequence:
#
# PCOD9231343 Si02
#       6
#     2   4   4   4   4   4
#     4   8  22  36  72  78 122 148 232 244 298 342
#     4  12  24  40  62  94 132 159 193 257 314 357
#     4  12  24  40  62  94 132 159 193 257 314 357
#     4  10  20  39  64  87 115 165 207 250 295 360
#     4  12  24  42  66  94 120 168 212 238 290 374
#     4  10  20  39  64  87 115 165 207 250 295 360
#
# _framework density 19.259468999999999
#
# number of rings (size 3 to 8) (size 9 to 14) (size 15 to 20)
#    1.091    0.000    0.000    8.182    0.000    0.000 
#    0.000    0.909    0.000    0.000    0.000    0.000 
#    0.000    0.000    0.000    0.000    0.000    0.000 
#
# Total GULP energy -122841.071909 kJ/mol
# GULP energy per Si atom -5583.685087 kJ/mol
# Density = 1.921563 g / cm^3
# Si number density = 19.259469 Si / 1000 Ang^3
#
#
#
# Elastic Constant Matrix: (Units=GPa)
#
#
# Indices 1 2 3 4 5 6 
#
# 1 52.9324 -12.2514 34.2943 0.0000 -4.1478 0.0000
# 2 -12.2514 53.6231 -4.9306 0.0000 0.8702 0.0000
# 3 34.2943 -4.9306 108.5850 0.0000 0.4111 0.0000
# 4 0.0000 0.0000 0.0000 12.1319 0.0000 -4.1375
# 5 -4.1478 0.8702 0.4111 0.0000 11.1383 0.0000
# 6 0.0000 0.0000 0.0000 -4.1375 0.0000 52.4156
#
#
#
# Elastic Compliance Matrix: (Units=1/GPa)
#
#
# Indices 1 2 3 4 5 6 
#
# 1 0.026009 0.005049 -0.008021 0.000000 0.009587 0.000000
# 2 0.005049 0.019732 -0.000700 0.000000 0.000364 0.000000
# 3 -0.008021 -0.000700 0.011724 0.000000 -0.003365 0.000000
# 4 0.000000 0.000000 0.000000 0.084708 0.000000 0.006687
# 5 0.009587 0.000364 -0.003365 0.000000 0.093446 0.000000
# 6 0.000000 0.000000 0.000000 0.006687 0.000000 0.019606
#
#
# Mechanical properties :
#
#
# Convention : Reuss Voigt Hill
#
# Bulk Modulus (GPa) = 19.95212 27.70723 23.82968
# Shear Modulus (GPa) = 17.90346 28.33905 23.12126
#
# Velocity S-wave (km/s) = 3.05223 3.84009 3.46860
# Velocity P-wave (km/s) = 4.77531 5.83774 5.33305
#
# Compressibility (1/GPa) = 0.05012000
#
# Stress axis : x y z
#
# Youngs Moduli (GPa) = 38.44835 50.67914 85.29713
#
# Poissons Ratio (x) = -0.25589 0.68420
# Poissons Ratio (y) = -0.19413 0.05971
# Poissons Ratio (z) = 0.30841 0.03548
#
# Static dielectric constant tensor:
#      x y z
#    x 1.629290 0.000000 0.003170 
#    y 0.000000 1.659880 0.000000 
#    z 0.003170 0.000000 1.697950 
# 
# From -- ./inp_files/94573.got.cif
#   From: 2010.05.17/outbox.cif.g08.bks.cpg/sg13_48_cif.got.tgz:94573.got - 2010.06.03 16:44:36.
