data_PCOD9232035
_publ_section_title
;
Structure prediction by ZEFSAII (Michael W. Deem and Ramdas Pophale) SiO2 
 PCOD9232035
Probable space group: P 2/C
;
_chemical_formula_sum "Si O2"
_cell_formula_units_Z 30
_cell_length_a 14.788780
_cell_length_b 9.276843
_cell_length_c 11.360407
_cell_angle_alpha 90.000000
_cell_angle_beta 93.189917
_cell_angle_gamma 90.000000
_cell_volume 1556.155586
_symmetry_space_group_name_H-M "P 2/C"
_symmetry_group_IT_number 13
_symmetry_cell_setting 'monoclinic'
loop_
_space_group_symop_operation_xyz
x,y,z
-x,y,1/2-z
-x,-y,-z
x,-y,1/2+z
loop_
_atom_site_type_symbol
_atom_site_label
_atom_site_fract_x
_atom_site_fract_y
_atom_site_fract_z
Si Si1 0.257568 0.559951 0.686702
Si Si2 0.403344 0.677033 0.267425
Si Si3 0.222849 0.252981 0.408842
Si Si4 0.328039 0.913168 0.111020
Si Si5 0.322333 0.214024 0.995063
Si Si6 0.185551 0.056317 0.809149
Si Si7 0.000000 0.795019 0.250000
Si Si8 0.083345 0.417386 0.565774
O O1 0.321639 0.421349 0.711773
O O2 0.259046 0.644025 0.809879
O O3 0.292525 0.665792 0.586460
O O4 0.155569 0.513020 0.644634
O O5 0.500000 0.606180 0.250000
O O6 0.399106 0.827328 0.195376
O O7 0.387773 0.714584 0.403019
O O8 0.298933 0.190957 0.502264
O O9 0.146061 0.336597 0.475328
O O10 0.185357 0.109051 0.346295
O O11 0.240279 0.930924 0.190162
O O12 0.356310 0.069847 0.064725
O O13 0.239415 0.152279 0.909298
O O14 0.084468 0.111020 0.795232
O O15 0.038004 0.696062 0.149387
O O16 0.000000 0.500000 0.500000
#
# Coordination Sequence:
#
# PCOD9232035 Si02
#       8
#     4   4   4   4   4   4   2   4
#     4  12  23  43  66  95 131 173 211 261 326 385
#     4  11  25  43  68  99 128 162 207 265 326 391
#     4  11  22  40  66  90 122 174 209 265 318 376
#     4  10  20  46  66  91 124 168 213 262 321 379
#     4  10  22  42  68  92 123 169 212 259 317 384
#     4  10  21  39  66  88 125 165 222 261 320 369
#     4  12  22  38  56  90 130 168 212 276 308 368
#     4  12  24  38  59  90 131 172 217 259 314 375
#
# _framework density 19.278276999999999
#
# number of rings (size 3 to 8) (size 9 to 14) (size 15 to 20)
#    0.000    1.067    4.000    3.200    0.000    2.667 
#    0.000    0.667    0.000    0.000    0.000    0.000 
#    0.000    0.000    0.000    0.000    0.000    0.000 
#
# Total GULP energy -167599.596132 kJ/mol
# GULP energy per Si atom -5586.653204 kJ/mol
# Density = 1.923440 g / cm^3
# Si number density = 19.278277 Si / 1000 Ang^3
#
#
#
# Elastic Constant Matrix: (Units=GPa)
#
#
# Indices 1 2 3 4 5 6 
#
# 1 38.3493 13.6494 13.9678 0.0000 -2.4818 0.0000
# 2 13.6494 78.7014 39.4566 0.0000 -7.3594 0.0000
# 3 13.9678 39.4566 95.5441 0.0000 -9.6698 0.0000
# 4 0.0000 0.0000 0.0000 85.6152 0.0000 18.8183
# 5 -2.4818 -7.3594 -9.6698 0.0000 14.5604 0.0000
# 6 0.0000 0.0000 0.0000 18.8183 0.0000 28.9434
#
#
#
# Elastic Compliance Matrix: (Units=1/GPa)
#
#
# Indices 1 2 3 4 5 6 
#
# 1 0.028344 -0.003506 -0.002558 0.000000 0.001360 0.000000
# 2 -0.003506 0.016675 -0.005983 0.000000 0.003857 0.000000
# 3 -0.002558 -0.005983 0.013895 0.000000 0.005768 0.000000
# 4 0.000000 0.000000 0.000000 0.013628 0.000000 -0.008860
# 5 0.001360 0.003857 0.005768 0.000000 0.074691 0.000000
# 6 0.000000 0.000000 0.000000 -0.008860 0.000000 0.040311
#
#
# Mechanical properties :
#
#
# Convention : Reuss Voigt Hill
#
# Bulk Modulus (GPa) = 28.72025 38.52695 33.62360
# Shear Modulus (GPa) = 22.39701 35.52518 28.96110
#
# Velocity S-wave (km/s) = 3.41218 4.29739 3.88011
# Velocity P-wave (km/s) = 5.51852 6.68218 6.12803
#
# Compressibility (1/GPa) = 0.03481864
#
# Stress axis : x y z
#
# Youngs Moduli (GPa) = 35.28114 59.97141 71.96870
#
# Poissons Ratio (x) = 0.21026 0.18410
# Poissons Ratio (y) = 0.12370 0.43060
# Poissons Ratio (z) = 0.09025 0.35882
#
# Static dielectric constant tensor:
#      x y z
#    x 1.616000 0.000000 -0.005190 
#    y 0.000000 1.392930 0.000000 
#    z -0.005190 0.000000 1.671800 
# 
# From -- ./inp_files/36219.got.cif
#   From: 2010.05.17/outbox.cif.g08.bks.cpg/sg13_19_cif.got.tgz:36219.got - 2010.06.03 16:44:36.
