data_PCOD9232966
_publ_section_title
;
Structure prediction by ZEFSAII (Michael W. Deem and Ramdas Pophale) SiO2 
 PCOD9232966
Probable space group: P 2/C
;
_chemical_formula_sum "Si O2"
_cell_formula_units_Z 18
_cell_length_a 5.922073
_cell_length_b 11.377352
_cell_length_c 13.081049
_cell_angle_alpha 90.000000
_cell_angle_beta 63.599348
_cell_angle_gamma 90.000000
_cell_volume 789.447669
_symmetry_space_group_name_H-M "P 2/C"
_symmetry_group_IT_number 13
_symmetry_cell_setting 'monoclinic'
loop_
_space_group_symop_operation_xyz
x,y,z
-x,y,1/2-z
-x,-y,-z
x,-y,1/2+z
loop_
_atom_site_type_symbol
_atom_site_label
_atom_site_fract_x
_atom_site_fract_y
_atom_site_fract_z
Si Si1 0.000000 0.943423 0.750000
Si Si2 0.558234 0.314851 0.537917
Si Si3 0.284758 0.098822 0.546396
Si Si4 0.284076 0.461075 0.412132
Si Si5 0.128491 0.232279 0.370865
O O1 0.809033 0.849544 0.738230
O O2 0.936998 0.027569 0.856111
O O3 0.381813 0.205108 0.597502
O O4 0.428275 0.387579 0.471457
O O5 0.585575 0.412517 0.620369
O O6 0.828922 0.260071 0.449216
O O7 0.215970 0.160172 0.453425
O O8 0.500000 0.000000 0.500000
O O9 0.243747 0.362293 0.334773
O O10 0.000000 0.500000 0.500000
#
# Coordination Sequence:
#
# PCOD9232966 Si02
#       5
#     2   4   4   4   4
#     4  12  24  38  62  94 130 170 212 266 318 396
#     4   9  17  36  62  87 122 163 202 261 327 371
#     4  11  23  40  60  92 127 166 213 266 325 387
#     4   8  16  33  64  88 115 164 204 261 325 371
#     4  10  21  39  60  93 124 161 221 264 319 389
#
# _framework density 22.800749
#
# number of rings (size 3 to 8) (size 9 to 14) (size 15 to 20)
#    0.000    2.222    2.222    0.667    0.000    0.889 
#    0.000    0.000    0.000   61.333    0.000    0.000 
#    0.000    0.000    0.000    0.000    0.000    0.000 
#
# Total GULP energy -100235.198510 kJ/mol
# GULP energy per Si atom -5568.622139 kJ/mol
# Density = 2.274885 g / cm^3
# Si number density = 22.800749 Si / 1000 Ang^3
#
#
#
# Elastic Constant Matrix: (Units=GPa)
#
#
# Indices 1 2 3 4 5 6 
#
# 1 91.1697 38.5515 12.5949 0.0000 4.6016 0.0000
# 2 38.5515 208.0552 30.1646 0.0000 16.1220 0.0000
# 3 12.5949 30.1646 49.1086 0.0000 9.8187 0.0000
# 4 0.0000 0.0000 0.0000 6.3219 0.0000 21.4125
# 5 4.6016 16.1220 9.8187 0.0000 19.7798 0.0000
# 6 0.0000 0.0000 0.0000 21.4125 0.0000 64.4116
#
#
#
# Elastic Compliance Matrix: (Units=1/GPa)
#
#
# Indices 1 2 3 4 5 6 
#
# 1 0.012060 -0.001944 -0.001837 0.000000 -0.000309 0.000000
# 2 -0.001944 0.005754 -0.002429 0.000000 -0.003031 0.000000
# 3 -0.001837 -0.002429 0.024252 0.000000 -0.009631 0.000000
# 4 0.000000 0.000000 0.000000 -1.255910 0.000000 0.417504
# 5 -0.000309 -0.003031 -0.009631 0.000000 0.057880 0.000000
# 6 0.000000 0.000000 0.000000 0.417504 0.000000 -0.123266
#
#
# Mechanical properties :
#
#
# Convention : Reuss Voigt Hill
#
# Bulk Modulus (GPa) = 33.73317 56.77283 45.25300
# Shear Modulus (GPa) = -3.97796 35.90417 15.96311
#
# Velocity S-wave (km/s) = -1.32229 3.97254 2.64884
# Velocity P-wave (km/s) = 3.53491 6.78197 5.40790
#
# Compressibility (1/GPa) = 0.02964442
#
# Stress axis : x y z
#
# Youngs Moduli (GPa) = 82.91790 173.79687 41.23356
#
# Poissons Ratio (x) = 0.33793 0.07574
# Poissons Ratio (y) = 0.16123 0.10018
# Poissons Ratio (z) = 0.15231 0.42224
#
# Static dielectric constant tensor:
#      x y z
#    x 1.941650 0.000000 0.035470 
#    y 0.000000 1.827260 0.000000 
#    z 0.035470 0.000000 1.892530 
# 
# From -- ./inp_files/25701.got.cif
#   From: 2010.05.17/outbox.cif.g08.bks.cpg/sg13_13_cif.got.tgz:25701.got - 2010.06.03 16:44:36.
