data_PCOD9232015
_publ_section_title
;
Structure prediction by ZEFSAII (Michael W. Deem and Ramdas Pophale) SiO2 
 PCOD9232015
Probable space group: P 2/C
;
_chemical_formula_sum "Si O2"
_cell_formula_units_Z 16
_cell_length_a 7.557380
_cell_length_b 6.923111
_cell_length_c 19.246916
_cell_angle_alpha 90.000000
_cell_angle_beta 124.313957
_cell_angle_gamma 90.000000
_cell_volume 831.750835
_symmetry_space_group_name_H-M "P 2/C"
_symmetry_group_IT_number 13
_symmetry_cell_setting 'monoclinic'
loop_
_space_group_symop_operation_xyz
x,y,z
-x,y,1/2-z
-x,-y,-z
x,-y,1/2+z
loop_
_atom_site_type_symbol
_atom_site_label
_atom_site_fract_x
_atom_site_fract_y
_atom_site_fract_z
Si Si1 0.000000 0.710852 0.250000
Si Si2 0.367350 0.802787 0.976250
Si Si3 0.500000 0.698413 0.750000
Si Si4 0.936067 0.087444 0.313030
Si Si5 0.451427 0.515437 0.378969
O O1 0.791109 0.590256 0.185158
O O2 0.942729 0.857229 0.300667
O O3 0.446882 0.658986 0.933128
O O4 0.119838 0.849284 0.906688
O O5 0.415021 0.691189 0.058201
O O6 0.500000 0.000000 0.000000
O O7 0.293010 0.830316 0.717892
O O8 0.464777 0.564985 0.675089
O O9 0.000000 0.164071 0.250000
#
# Coordination Sequence:
#
# PCOD9232015 Si02
#       5
#     2   4   2   4   4
#     4  10  20  44  68  98 132 196 210 278 342 410
#     4  11  21  44  67  99 135 184 218 282 342 398
#     4  12  24  42  68 110 128 182 234 280 330 412
#     4  10  21  42  70  90 143 177 219 274 348 393
#     4  11  23  38  73  97 135 176 235 270 339 404
#
# _framework density 19.236529999999998
#
# number of rings (size 3 to 8) (size 9 to 14) (size 15 to 20)
#    0.750    0.500    5.000    1.500    0.000    2.000 
#    0.000    1.250    0.000    0.000    0.000    0.000 
#    0.000    0.000    0.000    0.000    0.000    0.000 
#
# Total GULP energy -89344.446105 kJ/mol
# GULP energy per Si atom -5584.027882 kJ/mol
# Density = 1.919275 g / cm^3
# Si number density = 19.236530 Si / 1000 Ang^3
#
#
#
# Elastic Constant Matrix: (Units=GPa)
#
#
# Indices 1 2 3 4 5 6 
#
# 1 118.9010 46.2655 47.8009 0.0000 13.1027 0.0000
# 2 46.2655 116.5925 32.7230 0.0000 7.2062 0.0000
# 3 47.8009 32.7230 83.5263 0.0000 21.4844 0.0000
# 4 0.0000 0.0000 0.0000 38.9622 0.0000 9.2273
# 5 13.1027 7.2062 21.4844 0.0000 38.6498 0.0000
# 6 0.0000 0.0000 0.0000 9.2273 0.0000 23.2823
#
#
#
# Elastic Compliance Matrix: (Units=1/GPa)
#
#
# Indices 1 2 3 4 5 6 
#
# 1 0.011877 -0.003156 -0.005456 0.000000 -0.000405 0.000000
# 2 -0.003156 0.010479 -0.002417 0.000000 0.000460 0.000000
# 3 -0.005456 -0.002417 0.018028 0.000000 -0.007721 0.000000
# 4 0.000000 0.000000 0.000000 0.028324 0.000000 -0.011226
# 5 -0.000405 0.000460 -0.007721 0.000000 0.030217 0.000000
# 6 0.000000 0.000000 0.000000 -0.011226 0.000000 0.047400
#
#
# Mechanical properties :
#
#
# Convention : Reuss Voigt Hill
#
# Bulk Modulus (GPa) = 54.57382 63.62208 59.09795
# Shear Modulus (GPa) = 28.65451 32.99424 30.82437
#
# Velocity S-wave (km/s) = 3.86371 4.14597 4.00733
# Velocity P-wave (km/s) = 6.95239 7.48760 7.22495
#
# Compressibility (1/GPa) = 0.01832380
#
# Stress axis : x y z
#
# Youngs Moduli (GPa) = 84.19867 95.42475 55.47024
#
# Poissons Ratio (x) = 0.30121 0.30265
# Poissons Ratio (y) = 0.26577 0.13409
# Poissons Ratio (z) = 0.45940 0.23068
#
# Static dielectric constant tensor:
#      x y z
#    x 1.629580 0.000000 -0.015850 
#    y 0.000000 1.692060 0.000000 
#    z -0.015850 0.000000 1.679040 
# 
# From -- ./inp_files/74727.got.cif
#   From: 2010.05.17/outbox.cif.g08.bks.cpg/sg13_38_cif.got.tgz:74727.got - 2010.06.03 16:44:36.
