data_PCOD9232898
_publ_section_title
;
Structure prediction by ZEFSAII (Michael W. Deem and Ramdas Pophale) SiO2 
 PCOD9232898
Probable space group: P 2/C
;
_chemical_formula_sum "Si O2"
_cell_formula_units_Z 22
_cell_length_a 12.153942
_cell_length_b 9.040357
_cell_length_c 12.361053
_cell_angle_alpha 90.000000
_cell_angle_beta 140.602770
_cell_angle_gamma 90.000000
_cell_volume 862.029291
_symmetry_space_group_name_H-M "P 2/C"
_symmetry_group_IT_number 13
_symmetry_cell_setting 'monoclinic'
loop_
_space_group_symop_operation_xyz
x,y,z
-x,y,1/2-z
-x,-y,-z
x,-y,1/2+z
loop_
_atom_site_type_symbol
_atom_site_label
_atom_site_fract_x
_atom_site_fract_y
_atom_site_fract_z
Si Si1 0.808188 0.136848 0.283350
Si Si2 0.546888 0.906574 0.906242
Si Si3 0.372593 0.359488 0.876832
Si Si4 0.807600 0.427137 0.144775
Si Si5 0.105891 0.075045 0.922487
Si Si6 0.500000 0.616774 0.250000
O O1 0.631882 0.040375 0.171970
O O2 0.762331 0.276280 0.175389
O O3 0.855298 0.173230 0.443602
O O4 0.974353 0.051747 0.363158
O O5 0.500000 0.851947 0.750000
O O6 0.602569 0.768432 0.019229
O O7 0.722201 0.993474 0.005162
O O8 0.194937 0.440523 0.769791
O O9 0.407717 0.305857 0.782096
O O10 0.500000 0.500000 0.000000
O O11 0.000000 0.406794 0.250000
O O12 0.667735 0.454318 0.940363
O O13 0.000000 0.158893 0.750000
#
# Coordination Sequence:
#
# PCOD9232898 Si02
#       6
#     4   4   4   4   4   2
#     4  10  21  44  67 100 140 182 242 301 369 426
#     4  10  21  40  72  99 143 189 230 300 364 427
#     4  10  21  38  67 106 139 189 237 289 362 444
#     4  11  24  41  69 105 149 191 236 307 359 440
#     4  10  23  40  68  99 136 182 244 299 355 442
#     4  10  22  40  66 102 146 192 242 286 362 446
#
# _framework density 25.521173999999998
#
# number of rings (size 3 to 8) (size 9 to 14) (size 15 to 20)
#    0.000    1.818    3.636    0.545    5.091    3.636 
#    0.000    0.000   12.000    0.000    0.000    0.000 
#    0.000    0.000    0.000    0.000    0.000    0.000 
#
# Total GULP energy -122604.286384 kJ/mol
# GULP energy per Si atom -5572.922108 kJ/mol
# Density = 2.546309 g / cm^3
# Si number density = 25.521174 Si / 1000 Ang^3
#
#
#
# Elastic Constant Matrix: (Units=GPa)
#
#
# Indices 1 2 3 4 5 6 
#
# 1 221.6665 42.1646 59.7303 0.0000 46.5427 0.0000
# 2 42.1646 76.6131 20.3845 0.0000 6.0539 0.0000
# 3 59.7303 20.3845 124.8682 0.0000 0.9402 0.0000
# 4 0.0000 0.0000 0.0000 -1.5738 0.0000 25.7490
# 5 46.5427 6.0539 0.9402 0.0000 22.5955 0.0000
# 6 0.0000 0.0000 0.0000 25.7490 0.0000 7.9582
#
#
#
# Elastic Compliance Matrix: (Units=1/GPa)
#
#
# Indices 1 2 3 4 5 6 
#
# 1 0.010723 -0.003045 -0.004474 0.000000 -0.021086 0.000000
# 2 -0.003045 0.014803 -0.000978 0.000000 0.002347 0.000000
# 3 -0.004474 -0.000978 0.010240 0.000000 0.009051 0.000000
# 4 0.000000 0.000000 0.000000 -0.011781 0.000000 0.038116
# 5 -0.021086 0.002347 0.009051 0.000000 0.086685 0.000000
# 6 0.000000 0.000000 0.000000 0.038116 0.000000 0.002330
#
#
# Mechanical properties :
#
#
# Convention : Reuss Voigt Hill
#
# Bulk Modulus (GPa) = 53.26632 74.18963 63.72797
# Shear Modulus (GPa) = 36.69695 25.85389 31.27542
#
# Velocity S-wave (km/s) = 3.79608 3.18628 3.50447
# Velocity P-wave (km/s) = 6.33485 6.53218 6.43428
#
# Compressibility (1/GPa) = 0.01877359
#
# Stress axis : x y z
#
# Youngs Moduli (GPa) = 93.25395 67.55304 97.65793
#
# Poissons Ratio (x) = 0.20571 0.43688
# Poissons Ratio (y) = 0.28398 0.09547
# Poissons Ratio (z) = 0.41718 0.06604
#
# Static dielectric constant tensor:
#      x y z
#    x 2.141320 0.000000 0.064730 
#    y 0.000000 1.970670 0.000000 
#    z 0.064730 0.000000 2.152520 
# 
# From -- ./inp_files/34054.got.cif
#   From: 2010.05.17/outbox.cif.g08.bks.cpg/sg13_18_cif.got.tgz:34054.got - 2010.06.03 16:44:36.
