data_PCOD9232000
_publ_section_title
;
Structure prediction by ZEFSAII (Michael W. Deem and Ramdas Pophale) SiO2 
 PCOD9232000
Probable space group: P 2/C
;
_chemical_formula_sum "Si O2"
_cell_formula_units_Z 18
_cell_length_a 10.754446
_cell_length_b 13.254110
_cell_length_c 10.711193
_cell_angle_alpha 90.000000
_cell_angle_beta 145.958574
_cell_angle_gamma 90.000000
_cell_volume 854.679479
_symmetry_space_group_name_H-M "P 2/C"
_symmetry_group_IT_number 13
_symmetry_cell_setting 'monoclinic'
loop_
_space_group_symop_operation_xyz
x,y,z
-x,y,1/2-z
-x,-y,-z
x,-y,1/2+z
loop_
_atom_site_type_symbol
_atom_site_label
_atom_site_fract_x
_atom_site_fract_y
_atom_site_fract_z
Si Si1 0.787685 0.027257 0.154841
Si Si2 0.504832 0.330542 0.530439
Si Si3 0.562707 0.867135 0.660712
Si Si4 0.500000 0.815131 0.250000
Si Si5 0.855347 0.498950 0.753298
O O1 0.786411 0.085838 0.286930
O O2 0.000000 0.999144 0.250000
O O3 0.664757 0.109711 0.961687
O O4 0.643930 0.928701 0.070750
O O5 0.439903 0.249415 0.372539
O O6 0.585162 0.262495 0.714438
O O7 0.689123 0.405678 0.632780
O O8 0.292654 0.399902 0.385453
O O9 0.500000 0.885736 0.750000
O O10 0.000000 0.486531 0.750000
O O11 0.000000 0.500000 0.000000
#
# Coordination Sequence:
#
# PCOD9232000 Si02
#       5
#     4   4   4   2   4
#     4  10  22  41  64  91 129 176 213 258 312 381
#     4  10  24  41  66  92 130 163 208 271 318 376
#     4  10  22  41  61  94 131 164 215 263 316 376
#     4  10  20  44  64  92 130 174 210 250 318 394
#     4  11  25  44  67  96 125 165 217 267 327 387
#
# _framework density 21.060528000000001
#
# number of rings (size 3 to 8) (size 9 to 14) (size 15 to 20)
#    0.000    1.778    1.111    1.333    3.111   10.667 
#    0.000    0.000    0.000    0.000    0.000    0.000 
#    0.000    0.000    0.000    0.000    0.000    0.000 
#
# Total GULP energy -100328.938511 kJ/mol
# GULP energy per Si atom -5573.829917 kJ/mol
# Density = 2.101259 g / cm^3
# Si number density = 21.060528 Si / 1000 Ang^3
#
#
#
# Elastic Constant Matrix: (Units=GPa)
#
#
# Indices 1 2 3 4 5 6 
#
# 1 143.4218 15.5357 20.0854 0.0000 8.9105 0.0000
# 2 15.5357 110.3954 1.1813 0.0000 14.6550 0.0000
# 3 20.0854 1.1813 12.5339 0.0000 2.9134 0.0000
# 4 0.0000 0.0000 0.0000 9.0621 0.0000 -8.4023
# 5 8.9105 14.6550 2.9134 0.0000 37.7294 0.0000
# 6 0.0000 0.0000 0.0000 -8.4023 0.0000 12.8702
#
#
#
# Elastic Compliance Matrix: (Units=1/GPa)
#
#
# Indices 1 2 3 4 5 6 
#
# 1 0.009143 -0.001048 -0.014404 0.000000 -0.000640 0.000000
# 2 -0.001048 0.009671 0.001612 0.000000 -0.003633 0.000000
# 3 -0.014404 0.001612 0.103934 0.000000 -0.005250 0.000000
# 4 0.000000 0.000000 0.000000 0.279590 0.000000 0.182530
# 5 -0.000640 -0.003633 -0.005250 0.000000 0.028472 0.000000
# 6 0.000000 0.000000 0.000000 0.182530 0.000000 0.196864
#
#
# Mechanical properties :
#
#
# Convention : Reuss Voigt Hill
#
# Bulk Modulus (GPa) = 10.51874 37.77288 24.14581
# Shear Modulus (GPa) = 7.27757 27.23559 17.25658
#
# Velocity S-wave (km/s) = 1.86093 3.60002 2.86559
# Velocity P-wave (km/s) = 3.10206 5.93755 4.73694
#
# Compressibility (1/GPa) = 0.09506844
#
# Stress axis : x y z
#
# Youngs Moduli (GPa) = 109.37505 103.40337 9.62151
#
# Poissons Ratio (x) = 0.10832 0.13859
# Poissons Ratio (y) = 0.11458 -0.01551
# Poissons Ratio (z) = 1.57541 -0.16667
#
# Static dielectric constant tensor:
#      x y z
#    x 1.488020 0.000000 0.081720 
#    y 0.000000 1.721990 0.000000 
#    z 0.081720 0.000000 1.797240 
# 
# From -- ./inp_files/34104.got.cif
#   From: 2010.05.17/outbox.cif.g08.bks.cpg/sg13_18_cif.got.tgz:34104.got - 2010.06.03 16:44:36.
