data_PCOD9232507
_publ_section_title
;
Structure prediction by ZEFSAII (Michael W. Deem and Ramdas Pophale) SiO2 
 PCOD9232507
Probable space group: P 2/C
;
_chemical_formula_sum "Si O2"
_cell_formula_units_Z 24
_cell_length_a 14.898136
_cell_length_b 9.100455
_cell_length_c 16.997925
_cell_angle_alpha 90.000000
_cell_angle_beta 147.587627
_cell_angle_gamma 90.000000
_cell_volume 1235.273499
_symmetry_space_group_name_H-M "P 2/C"
_symmetry_group_IT_number 13
_symmetry_cell_setting 'monoclinic'
loop_
_space_group_symop_operation_xyz
x,y,z
-x,y,1/2-z
-x,-y,-z
x,-y,1/2+z
loop_
_atom_site_type_symbol
_atom_site_label
_atom_site_fract_x
_atom_site_fract_y
_atom_site_fract_z
Si Si1 0.822368 0.572855 0.085862
Si Si2 0.495508 0.384556 0.842562
Si Si3 0.823278 0.910849 0.085084
Si Si4 0.831580 0.423089 0.403723
Si Si5 0.164704 0.914098 0.594041
Si Si6 0.504584 0.938334 0.091871
O O1 0.798980 0.741958 0.095714
O O2 0.000000 0.518582 0.250000
O O3 0.664133 0.472741 0.988544
O O4 0.833135 0.578672 0.999576
O O5 0.500000 0.355584 0.750000
O O6 0.334506 0.486173 0.740959
O O7 0.485658 0.235463 0.884957
O O8 0.000000 0.964553 0.250000
O O9 0.834976 0.911512 0.999990
O O10 0.665652 0.005166 0.994237
O O11 0.830787 0.254931 0.374537
O O12 0.000000 0.500000 0.500000
O O13 0.331593 0.993122 0.746725
O O14 0.000000 0.000000 0.500000
O O15 0.500000 0.000000 0.000000
#
# Coordination Sequence:
#
# PCOD9232507 Si02
#       6
#     4   4   4   4   4   4
#     4   9  20  38  61  86 114 149 190 237 296 354
#     4  10  21  39  60  84 116 155 196 242 295 354
#     4  10  21  40  62  86 118 154 193 244 299 357
#     4  10  21  37  60  87 116 151 194 241 294 352
#     4  11  22  39  62  88 120 158 196 242 299 358
#     4  12  25  39  58  87 119 157 202 246 295 353
#
# _framework density 19.428896000000002
#
# number of rings (size 3 to 8) (size 9 to 14) (size 15 to 20)
#    0.000    1.667    0.000    4.500    0.000    8.667 
#    0.000    2.500    0.000    0.000    0.000    0.000 
#    0.000    0.000    0.000    0.000    0.000    0.000 
#
# Total GULP energy -134107.634429 kJ/mol
# GULP energy per Si atom -5587.818101 kJ/mol
# Density = 1.938467 g / cm^3
# Si number density = 19.428896 Si / 1000 Ang^3
#
#
#
# Elastic Constant Matrix: (Units=GPa)
#
#
# Indices 1 2 3 4 5 6 
#
# 1 73.1960 63.1031 46.5349 0.0000 25.6308 0.0000
# 2 63.1031 161.3418 90.6345 0.0000 34.8457 0.0000
# 3 46.5349 90.6345 191.5697 0.0000 34.6095 0.0000
# 4 0.0000 0.0000 0.0000 28.6460 0.0000 7.4612
# 5 25.6308 34.8457 34.6095 0.0000 37.5353 0.0000
# 6 0.0000 0.0000 0.0000 7.4612 0.0000 30.3530
#
#
#
# Elastic Compliance Matrix: (Units=1/GPa)
#
#
# Indices 1 2 3 4 5 6 
#
# 1 0.022977 -0.006605 -0.000876 0.000000 -0.008751 0.000000
# 2 -0.006605 0.011196 -0.003155 0.000000 -0.002975 0.000000
# 3 -0.000876 -0.003155 0.007545 0.000000 -0.003430 0.000000
# 4 0.000000 0.000000 0.000000 0.037297 0.000000 -0.009168
# 5 -0.008751 -0.002975 -0.003430 0.000000 0.038541 0.000000
# 6 0.000000 0.000000 0.000000 -0.009168 0.000000 0.035199
#
#
# Mechanical properties :
#
#
# Convention : Reuss Voigt Hill
#
# Bulk Modulus (GPa) = 48.90716 91.85025 70.37871
# Shear Modulus (GPa) = 27.64835 34.36252 31.00543
#
# Velocity S-wave (km/s) = 3.77643 4.21007 3.99913
# Velocity P-wave (km/s) = 6.65149 8.42678 7.59121
#
# Compressibility (1/GPa) = 0.02044690
#
# Stress axis : x y z
#
# Youngs Moduli (GPa) = 43.52193 89.31639 132.53416
#
# Poissons Ratio (x) = 0.58991 0.11606
# Poissons Ratio (y) = 0.28745 0.41819
# Poissons Ratio (z) = 0.03811 0.28182
#
# Static dielectric constant tensor:
#      x y z
#    x 1.661820 0.000000 -0.015200 
#    y 0.000000 1.689710 0.000000 
#    z -0.015200 0.000000 1.647080 
# 
# From -- ./inp_files/68321.got.cif
#   From: 2010.05.17/outbox.cif.g08.bks.cpg/sg13_35_cif.got.tgz:68321.got - 2010.06.03 16:44:36.
