data_PCOD9232592
_publ_section_title
;
Structure prediction by ZEFSAII (Michael W. Deem and Ramdas Pophale) SiO2 
 PCOD9232592
Probable space group: P 2/C
;
_chemical_formula_sum "Si O2"
_cell_formula_units_Z 26
_cell_length_a 15.711801
_cell_length_b 7.958028
_cell_length_c 21.994889
_cell_angle_alpha 90.000000
_cell_angle_beta 154.181097
_cell_angle_gamma 90.000000
_cell_volume 1197.758872
_symmetry_space_group_name_H-M "P 2/C"
_symmetry_group_IT_number 13
_symmetry_cell_setting 'monoclinic'
loop_
_space_group_symop_operation_xyz
x,y,z
-x,y,1/2-z
-x,-y,-z
x,-y,1/2+z
loop_
_atom_site_type_symbol
_atom_site_label
_atom_site_fract_x
_atom_site_fract_y
_atom_site_fract_z
Si Si1 0.320543 0.700286 0.291922
Si Si2 0.272032 0.832763 0.906007
Si Si3 0.145582 0.370639 0.561491
Si Si4 0.393242 0.401641 0.055027
Si Si5 0.059430 0.322668 0.372358
Si Si6 0.183565 0.798374 0.323437
Si Si7 0.500000 0.608089 0.750000
O O1 0.501953 0.806484 0.434510
O O2 0.224840 0.749837 0.166041
O O3 0.426295 0.523129 0.346114
O O4 0.165993 0.706485 0.247305
O O5 0.167113 0.827344 0.904660
O O6 0.158721 0.684771 0.796111
O O7 0.229348 0.005758 0.845210
O O8 0.056627 0.296541 0.442577
O O9 0.324419 0.482867 0.652992
O O10 0.000000 0.500000 0.500000
O O11 0.443425 0.305136 0.150171
O O12 0.202683 0.520733 0.946685
O O13 0.353862 0.285826 0.972553
O O14 0.000000 0.782370 0.250000
#
# Coordination Sequence:
#
# PCOD9232592 Si02
#       7
#     4   4   4   4   4   4   2
#     4  10  23  39  61  89 119 163 202 248 317 367
#     4  10  21  41  61  85 124 163 204 247 300 377
#     4  10  21  37  63  93 124 156 202 256 301 368
#     4   9  20  36  63  88 119 155 201 257 306 360
#     4   9  19  39  63  87 119 162 199 245 310 363
#     4  12  24  36  60  91 121 154 208 261 302 358
#     4   8  18  38  54  88 122 152 196 246 312 358
#
# _framework density 21.707208999999999
#
# number of rings (size 3 to 8) (size 9 to 14) (size 15 to 20)
#    0.000    2.154    1.538    1.846    8.615    2.462 
#    0.000    2.308    0.000    0.000    0.000    0.000 
#    0.000    0.000    0.000    0.000    0.000    0.000 
#
# Total GULP energy -144950.057119 kJ/mol
# GULP energy per Si atom -5575.002197 kJ/mol
# Density = 2.165780 g / cm^3
# Si number density = 21.707209 Si / 1000 Ang^3
#
#
#
# Elastic Constant Matrix: (Units=GPa)
#
#
# Indices 1 2 3 4 5 6 
#
# 1 141.9751 8.7795 60.2187 0.0000 -24.1494 0.0000
# 2 8.7795 22.1057 16.3720 0.0000 -2.2354 0.0000
# 3 60.2187 16.3720 101.9288 0.0000 -28.7533 0.0000
# 4 0.0000 0.0000 0.0000 -6.7903 0.0000 29.4834
# 5 -24.1494 -2.2354 -28.7533 0.0000 54.9379 0.0000
# 6 0.0000 0.0000 0.0000 29.4834 0.0000 -17.3926
#
#
#
# Elastic Compliance Matrix: (Units=1/GPa)
#
#
# Indices 1 2 3 4 5 6 
#
# 1 0.009498 0.000259 -0.005247 0.000000 0.001439 0.000000
# 2 0.000259 0.051674 -0.009184 0.000000 -0.002590 0.000000
# 3 -0.005247 -0.009184 0.015990 0.000000 0.005689 0.000000
# 4 0.000000 0.000000 0.000000 0.023154 0.000000 0.039250
# 5 0.001439 -0.002590 0.005689 0.000000 0.021707 0.000000
# 6 0.000000 0.000000 0.000000 0.039250 0.000000 0.009040
#
#
# Mechanical properties :
#
#
# Convention : Reuss Voigt Hill
#
# Bulk Modulus (GPa) = 20.48353 48.52778 34.50566
# Shear Modulus (GPa) = 28.46107 18.19363 23.32735
#
# Velocity S-wave (km/s) = 3.62489 2.89820 3.28172
# Velocity P-wave (km/s) = 5.19389 5.79686 5.50364
#
# Compressibility (1/GPa) = 0.04881971
#
# Stress axis : x y z
#
# Youngs Moduli (GPa) = 105.28849 19.35209 62.53733
#
# Poissons Ratio (x) = -0.00502 0.32812
# Poissons Ratio (y) = -0.02730 0.57433
# Poissons Ratio (z) = 0.55242 0.17773
#
# Static dielectric constant tensor:
#      x y z
#    x 1.853030 0.000000 0.023330 
#    y 0.000000 1.764450 0.000000 
#    z 0.023330 0.000000 1.883120 
# 
# From -- ./inp_files/79853.got.cif
#   From: 2010.05.17/outbox.cif.g08.bks.cpg/sg13_40_cif.got.tgz:79853.got - 2010.06.03 16:44:36.
