data_PCOD9232596
_publ_section_title
;
Structure prediction by ZEFSAII (Michael W. Deem and Ramdas Pophale) SiO2 
 PCOD9232596
Probable space group: P 2/C
;
_chemical_formula_sum "Si O2"
_cell_formula_units_Z 28
_cell_length_a 8.517390
_cell_length_b 12.442678
_cell_length_c 13.741474
_cell_angle_alpha 90.000000
_cell_angle_beta 62.601362
_cell_angle_gamma 90.000000
_cell_volume 1292.950011
_symmetry_space_group_name_H-M "P 2/C"
_symmetry_group_IT_number 13
_symmetry_cell_setting 'monoclinic'
loop_
_space_group_symop_operation_xyz
x,y,z
-x,y,1/2-z
-x,-y,-z
x,-y,1/2+z
loop_
_atom_site_type_symbol
_atom_site_label
_atom_site_fract_x
_atom_site_fract_y
_atom_site_fract_z
Si Si1 0.200674 0.302934 0.656500
Si Si2 0.523539 0.139279 0.859518
Si Si3 0.508440 0.527378 0.384922
Si Si4 0.156679 0.256062 0.450181
Si Si5 0.553698 0.900751 0.623379
Si Si6 0.320291 0.690773 0.691662
Si Si7 0.230698 0.309199 0.999999
O O1 0.289876 0.188927 0.659599
O O2 0.329233 0.389306 0.671377
O O3 0.207276 0.316329 0.536835
O O4 0.000000 0.310743 0.750000
O O5 0.500000 0.146412 0.750000
O O6 0.373902 0.215845 0.945845
O O7 0.492938 0.017692 0.902521
O O8 0.500000 0.500000 0.500000
O O9 0.560378 0.413979 0.326862
O O10 0.323647 0.588666 0.420002
O O11 0.243333 0.138063 0.441767
O O12 0.227722 0.289535 0.322301
O O13 0.948198 0.270739 0.498395
O O14 0.500000 0.914283 0.750000
O O15 0.439129 0.794879 0.631151
O O16 0.209294 0.670804 0.623117
#
# Coordination Sequence:
#
# PCOD9232596 Si02
#       7
#     4   4   4   4   4   4   4
#     4  11  24  42  64  93 123 158 209 260 310 370
#     4  10  21  42  65  88 124 165 203 252 314 374
#     4   9  20  41  62  85 123 165 203 247 302 368
#     4  11  22  39  62  94 126 157 205 260 309 364
#     4   9  20  39  64  90 120 160 206 252 305 369
#     4  10  21  42  63  87 125 168 208 250 306 369
#     4  10  21  37  63  95 125 162 207 253 310 370
#
# _framework density 21.655904
#
# number of rings (size 3 to 8) (size 9 to 14) (size 15 to 20)
#    0.000    2.000    0.000    3.857    0.000    5.143 
#    0.000   38.571    0.000    0.000    0.000    0.000 
#    0.000    0.000    0.000    0.000    0.000    0.000 
#
# Total GULP energy -156077.454271 kJ/mol
# GULP energy per Si atom -5574.194795 kJ/mol
# Density = 2.160661 g / cm^3
# Si number density = 21.655904 Si / 1000 Ang^3
#
#
#
# Elastic Constant Matrix: (Units=GPa)
#
#
# Indices 1 2 3 4 5 6 
#
# 1 50.7778 -15.0330 35.8856 0.0000 -2.1261 0.0000
# 2 -15.0330 101.6460 16.1874 0.0000 -13.0105 0.0000
# 3 35.8856 16.1874 117.0704 0.0000 16.2248 0.0000
# 4 0.0000 0.0000 0.0000 14.1329 0.0000 1.1975
# 5 -2.1261 -13.0105 16.2248 0.0000 55.4005 0.0000
# 6 0.0000 0.0000 0.0000 1.1975 0.0000 20.9471
#
#
#
# Elastic Compliance Matrix: (Units=1/GPa)
#
#
# Indices 1 2 3 4 5 6 
#
# 1 0.029655 0.006875 -0.010863 0.000000 0.005934 0.000000
# 2 0.006875 0.012117 -0.004392 0.000000 0.004396 0.000000
# 3 -0.010863 -0.004392 0.013216 0.000000 -0.005319 0.000000
# 4 0.000000 0.000000 0.000000 0.071101 0.000000 -0.004065
# 5 0.005934 0.004396 -0.005319 0.000000 0.020868 0.000000
# 6 0.000000 0.000000 0.000000 -0.004065 0.000000 0.047972
#
#
# Mechanical properties :
#
#
# Convention : Reuss Voigt Hill
#
# Bulk Modulus (GPa) = 26.15876 38.17489 32.16683
# Shear Modulus (GPa) = 22.27851 33.59305 27.93578
#
# Velocity S-wave (km/s) = 3.21089 3.94282 3.59553
# Velocity P-wave (km/s) = 5.08448 6.19629 5.66771
#
# Compressibility (1/GPa) = 0.03822811
#
# Stress axis : x y z
#
# Youngs Moduli (GPa) = 33.72143 82.52861 75.66477
#
# Poissons Ratio (x) = -0.56741 0.82196
# Poissons Ratio (y) = -0.23185 0.33233
# Poissons Ratio (z) = 0.36632 0.36248
#
# Static dielectric constant tensor:
#      x y z
#    x 1.820100 0.000000 0.052890 
#    y 0.000000 1.828360 0.000000 
#    z 0.052890 0.000000 1.842680 
# 
# From -- ./inp_files/47091.got.cif
#   From: 2010.05.17/outbox.cif.g08.bks.cpg/sg13_24_cif.got.tgz:47091.got - 2010.06.03 16:44:36.
