data_PCOD9232975
_publ_section_title
;
Structure prediction by ZEFSAII (Michael W. Deem and Ramdas Pophale) SiO2 
 PCOD9232975
Probable space group: P 2/C
;
_chemical_formula_sum "Si O2"
_cell_formula_units_Z 26
_cell_length_a 20.290096
_cell_length_b 11.462491
_cell_length_c 8.933445
_cell_angle_alpha 90.000000
_cell_angle_beta 141.758769
_cell_angle_gamma 90.000000
_cell_volume 1286.039505
_symmetry_space_group_name_H-M "P 2/C"
_symmetry_group_IT_number 13
_symmetry_cell_setting 'monoclinic'
loop_
_space_group_symop_operation_xyz
x,y,z
-x,y,1/2-z
-x,-y,-z
x,-y,1/2+z
loop_
_atom_site_type_symbol
_atom_site_label
_atom_site_fract_x
_atom_site_fract_y
_atom_site_fract_z
Si Si1 0.500000 0.415119 0.750000
Si Si2 0.383155 0.989834 0.092429
Si Si3 0.453284 0.233453 0.900818
Si Si4 0.692305 0.164066 0.318134
Si Si5 0.810006 0.489102 0.159338
Si Si6 0.333586 0.400598 0.861748
Si Si7 0.884394 0.333385 0.572189
O O1 0.431895 0.330318 0.733959
O O2 0.423353 0.498868 0.519194
O O3 0.500000 0.037076 0.250000
O O4 0.413960 0.890099 0.269386
O O5 0.307057 0.083748 0.033249
O O6 0.329234 0.922846 0.859507
O O7 0.392667 0.279486 0.937500
O O8 0.580779 0.233248 0.136845
O O9 0.792574 0.243729 0.457876
O O10 0.727702 0.577718 0.093643
O O11 0.848513 0.402400 0.357998
O O12 0.893720 0.570216 0.221224
O O13 0.750173 0.421142 0.920238
O O14 0.000000 0.279148 0.750000
#
# Coordination Sequence:
#
# PCOD9232975 Si02
#       7
#     2   4   4   4   4   4   4
#     4  12  20  32  50  88 140 172 192 232 288 364
#     4  10  21  39  61  86 122 163 208 246 297 367
#     4  11  19  35  57  85 133 166 197 241 294 368
#     4  11  23  40  61  86 118 166 209 254 305 351
#     4  10  22  39  61  88 124 164 203 236 310 380
#     4  11  22  33  54  94 131 169 196 238 298 380
#     4  11  24  44  66  89 119 158 207 266 314 363
#
# _framework density 20.217109000000001
#
# number of rings (size 3 to 8) (size 9 to 14) (size 15 to 20)
#    0.000    1.231    3.846    5.538    2.154    2.462 
#    0.000    0.769    0.000    0.000    0.000    0.000 
#    0.000    0.000    0.000    0.000    0.000    0.000 
#
# Total GULP energy -145321.639400 kJ/mol
# GULP energy per Si atom -5589.293823 kJ/mol
# Density = 2.017109 g / cm^3
# Si number density = 20.217109 Si / 1000 Ang^3
#
#
#
# Elastic Constant Matrix: (Units=GPa)
#
#
# Indices 1 2 3 4 5 6 
#
# 1 93.9503 50.5884 46.0804 0.0000 12.1869 0.0000
# 2 50.5884 74.9099 35.7024 0.0000 0.7708 0.0000
# 3 46.0804 35.7024 59.5047 0.0000 -0.0400 0.0000
# 4 0.0000 0.0000 0.0000 19.4354 0.0000 -7.7068
# 5 12.1869 0.7708 -0.0400 0.0000 31.7054 0.0000
# 6 0.0000 0.0000 0.0000 -7.7068 0.0000 44.5415
#
#
#
# Elastic Compliance Matrix: (Units=1/GPa)
#
#
# Indices 1 2 3 4 5 6 
#
# 1 0.022740 -0.009626 -0.011840 0.000000 -0.008522 0.000000
# 2 -0.009626 0.022777 -0.006210 0.000000 0.003139 0.000000
# 3 -0.011840 -0.006210 0.029703 0.000000 0.004739 0.000000
# 4 0.000000 0.000000 0.000000 0.055243 0.000000 0.009558
# 5 -0.008522 0.003139 0.004739 0.000000 0.034746 0.000000
# 6 0.000000 0.000000 0.000000 0.009558 0.000000 0.024105
#
#
# Mechanical properties :
#
#
# Convention : Reuss Voigt Hill
#
# Bulk Modulus (GPa) = 50.32959 54.78968 52.55964
# Shear Modulus (GPa) = 19.89754 25.53605 22.71680
#
# Velocity S-wave (km/s) = 3.14059 3.55785 3.35571
# Velocity P-wave (km/s) = 6.17249 6.63606 6.40847
#
# Compressibility (1/GPa) = 0.01986903
#
# Stress axis : x y z
#
# Youngs Moduli (GPa) = 43.97595 43.90320 33.66660
#
# Poissons Ratio (x) = 0.42262 0.39860
# Poissons Ratio (y) = 0.42332 0.20906
# Poissons Ratio (z) = 0.52066 0.27263
#
# Static dielectric constant tensor:
#      x y z
#    x 1.760750 0.000000 -0.041570 
#    y 0.000000 1.756220 0.000000 
#    z -0.041570 0.000000 1.726210 
# 
# From -- ./inp_files/23391.got.cif
#   From: 2010.05.17/outbox.cif.g08.bks.cpg/sg13_12_cif.got.tgz:23391.got - 2010.06.03 16:44:36.
