data_PCOD9232708
_publ_section_title
;
Structure prediction by ZEFSAII (Michael W. Deem and Ramdas Pophale) SiO2 
 PCOD9232708
Probable space group: P 2/C
;
_chemical_formula_sum "Si O2"
_cell_formula_units_Z 24
_cell_length_a 7.788296
_cell_length_b 17.921678
_cell_length_c 12.773286
_cell_angle_alpha 90.000000
_cell_angle_beta 36.790105
_cell_angle_gamma 90.000000
_cell_volume 1067.744666
_symmetry_space_group_name_H-M "P 2/C"
_symmetry_group_IT_number 13
_symmetry_cell_setting 'monoclinic'
loop_
_space_group_symop_operation_xyz
x,y,z
-x,y,1/2-z
-x,-y,-z
x,-y,1/2+z
loop_
_atom_site_type_symbol
_atom_site_label
_atom_site_fract_x
_atom_site_fract_y
_atom_site_fract_z
Si Si1 0.317687 0.318668 0.642836
Si Si2 0.807030 0.044689 0.443474
Si Si3 0.089975 0.466027 0.843629
Si Si4 0.639475 0.158085 0.794995
Si Si5 0.483958 0.598653 0.631996
Si Si6 0.789649 0.105495 0.070266
O O1 0.287560 0.391717 0.734056
O O2 0.412321 0.243598 0.652078
O O3 0.528476 0.333746 0.442004
O O4 0.000000 0.305381 0.750000
O O5 0.538978 0.098932 0.548649
O O6 0.000000 0.025503 0.250000
O O7 0.025474 0.084560 0.417650
O O8 0.702034 0.970932 0.554719
O O9 0.247829 0.537568 0.721759
O O10 0.000000 0.500000 0.000000
O O11 0.785426 0.438878 0.951180
O O12 0.500000 0.143461 0.750000
O O13 0.980418 0.145376 0.617631
O O14 0.500000 0.614330 0.750000
O O15 0.500000 0.145498 0.250000
#
# Coordination Sequence:
#
# PCOD9232708 Si02
#       6
#     4   4   4   4   4   4
#     4  10  21  38  59  86 124 162 198 248 306 356
#     4  10  21  39  62  90 120 153 197 246 299 365
#     4   9  18  34  57  84 114 153 200 244 290 349
#     4  10  23  42  60  87 125 160 200 252 309 363
#     4   9  18  35  59  87 116 152 204 249 292 355
#     4  10  21  39  64  89 116 153 199 250 301 362
#
# _framework density 22.477283
#
# number of rings (size 3 to 8) (size 9 to 14) (size 15 to 20)
#    0.000    2.333    0.000    3.000    0.000    6.667 
#    0.000   18.333    0.000    2.000    0.000    0.000 
#    0.000    0.000    0.000    0.000    0.000    0.000 
#
# Total GULP energy -133872.238196 kJ/mol
# GULP energy per Si atom -5578.009925 kJ/mol
# Density = 2.242612 g / cm^3
# Si number density = 22.477283 Si / 1000 Ang^3
#
#
#
# Elastic Constant Matrix: (Units=GPa)
#
#
# Indices 1 2 3 4 5 6 
#
# 1 34.5215 11.4426 21.7340 0.0000 8.3809 0.0000
# 2 11.4426 68.3322 48.0449 0.0000 5.5187 0.0000
# 3 21.7340 48.0449 152.1121 0.0000 3.1566 0.0000
# 4 0.0000 0.0000 0.0000 27.8087 0.0000 6.7642
# 5 8.3809 5.5187 3.1566 0.0000 28.1134 0.0000
# 6 0.0000 0.0000 0.0000 6.7642 0.0000 33.0010
#
#
#
# Elastic Compliance Matrix: (Units=1/GPa)
#
#
# Indices 1 2 3 4 5 6 
#
# 1 0.034523 -0.002173 -0.004051 0.000000 -0.009410 0.000000
# 2 -0.002173 0.019210 -0.005706 0.000000 -0.002483 0.000000
# 3 -0.004051 -0.005706 0.008928 0.000000 0.001325 0.000000
# 4 0.000000 0.000000 0.000000 0.037847 0.000000 -0.007757
# 5 -0.009410 -0.002483 0.001325 0.000000 0.038714 0.000000
# 6 0.000000 0.000000 0.000000 -0.007757 0.000000 0.031892
#
#
# Mechanical properties :
#
#
# Convention : Reuss Voigt Hill
#
# Bulk Modulus (GPa) = 25.77205 46.37875 36.07540
# Shear Modulus (GPa) = 24.04926 29.36756 26.70841
#
# Velocity S-wave (km/s) = 3.27454 3.61854 3.45083
# Velocity P-wave (km/s) = 5.07814 6.17550 5.65351
#
# Compressibility (1/GPa) = 0.03880173
#
# Stress axis : x y z
#
# Youngs Moduli (GPa) = 28.96651 52.05505 112.01234
#
# Poissons Ratio (x) = 0.11310 0.45378
# Poissons Ratio (y) = 0.06293 0.63911
# Poissons Ratio (z) = 0.11735 0.29701
#
# Static dielectric constant tensor:
#      x y z
#    x 1.939740 0.000000 0.050710 
#    y 0.000000 1.844630 0.000000 
#    z 0.050710 0.000000 1.877020 
# 
# From -- ./inp_files/48041.got.cif
#   From: 2010.05.17/outbox.cif.g08.bks.cpg/sg13_25_cif.got.tgz:48041.got - 2010.06.03 16:44:36.
