data_PCOD9232818
_publ_section_title
;
Structure prediction by ZEFSAII (Michael W. Deem and Ramdas Pophale) SiO2 
 PCOD9232818
Probable space group: P 2/C
;
_chemical_formula_sum "Si O2"
_cell_formula_units_Z 24
_cell_length_a 5.127702
_cell_length_b 15.214661
_cell_length_c 16.779497
_cell_angle_alpha 90.000000
_cell_angle_beta 120.017459
_cell_angle_gamma 90.000000
_cell_volume 1133.491313
_symmetry_space_group_name_H-M "P 2/C"
_symmetry_group_IT_number 13
_symmetry_cell_setting 'monoclinic'
loop_
_space_group_symop_operation_xyz
x,y,z
-x,y,1/2-z
-x,-y,-z
x,-y,1/2+z
loop_
_atom_site_type_symbol
_atom_site_label
_atom_site_fract_x
_atom_site_fract_y
_atom_site_fract_z
Si Si1 0.000000 0.405709 0.250000
Si Si2 0.864663 0.223201 0.585021
Si Si3 0.848665 0.148629 0.314515
Si Si4 0.700224 0.291169 0.076037
Si Si5 0.421745 0.332750 0.610691
Si Si6 0.500000 0.518588 0.250000
Si Si7 0.851606 0.949853 0.314380
O O1 0.768906 0.345655 0.165007
O O2 0.798819 0.461046 0.281233
O O3 0.614595 0.239166 0.478416
O O4 0.696281 0.264707 0.636760
O O5 0.156069 0.281084 0.613167
O O6 0.968486 0.123578 0.609783
O O7 0.500000 0.172166 0.250000
O O8 0.000000 0.148072 0.250000
O O9 0.037625 0.219224 0.392315
O O10 0.866106 0.049158 0.350060
O O11 0.685731 0.352906 0.995894
O O12 0.491466 0.418083 0.671954
O O13 0.500000 0.926533 0.250000
O O14 0.000000 0.951738 0.250000
#
# Coordination Sequence:
#
# PCOD9232818 Si02
#       7
#     2   4   4   4   4   2   4
#     4  12  28  44  76  92 130 174 230 260 364 390
#     4  10  23  40  65 101 132 181 210 279 320 398
#     4  10  22  39  66  96 138 179 225 271 318 384
#     4  10  26  43  70 100 131 182 218 282 322 411
#     4  10  25  43  68  95 137 163 225 271 345 386
#     4  12  28  48  66 102 126 176 210 296 332 422
#     4  10  21  38  63 101 137 181 225 267 316 386
#
# _framework density 21.173518999999999
#
# number of rings (size 3 to 8) (size 9 to 14) (size 15 to 20)
#    1.000    0.667    0.833    2.000    9.333    2.000 
#    0.000    0.833    0.000    0.000    0.000    0.000 
#    0.000    0.000    0.000    0.000    0.000    0.000 
#
# Total GULP energy -133993.462709 kJ/mol
# GULP energy per Si atom -5583.060946 kJ/mol
# Density = 2.112533 g / cm^3
# Si number density = 21.173519 Si / 1000 Ang^3
#
#
#
# Elastic Constant Matrix: (Units=GPa)
#
#
# Indices 1 2 3 4 5 6 
#
# 1 128.3147 12.5286 18.4764 0.0000 25.7249 0.0000
# 2 12.5286 77.9720 50.9120 0.0000 3.3198 0.0000
# 3 18.4764 50.9120 87.7569 0.0000 -1.7441 0.0000
# 4 0.0000 0.0000 0.0000 -4.7975 0.0000 26.5578
# 5 25.7249 3.3198 -1.7441 0.0000 21.5295 0.0000
# 6 0.0000 0.0000 0.0000 26.5578 0.0000 7.3431
#
#
#
# Elastic Compliance Matrix: (Units=1/GPa)
#
#
# Indices 1 2 3 4 5 6 
#
# 1 0.010811 0.000784 -0.002995 0.000000 -0.013281 0.000000
# 2 0.000784 0.021082 -0.012499 0.000000 -0.005200 0.000000
# 3 -0.002995 -0.012499 0.019418 0.000000 0.007079 0.000000
# 4 0.000000 0.000000 0.000000 -0.009916 0.000000 0.035863
# 5 -0.013281 -0.005200 0.007079 0.000000 0.063692 0.000000
# 6 0.000000 0.000000 0.000000 0.035863 0.000000 0.006478
#
#
# Mechanical properties :
#
#
# Convention : Reuss Voigt Hill
#
# Bulk Modulus (GPa) = 45.68252 50.87528 48.27890
# Shear Modulus (GPa) = 33.71988 18.95681 26.33834
#
# Velocity S-wave (km/s) = 3.99501 2.99541 3.53076
# Velocity P-wave (km/s) = 6.54998 6.00361 6.28274
#
# Compressibility (1/GPa) = 0.02189021
#
# Stress axis : x y z
#
# Youngs Moduli (GPa) = 92.50198 47.43438 51.49984
#
# Poissons Ratio (x) = -0.03718 0.15423
# Poissons Ratio (y) = -0.07251 0.64369
# Poissons Ratio (z) = 0.27702 0.59288
#
# Static dielectric constant tensor:
#      x y z
#    x 1.757510 0.000000 -0.028860 
#    y 0.000000 1.759630 0.000000 
#    z -0.028860 0.000000 1.782780 
# 
# From -- ./inp_files/73864.got.cif
#   From: 2010.05.17/outbox.cif.g08.bks.cpg/sg13_37_cif.got.tgz:73864.got - 2010.06.03 16:44:36.
