data_PCOD9232091
_publ_section_title
;
Structure prediction by ZEFSAII (Michael W. Deem and Ramdas Pophale) SiO2 
 PCOD9232091
Probable space group: P 2/C
;
_chemical_formula_sum "Si O2"
_cell_formula_units_Z 28
_cell_length_a 13.591367
_cell_length_b 9.683985
_cell_length_c 14.752209
_cell_angle_alpha 90.000000
_cell_angle_beta 57.773891
_cell_angle_gamma 90.000000
_cell_volume 1642.552006
_symmetry_space_group_name_H-M "P 2/C"
_symmetry_group_IT_number 13
_symmetry_cell_setting 'monoclinic'
loop_
_space_group_symop_operation_xyz
x,y,z
-x,y,1/2-z
-x,-y,-z
x,-y,1/2+z
loop_
_atom_site_type_symbol
_atom_site_label
_atom_site_fract_x
_atom_site_fract_y
_atom_site_fract_z
Si Si1 0.366345 0.161761 0.790150
Si Si2 0.968047 0.110983 0.091567
Si Si3 0.217199 0.178831 0.045719
Si Si4 0.969948 0.640008 0.462888
Si Si5 0.207616 0.308235 0.745082
Si Si6 0.246872 0.010342 0.694648
Si Si7 0.131088 0.526102 0.647760
O O1 0.500000 0.169099 0.750000
O O2 0.315600 0.293683 0.760175
O O3 0.337839 0.038668 0.732150
O O4 0.288853 0.154486 0.918574
O O5 0.084566 0.133131 0.092003
O O6 0.865732 0.056080 0.203900
O O7 0.930165 0.249082 0.056385
O O8 0.000000 0.000000 0.000000
O O9 0.199386 0.339404 0.080824
O O10 0.274737 0.088173 0.097206
O O11 0.888169 0.587366 0.422065
O O12 0.000000 0.500000 0.500000
O O13 0.088113 0.700411 0.360866
O O14 0.215977 0.168189 0.681247
O O15 0.199098 0.447170 0.693295
O O16 0.000000 0.560667 0.750000
#
# Coordination Sequence:
#
# PCOD9232091 Si02
#       7
#     4   4   4   4   4   4   4
#     4  10  22  43  62  79 112 156 199 247 298 336
#     4  12  19  33  56  88 123 149 189 228 288 351
#     4  12  22  38  58  89 117 153 190 236 295 350
#     4  11  19  32  54  84 124 157 182 219 290 356
#     4   9  20  38  51  84 114 153 189 235 287 337
#     4  10  23  36  59  88 115 150 192 242 287 349
#     4  10  21  33  56  87 123 152 183 229 290 362
#
# _framework density 17.046643
#
# number of rings (size 3 to 8) (size 9 to 14) (size 15 to 20)
#    0.857    0.571    5.714    1.286    4.000    1.714 
#    0.000    0.714    0.000    0.857    0.000    0.000 
#    0.000    0.000    0.000    0.000    0.000    0.000 
#
# Total GULP energy -155953.856566 kJ/mol
# GULP energy per Si atom -5569.780592 kJ/mol
# Density = 1.700784 g / cm^3
# Si number density = 17.046643 Si / 1000 Ang^3
#
#
#
# Elastic Constant Matrix: (Units=GPa)
#
#
# Indices 1 2 3 4 5 6 
#
# 1 116.2880 36.7639 39.8667 0.0000 11.2675 0.0000
# 2 36.7639 84.8710 19.2159 0.0000 12.4363 0.0000
# 3 39.8667 19.2159 41.9459 0.0000 22.7919 0.0000
# 4 0.0000 0.0000 0.0000 20.2581 0.0000 15.7474
# 5 11.2675 12.4363 22.7919 0.0000 19.6661 0.0000
# 6 0.0000 0.0000 0.0000 15.7474 0.0000 23.8907
#
#
#
# Elastic Compliance Matrix: (Units=1/GPa)
#
#
# Indices 1 2 3 4 5 6 
#
# 1 0.017384 -0.004914 -0.028486 0.000000 0.026162 0.000000
# 2 -0.004914 0.014630 0.003958 0.000000 -0.011023 0.000000
# 3 -0.028486 0.003958 0.112331 0.000000 -0.116367 0.000000
# 4 0.000000 0.000000 0.000000 0.101232 0.000000 -0.066727
# 5 0.026162 -0.011023 -0.116367 0.000000 0.177693 0.000000
# 6 0.000000 0.000000 0.000000 -0.066727 0.000000 0.085840
#
#
# Mechanical properties :
#
#
# Convention : Reuss Voigt Hill
#
# Bulk Modulus (GPa) = 11.70136 48.31091 30.00613
# Shear Modulus (GPa) = 8.38248 22.58020 15.48134
#
# Velocity S-wave (km/s) = 2.21992 3.64347 3.01686
# Velocity P-wave (km/s) = 3.66742 6.78983 5.45673
#
# Compressibility (1/GPa) = 0.08546016
#
# Stress axis : x y z
#
# Youngs Moduli (GPa) = 57.52445 68.35075 8.90226
#
# Poissons Ratio (x) = 0.33588 0.25359
# Poissons Ratio (y) = 0.28268 -0.03523
# Poissons Ratio (z) = 1.63866 -0.27052
#
# Static dielectric constant tensor:
#      x y z
#    x 1.640280 0.000000 0.064650 
#    y 0.000000 1.544240 0.000000 
#    z 0.064650 0.000000 1.612190 
# 
# From -- ./inp_files/52740.got.cif
#   From: 2010.05.17/outbox.cif.g08.bks.cpg/sg13_27_cif.got.tgz:52740.got - 2010.06.03 16:44:36.
