data_PCOD9232554
_publ_section_title
;
Structure prediction by ZEFSAII (Michael W. Deem and Ramdas Pophale) SiO2 
 PCOD9232554
Probable space group: P 2/C
;
_chemical_formula_sum "Si O2"
_cell_formula_units_Z 18
_cell_length_a 5.585584
_cell_length_b 16.756034
_cell_length_c 9.275958
_cell_angle_alpha 90.000000
_cell_angle_beta 55.751575
_cell_angle_gamma 90.000000
_cell_volume 717.623641
_symmetry_space_group_name_H-M "P 2/C"
_symmetry_group_IT_number 13
_symmetry_cell_setting 'monoclinic'
loop_
_space_group_symop_operation_xyz
x,y,z
-x,y,1/2-z
-x,-y,-z
x,-y,1/2+z
loop_
_atom_site_type_symbol
_atom_site_label
_atom_site_fract_x
_atom_site_fract_y
_atom_site_fract_z
Si Si1 0.000000 0.982230 0.750000
Si Si2 0.151524 0.253008 0.356491
Si Si3 0.791413 0.107047 0.581137
Si Si4 0.200400 0.521625 0.800500
Si Si5 0.808411 0.341452 0.691074
O O1 0.220698 0.929045 0.578242
O O2 0.864301 0.037840 0.672404
O O3 0.500000 0.253773 0.250000
O O4 0.000000 0.248925 0.250000
O O5 0.033418 0.175187 0.482537
O O6 0.015050 0.329646 0.483823
O O7 0.500000 0.140460 0.750000
O O8 0.500000 0.557964 0.750000
O O9 0.272654 0.430375 0.720909
O O10 0.000000 0.560937 0.750000
O O11 0.000000 0.500000 0.000000
O O12 0.500000 0.308229 0.750000
O O13 0.000000 0.301939 0.750000
#
# Coordination Sequence:
#
# PCOD9232554 Si02
#       5
#     2   4   4   4   4
#     4  10  24  42  66  98 126 164 220 256 326 392
#     4  12  27  43  65  96 130 164 218 269 319 387
#     4  11  24  42  68  93 130 168 212 266 327 384
#     4  10  21  37  61  93 128 168 213 264 318 384
#     4  10  22  42  65  90 126 172 218 259 323 385
#
# _framework density 25.082785000000001
#
# number of rings (size 3 to 8) (size 9 to 14) (size 15 to 20)
#    0.000    1.333    1.111    3.333    4.667    5.333 
#    0.000    0.000    0.000    0.000    0.000    0.000 
#    0.000    0.000    0.000    0.000    0.000    0.000 
#
# Total GULP energy -100499.449615 kJ/mol
# GULP energy per Si atom -5583.302756 kJ/mol
# Density = 2.502570 g / cm^3
# Si number density = 25.082785 Si / 1000 Ang^3
#
#
#
# Elastic Constant Matrix: (Units=GPa)
#
#
# Indices 1 2 3 4 5 6 
#
# 1 255.3152 20.4305 107.1478 0.0000 -17.1470 0.0000
# 2 20.4305 111.4026 33.9085 0.0000 -4.4385 0.0000
# 3 107.1478 33.9085 177.1525 0.0000 -7.1240 0.0000
# 4 0.0000 0.0000 0.0000 -41.2890 0.0000 -103.2702
# 5 -17.1470 -4.4385 -7.1240 0.0000 68.0752 0.0000
# 6 0.0000 0.0000 0.0000 -103.2702 0.0000 -190.4250
#
#
#
# Elastic Compliance Matrix: (Units=1/GPa)
#
#
# Indices 1 2 3 4 5 6 
#
# 1 0.005317 0.000034 -0.003182 0.000000 0.001009 0.000000
# 2 0.000034 0.009545 -0.001830 0.000000 0.000439 0.000000
# 3 -0.003182 -0.001830 0.007916 0.000000 -0.000092 0.000000
# 4 0.000000 0.000000 0.000000 0.067954 0.000000 -0.036852
# 5 0.001009 0.000439 -0.000092 0.000000 0.014963 0.000000
# 6 0.000000 0.000000 0.000000 -0.036852 0.000000 0.014734
#
#
# Mechanical properties :
#
#
# Convention : Reuss Voigt Hill
#
# Bulk Modulus (GPa) = 77.99155 96.31600 87.15377
# Shear Modulus (GPa) = 37.13109 -7.23554 14.94777
#
# Velocity S-wave (km/s) = 3.85169 -1.70027 2.44383
# Velocity P-wave (km/s) = 7.13736 5.88456 6.54102
#
# Compressibility (1/GPa) = 0.01282190
#
# Stress axis : x y z
#
# Youngs Moduli (GPa) = 188.07301 104.77041 126.32954
#
# Poissons Ratio (x) = -0.00351 0.40196
# Poissons Ratio (y) = -0.00631 0.23113
# Poissons Ratio (z) = 0.59841 0.19168
#
# Static dielectric constant tensor:
#      x y z
#    x 1.998450 0.000000 0.031180 
#    y 0.000000 2.150650 0.000000 
#    z 0.031180 0.000000 2.053360 
# 
# From -- ./inp_files/9876.got.cif
#   From: 2010.05.17/outbox.cif.g08.bks.cpg/sg13_5_cif.got.tgz:9876.got - 2010.06.03 16:44:36.
