data_PCOD9232639
_publ_section_title
;
Structure prediction by ZEFSAII (Michael W. Deem and Ramdas Pophale) SiO2 
 PCOD9232639
Probable space group: P 2/C
;
_chemical_formula_sum "Si O2"
_cell_formula_units_Z 26
_cell_length_a 13.738454
_cell_length_b 9.008154
_cell_length_c 17.364050
_cell_angle_alpha 90.000000
_cell_angle_beta 150.383772
_cell_angle_gamma 90.000000
_cell_volume 1061.981597
_symmetry_space_group_name_H-M "P 2/C"
_symmetry_group_IT_number 13
_symmetry_cell_setting 'monoclinic'
loop_
_space_group_symop_operation_xyz
x,y,z
-x,y,1/2-z
-x,-y,-z
x,-y,1/2+z
loop_
_atom_site_type_symbol
_atom_site_label
_atom_site_fract_x
_atom_site_fract_y
_atom_site_fract_z
Si Si1 0.118763 0.475035 0.715531
Si Si2 0.359193 0.009248 0.752932
Si Si3 0.000000 0.028525 0.750000
Si Si4 0.760546 0.147026 0.972521
Si Si5 0.671806 0.186719 0.618079
Si Si6 0.290126 0.479768 0.505385
Si Si7 0.355170 0.311599 0.285093
O O1 0.231700 0.325883 0.772025
O O2 0.215241 0.521685 0.864736
O O3 0.167067 0.601743 0.687479
O O4 0.889316 0.446667 0.571141
O O5 0.580944 0.044749 0.878822
O O6 0.225690 0.114573 0.608066
O O7 0.352836 0.059091 0.836689
O O8 0.310956 0.836889 0.707669
O O9 0.176807 0.132820 0.843285
O O10 0.947307 0.917691 0.644524
O O11 0.704036 0.312624 0.958515
O O12 0.477979 0.248533 0.443345
O O13 0.491776 0.571884 0.647516
#
# Coordination Sequence:
#
# PCOD9232639 Si02
#       7
#     4   4   2   4   4   4   4
#     4  10  21  37  69 104 131 178 238 279 347 408
#     4  11  25  43  66 100 142 179 233 282 358 410
#     4  12  24  40  74  96 136 182 236 284 348 402
#     4  11  25  44  66 100 135 187 229 287 349 415
#     4  11  22  40  69 100 138 184 228 287 341 417
#     4  10  21  40  67  96 140 177 235 286 335 414
#     4  11  21  41  69  99 135 185 231 285 345 421
#
# _framework density 24.482534999999999
#
# number of rings (size 3 to 8) (size 9 to 14) (size 15 to 20)
#    0.000    1.231    1.538    6.923    4.308    0.615 
#    0.000    6.923    0.000    0.000    0.000    0.000 
#    0.000    0.000    0.000    0.000    0.000    0.000 
#
# Total GULP energy -145600.717101 kJ/mol
# GULP energy per Si atom -5600.027581 kJ/mol
# Density = 2.442681 g / cm^3
# Si number density = 24.482535 Si / 1000 Ang^3
#
#
#
# Elastic Constant Matrix: (Units=GPa)
#
#
# Indices 1 2 3 4 5 6 
#
# 1 61.2009 15.3729 9.1546 0.0000 9.5445 0.0000
# 2 15.3729 137.9182 -3.2628 0.0000 -2.0481 0.0000
# 3 9.1546 -3.2628 35.8866 0.0000 -5.7076 0.0000
# 4 0.0000 0.0000 0.0000 19.4639 0.0000 9.5103
# 5 9.5445 -2.0481 -5.7076 0.0000 26.7768 0.0000
# 6 0.0000 0.0000 0.0000 9.5103 0.0000 16.4895
#
#
#
# Elastic Compliance Matrix: (Units=1/GPa)
#
#
# Indices 1 2 3 4 5 6 
#
# 1 0.019227 -0.002421 -0.006463 0.000000 -0.008416 0.000000
# 2 -0.002421 0.007585 0.001591 0.000000 0.001782 0.000000
# 3 -0.006463 0.001591 0.031099 0.000000 0.009054 0.000000
# 4 0.000000 0.000000 0.000000 0.071537 0.000000 -0.041259
# 5 -0.008416 0.001782 0.009054 0.000000 0.042412 0.000000
# 6 0.000000 0.000000 0.000000 -0.041259 0.000000 0.084441
#
#
# Mechanical properties :
#
#
# Convention : Reuss Voigt Hill
#
# Bulk Modulus (GPa) = 23.08242 30.83723 26.95983
# Shear Modulus (GPa) = 17.52360 26.79543 22.15951
#
# Velocity S-wave (km/s) = 2.67827 3.31187 3.01178
# Velocity P-wave (km/s) = 4.36036 5.21992 4.80938
#
# Compressibility (1/GPa) = 0.04332301
#
# Stress axis : x y z
#
# Youngs Moduli (GPa) = 52.00979 131.84559 32.15536
#
# Poissons Ratio (x) = 0.31920 0.20784
# Poissons Ratio (y) = 0.12592 -0.05115
# Poissons Ratio (z) = 0.33617 -0.20972
#
# Static dielectric constant tensor:
#      x y z
#    x 1.950950 0.000000 -0.051920 
#    y 0.000000 1.918620 0.000000 
#    z -0.051920 0.000000 2.002700 
# 
# From -- ./inp_files/79851.got.cif
#   From: 2010.05.17/outbox.cif.g08.bks.cpg/sg13_40_cif.got.tgz:79851.got - 2010.06.03 16:44:36.
