data_PCOD9232945
_publ_section_title
;
Structure prediction by ZEFSAII (Michael W. Deem and Ramdas Pophale) SiO2 
 PCOD9232945
Probable space group: P 2/C
;
_chemical_formula_sum "Si O2"
_cell_formula_units_Z 28
_cell_length_a 10.211421
_cell_length_b 13.328328
_cell_length_c 9.640923
_cell_angle_alpha 90.000000
_cell_angle_beta 65.635202
_cell_angle_gamma 90.000000
_cell_volume 1195.278070
_symmetry_space_group_name_H-M "P 2/C"
_symmetry_group_IT_number 13
_symmetry_cell_setting 'monoclinic'
loop_
_space_group_symop_operation_xyz
x,y,z
-x,y,1/2-z
-x,-y,-z
x,-y,1/2+z
loop_
_atom_site_type_symbol
_atom_site_label
_atom_site_fract_x
_atom_site_fract_y
_atom_site_fract_z
Si Si1 0.000000 0.463119 0.250000
Si Si2 0.136032 0.298467 0.346765
Si Si3 0.282068 0.957973 0.058271
Si Si4 0.500000 0.882655 0.750000
Si Si5 0.685938 0.191725 0.733527
Si Si6 0.834049 0.655498 0.356433
Si Si7 0.992450 0.885984 0.459370
Si Si8 0.669932 0.189691 0.429569
O O1 0.972120 0.389491 0.133714
O O2 0.863863 0.537365 0.323963
O O3 0.204183 0.320790 0.467423
O O4 0.065536 0.190474 0.401194
O O5 0.228300 0.279136 0.168745
O O6 0.366627 0.898401 0.142448
O O7 0.265958 0.075312 0.097097
O O8 0.372994 0.945803 0.877414
O O9 0.133925 0.897217 0.100079
O O10 0.440345 0.817108 0.650013
O O11 0.718826 0.292154 0.807183
O O12 0.620848 0.208599 0.608967
O O13 0.847298 0.151751 0.631158
O O14 0.000000 0.694877 0.250000
O O15 0.000000 0.000000 0.500000
#
# Coordination Sequence:
#
# PCOD9232945 Si02
#       8
#     2   4   4   2   4   4   4   4
#     4  10  24  36  68  98 142 178 224 268 346 430
#     4  12  22  41  60  96 133 187 218 268 339 405
#     4  12  24  44  65  96 135 191 227 289 334 397
#     4  12  26  50  60  88 138 184 256 286 326 388
#     4  12  22  39  64  99 137 177 225 278 356 413
#     4  10  21  39  58  91 141 178 208 273 340 411
#     4  12  21  38  62  95 143 173 216 264 336 418
#     4  12  26  40  65  93 128 184 236 287 333 399
#
# _framework density 23.425512000000001
#
# number of rings (size 3 to 8) (size 9 to 14) (size 15 to 20)
#    0.429    0.000    5.714    3.857    0.000    0.571 
#    0.000    0.000    0.000    0.000    0.000    9.000 
#    0.000    1.143    0.000    0.000    0.000    0.000 
#
# Total GULP energy -156340.100540 kJ/mol
# GULP energy per Si atom -5583.575019 kJ/mol
# Density = 2.337219 g / cm^3
# Si number density = 23.425512 Si / 1000 Ang^3
#
#
#
# Elastic Constant Matrix: (Units=GPa)
#
#
# Indices 1 2 3 4 5 6 
#
# 1 59.9524 18.4565 26.8135 0.0000 33.1117 0.0000
# 2 18.4565 138.7335 33.2326 0.0000 25.2643 0.0000
# 3 26.8135 33.2326 151.6870 0.0000 32.6592 0.0000
# 4 0.0000 0.0000 0.0000 25.9972 0.0000 3.5648
# 5 33.1117 25.2643 32.6592 0.0000 51.9400 0.0000
# 6 0.0000 0.0000 0.0000 3.5648 0.0000 28.2187
#
#
#
# Elastic Compliance Matrix: (Units=1/GPa)
#
#
# Indices 1 2 3 4 5 6 
#
# 1 0.025940 -0.000325 -0.001142 0.000000 -0.015660 0.000000
# 2 -0.000325 0.008059 -0.001051 0.000000 -0.003052 0.000000
# 3 -0.001142 -0.001051 0.007816 0.000000 -0.003675 0.000000
# 4 0.000000 0.000000 0.000000 0.039144 0.000000 -0.004945
# 5 -0.015660 -0.003052 -0.003675 0.000000 0.033032 0.000000
# 6 0.000000 0.000000 0.000000 -0.004945 0.000000 0.036062
#
#
# Mechanical properties :
#
#
# Convention : Reuss Voigt Hill
#
# Bulk Modulus (GPa) = 27.19072 56.37535 41.78303
# Shear Modulus (GPa) = 29.87764 39.35588 34.61676
#
# Velocity S-wave (km/s) = 3.57519 4.10328 3.84831
# Velocity P-wave (km/s) = 5.35492 6.82402 6.13361
#
# Compressibility (1/GPa) = 0.03677725
#
# Stress axis : x y z
#
# Youngs Moduli (GPa) = 38.55027 124.08733 127.94282
#
# Poissons Ratio (x) = 0.04039 0.14615
# Poissons Ratio (y) = 0.01255 0.13447
# Poissons Ratio (z) = 0.04404 0.13042
#
# Static dielectric constant tensor:
#      x y z
#    x 2.012980 0.000000 0.055960 
#    y 0.000000 1.942660 0.000000 
#    z 0.055960 0.000000 1.836230 
# 
# From -- ./inp_files/16485.got.cif
#   From: 2010.05.17/outbox.cif.g08.bks.cpg/sg13_9_cif.got.tgz:16485.got - 2010.06.03 16:44:36.
