data_PCOD9232808
_publ_section_title
;
Structure prediction by ZEFSAII (Michael W. Deem and Ramdas Pophale) SiO2 
 PCOD9232808
Probable space group: P 2/C
;
_chemical_formula_sum "Si O2"
_cell_formula_units_Z 20
_cell_length_a 5.056783
_cell_length_b 12.693579
_cell_length_c 17.630217
_cell_angle_alpha 90.000000
_cell_angle_beta 57.057234
_cell_angle_gamma 90.000000
_cell_volume 949.705361
_symmetry_space_group_name_H-M "P 2/C"
_symmetry_group_IT_number 13
_symmetry_cell_setting 'monoclinic'
loop_
_space_group_symop_operation_xyz
x,y,z
-x,y,1/2-z
-x,-y,-z
x,-y,1/2+z
loop_
_atom_site_type_symbol
_atom_site_label
_atom_site_fract_x
_atom_site_fract_y
_atom_site_fract_z
Si Si1 0.835038 0.180759 0.195717
Si Si2 0.529494 0.695490 0.460395
Si Si3 0.762059 0.074940 0.490696
Si Si4 0.230968 0.380885 0.855973
Si Si5 0.966385 0.395933 0.347033
O O1 0.500000 0.129226 0.250000
O O2 0.000000 0.191612 0.250000
O O3 0.045607 0.112669 0.110676
O O4 0.808694 0.298078 0.166158
O O5 0.401604 0.813534 0.459375
O O6 0.405559 0.625920 0.409372
O O7 0.361651 0.646481 0.562893
O O8 0.910576 0.690287 0.405780
O O9 0.500000 0.000000 0.500000
O O10 0.000000 0.000000 0.500000
O O11 0.500000 0.357503 0.750000
O O12 0.091157 0.497037 0.863320
O O13 0.000000 0.410043 0.250000
#
# Coordination Sequence:
#
# PCOD9232808 Si02
#       5
#     4   4   4   4   4
#     4  10  21  38  62  93 121 152 203 263 314 368
#     4  11  25  43  66  94 129 168 214 266 316 374
#     4  11  23  43  66  89 120 161 209 263 321 369
#     4  12  24  42  63  94 135 176 210 247 306 387
#     4  10  22  40  67  98 129 165 209 261 318 376
#
# _framework density 21.059162000000001
#
# number of rings (size 3 to 8) (size 9 to 14) (size 15 to 20)
#    0.000    1.200    0.000    6.000    0.000   11.200 
#    0.000   10.000    0.000    0.000    0.000    0.000 
#    0.000    0.000    0.000    0.000    0.000    0.000 
#
# Total GULP energy -111489.799996 kJ/mol
# GULP energy per Si atom -5574.490000 kJ/mol
# Density = 2.101123 g / cm^3
# Si number density = 21.059162 Si / 1000 Ang^3
#
#
#
# Elastic Constant Matrix: (Units=GPa)
#
#
# Indices 1 2 3 4 5 6 
#
# 1 120.5114 29.6660 39.9118 0.0000 -15.5916 0.0000
# 2 29.6660 111.0141 37.3999 0.0000 0.3125 0.0000
# 3 39.9118 37.3999 118.0048 0.0000 -22.0653 0.0000
# 4 0.0000 0.0000 0.0000 13.7276 0.0000 24.8082
# 5 -15.5916 0.3125 -22.0653 0.0000 49.2669 0.0000
# 6 0.0000 0.0000 0.0000 24.8082 0.0000 2.5543
#
#
#
# Elastic Compliance Matrix: (Units=1/GPa)
#
#
# Indices 1 2 3 4 5 6 
#
# 1 0.009793 -0.001832 -0.002346 0.000000 0.002060 0.000000
# 2 -0.001832 0.010549 -0.003105 0.000000 -0.002037 0.000000
# 3 -0.002346 -0.003105 0.011041 0.000000 0.004222 0.000000
# 4 0.000000 0.000000 0.000000 -0.004401 0.000000 0.042745
# 5 0.002060 -0.002037 0.004222 0.000000 0.022853 0.000000
# 6 0.000000 0.000000 0.000000 0.042745 0.000000 -0.023653
#
#
# Mechanical properties :
#
#
# Convention : Reuss Voigt Hill
#
# Bulk Modulus (GPa) = 59.46417 62.60950 61.03683
# Shear Modulus (GPa) = 107.86493 29.27994 68.57244
#
# Velocity S-wave (km/s) = 7.16458 3.73281 5.71249
# Velocity P-wave (km/s) = 9.83563 6.95509 8.51801
#
# Compressibility (1/GPa) = 0.01681685
#
# Stress axis : x y z
#
# Youngs Moduli (GPa) = 102.11866 94.79437 90.56955
#
# Poissons Ratio (x) = 0.17368 0.21249
# Poissons Ratio (y) = 0.18710 0.28119
# Poissons Ratio (z) = 0.23959 0.29430
#
# Static dielectric constant tensor:
#      x y z
#    x 1.725990 0.000000 -0.017080 
#    y 0.000000 1.809610 0.000000 
#    z -0.017080 0.000000 1.792350 
# 
# From -- ./inp_files/60998.got.cif
#   From: 2010.05.17/outbox.cif.g08.bks.cpg/sg13_31_cif.got.tgz:60998.got - 2010.06.03 16:44:36.
