data_PCOD9232754
_publ_section_title
;
Structure prediction by ZEFSAII (Michael W. Deem and Ramdas Pophale) SiO2 
 PCOD9232754
Probable space group: P 2/C
;
_chemical_formula_sum "Si O2"
_cell_formula_units_Z 28
_cell_length_a 10.787326
_cell_length_b 16.660989
_cell_length_c 13.857547
_cell_angle_alpha 90.000000
_cell_angle_beta 30.470780
_cell_angle_gamma 90.000000
_cell_volume 1262.971620
_symmetry_space_group_name_H-M "P 2/C"
_symmetry_group_IT_number 13
_symmetry_cell_setting 'monoclinic'
loop_
_space_group_symop_operation_xyz
x,y,z
-x,y,1/2-z
-x,-y,-z
x,-y,1/2+z
loop_
_atom_site_type_symbol
_atom_site_label
_atom_site_fract_x
_atom_site_fract_y
_atom_site_fract_z
Si Si1 0.302962 0.525155 0.211896
Si Si2 0.744922 0.023040 0.893417
Si Si3 0.653020 0.355081 0.246889
Si Si4 0.500000 0.635074 0.250000
Si Si5 0.796277 0.677664 0.313492
Si Si6 0.500000 0.087224 0.250000
Si Si7 0.982491 0.908487 0.050845
Si Si8 0.128028 0.249634 0.937853
O O1 0.221719 0.441157 0.312342
O O2 0.436055 0.577778 0.204238
O O3 0.500000 0.500000 0.000000
O O4 0.875065 0.411294 0.721328
O O5 0.861550 0.087219 0.738547
O O6 0.000000 0.976188 0.750000
O O7 0.623011 0.041565 0.078200
O O8 0.500000 0.000000 0.000000
O O9 0.500000 0.359909 0.250000
O O10 0.453501 0.333648 0.461677
O O11 0.860891 0.288482 0.109833
O O12 0.724754 0.696302 0.085298
O O13 0.763992 0.731528 0.241195
O O14 0.000000 0.708960 0.250000
O O15 0.256741 0.127808 0.373080
O O16 0.853553 0.846034 0.065733
O O17 0.000000 0.000000 0.000000
#
# Coordination Sequence:
#
# PCOD9232754 Si02
#       8
#     4   4   4   2   4   2   4   4
#     4   9  20  37  65  97 134 176 223 269 329 414
#     4  10  21  41  68 102 136 170 228 298 354 428
#     4  11  21  38  63  97 127 171 220 266 328 397
#     4  10  22  45  63  96 140 182 220 274 355 415
#     4  10  21  38  60  96 134 168 220 273 330 395
#     4  10  22  41  71  98 134 170 228 290 351 415
#     4  11  24  43  68 100 135 182 240 292 353 419
#     4  11  26  42  65  94 139 180 220 291 350 404
#
# _framework density 22.169934999999999
#
# number of rings (size 3 to 8) (size 9 to 14) (size 15 to 20)
#    0.000    1.714    3.571    0.000    1.000    8.000 
#    0.000    5.714    0.000    0.000    0.000    0.000 
#    0.000    0.000    0.000    0.000    0.000    0.000 
#
# Total GULP energy -155892.567879 kJ/mol
# GULP energy per Si atom -5567.591710 kJ/mol
# Density = 2.211948 g / cm^3
# Si number density = 22.169935 Si / 1000 Ang^3
#
#
#
# Elastic Constant Matrix: (Units=GPa)
#
#
# Indices 1 2 3 4 5 6 
#
# 1 75.3668 21.0760 19.7287 0.0000 -7.2720 0.0000
# 2 21.0760 134.2681 24.4241 0.0000 2.1977 0.0000
# 3 19.7287 24.4241 123.9957 0.0000 8.7878 0.0000
# 4 0.0000 0.0000 0.0000 -9.1329 0.0000 -2.8837
# 5 -7.2720 2.1977 8.7878 0.0000 41.5196 0.0000
# 6 0.0000 0.0000 0.0000 -2.8837 0.0000 18.2811
#
#
#
# Elastic Compliance Matrix: (Units=1/GPa)
#
#
# Indices 1 2 3 4 5 6 
#
# 1 0.014688 -0.001962 -0.002173 0.000000 0.003136 0.000000
# 2 -0.001962 0.007987 -0.001225 0.000000 -0.000507 0.000000
# 3 -0.002173 -0.001225 0.008806 0.000000 -0.002180 0.000000
# 4 0.000000 0.000000 0.000000 -0.104300 0.000000 -0.016453
# 5 0.003136 -0.000507 -0.002180 0.000000 0.025123 0.000000
# 6 0.000000 0.000000 0.000000 -0.016453 0.000000 0.052106
#
#
# Mechanical properties :
#
#
# Convention : Reuss Voigt Hill
#
# Bulk Modulus (GPa) = 48.16477 51.56537 49.86507
# Shear Modulus (GPa) = 226.75102 28.02701 127.38901
#
# Velocity S-wave (km/s) = 10.12426 3.55940 7.58848
# Velocity P-wave (km/s) = 12.58729 6.34051 9.96599
#
# Compressibility (1/GPa) = 0.02076206
#
# Stress axis : x y z
#
# Youngs Moduli (GPa) = 68.08070 125.20537 113.55472
#
# Poissons Ratio (x) = 0.24562 0.24675
# Poissons Ratio (y) = 0.13355 0.13912
# Poissons Ratio (z) = 0.14793 0.15340
#
# Static dielectric constant tensor:
#      x y z
#    x 1.879470 0.000000 -0.037910 
#    y 0.000000 1.863960 0.000000 
#    z -0.037910 0.000000 1.834120 
# 
# From -- ./inp_files/51574.got.cif
#   From: 2010.05.17/outbox.cif.g08.bks.cpg/sg13_26_cif.got.tgz:51574.got - 2010.06.03 16:44:36.
