data_PCOD9232444
_publ_section_title
;
Structure prediction by ZEFSAII (Michael W. Deem and Ramdas Pophale) SiO2 
 PCOD9232444
Probable space group: P 2/C
;
_chemical_formula_sum "Si O2"
_cell_formula_units_Z 24
_cell_length_a 20.577675
_cell_length_b 5.434542
_cell_length_c 30.769100
_cell_angle_alpha 90.000000
_cell_angle_beta 161.113536
_cell_angle_gamma 90.000000
_cell_volume 1113.803453
_symmetry_space_group_name_H-M "P 2/C"
_symmetry_group_IT_number 13
_symmetry_cell_setting 'monoclinic'
loop_
_space_group_symop_operation_xyz
x,y,z
-x,y,1/2-z
-x,-y,-z
x,-y,1/2+z
loop_
_atom_site_type_symbol
_atom_site_label
_atom_site_fract_x
_atom_site_fract_y
_atom_site_fract_z
Si Si1 0.458350 0.432541 0.322569
Si Si2 0.843928 0.790935 0.019822
Si Si3 0.460671 0.232060 0.419636
Si Si4 0.463306 0.824750 0.182109
Si Si5 0.841676 0.819949 0.921995
Si Si6 0.258488 0.733999 0.325495
O O1 0.649853 0.353613 0.414293
O O2 0.482037 0.301461 0.383029
O O3 0.479850 0.722488 0.329431
O O4 0.241089 0.378490 0.164228
O O5 0.905925 0.722370 0.009852
O O6 0.760195 0.069741 0.963241
O O7 0.025194 0.757615 0.167334
O O8 0.331724 0.462955 0.356909
O O9 0.666764 0.235242 0.577700
O O10 0.362120 0.964649 0.365653
O O11 0.500000 0.668602 0.250000
O O12 0.635004 0.028625 0.298925
O O13 0.000000 0.000000 0.000000
#
# Coordination Sequence:
#
# PCOD9232444 Si02
#       6
#     4   4   4   4   4   4
#     4  11  22  37  62  90 127 171 208 270 316 389
#     4  10  22  37  63  87 132 162 216 258 324 377
#     4  10  24  42  70  89 129 162 216 265 326 372
#     4   9  20  37  55  89 130 167 208 262 319 382
#     4  10  21  37  57  91 124 168 210 260 314 383
#     4  10  23  46  64  96 122 168 211 272 316 385
#
# _framework density 21.547788000000001
#
# number of rings (size 3 to 8) (size 9 to 14) (size 15 to 20)
#    0.000    2.000    0.000    3.500    9.333    1.333 
#    0.000    0.000    0.000    0.000    0.000    0.000 
#    0.000    0.000    0.000    0.000    0.000    0.000 
#
# Total GULP energy -133708.998726 kJ/mol
# GULP energy per Si atom -5571.208280 kJ/mol
# Density = 2.149874 g / cm^3
# Si number density = 21.547788 Si / 1000 Ang^3
#
#
#
# Elastic Constant Matrix: (Units=GPa)
#
#
# Indices 1 2 3 4 5 6 
#
# 1 32.9554 -1.4699 -7.3477 0.0000 -6.4957 0.0000
# 2 -1.4699 40.4290 11.3075 0.0000 -10.6334 0.0000
# 3 -7.3477 11.3075 124.7423 0.0000 1.3999 0.0000
# 4 0.0000 0.0000 0.0000 24.5636 0.0000 0.9888
# 5 -6.4957 -10.6334 1.3999 0.0000 26.8431 0.0000
# 6 0.0000 0.0000 0.0000 0.9888 0.0000 27.3005
#
#
#
# Elastic Compliance Matrix: (Units=1/GPa)
#
#
# Indices 1 2 3 4 5 6 
#
# 1 0.032611 0.003138 0.001535 0.000000 0.009054 0.000000
# 2 0.003138 0.028802 -0.002564 0.000000 0.012302 0.000000
# 3 0.001535 -0.002564 0.008351 0.000000 -0.001080 0.000000
# 4 0.000000 0.000000 0.000000 0.040770 0.000000 -0.001477
# 5 0.009054 0.012302 -0.001080 0.000000 0.044374 0.000000
# 6 0.000000 0.000000 0.000000 -0.001477 0.000000 0.036683
#
#
# Mechanical properties :
#
#
# Convention : Reuss Voigt Hill
#
# Bulk Modulus (GPa) = 13.51694 22.56738 18.04216
# Shear Modulus (GPa) = 23.58112 28.78390 26.18251
#
# Velocity S-wave (km/s) = 3.31171 3.65885 3.48960
# Velocity P-wave (km/s) = 4.57273 5.32405 4.96263
#
# Compressibility (1/GPa) = 0.07398124
#
# Stress axis : x y z
#
# Youngs Moduli (GPa) = 30.66459 34.72035 119.73940
#
# Poissons Ratio (x) = -0.10895 -0.18378
# Poissons Ratio (y) = -0.09622 0.30701
# Poissons Ratio (z) = -0.04706 0.08902
#
# Static dielectric constant tensor:
#      x y z
#    x 1.897120 0.000000 -0.049180 
#    y 0.000000 2.095450 0.000000 
#    z -0.049180 0.000000 1.744590 
# 
# From -- ./inp_files/70958.got.cif
#   From: 2010.05.17/outbox.cif.g08.bks.cpg/sg13_36_cif.got.tgz:70958.got - 2010.06.03 16:44:36.
