data_PCOD9232406
_publ_section_title
;
Structure prediction by ZEFSAII (Michael W. Deem and Ramdas Pophale) SiO2 
 PCOD9232406
Probable space group: P 2/C
;
_chemical_formula_sum "Si O2"
_cell_formula_units_Z 18
_cell_length_a 5.296196
_cell_length_b 18.423197
_cell_length_c 9.209699
_cell_angle_alpha 90.000000
_cell_angle_beta 78.943776
_cell_angle_gamma 90.000000
_cell_volume 881.937891
_symmetry_space_group_name_H-M "P 2/C"
_symmetry_group_IT_number 13
_symmetry_cell_setting 'monoclinic'
loop_
_space_group_symop_operation_xyz
x,y,z
-x,y,1/2-z
-x,-y,-z
x,-y,1/2+z
loop_
_atom_site_type_symbol
_atom_site_label
_atom_site_fract_x
_atom_site_fract_y
_atom_site_fract_z
Si Si1 0.179495 0.437341 0.544184
Si Si2 0.000000 0.312901 0.750000
Si Si3 0.500000 0.783149 0.250000
Si Si4 0.500000 0.522731 0.750000
Si Si5 0.119036 0.109433 0.884434
Si Si6 0.666767 0.042923 0.105012
O O1 0.029609 0.365835 0.607974
O O2 0.318391 0.470111 0.672460
O O3 0.373108 0.427743 0.388464
O O4 0.000000 0.500000 0.500000
O O5 0.266242 0.268434 0.727511
O O6 0.634673 0.838594 0.117703
O O7 0.000000 0.139169 0.750000
O O8 0.205466 0.027995 0.838281
O O9 0.889283 0.096106 0.022883
O O10 0.500000 0.078451 0.250000
O O11 0.500000 0.000000 0.000000
#
# Coordination Sequence:
#
# PCOD9232406 Si02
#       6
#     4   2   2   2   4   4
#     4  11  21  40  64 104 132 174 221 298 342 401
#     4  12  26  40  72  98 134 192 230 262 356 432
#     4  12  25  44  64  98 143 186 234 266 338 441
#     4  10  21  36  68  94 145 158 218 298 348 387
#     4  11  21  40  64  95 136 177 219 286 330 393
#     4  11  21  36  68 102 131 166 228 284 347 381
#
# _framework density 20.409600000000001
#
# number of rings (size 3 to 8) (size 9 to 14) (size 15 to 20)
#    0.000    0.889    6.667    0.667    3.111    0.000 
#    0.000    0.000    2.444    2.667    0.000    0.000 
#    0.000    0.000    0.000    0.000    0.000    0.000 
#
# Total GULP energy -100248.555312 kJ/mol
# GULP energy per Si atom -5569.364184 kJ/mol
# Density = 2.036315 g / cm^3
# Si number density = 20.409600 Si / 1000 Ang^3
#
#
#
# Elastic Constant Matrix: (Units=GPa)
#
#
# Indices 1 2 3 4 5 6 
#
# 1 135.5895 63.6874 58.4130 0.0000 -13.8539 0.0000
# 2 63.6874 104.5779 45.6616 0.0000 -20.3592 0.0000
# 3 58.4130 45.6616 123.1616 0.0000 -34.3554 0.0000
# 4 0.0000 0.0000 0.0000 -33.7308 0.0000 6.1659
# 5 -13.8539 -20.3592 -34.3554 0.0000 60.3132 0.0000
# 6 0.0000 0.0000 0.0000 6.1659 0.0000 43.4715
#
#
#
# Elastic Compliance Matrix: (Units=1/GPa)
#
#
# Indices 1 2 3 4 5 6 
#
# 1 0.011496 -0.005634 -0.003754 0.000000 -0.001400 0.000000
# 2 -0.005634 0.014322 -0.001962 0.000000 0.002423 0.000000
# 3 -0.003754 -0.001962 0.012129 0.000000 0.005384 0.000000
# 4 0.000000 0.000000 0.000000 -0.028897 0.000000 0.004099
# 5 -0.001400 0.002423 0.005384 0.000000 0.020144 0.000000
# 6 0.000000 0.000000 0.000000 0.004099 0.000000 0.022422
#
#
# Mechanical properties :
#
#
# Convention : Reuss Voigt Hill
#
# Bulk Modulus (GPa) = 65.58613 77.65034 71.61823
# Shear Modulus (GPa) = 62.97479 27.04860 45.01169
#
# Velocity S-wave (km/s) = 5.56080 3.64440 4.70128
# Velocity P-wave (km/s) = 8.56940 7.47245 8.03965
#
# Compressibility (1/GPa) = 0.01524713
#
# Stress axis : x y z
#
# Youngs Moduli (GPa) = 86.98789 69.82394 82.44741
#
# Poissons Ratio (x) = 0.39342 0.30948
# Poissons Ratio (y) = 0.49013 0.16173
# Poissons Ratio (z) = 0.32653 0.13697
#
# Static dielectric constant tensor:
#      x y z
#    x 1.006660 0.000000 -0.023780 
#    y 0.000000 1.743680 0.000000 
#    z -0.023780 0.000000 1.777790 
# 
# From -- ./inp_files/9174.got.cif
#   From: 2010.05.17/outbox.cif.g08.bks.cpg/sg13_5_cif.got.tgz:9174.got - 2010.06.03 16:44:36.
