data_PCOD9232865
_publ_section_title
;
Structure prediction by ZEFSAII (Michael W. Deem and Ramdas Pophale) SiO2 
 PCOD9232865
Probable space group: P 2/C
;
_chemical_formula_sum "Si O2"
_cell_formula_units_Z 24
_cell_length_a 14.590374
_cell_length_b 7.005112
_cell_length_c 14.464919
_cell_angle_alpha 90.000000
_cell_angle_beta 44.547799
_cell_angle_gamma 90.000000
_cell_volume 1037.116864
_symmetry_space_group_name_H-M "P 2/C"
_symmetry_group_IT_number 13
_symmetry_cell_setting 'monoclinic'
loop_
_space_group_symop_operation_xyz
x,y,z
-x,y,1/2-z
-x,-y,-z
x,-y,1/2+z
loop_
_atom_site_type_symbol
_atom_site_label
_atom_site_fract_x
_atom_site_fract_y
_atom_site_fract_z
Si Si1 0.081057 0.701759 0.601824
Si Si2 0.096236 0.816302 0.925664
Si Si3 0.641497 0.326819 0.308503
Si Si4 0.631986 0.440167 0.635790
Si Si5 0.640072 0.661894 0.444910
Si Si6 0.868160 0.145637 0.891277
O O1 0.222157 0.636466 0.464283
O O2 0.000000 0.627834 0.750000
O O3 0.984421 0.681900 0.584573
O O4 0.115598 0.920119 0.605502
O O5 0.239281 0.822500 0.774701
O O6 0.128157 0.766509 0.008506
O O7 0.000000 0.000000 0.000000
O O8 0.618763 0.385627 0.218086
O O9 0.676051 0.533285 0.330584
O O10 0.507225 0.255898 0.452135
O O11 0.500000 0.317957 0.750000
O O12 0.625369 0.502767 0.534930
O O13 0.748513 0.800142 0.410525
O O14 0.000000 0.213748 0.750000
#
# Coordination Sequence:
#
# PCOD9232865 Si02
#       6
#     4   4   4   4   4   4
#     4  10  22  40  60  86 127 164 203 262 319 384
#     4  10  21  39  61  90 125 165 209 266 323 383
#     4  10  21  38  64  93 127 160 221 262 318 388
#     4  10  21  39  60  90 124 160 209 264 313 378
#     4  10  21  39  64  90 123 169 207 267 321 377
#     4  10  22  39  60  90 125 162 209 255 316 390
#
# _framework density 23.141076000000002
#
# number of rings (size 3 to 8) (size 9 to 14) (size 15 to 20)
#    0.000    2.000    1.667    1.000    2.333    2.667 
#    6.000    0.000    0.000    6.000    0.000    0.000 
#    0.000    0.000    0.000    0.000    0.000    0.000 
#
# Total GULP energy -133637.568276 kJ/mol
# GULP energy per Si atom -5568.232012 kJ/mol
# Density = 2.308841 g / cm^3
# Si number density = 23.141076 Si / 1000 Ang^3
#
#
#
# Elastic Constant Matrix: (Units=GPa)
#
#
# Indices 1 2 3 4 5 6 
#
# 1 92.2071 22.6443 38.1137 0.0000 -28.2045 0.0000
# 2 22.6443 61.6683 28.4298 0.0000 -13.0161 0.0000
# 3 38.1137 28.4298 132.6612 0.0000 -37.9183 0.0000
# 4 0.0000 0.0000 0.0000 33.3295 0.0000 -7.3532
# 5 -28.2045 -13.0161 -37.9183 0.0000 57.3600 0.0000
# 6 0.0000 0.0000 0.0000 -7.3532 0.0000 17.7586
#
#
#
# Elastic Compliance Matrix: (Units=1/GPa)
#
#
# Indices 1 2 3 4 5 6 
#
# 1 0.013907 -0.003197 -0.001927 0.000000 0.004839 0.000000
# 2 -0.003197 0.018896 -0.002903 0.000000 0.000797 0.000000
# 3 -0.001927 -0.002903 0.010178 0.000000 0.005122 0.000000
# 4 0.000000 0.000000 0.000000 0.033020 0.000000 0.013672
# 5 0.004839 0.000797 0.005122 0.000000 0.023379 0.000000
# 6 0.000000 0.000000 0.000000 0.013672 0.000000 0.061972
#
#
# Mechanical properties :
#
#
# Convention : Reuss Voigt Hill
#
# Bulk Modulus (GPa) = 37.13873 51.65692 44.39782
# Shear Modulus (GPa) = 26.82650 34.84621 30.83636
#
# Velocity S-wave (km/s) = 3.40848 3.88469 3.65435
# Velocity P-wave (km/s) = 5.61908 6.51860 6.08548
#
# Compressibility (1/GPa) = 0.02692607
#
# Stress axis : x y z
#
# Youngs Moduli (GPa) = 71.90645 52.92050 98.25265
#
# Poissons Ratio (x) = 0.16917 0.18937
# Poissons Ratio (y) = 0.22987 0.28527
# Poissons Ratio (z) = 0.13859 0.15365
#
# Static dielectric constant tensor:
#      x y z
#    x 1.920820 0.000000 -0.077040 
#    y 0.000000 1.952510 0.000000 
#    z -0.077040 0.000000 1.952640 
# 
# From -- ./inp_files/52906.got.cif
#   From: 2010.05.17/outbox.cif.g08.bks.cpg/sg13_27_cif.got.tgz:52906.got - 2010.06.03 16:44:36.
