data_PCOD9232665
_publ_section_title
;
Structure prediction by ZEFSAII (Michael W. Deem and Ramdas Pophale) SiO2 
 PCOD9232665
Probable space group: P 2/C
;
_chemical_formula_sum "Si O2"
_cell_formula_units_Z 32
_cell_length_a 14.598589
_cell_length_b 9.239583
_cell_length_c 22.904001
_cell_angle_alpha 90.000000
_cell_angle_beta 152.266425
_cell_angle_gamma 90.000000
_cell_volume 1437.687199
_symmetry_space_group_name_H-M "P 2/C"
_symmetry_group_IT_number 13
_symmetry_cell_setting 'monoclinic'
loop_
_space_group_symop_operation_xyz
x,y,z
-x,y,1/2-z
-x,-y,-z
x,-y,1/2+z
loop_
_atom_site_type_symbol
_atom_site_label
_atom_site_fract_x
_atom_site_fract_y
_atom_site_fract_z
Si Si1 0.236158 0.847630 0.736074
Si Si2 0.597167 0.548818 0.649256
Si Si3 0.785224 0.427960 0.874137
Si Si4 0.356045 0.093797 0.093338
Si Si5 0.869071 0.124426 0.955609
Si Si6 0.892859 0.389674 0.748151
Si Si7 0.017773 0.942083 0.197601
Si Si8 0.751685 0.582469 0.970396
O O1 0.322719 0.709174 0.817360
O O2 0.416240 0.901762 0.796888
O O3 0.035885 0.801019 0.590263
O O4 0.159256 0.972731 0.734348
O O5 0.680369 0.498109 0.759588
O O6 0.679266 0.448762 0.644562
O O7 0.370292 0.560528 0.538598
O O8 0.703211 0.469574 0.892141
O O9 0.791688 0.254079 0.872186
O O10 0.000000 0.500000 0.000000
O O11 0.301012 0.256680 0.084014
O O12 0.200489 0.073970 0.952639
O O13 0.296281 0.963582 0.102411
O O14 0.000000 0.000000 0.000000
O O15 0.893022 0.216855 0.743281
O O16 0.000000 0.446151 0.750000
O O17 0.026484 0.423520 0.880774
O O18 0.000000 0.016734 0.250000
#
# Coordination Sequence:
#
# PCOD9232665 Si02
#       8
#     4   4   4   4   4   4   4   4
#     4  10  21  38  57  83 115 151 196 239 290 349
#     4  11  23  38  61  88 117 158 198 244 298 350
#     4  12  21  38  61  86 121 155 193 244 294 351
#     4   9  21  38  58  83 118 155 193 241 291 350
#     4  11  23  37  57  83 116 154 191 233 288 346
#     4  10  21  39  61  85 117 156 198 250 300 350
#     4   9  20  38  60  84 114 154 197 243 297 348
#     4  10  21  40  60  86 121 156 199 240 297 356
#
# _framework density 22.257971000000001
#
# number of rings (size 3 to 8) (size 9 to 14) (size 15 to 20)
#    0.000    1.750    2.500    1.125    3.500    3.000 
#    2.250    0.000    0.000    0.000    0.000    0.000 
#    0.000    0.000    0.000    0.000    0.000    0.000 
#
# Total GULP energy -178728.861696 kJ/mol
# GULP energy per Si atom -5585.276928 kJ/mol
# Density = 2.220731 g / cm^3
# Si number density = 22.257971 Si / 1000 Ang^3
#
#
#
# Elastic Constant Matrix: (Units=GPa)
#
#
# Indices 1 2 3 4 5 6 
#
# 1 72.7477 20.8412 12.8972 0.0000 14.2145 0.0000
# 2 20.8412 76.4792 14.5227 0.0000 1.3814 0.0000
# 3 12.8972 14.5227 57.7879 0.0000 17.3775 0.0000
# 4 0.0000 0.0000 0.0000 15.3166 0.0000 7.2459
# 5 14.2145 1.3814 17.3775 0.0000 29.7793 0.0000
# 6 0.0000 0.0000 0.0000 7.2459 0.0000 30.7041
#
#
#
# Elastic Compliance Matrix: (Units=1/GPa)
#
#
# Indices 1 2 3 4 5 6 
#
# 1 0.016499 -0.004293 -0.000358 0.000000 -0.007467 0.000000
# 2 -0.004293 0.014917 -0.003879 0.000000 0.003621 0.000000
# 3 -0.000358 -0.003879 0.022139 0.000000 -0.012568 0.000000
# 4 0.000000 0.000000 0.000000 0.073493 0.000000 -0.017344
# 5 -0.007467 0.003621 -0.012568 0.000000 0.044311 0.000000
# 6 0.000000 0.000000 0.000000 -0.017344 0.000000 0.036662
#
#
# Mechanical properties :
#
#
# Convention : Reuss Voigt Hill
#
# Bulk Modulus (GPa) = 27.40228 33.72634 30.56431
# Shear Modulus (GPa) = 21.07520 25.74357 23.40939
#
# Velocity S-wave (km/s) = 3.08045 3.40457 3.24656
# Velocity P-wave (km/s) = 4.99902 5.53536 5.27401
#
# Compressibility (1/GPa) = 0.03649332
#
# Stress axis : x y z
#
# Youngs Moduli (GPa) = 60.61124 67.03913 45.16936
#
# Poissons Ratio (x) = 0.28781 0.01616
# Poissons Ratio (y) = 0.26022 0.17523
# Poissons Ratio (z) = 0.02168 0.26008
#
# Static dielectric constant tensor:
#      x y z
#    x 1.877710 0.000000 0.006020 
#    y 0.000000 1.805600 0.000000 
#    z 0.006020 0.000000 1.853980 
# 
# From -- ./inp_files/87434.got.cif
#   From: 2010.05.17/outbox.cif.g08.bks.cpg/sg13_44_cif.got.tgz:87434.got - 2010.06.03 16:44:36.
