data_PCOD9232075
_publ_section_title
;
Structure prediction by ZEFSAII (Michael W. Deem and Ramdas Pophale) SiO2 
 PCOD9232075
Probable space group: P 2/C
;
_chemical_formula_sum "Si O2"
_cell_formula_units_Z 30
_cell_length_a 17.324741
_cell_length_b 16.404821
_cell_length_c 13.043999
_cell_angle_alpha 90.000000
_cell_angle_beta 157.507461
_cell_angle_gamma 90.000000
_cell_volume 1418.247762
_symmetry_space_group_name_H-M "P 2/C"
_symmetry_group_IT_number 13
_symmetry_cell_setting 'monoclinic'
loop_
_space_group_symop_operation_xyz
x,y,z
-x,y,1/2-z
-x,-y,-z
x,-y,1/2+z
loop_
_atom_site_type_symbol
_atom_site_label
_atom_site_fract_x
_atom_site_fract_y
_atom_site_fract_z
Si Si1 0.000000 0.995787 0.250000
Si Si2 0.914876 0.541957 0.245384
Si Si3 0.715279 0.032326 0.570860
Si Si4 0.631610 0.150820 0.015117
Si Si5 0.785073 0.581491 0.295658
Si Si6 0.064769 0.731583 0.693521
Si Si7 0.664961 0.613653 0.362323
Si Si8 0.254694 0.874600 0.182322
O O1 0.174650 0.053574 0.510231
O O2 0.106200 0.948362 0.289103
O O3 0.762647 0.577100 0.145042
O O4 0.000000 0.589843 0.250000
O O5 0.109669 0.504222 0.543517
O O6 0.799582 0.464566 0.055762
O O7 0.727708 0.089943 0.683095
O O8 0.736836 0.937839 0.634413
O O9 0.500000 0.038496 0.250000
O O10 0.500000 0.158214 0.750000
O O11 0.473940 0.151576 0.913247
O O12 0.783025 0.226004 0.199591
O O13 0.624411 0.602231 0.190095
O O14 0.946557 0.654138 0.506151
O O15 0.909661 0.803835 0.526148
O O16 0.201253 0.694168 0.952459
O O17 0.500000 0.616686 0.250000
#
# Coordination Sequence:
#
# PCOD9232075 Si02
#       8
#     2   4   4   4   4   4   4   4
#     4  12  22  36  64  88 112 152 192 256 310 360
#     4   8  16  36  58  80 110 156 196 236 284 344
#     4  11  24  40  60  86 114 155 204 255 293 361
#     4  11  22  35  59  87 116 152 190 251 305 355
#     4   9  19  33  57  83 115 152 192 238 293 349
#     4  11  23  34  56  87 121 155 187 244 308 363
#     4  10  21  32  56  91 123 151 193 245 298 356
#     4  12  24  39  61  87 120 155 201 246 313 361
#
# _framework density 21.152863
#
# number of rings (size 3 to 8) (size 9 to 14) (size 15 to 20)
#    0.000    1.600    4.000    2.400    7.467    0.533 
#    0.000    0.000    4.400    0.000    0.000    0.000 
#    0.000    0.000    0.000    0.000    0.000    0.000 
#
# Total GULP energy -167357.050721 kJ/mol
# GULP energy per Si atom -5578.568357 kJ/mol
# Density = 2.110472 g / cm^3
# Si number density = 21.152863 Si / 1000 Ang^3
#
#
#
# Elastic Constant Matrix: (Units=GPa)
#
#
# Indices 1 2 3 4 5 6 
#
# 1 212.3027 37.3197 31.4022 0.0000 16.8867 0.0000
# 2 37.3197 43.1812 5.3700 0.0000 -4.2791 0.0000
# 3 31.4022 5.3700 24.2960 0.0000 5.2129 0.0000
# 4 0.0000 0.0000 0.0000 8.5472 0.0000 5.8249
# 5 16.8867 -4.2791 5.2129 0.0000 36.9702 0.0000
# 6 0.0000 0.0000 0.0000 5.8249 0.0000 37.3034
#
#
#
# Elastic Compliance Matrix: (Units=1/GPa)
#
#
# Indices 1 2 3 4 5 6 
#
# 1 0.006940 -0.005380 -0.007184 0.000000 -0.002779 0.000000
# 2 -0.005380 0.028459 -0.000589 0.000000 0.005834 0.000000
# 3 -0.007184 -0.000589 0.051441 0.000000 -0.004040 0.000000
# 4 0.000000 0.000000 0.000000 0.130930 0.000000 -0.020445
# 5 -0.002779 0.005834 -0.004040 0.000000 0.029563 0.000000
# 6 0.000000 0.000000 0.000000 -0.020445 0.000000 0.030000
#
#
# Mechanical properties :
#
#
# Convention : Reuss Voigt Hill
#
# Bulk Modulus (GPa) = 16.51936 47.55151 32.03544
# Shear Modulus (GPa) = 15.44087 30.27670 22.85878
#
# Velocity S-wave (km/s) = 2.70472 3.78739 3.29089
# Velocity P-wave (km/s) = 4.19291 6.45403 5.44220
#
# Compressibility (1/GPa) = 0.06053502
#
# Stress axis : x y z
#
# Youngs Moduli (GPa) = 144.10075 35.13828 19.43969
#
# Poissons Ratio (x) = 0.18903 0.13965
# Poissons Ratio (y) = 0.77521 0.01145
# Poissons Ratio (z) = 1.03521 0.02069
#
# Static dielectric constant tensor:
#      x y z
#    x 1.904610 0.000000 0.033280 
#    y 0.000000 1.737040 0.000000 
#    z 0.033280 0.000000 1.800850 
# 
# From -- ./inp_files/37678.got.cif
#   From: 2010.05.17/outbox.cif.g08.bks.cpg/sg13_19_cif.got.tgz:37678.got - 2010.06.03 16:44:36.
