data_PCOD9232789
_publ_section_title
;
Structure prediction by ZEFSAII (Michael W. Deem and Ramdas Pophale) SiO2 
 PCOD9232789
Probable space group: P 2/C
;
_chemical_formula_sum "Si O2"
_cell_formula_units_Z 28
_cell_length_a 26.964715
_cell_length_b 8.525538
_cell_length_c 10.036928
_cell_angle_alpha 90.000000
_cell_angle_beta 140.873729
_cell_angle_gamma 90.000000
_cell_volume 1456.027324
_symmetry_space_group_name_H-M "P 2/C"
_symmetry_group_IT_number 13
_symmetry_cell_setting 'monoclinic'
loop_
_space_group_symop_operation_xyz
x,y,z
-x,y,1/2-z
-x,-y,-z
x,-y,1/2+z
loop_
_atom_site_type_symbol
_atom_site_label
_atom_site_fract_x
_atom_site_fract_y
_atom_site_fract_z
Si Si1 0.169850 0.204286 0.857032
Si Si2 0.556457 0.516003 0.242198
Si Si3 0.950003 0.583315 0.511528
Si Si4 0.332367 0.184890 0.522080
Si Si5 0.191743 0.610612 0.668932
Si Si6 0.709336 0.025562 0.809404
Si Si7 0.707583 0.681569 0.108299
O O1 0.090307 0.250839 0.614122
O O2 0.162242 0.299976 0.977789
O O3 0.241200 0.267005 0.912871
O O4 0.202884 0.033684 0.967326
O O5 0.500000 0.508078 0.250000
O O6 0.602247 0.681661 0.334145
O O7 0.622177 0.379843 0.388118
O O8 0.500000 0.500000 0.000000
O O9 0.878057 0.465543 0.393834
O O10 0.000000 0.500000 0.500000
O O11 0.000000 0.601395 0.750000
O O12 0.248500 0.272507 0.367295
O O13 0.337425 0.059735 0.651869
O O14 0.326989 0.105639 0.365260
O O15 0.247722 0.468890 0.738615
O O16 0.708209 0.180992 0.717235
#
# Coordination Sequence:
#
# PCOD9232789 Si02
#       7
#     4   4   4   4   4   4   4
#     4  10  21  38  61  95 121 167 212 261 307 377
#     4  11  25  42  64  93 126 164 210 265 321 379
#     4  11  21  37  62  98 129 163 205 259 318 371
#     4  10  23  40  65  89 127 161 217 260 309 379
#     4   9  21  36  64  91 120 164 218 261 300 364
#     4  11  21  40  63  93 121 163 209 265 311 368
#     4  10  22  37  66  89 119 164 217 259 308 373
#
# _framework density 19.230408000000001
#
# number of rings (size 3 to 8) (size 9 to 14) (size 15 to 20)
#    0.000    1.714    2.857    0.857   12.000    0.000 
#    0.000    3.571    0.000    8.571    0.000    0.000 
#    0.000    0.000    0.000    0.000    0.000    0.000 
#
# Total GULP energy -156196.962094 kJ/mol
# GULP energy per Si atom -5578.462932 kJ/mol
# Density = 1.918664 g / cm^3
# Si number density = 19.230408 Si / 1000 Ang^3
#
#
#
# Elastic Constant Matrix: (Units=GPa)
#
#
# Indices 1 2 3 4 5 6 
#
# 1 79.6957 10.9783 61.9367 0.0000 -1.1520 0.0000
# 2 10.9783 80.9353 55.1267 0.0000 2.8551 0.0000
# 3 61.9367 55.1267 142.3887 0.0000 2.3089 0.0000
# 4 0.0000 0.0000 0.0000 27.2107 0.0000 -4.1556
# 5 -1.1520 2.8551 2.3089 0.0000 28.6933 0.0000
# 6 0.0000 0.0000 0.0000 -4.1556 0.0000 19.2763
#
#
#
# Elastic Compliance Matrix: (Units=1/GPa)
#
#
# Indices 1 2 3 4 5 6 
#
# 1 0.020075 0.004340 -0.010432 0.000000 0.001214 0.000000
# 2 0.004340 0.017757 -0.008748 0.000000 -0.000889 0.000000
# 3 -0.010432 -0.008748 0.014960 0.000000 -0.000752 0.000000
# 4 0.000000 0.000000 0.000000 0.038001 0.000000 0.008192
# 5 0.001214 -0.000889 -0.000752 0.000000 0.035049 0.000000
# 6 0.000000 0.000000 0.000000 0.008192 0.000000 0.053643
#
#
# Mechanical properties :
#
#
# Convention : Reuss Voigt Hill
#
# Bulk Modulus (GPa) = 43.26984 62.12256 52.69620
# Shear Modulus (GPa) = 23.05538 26.70124 24.87831
#
# Velocity S-wave (km/s) = 3.46627 3.73029 3.60070
# Velocity P-wave (km/s) = 6.21045 7.13638 6.68945
#
# Compressibility (1/GPa) = 0.02311079
#
# Stress axis : x y z
#
# Youngs Moduli (GPa) = 49.81345 56.31712 66.84592
#
# Poissons Ratio (x) = -0.24440 0.69734
# Poissons Ratio (y) = -0.21617 0.58476
# Poissons Ratio (z) = 0.51966 0.49265
#
# Static dielectric constant tensor:
#      x y z
#    x 1.644560 0.000000 -0.008400 
#    y 0.000000 1.704980 0.000000 
#    z -0.008400 0.000000 1.684900 
# 
# From -- ./inp_files/24622.got.cif
#   From: 2010.05.17/outbox.cif.g08.bks.cpg/sg13_13_cif.got.tgz:24622.got - 2010.06.03 16:44:36.
