data_PCOD9232014
_publ_section_title
;
Structure prediction by ZEFSAII (Michael W. Deem and Ramdas Pophale) SiO2 
 PCOD9232014
Probable space group: P 2/C
;
_chemical_formula_sum "Si O2"
_cell_formula_units_Z 28
_cell_length_a 16.028319
_cell_length_b 6.949957
_cell_length_c 12.671800
_cell_angle_alpha 90.000000
_cell_angle_beta 65.061064
_cell_angle_gamma 90.000000
_cell_volume 1279.969585
_symmetry_space_group_name_H-M "P 2/C"
_symmetry_group_IT_number 13
_symmetry_cell_setting 'monoclinic'
loop_
_space_group_symop_operation_xyz
x,y,z
-x,y,1/2-z
-x,-y,-z
x,-y,1/2+z
loop_
_atom_site_type_symbol
_atom_site_label
_atom_site_fract_x
_atom_site_fract_y
_atom_site_fract_z
Si Si1 0.778205 0.255826 0.550286
Si Si2 0.288883 0.419345 0.543261
Si Si3 0.497516 0.363025 0.363767
Si Si4 0.629575 0.729294 0.295570
Si Si5 0.093489 0.459976 0.386323
Si Si6 0.859995 0.844075 0.487356
Si Si7 0.000000 0.344758 0.750000
Si Si8 0.500000 0.000000 0.000000
O O1 0.754717 0.373380 0.456984
O O2 0.682776 0.210562 0.661465
O O3 0.832958 0.401566 0.597012
O O4 0.838562 0.067971 0.500949
O O5 0.392954 0.421009 0.444793
O O6 0.296685 0.347571 0.658032
O O7 0.229741 0.264810 0.509785
O O8 0.500000 0.257106 0.250000
O O9 0.562156 0.547577 0.316377
O O10 0.525105 0.216934 0.440446
O O11 0.573706 0.901118 0.378359
O O12 0.120466 0.243884 0.406595
O O13 0.069800 0.521362 0.280151
O O14 0.000000 0.500000 0.500000
O O15 0.942028 0.782835 0.363943
#
# Coordination Sequence:
#
# PCOD9232014 Si02
#       8
#     4   4   4   4   4   4   2   2
#     4  11  23  42  68  98 132 172 221 274 329 398
#     4  10  22  42  63  94 132 171 226 269 334 392
#     4  11  23  43  65  95 134 180 223 282 335 388
#     4  11  24  43  64  95 135 180 222 284 331 394
#     4   9  21  42  65  93 130 170 214 270 334 399
#     4  10  23  41  67 101 131 174 221 271 333 409
#     4  10  20  44  68  96 142 172 216 276 346 402
#     4  10  24  38  62  96 124 172 234 262 334 398
#
# _framework density 21.875519000000001
#
# number of rings (size 3 to 8) (size 9 to 14) (size 15 to 20)
#    0.000    1.714    1.429    2.571    2.000    7.429 
#    0.000   21.429    0.000    0.000    0.000    0.000 
#    0.000    0.000    0.000    0.000    0.000    0.000 
#
# Total GULP energy -155893.365493 kJ/mol
# GULP energy per Si atom -5567.620196 kJ/mol
# Density = 2.182573 g / cm^3
# Si number density = 21.875519 Si / 1000 Ang^3
#
#
#
# Elastic Constant Matrix: (Units=GPa)
#
#
# Indices 1 2 3 4 5 6 
#
# 1 47.6808 14.9407 -0.3894 0.0000 -0.2358 0.0000
# 2 14.9407 103.4226 22.8292 0.0000 1.1206 0.0000
# 3 -0.3894 22.8292 86.2165 0.0000 -8.9302 0.0000
# 4 0.0000 0.0000 0.0000 26.1038 0.0000 -15.7421
# 5 -0.2358 1.1206 -8.9302 0.0000 32.9570 0.0000
# 6 0.0000 0.0000 0.0000 -15.7421 0.0000 19.2919
#
#
#
# Elastic Compliance Matrix: (Units=1/GPa)
#
#
# Indices 1 2 3 4 5 6 
#
# 1 0.022058 -0.003428 0.001066 0.000000 0.000563 0.000000
# 2 -0.003428 0.010842 -0.003012 0.000000 -0.001209 0.000000
# 3 0.001066 -0.003012 0.012771 0.000000 0.003570 0.000000
# 4 0.000000 0.000000 0.000000 0.075424 0.000000 0.061545
# 5 0.000563 -0.001209 0.003570 0.000000 0.031355 0.000000
# 6 0.000000 0.000000 0.000000 0.061545 0.000000 0.102056
#
#
# Mechanical properties :
#
#
# Convention : Reuss Voigt Hill
#
# Bulk Modulus (GPa) = 28.63402 34.67567 31.65484
# Shear Modulus (GPa) = 18.05739 28.99986 23.52863
#
# Velocity S-wave (km/s) = 2.87620 3.64493 3.28314
# Velocity P-wave (km/s) = 4.91406 5.79654 5.37344
#
# Compressibility (1/GPa) = 0.03492350
#
# Stress axis : x y z
#
# Youngs Moduli (GPa) = 45.33416 92.23266 78.30376
#
# Poissons Ratio (x) = 0.31617 -0.08344
# Poissons Ratio (y) = 0.15540 0.23582
# Poissons Ratio (z) = -0.04831 0.27777
#
# Static dielectric constant tensor:
#      x y z
#    x 1.845710 0.000000 0.049980 
#    y 0.000000 1.742100 0.000000 
#    z 0.049980 0.000000 1.777080 
# 
# From -- ./inp_files/54404.got.cif
#   From: 2010.05.17/outbox.cif.g08.bks.cpg/sg13_28_cif.got.tgz:54404.got - 2010.06.03 16:44:36.
