data_PCOD9232611
_publ_section_title
;
Structure prediction by ZEFSAII (Michael W. Deem and Ramdas Pophale) SiO2 
 PCOD9232611
Probable space group: P 2/C
;
_chemical_formula_sum "Si O2"
_cell_formula_units_Z 28
_cell_length_a 9.577367
_cell_length_b 8.685316
_cell_length_c 28.826578
_cell_angle_alpha 90.000000
_cell_angle_beta 143.250927
_cell_angle_gamma 90.000000
_cell_volume 1434.670915
_symmetry_space_group_name_H-M "P 2/C"
_symmetry_group_IT_number 13
_symmetry_cell_setting 'monoclinic'
loop_
_space_group_symop_operation_xyz
x,y,z
-x,y,1/2-z
-x,-y,-z
x,-y,1/2+z
loop_
_atom_site_type_symbol
_atom_site_label
_atom_site_fract_x
_atom_site_fract_y
_atom_site_fract_z
Si Si1 0.839743 0.969419 0.766653
Si Si2 0.441207 0.017219 0.582531
Si Si3 0.777337 0.302135 0.509040
Si Si4 0.408552 0.476893 0.866119
Si Si5 0.000000 0.713811 0.750000
Si Si6 0.768038 0.784297 0.113710
Si Si7 0.500000 0.051623 0.750000
Si Si8 0.713212 0.742163 0.388697
O O1 0.999860 0.826354 0.794550
O O2 0.653567 0.989967 0.675466
O O3 0.693720 0.952480 0.774803
O O4 0.996977 0.120815 0.813411
O O5 0.554633 0.099013 0.567998
O O6 0.275074 0.138674 0.564833
O O7 0.320089 0.857644 0.538318
O O8 0.612359 0.441409 0.449718
O O9 0.775149 0.278371 0.563666
O O10 0.037390 0.324361 0.558799
O O11 0.271942 0.353168 0.860902
O O12 0.529092 0.387008 0.855777
O O13 0.225843 0.608599 0.804717
O O14 0.381920 0.159810 0.679992
#
# Coordination Sequence:
#
# PCOD9232611 Si02
#       8
#     4   4   4   4   2   4   2   4
#     4  11  20  42  63  94 123 167 220 268 311 374
#     4  10  21  37  64  94 123 164 220 259 314 376
#     4  12  21  42  62  96 130 165 213 268 319 373
#     4  11  26  40  61  97 133 170 209 256 336 389
#     4  12  24  40  68  92 130 170 212 274 316 378
#     4  11  22  38  66  92 127 171 213 264 314 387
#     4  10  22  40  66  94 118 166 234 256 306 374
#     4  10  23  40  66  89 130 172 210 257 318 395
#
# _framework density 19.516670999999999
#
# number of rings (size 3 to 8) (size 9 to 14) (size 15 to 20)
#    0.000    1.143    4.286    1.714    6.000    0.000 
#    0.000    2.143    0.000    0.000    0.000    0.000 
#    0.000    0.000    0.000    0.000    0.000    0.000 
#
# Total GULP energy -156463.334864 kJ/mol
# GULP energy per Si atom -5587.976245 kJ/mol
# Density = 1.947225 g / cm^3
# Si number density = 19.516671 Si / 1000 Ang^3
#
#
#
# Elastic Constant Matrix: (Units=GPa)
#
#
# Indices 1 2 3 4 5 6 
#
# 1 157.4228 38.0639 21.1223 0.0000 0.7251 0.0000
# 2 38.0639 74.5810 0.5590 0.0000 1.5144 0.0000
# 3 21.1223 0.5590 32.0899 0.0000 -1.9713 0.0000
# 4 0.0000 0.0000 0.0000 32.9634 0.0000 12.0265
# 5 0.7251 1.5144 -1.9713 0.0000 23.2097 0.0000
# 6 0.0000 0.0000 0.0000 12.0265 0.0000 9.4625
#
#
#
# Elastic Compliance Matrix: (Units=1/GPa)
#
#
# Indices 1 2 3 4 5 6 
#
# 1 0.008039 -0.004055 -0.005247 0.000000 -0.000432 0.000000
# 2 -0.004055 0.015474 0.002357 0.000000 -0.000683 0.000000
# 3 -0.005247 0.002357 0.034757 0.000000 0.002962 0.000000
# 4 0.000000 0.000000 0.000000 0.056567 0.000000 -0.071894
# 5 -0.000432 -0.000683 0.002962 0.000000 0.043395 0.000000
# 6 0.000000 0.000000 0.000000 -0.071894 0.000000 0.197054
#
#
# Mechanical properties :
#
#
# Convention : Reuss Voigt Hill
#
# Bulk Modulus (GPa) = 22.53227 42.62044 32.57636
# Shear Modulus (GPa) = 13.02194 26.75037 19.88615
#
# Velocity S-wave (km/s) = 2.58586 3.70623 3.19553
# Velocity P-wave (km/s) = 4.52612 6.34037 5.50845
#
# Compressibility (1/GPa) = 0.04438079
#
# Stress axis : x y z
#
# Youngs Moduli (GPa) = 124.39758 64.62541 28.77104
#
# Poissons Ratio (x) = 0.26203 0.15097
# Poissons Ratio (y) = 0.50439 -0.06782
# Poissons Ratio (z) = 0.65274 -0.15235
#
# Static dielectric constant tensor:
#      x y z
#    x 1.693030 0.000000 0.022630 
#    y 0.000000 1.683320 0.000000 
#    z 0.022630 0.000000 1.681910 
# 
# From -- ./inp_files/63765.got.cif
#   From: 2010.05.17/outbox.cif.g08.bks.cpg/sg13_32_cif.got.tgz:63765.got - 2010.06.03 16:44:36.
