data_PCOD9232488
_publ_section_title
;
Structure prediction by ZEFSAII (Michael W. Deem and Ramdas Pophale) SiO2 
 PCOD9232488
Probable space group: P 2/C
;
_chemical_formula_sum "Si O2"
_cell_formula_units_Z 32
_cell_length_a 11.467919
_cell_length_b 14.821235
_cell_length_c 13.734026
_cell_angle_alpha 90.000000
_cell_angle_beta 45.856163
_cell_angle_gamma 90.000000
_cell_volume 1675.118207
_symmetry_space_group_name_H-M "P 2/C"
_symmetry_group_IT_number 13
_symmetry_cell_setting 'monoclinic'
loop_
_space_group_symop_operation_xyz
x,y,z
-x,y,1/2-z
-x,-y,-z
x,-y,1/2+z
loop_
_atom_site_type_symbol
_atom_site_label
_atom_site_fract_x
_atom_site_fract_y
_atom_site_fract_z
Si Si1 0.643552 0.508576 0.031998
Si Si2 0.817268 0.000227 0.388184
Si Si3 0.177586 0.356534 0.693752
Si Si4 0.738702 0.487791 0.694377
Si Si5 0.272708 0.171159 0.177339
Si Si6 0.161241 0.630413 0.716598
Si Si7 0.345507 0.179505 0.539098
Si Si8 0.691010 0.095508 0.133606
O O1 0.452292 0.506887 0.164642
O O2 0.738389 0.515234 0.078856
O O3 0.704658 0.419643 0.940368
O O4 0.692480 0.592533 0.935619
O O5 0.703018 0.923251 0.405575
O O6 0.788598 0.981840 0.519455
O O7 0.000000 0.980694 0.250000
O O8 0.772136 0.099018 0.378749
O O9 0.185485 0.401432 0.795524
O O10 0.243301 0.255150 0.652129
O O11 0.000000 0.361267 0.750000
O O12 0.825786 0.574340 0.691189
O O13 0.175863 0.263718 0.225191
O O14 0.248136 0.123608 0.296496
O O15 0.463916 0.193408 0.059556
O O16 0.000000 0.607472 0.750000
O O17 0.304735 0.178582 0.446524
O O18 0.500000 0.069892 0.250000
#
# Coordination Sequence:
#
# PCOD9232488 Si02
#       8
#     4   4   4   4   4   4   4   4
#     4  10  21  38  58  84 115 148 204 235 289 357
#     4  10  21  37  59  88 121 148 192 253 300 345
#     4  11  21  35  58  84 117 150 189 246 301 342
#     4  10  21  37  60  82 112 158 192 241 290 355
#     4  11  20  39  63  81 116 160 195 238 297 354
#     4  11  23  37  57  87 119 152 192 244 296 349
#     4   9  20  37  57  84 111 148 198 242 280 355
#     4   8  20  36  60  87 111 146 206 237 280 359
#
# _framework density 19.103128999999999
#
# number of rings (size 3 to 8) (size 9 to 14) (size 15 to 20)
#    0.750    1.250    0.000    5.625    1.750    2.500 
#    0.000    1.250    2.750    0.000    0.000    0.000 
#    0.000    0.000    0.000    0.000    0.000    0.000 
#
# Total GULP energy -178493.373174 kJ/mol
# GULP energy per Si atom -5577.917912 kJ/mol
# Density = 1.905965 g / cm^3
# Si number density = 19.103129 Si / 1000 Ang^3
#
#
#
# Elastic Constant Matrix: (Units=GPa)
#
#
# Indices 1 2 3 4 5 6 
#
# 1 84.6273 17.2798 14.4636 0.0000 14.2516 0.0000
# 2 17.2798 84.3021 15.9794 0.0000 14.1118 0.0000
# 3 14.4636 15.9794 36.0782 0.0000 6.8938 0.0000
# 4 0.0000 0.0000 0.0000 -18.0008 0.0000 -14.2036
# 5 14.2516 14.1118 6.8938 0.0000 27.5558 0.0000
# 6 0.0000 0.0000 0.0000 -14.2036 0.0000 15.7650
#
#
#
# Elastic Compliance Matrix: (Units=1/GPa)
#
#
# Indices 1 2 3 4 5 6 
#
# 1 0.013643 -0.001134 -0.003917 0.000000 -0.005495 0.000000
# 2 -0.001134 0.013875 -0.004668 0.000000 -0.005351 0.000000
# 3 -0.003917 -0.004668 0.032043 0.000000 -0.003600 0.000000
# 4 0.000000 0.000000 0.000000 -0.032470 0.000000 -0.029254
# 5 -0.005495 -0.005351 -0.003600 0.000000 0.042773 0.000000
# 6 0.000000 0.000000 0.000000 -0.029254 0.000000 0.037075
#
#
# Mechanical properties :
#
#
# Convention : Reuss Voigt Hill
#
# Bulk Modulus (GPa) = 24.92360 33.38370 29.15365
# Shear Modulus (GPa) = 35.77742 15.54964 25.66353
#
# Velocity S-wave (km/s) = 4.33235 2.85614 3.66925
# Velocity P-wave (km/s) = 6.17259 5.32824 5.76589
#
# Compressibility (1/GPa) = 0.04012261
#
# Stress axis : x y z
#
# Youngs Moduli (GPa) = 73.29784 72.07094 31.20771
#
# Poissons Ratio (x) = 0.08174 0.12224
# Poissons Ratio (y) = 0.08313 0.14569
# Poissons Ratio (z) = 0.28711 0.33645
#
# Static dielectric constant tensor:
#      x y z
#    x 1.671180 0.000000 0.001240 
#    y 0.000000 1.646760 0.000000 
#    z 0.001240 0.000000 1.678710 
# 
# From -- ./inp_files/51460.got.cif
#   From: 2010.05.17/outbox.cif.g08.bks.cpg/sg13_26_cif.got.tgz:51460.got - 2010.06.03 16:44:36.
