data_PCOD9232749
_publ_section_title
;
Structure prediction by ZEFSAII (Michael W. Deem and Ramdas Pophale) SiO2 
 PCOD9232749
Probable space group: P 2/C
;
_chemical_formula_sum "Si O2"
_cell_formula_units_Z 24
_cell_length_a 23.874759
_cell_length_b 8.906450
_cell_length_c 18.226803
_cell_angle_alpha 90.000000
_cell_angle_beta 19.043150
_cell_angle_gamma 90.000000
_cell_volume 1264.575524
_symmetry_space_group_name_H-M "P 2/C"
_symmetry_group_IT_number 13
_symmetry_cell_setting 'monoclinic'
loop_
_space_group_symop_operation_xyz
x,y,z
-x,y,1/2-z
-x,-y,-z
x,-y,1/2+z
loop_
_atom_site_type_symbol
_atom_site_label
_atom_site_fract_x
_atom_site_fract_y
_atom_site_fract_z
Si Si1 0.503156 0.430160 0.914837
Si Si2 0.813111 0.574869 0.444202
Si Si3 0.836553 0.927087 0.239012
Si Si4 0.167828 0.566353 0.252536
Si Si5 0.325686 0.901940 0.915811
Si Si6 0.491590 0.926993 0.430807
O O1 0.677258 0.473401 0.656302
O O2 0.487619 0.251385 0.939688
O O3 0.500000 0.500000 0.000000
O O4 0.340164 0.496829 0.073181
O O5 0.832831 0.534066 0.333848
O O6 0.730412 0.741618 0.546150
O O7 0.000000 0.574492 0.250000
O O8 0.830598 0.746752 0.238558
O O9 0.817466 0.955857 0.349515
O O10 0.677486 0.005994 0.397107
O O11 0.000000 0.000000 0.000000
O O12 0.000000 0.500000 0.500000
O O13 0.500000 0.883671 0.750000
O O14 0.359780 0.015224 0.807658
O O15 0.500000 0.000000 0.500000
#
# Coordination Sequence:
#
# PCOD9232749 Si02
#       6
#     4   4   4   4   4   4
#     4  12  24  41  63  89 124 163 206 257 307 364
#     4  11  23  40  62  91 124 161 202 250 306 365
#     4  10  21  38  60  89 123 157 199 247 298 360
#     4  11  23  40  64  93 126 164 203 250 304 362
#     4   9  20  40  61  85 118 157 198 246 305 366
#     4  11  23  39  62  87 117 158 203 252 306 361
#
# _framework density 18.978701000000001
#
# number of rings (size 3 to 8) (size 9 to 14) (size 15 to 20)
#    0.000    1.333    0.000    7.500    0.000    9.333 
#    0.000    0.833    0.000    0.000    0.000    0.000 
#    0.000    0.000    0.000    0.000    0.000    0.000 
#
# Total GULP energy -134121.040062 kJ/mol
# GULP energy per Si atom -5588.376669 kJ/mol
# Density = 1.893550 g / cm^3
# Si number density = 18.978701 Si / 1000 Ang^3
#
#
#
# Elastic Constant Matrix: (Units=GPa)
#
#
# Indices 1 2 3 4 5 6 
#
# 1 146.1765 94.4698 65.1857 0.0000 14.7055 0.0000
# 2 94.4698 151.0142 85.7996 0.0000 28.2453 0.0000
# 3 65.1857 85.7996 141.2605 0.0000 23.1680 0.0000
# 4 0.0000 0.0000 0.0000 41.2814 0.0000 4.9612
# 5 14.7055 28.2453 23.1680 0.0000 36.1144 0.0000
# 6 0.0000 0.0000 0.0000 4.9612 0.0000 30.3792
#
#
#
# Elastic Compliance Matrix: (Units=1/GPa)
#
#
# Indices 1 2 3 4 5 6 
#
# 1 0.011743 -0.006730 -0.001576 0.000000 0.001493 0.000000
# 2 -0.006730 0.014646 -0.004874 0.000000 -0.005588 0.000000
# 3 -0.001576 -0.004874 0.011216 0.000000 -0.002742 0.000000
# 4 0.000000 0.000000 0.000000 0.024709 0.000000 -0.004035
# 5 0.001493 -0.005588 -0.002742 0.000000 0.033211 0.000000
# 6 0.000000 0.000000 0.000000 -0.004035 0.000000 0.033576
#
#
# Mechanical properties :
#
#
# Convention : Reuss Voigt Hill
#
# Bulk Modulus (GPa) = 88.92109 103.26239 96.09174
# Shear Modulus (GPa) = 31.40505 34.42140 32.91323
#
# Velocity S-wave (km/s) = 4.07228 4.26336 4.16891
# Velocity P-wave (km/s) = 8.31060 8.87484 8.59735
#
# Compressibility (1/GPa) = 0.01124593
#
# Stress axis : x y z
#
# Youngs Moduli (GPa) = 85.15719 68.27780 89.15462
#
# Poissons Ratio (x) = 0.45949 0.14052
# Poissons Ratio (y) = 0.57309 0.43453
# Poissons Ratio (z) = 0.13422 0.33278
#
# Static dielectric constant tensor:
#      x y z
#    x 1.622250 0.000000 0.019100 
#    y 0.000000 1.634000 0.000000 
#    z 0.019100 0.000000 1.665510 
# 
# From -- ./inp_files/71226.got.cif
#   From: 2010.05.17/outbox.cif.g08.bks.cpg/sg13_36_cif.got.tgz:71226.got - 2010.06.03 16:44:36.
