data_PCOD9232440
_publ_section_title
;
Structure prediction by ZEFSAII (Michael W. Deem and Ramdas Pophale) SiO2 
 PCOD9232440
Probable space group: P 2/C
;
_chemical_formula_sum "Si O2"
_cell_formula_units_Z 32
_cell_length_a 10.042363
_cell_length_b 9.347106
_cell_length_c 23.079591
_cell_angle_alpha 90.000000
_cell_angle_beta 134.568741
_cell_angle_gamma 90.000000
_cell_volume 1543.371934
_symmetry_space_group_name_H-M "P 2/C"
_symmetry_group_IT_number 13
_symmetry_cell_setting 'monoclinic'
loop_
_space_group_symop_operation_xyz
x,y,z
-x,y,1/2-z
-x,-y,-z
x,-y,1/2+z
loop_
_atom_site_type_symbol
_atom_site_label
_atom_site_fract_x
_atom_site_fract_y
_atom_site_fract_z
Si Si1 0.506263 0.002325 0.347138
Si Si2 0.817100 0.137043 0.520961
Si Si3 0.689812 0.400503 0.772394
Si Si4 0.783522 0.451829 0.676456
Si Si5 0.233200 0.079604 0.673175
Si Si6 0.336510 0.619673 0.958069
Si Si7 0.946771 0.533808 0.049153
Si Si8 0.612096 0.162017 0.575007
O O1 0.638519 0.907654 0.345147
O O2 0.334310 0.031687 0.248917
O O3 0.416328 0.929822 0.376251
O O4 0.664594 0.105906 0.423909
O O5 0.867993 0.305171 0.532032
O O6 0.718882 0.101875 0.552250
O O7 0.019990 0.058279 0.586588
O O8 0.500000 0.415721 0.750000
O O9 0.672280 0.458068 0.702252
O O10 0.750132 0.232965 0.789669
O O11 0.863738 0.477073 0.856006
O O12 0.766014 0.594883 0.633560
O O13 0.716627 0.307841 0.624655
O O14 0.000000 0.428024 0.750000
O O15 0.207299 0.571342 0.971405
O O16 0.500000 0.500000 0.000000
O O17 0.415403 0.775647 0.992395
O O18 0.000000 0.500000 0.000000
#
# Coordination Sequence:
#
# PCOD9232440 Si02
#       8
#     4   4   4   4   4   4   4   4
#     4  11  22  39  66  87 123 161 204 258 311 371
#     4  11  23  40  62  93 124 160 211 257 316 373
#     4  11  20  34  60  91 115 148 210 262 303 358
#     4  11  18  35  59  85 119 155 201 257 307 363
#     4  10  21  39  60  92 116 160 209 256 306 363
#     4  10  21  37  57  85 124 159 191 253 311 365
#     4  11  24  38  61  92 123 160 206 258 312 380
#     4  11  22  36  63  91 119 159 203 256 312 369
#
# _framework density 20.733823999999998
#
# number of rings (size 3 to 8) (size 9 to 14) (size 15 to 20)
#    0.000    1.250    6.250    1.500    7.000    0.000 
#    0.000    0.000   11.000    0.000    0.000    0.000 
#    0.000    0.000    0.000    0.000    0.000    0.000 
#
# Total GULP energy -178327.907724 kJ/mol
# GULP energy per Si atom -5572.747116 kJ/mol
# Density = 2.068663 g / cm^3
# Si number density = 20.733824 Si / 1000 Ang^3
#
#
#
# Elastic Constant Matrix: (Units=GPa)
#
#
# Indices 1 2 3 4 5 6 
#
# 1 121.7840 12.5122 27.7366 0.0000 -9.5798 0.0000
# 2 12.5122 8.9447 13.2681 0.0000 4.0291 0.0000
# 3 27.7366 13.2681 64.6829 0.0000 4.1699 0.0000
# 4 0.0000 0.0000 0.0000 18.5397 0.0000 0.4370
# 5 -9.5798 4.0291 4.1699 0.0000 45.3008 0.0000
# 6 0.0000 0.0000 0.0000 0.4370 0.0000 5.3016
#
#
#
# Elastic Compliance Matrix: (Units=1/GPa)
#
#
# Indices 1 2 3 4 5 6 
#
# 1 0.010274 -0.013056 -0.001954 0.000000 0.003514 0.000000
# 2 -0.013056 0.183273 -0.030950 0.000000 -0.016213 0.000000
# 3 -0.001954 -0.030950 0.022630 0.000000 0.000256 0.000000
# 4 0.000000 0.000000 0.000000 0.054043 0.000000 -0.004454
# 5 0.003514 -0.016213 0.000256 0.000000 0.024236 0.000000
# 6 0.000000 0.000000 0.000000 -0.004454 0.000000 0.188988
#
#
# Mechanical properties :
#
#
# Convention : Reuss Voigt Hill
#
# Bulk Modulus (GPa) = 8.04784 33.60506 20.82645
# Shear Modulus (GPa) = 8.10656 23.28808 15.69732
#
# Velocity S-wave (km/s) = 1.97947 3.35504 2.75451
# Velocity P-wave (km/s) = 3.01900 5.59030 4.49254
#
# Compressibility (1/GPa) = 0.12425694
#
# Stress axis : x y z
#
# Youngs Moduli (GPa) = 97.33234 5.45633 44.18900
#
# Poissons Ratio (x) = 0.07124 0.08635
# Poissons Ratio (y) = 1.27077 1.36766
# Poissons Ratio (z) = 0.19019 0.16887
#
# Static dielectric constant tensor:
#      x y z
#    x 1.736290 0.000000 0.010970 
#    y 0.000000 1.763360 0.000000 
#    z 0.010970 0.000000 1.821880 
# 
# From -- ./inp_files/76489.got.cif
#   From: 2010.05.17/outbox.cif.g08.bks.cpg/sg13_39_cif.got.tgz:76489.got - 2010.06.03 16:44:36.
