data_PCOD9232522
_publ_section_title
;
Structure prediction by ZEFSAII (Michael W. Deem and Ramdas Pophale) SiO2 
 PCOD9232522
Probable space group: P 2/C
;
_chemical_formula_sum "Si O2"
_cell_formula_units_Z 20
_cell_length_a 11.787099
_cell_length_b 17.655196
_cell_length_c 14.392543
_cell_angle_alpha 90.000000
_cell_angle_beta 160.539901
_cell_angle_gamma 90.000000
_cell_volume 997.831578
_symmetry_space_group_name_H-M "P 2/C"
_symmetry_group_IT_number 13
_symmetry_cell_setting 'monoclinic'
loop_
_space_group_symop_operation_xyz
x,y,z
-x,y,1/2-z
-x,-y,-z
x,-y,1/2+z
loop_
_atom_site_type_symbol
_atom_site_label
_atom_site_fract_x
_atom_site_fract_y
_atom_site_fract_z
Si Si1 0.682373 0.324021 0.166727
Si Si2 0.384692 0.445498 0.056095
Si Si3 0.377187 0.601364 0.260759
Si Si4 0.750022 0.057786 0.860630
Si Si5 0.243378 0.834369 0.855255
O O1 0.404540 0.369808 0.011060
O O2 0.635557 0.235066 0.114933
O O3 0.031253 0.350109 0.486379
O O4 0.640336 0.357739 0.031353
O O5 0.500000 0.428795 0.250000
O O6 0.627317 0.514010 0.208775
O O7 0.000000 0.474913 0.750000
O O8 0.500000 0.596665 0.250000
O O9 0.500000 0.025392 0.750000
O O10 0.524126 0.110063 0.617165
O O11 0.998044 0.114152 0.105369
O O12 0.000000 0.000000 0.000000
O O13 0.000000 0.803111 0.750000
#
# Coordination Sequence:
#
# PCOD9232522 Si02
#       5
#     4   4   4   4   4
#     4  12  22  37  59  83 114 153 193 243 302 352
#     4  11  23  39  54  77 114 158 204 250 293 346
#     4  11  21  35  56  83 110 147 199 248 295 350
#     4  10  21  40  64  90 121 154 190 235 290 358
#     4  10  21  37  60  91 119 146 186 240 295 346
#
# _framework density 20.043462999999999
#
# number of rings (size 3 to 8) (size 9 to 14) (size 15 to 20)
#    0.000    1.200    0.000    8.400    0.000    1.600 
#    0.000    3.000    0.000    0.000    0.000    0.000 
#    0.000    0.000    0.000    0.000    0.000    0.000 
#
# Total GULP energy -111583.395402 kJ/mol
# GULP energy per Si atom -5579.169770 kJ/mol
# Density = 1.999784 g / cm^3
# Si number density = 20.043463 Si / 1000 Ang^3
#
#
#
# Elastic Constant Matrix: (Units=GPa)
#
#
# Indices 1 2 3 4 5 6 
#
# 1 71.2578 57.3774 39.3356 0.0000 -12.7260 0.0000
# 2 57.3774 115.8424 46.4152 0.0000 4.3687 0.0000
# 3 39.3356 46.4152 138.2989 0.0000 -16.9929 0.0000
# 4 0.0000 0.0000 0.0000 19.5179 0.0000 6.6162
# 5 -12.7260 4.3687 -16.9929 0.0000 37.6194 0.0000
# 6 0.0000 0.0000 0.0000 6.6162 0.0000 33.2939
#
#
#
# Elastic Compliance Matrix: (Units=1/GPa)
#
#
# Indices 1 2 3 4 5 6 
#
# 1 0.027623 -0.013162 -0.002227 0.000000 0.009867 0.000000
# 2 -0.013162 0.016537 -0.002742 0.000000 -0.007611 0.000000
# 3 -0.002227 -0.002742 0.009244 0.000000 0.003741 0.000000
# 4 0.000000 0.000000 0.000000 0.054936 0.000000 -0.010917
# 5 0.009867 -0.007611 0.003741 0.000000 0.032493 0.000000
# 6 0.000000 0.000000 0.000000 -0.010917 0.000000 0.032205
#
#
# Mechanical properties :
#
#
# Convention : Reuss Voigt Hill
#
# Bulk Modulus (GPa) = 58.33284 67.96172 63.14728
# Shear Modulus (GPa) = 23.25442 30.23763 26.74602
#
# Velocity S-wave (km/s) = 3.40987 3.88829 3.65691
# Velocity P-wave (km/s) = 6.68351 7.35793 7.02881
#
# Compressibility (1/GPa) = 0.01714300
#
# Stress axis : x y z
#
# Youngs Moduli (GPa) = 36.20193 60.47039 108.17888
#
# Poissons Ratio (x) = 0.79588 0.24092
# Poissons Ratio (y) = 0.47647 0.29661
# Poissons Ratio (z) = 0.08062 0.16580
#
# Static dielectric constant tensor:
#      x y z
#    x 1.797080 0.000000 0.052250 
#    y 0.000000 1.679610 0.000000 
#    z 0.052250 0.000000 1.728750 
# 
# From -- ./inp_files/26103.got.cif
#   From: 2010.05.17/outbox.cif.g08.bks.cpg/sg13_14_cif.got.tgz:26103.got - 2010.06.03 16:44:36.
