data_PCOD9232837
_publ_section_title
;
Structure prediction by ZEFSAII (Michael W. Deem and Ramdas Pophale) SiO2 
 PCOD9232837
Probable space group: P 2/C
;
_chemical_formula_sum "Si O2"
_cell_formula_units_Z 18
_cell_length_a 9.501796
_cell_length_b 6.236861
_cell_length_c 19.635806
_cell_angle_alpha 90.000000
_cell_angle_beta 38.256300
_cell_angle_gamma 90.000000
_cell_volume 720.506042
_symmetry_space_group_name_H-M "P 2/C"
_symmetry_group_IT_number 13
_symmetry_cell_setting 'monoclinic'
loop_
_space_group_symop_operation_xyz
x,y,z
-x,y,1/2-z
-x,-y,-z
x,-y,1/2+z
loop_
_atom_site_type_symbol
_atom_site_label
_atom_site_fract_x
_atom_site_fract_y
_atom_site_fract_z
Si Si1 0.007619 0.444731 0.651029
Si Si2 0.651388 0.215126 0.880905
Si Si3 0.693205 0.441496 0.568416
Si Si4 0.500000 0.121117 0.750000
Si Si5 0.679863 0.187809 0.293485
O O1 0.223956 0.330092 0.604250
O O2 0.066870 0.471075 0.549254
O O3 0.806193 0.298068 0.757840
O O4 0.911495 0.678088 0.708279
O O5 0.403706 0.305718 0.959620
O O6 0.651938 0.960295 0.871073
O O7 0.652790 0.276996 0.645030
O O8 0.524313 0.642843 0.638521
O O9 0.347929 0.965064 0.761232
#
# Coordination Sequence:
#
# PCOD9232837 Si02
#       5
#     4   4   4   2   4
#     4  10  21  38  63  94 123 159 206 254 310 371
#     4   9  21  37  58  93 126 158 203 249 312 373
#     4  10  21  39  63  89 123 165 208 255 303 363
#     4  10  22  42  62  88 124 168 212 248 304 364
#     4  10  22  41  62  88 129 164 201 261 303 361
#
# _framework density 24.982443
#
# number of rings (size 3 to 8) (size 9 to 14) (size 15 to 20)
#    0.000    2.222    0.000    1.333    0.000   12.444 
#    0.000   15.556    0.000    4.000    0.000    0.000 
#    0.000    0.000    0.000    0.000    0.000    0.000 
#
# Total GULP energy -100455.193765 kJ/mol
# GULP energy per Si atom -5580.844098 kJ/mol
# Density = 2.492558 g / cm^3
# Si number density = 24.982443 Si / 1000 Ang^3
#
#
#
# Elastic Constant Matrix: (Units=GPa)
#
#
# Indices 1 2 3 4 5 6 
#
# 1 75.9707 53.2616 -4.4185 0.0000 9.0817 0.0000
# 2 53.2616 166.0878 24.7524 0.0000 13.5167 0.0000
# 3 -4.4185 24.7524 66.6260 0.0000 13.2225 0.0000
# 4 0.0000 0.0000 0.0000 30.3212 0.0000 11.9831
# 5 9.0817 13.5167 13.2225 0.0000 30.9265 0.0000
# 6 0.0000 0.0000 0.0000 11.9831 0.0000 29.6757
#
#
#
# Elastic Compliance Matrix: (Units=1/GPa)
#
#
# Indices 1 2 3 4 5 6 
#
# 1 0.018271 -0.006144 0.004399 0.000000 -0.004561 0.000000
# 2 -0.006144 0.008548 -0.003496 0.000000 -0.000437 0.000000
# 3 0.004399 -0.003496 0.018088 0.000000 -0.007497 0.000000
# 4 0.000000 0.000000 0.000000 0.039243 0.000000 -0.015846
# 5 -0.004561 -0.000437 -0.007497 0.000000 0.037070 0.000000
# 6 0.000000 0.000000 0.000000 -0.015846 0.000000 0.040096
#
#
# Mechanical properties :
#
#
# Convention : Reuss Voigt Hill
#
# Bulk Modulus (GPa) = 29.04824 50.65283 39.85054
# Shear Modulus (GPa) = 27.28173 33.85730 30.56952
#
# Velocity S-wave (km/s) = 3.30818 3.68536 3.50185
# Velocity P-wave (km/s) = 5.12297 6.19908 5.68653
#
# Compressibility (1/GPa) = 0.03442550
#
# Stress axis : x y z
#
# Youngs Moduli (GPa) = 54.73037 116.98996 55.28611
#
# Poissons Ratio (x) = 0.71876 -0.24323
# Poissons Ratio (y) = 0.33625 0.19330
# Poissons Ratio (z) = -0.24078 0.40904
#
# Static dielectric constant tensor:
#      x y z
#    x 2.028300 0.000000 0.018090 
#    y 0.000000 1.973340 0.000000 
#    z 0.018090 0.000000 2.017590 
# 
# From -- ./inp_files/77365.got.cif
#   From: 2010.05.17/outbox.cif.g08.bks.cpg/sg13_39_cif.got.tgz:77365.got - 2010.06.03 16:44:36.
