data_PCOD9232929
_publ_section_title
;
Structure prediction by ZEFSAII (Michael W. Deem and Ramdas Pophale) SiO2 
 PCOD9232929
Probable space group: P 2/C
;
_chemical_formula_sum "Si O2"
_cell_formula_units_Z 20
_cell_length_a 10.830060
_cell_length_b 13.828857
_cell_length_c 7.393575
_cell_angle_alpha 90.000000
_cell_angle_beta 125.272872
_cell_angle_gamma 90.000000
_cell_volume 904.025188
_symmetry_space_group_name_H-M "P 2/C"
_symmetry_group_IT_number 13
_symmetry_cell_setting 'monoclinic'
loop_
_space_group_symop_operation_xyz
x,y,z
-x,y,1/2-z
-x,-y,-z
x,-y,1/2+z
loop_
_atom_site_type_symbol
_atom_site_label
_atom_site_fract_x
_atom_site_fract_y
_atom_site_fract_z
Si Si1 0.500000 0.253228 0.750000
Si Si2 0.863756 0.861179 0.431291
Si Si3 0.000000 0.013867 0.750000
Si Si4 0.500000 0.426790 0.250000
Si Si5 0.463699 0.889058 0.512115
Si Si6 0.689183 0.599496 0.565604
Si Si7 0.000000 0.682376 0.750000
O O1 0.448679 0.182242 0.547696
O O2 0.364410 0.329714 0.642404
O O3 0.982360 0.913744 0.400847
O O4 0.707376 0.863384 0.191736
O O5 0.925506 0.758478 0.545997
O O6 0.861974 0.939159 0.595534
O O7 0.626306 0.494738 0.454451
O O8 0.405688 0.375457 0.331264
O O9 0.500000 0.000000 0.500000
O O10 0.500000 0.869978 0.750000
O O11 0.867695 0.617367 0.726846
#
# Coordination Sequence:
#
# PCOD9232929 Si02
#       7
#     2   4   2   2   4   4   2
#     4  11  24  42  63  96 138 178 241 284 348 405
#     4  10  21  39  55  93 125 184 233 288 342 399
#     4   9  20  36  60  73 134 180 224 285 346 396
#     4   9  22  46  73 100 138 178 231 274 374 445
#     4  12  24  38  62  91 133 187 243 284 334 404
#     4  10  22  44  71 101 138 183 222 299 349 439
#     4  11  22  40  70  99 148 172 228 295 356 412
#
# _framework density 22.123279
#
# number of rings (size 3 to 8) (size 9 to 14) (size 15 to 20)
#    0.000    1.600    3.000    1.200    1.400    4.000 
#    0.000    0.000    0.000    0.000    0.000    0.000 
#    0.000    0.000    0.000    0.000    0.000    0.000 
#
# Total GULP energy -111436.228818 kJ/mol
# GULP energy per Si atom -5571.811441 kJ/mol
# Density = 2.207293 g / cm^3
# Si number density = 22.123279 Si / 1000 Ang^3
#
#
#
# Elastic Constant Matrix: (Units=GPa)
#
#
# Indices 1 2 3 4 5 6 
#
# 1 100.0928 47.7772 42.4417 0.0000 10.9302 0.0000
# 2 47.7772 87.2862 28.7992 0.0000 3.6832 0.0000
# 3 42.4417 28.7992 136.1111 0.0000 3.2722 0.0000
# 4 0.0000 0.0000 0.0000 21.9563 0.0000 -10.0365
# 5 10.9302 3.6832 3.2722 0.0000 46.5992 0.0000
# 6 0.0000 0.0000 0.0000 -10.0365 0.0000 15.3965
#
#
#
# Elastic Compliance Matrix: (Units=1/GPa)
#
#
# Indices 1 2 3 4 5 6 
#
# 1 0.014977 -0.007056 -0.003111 0.000000 -0.002737 0.000000
# 2 -0.007056 0.015670 -0.001127 0.000000 0.000496 0.000000
# 3 -0.003111 -0.001127 0.008550 0.000000 0.000218 0.000000
# 4 0.000000 0.000000 0.000000 0.064877 0.000000 0.042291
# 5 -0.002737 0.000496 0.000218 0.000000 0.022047 0.000000
# 6 0.000000 0.000000 0.000000 0.042291 0.000000 0.092518
#
#
# Mechanical properties :
#
#
# Convention : Reuss Voigt Hill
#
# Bulk Modulus (GPa) = 60.21155 62.39182 61.30168
# Shear Modulus (GPa) = 20.26231 30.42186 25.34209
#
# Velocity S-wave (km/s) = 3.02964 3.71227 3.38819
# Velocity P-wave (km/s) = 6.28599 6.82918 6.56321
#
# Compressibility (1/GPa) = 0.01660811
#
# Stress axis : x y z
#
# Youngs Moduli (GPa) = 66.77022 63.81780 116.95402
#
# Poissons Ratio (x) = 0.45028 0.36388
# Poissons Ratio (y) = 0.47111 0.13184
# Poissons Ratio (z) = 0.20774 0.07194
#
# Static dielectric constant tensor:
#      x y z
#    x 1.986780 0.000000 -0.055710 
#    y 0.000000 1.840940 0.000000 
#    z -0.055710 0.000000 1.931470 
# 
# From -- ./inp_files/16040.got.cif
#   From: 2010.05.17/outbox.cif.g08.bks.cpg/sg13_9_cif.got.tgz:16040.got - 2010.06.03 16:44:36.
