data_PCOD9232311
_publ_section_title
;
Structure prediction by ZEFSAII (Michael W. Deem and Ramdas Pophale) SiO2 
 PCOD9232311
Probable space group: P 2/C
;
_chemical_formula_sum "Si O2"
_cell_formula_units_Z 18
_cell_length_a 9.782732
_cell_length_b 11.268434
_cell_length_c 8.490156
_cell_angle_alpha 90.000000
_cell_angle_beta 94.257387
_cell_angle_gamma 90.000000
_cell_volume 933.338869
_symmetry_space_group_name_H-M "P 2/C"
_symmetry_group_IT_number 13
_symmetry_cell_setting 'monoclinic'
loop_
_space_group_symop_operation_xyz
x,y,z
-x,y,1/2-z
-x,-y,-z
x,-y,1/2+z
loop_
_atom_site_type_symbol
_atom_site_label
_atom_site_fract_x
_atom_site_fract_y
_atom_site_fract_z
Si Si1 0.642955 0.837657 0.995568
Si Si2 0.865749 0.656425 0.956432
Si Si3 0.459104 0.627249 0.064086
Si Si4 0.500000 0.012809 0.750000
Si Si5 0.172832 0.598281 0.907124
O O1 0.792608 0.777386 0.004092
O O2 0.603411 0.929448 0.856200
O O3 0.542647 0.725117 0.976147
O O4 0.594848 0.905421 0.148352
O O5 0.810164 0.624937 0.776343
O O6 0.029987 0.655606 0.951439
O O7 0.834374 0.544024 0.066154
O O8 0.500000 0.633585 0.250000
O O9 0.500000 0.500000 0.000000
O O10 0.298948 0.645104 0.019333
#
# Coordination Sequence:
#
# PCOD9232311 Si02
#       5
#     4   4   4   2   4
#     4  11  22  41  62  89 119 169 211 264 305 365
#     4  10  21  37  61  88 132 166 194 247 320 385
#     4  12  23  35  60  97 129 156 198 259 323 378
#     4  10  24  40  64  86 122 168 232 260 292 352
#     4  10  21  36  57  96 132 159 193 245 328 395
#
# _framework density 19.285599000000001
#
# number of rings (size 3 to 8) (size 9 to 14) (size 15 to 20)
#    0.000    1.333    3.333    2.667    1.556    0.000 
#    0.000    0.000    0.000   24.000    0.000    0.000 
#    0.000    0.000    0.000    0.000    0.000    0.000 
#
# Total GULP energy -100564.775163 kJ/mol
# GULP energy per Si atom -5586.931954 kJ/mol
# Density = 1.924170 g / cm^3
# Si number density = 19.285599 Si / 1000 Ang^3
#
#
#
# Elastic Constant Matrix: (Units=GPa)
#
#
# Indices 1 2 3 4 5 6 
#
# 1 117.1994 49.6750 50.3568 0.0000 14.6963 0.0000
# 2 49.6750 126.8706 38.6440 0.0000 -13.3799 0.0000
# 3 50.3568 38.6440 79.2560 0.0000 5.6589 0.0000
# 4 0.0000 0.0000 0.0000 9.7344 0.0000 -3.5239
# 5 14.6963 -13.3799 5.6589 0.0000 28.0801 0.0000
# 6 0.0000 0.0000 0.0000 -3.5239 0.0000 40.8062
#
#
#
# Elastic Compliance Matrix: (Units=1/GPa)
#
#
# Indices 1 2 3 4 5 6 
#
# 1 0.014158 -0.004536 -0.006190 0.000000 -0.008324 0.000000
# 2 -0.004536 0.011594 -0.003383 0.000000 0.008580 0.000000
# 3 -0.006190 -0.003383 0.018348 0.000000 -0.002070 0.000000
# 4 0.000000 0.000000 0.000000 0.106043 0.000000 0.009158
# 5 -0.008324 0.008580 -0.002070 0.000000 0.044475 0.000000
# 6 0.000000 0.000000 0.000000 0.009158 0.000000 0.025297
#
#
# Mechanical properties :
#
#
# Convention : Reuss Voigt Hill
#
# Bulk Modulus (GPa) = 62.96775 66.74195 64.85485
# Shear Modulus (GPa) = 19.72961 28.03416 23.88188
#
# Velocity S-wave (km/s) = 3.20194 3.81679 3.52280
# Velocity P-wave (km/s) = 6.81109 7.35569 7.08862
#
# Compressibility (1/GPa) = 0.01588115
#
# Stress axis : x y z
#
# Youngs Moduli (GPa) = 70.62924 86.25500 54.50308
#
# Poissons Ratio (x) = 0.39126 0.33736
# Poissons Ratio (y) = 0.32038 0.18440
# Poissons Ratio (z) = 0.43718 0.29183
#
# Static dielectric constant tensor:
#      x y z
#    x 1.709070 0.000000 -0.001970 
#    y 0.000000 1.652110 0.000000 
#    z -0.001970 0.000000 1.700700 
# 
# From -- ./inp_files/11762.got.cif
#   From: 2010.05.17/outbox.cif.g08.bks.cpg/sg13_6_cif.got.tgz:11762.got - 2010.06.03 16:44:36.
