data_PCOD9232368
_publ_section_title
;
Structure prediction by ZEFSAII (Michael W. Deem and Ramdas Pophale) SiO2 
 PCOD9232368
Probable space group: P 2/C
;
_chemical_formula_sum "Si O2"
_cell_formula_units_Z 28
_cell_length_a 16.545766
_cell_length_b 7.780315
_cell_length_c 23.779069
_cell_angle_alpha 90.000000
_cell_angle_beta 26.008309
_cell_angle_gamma 90.000000
_cell_volume 1342.301186
_symmetry_space_group_name_H-M "P 2/C"
_symmetry_group_IT_number 13
_symmetry_cell_setting 'monoclinic'
loop_
_space_group_symop_operation_xyz
x,y,z
-x,y,1/2-z
-x,-y,-z
x,-y,1/2+z
loop_
_atom_site_type_symbol
_atom_site_label
_atom_site_fract_x
_atom_site_fract_y
_atom_site_fract_z
Si Si1 0.954746 0.943543 0.621122
Si Si2 0.523957 0.531622 0.419035
Si Si3 0.443115 0.077070 0.596241
Si Si4 0.082004 0.326130 0.520515
Si Si5 0.189937 0.614483 0.841333
Si Si6 0.158910 0.016629 0.106666
Si Si7 0.851855 0.397090 0.890733
O O1 0.943760 0.773587 0.590576
O O2 0.740942 0.980979 0.769748
O O3 0.036973 0.123973 0.548052
O O4 0.078537 0.914480 0.598681
O O5 0.500000 0.500000 0.500000
O O6 0.606818 0.722423 0.368984
O O7 0.651797 0.400531 0.304518
O O8 0.327177 0.507590 0.512284
O O9 0.500000 0.000000 0.500000
O O10 0.632053 0.069286 0.513075
O O11 0.242610 0.359726 0.373849
O O12 0.105094 0.400242 0.569361
O O13 0.913565 0.434225 0.600740
O O14 0.171493 0.808743 0.102598
O O15 0.000000 0.069865 0.250000
O O16 0.000000 0.448068 0.750000
#
# Coordination Sequence:
#
# PCOD9232368 Si02
#       7
#     4   4   4   4   4   4   4
#     4  11  22  41  67  94 134 175 228 278 344 404
#     4  12  25  39  64  98 133 175 220 279 341 398
#     4  12  23  39  60  94 137 173 223 280 338 409
#     4  10  23  43  66  96 129 176 219 275 333 410
#     4  11  23  42  67  93 131 176 224 267 342 402
#     4  10  21  36  61  93 128 175 215 278 344 400
#     4  10  22  40  65  93 132 164 220 275 339 402
#
# _framework density 20.8597
#
# number of rings (size 3 to 8) (size 9 to 14) (size 15 to 20)
#    0.000    1.143    2.857    3.857    4.000    1.143 
#    0.000    0.000    0.000    2.571    0.000    0.000 
#    0.000    0.000    0.000    0.000    0.000    0.000 
#
# Total GULP energy -156075.039232 kJ/mol
# GULP energy per Si atom -5574.108544 kJ/mol
# Density = 2.081222 g / cm^3
# Si number density = 20.859700 Si / 1000 Ang^3
#
#
#
# Elastic Constant Matrix: (Units=GPa)
#
#
# Indices 1 2 3 4 5 6 
#
# 1 116.1081 40.4450 56.2962 0.0000 18.7418 0.0000
# 2 40.4450 72.8241 15.0424 0.0000 14.4897 0.0000
# 3 56.2962 15.0424 80.0638 0.0000 21.0250 0.0000
# 4 0.0000 0.0000 0.0000 31.0170 0.0000 -0.8028
# 5 18.7418 14.4897 21.0250 0.0000 39.4703 0.0000
# 6 0.0000 0.0000 0.0000 -0.8028 0.0000 27.6729
#
#
#
# Elastic Compliance Matrix: (Units=1/GPa)
#
#
# Indices 1 2 3 4 5 6 
#
# 1 0.015681 -0.006731 -0.009830 0.000000 0.000261 0.000000
# 2 -0.006731 0.017875 0.002625 0.000000 -0.004765 0.000000
# 3 -0.009830 0.002625 0.020853 0.000000 -0.007404 0.000000
# 4 0.000000 0.000000 0.000000 0.032265 0.000000 0.000936
# 5 0.000261 -0.004765 -0.007404 0.000000 0.030905 0.000000
# 6 0.000000 0.000000 0.000000 0.000936 0.000000 0.036164
#
#
# Mechanical properties :
#
#
# Convention : Reuss Voigt Hill
#
# Bulk Modulus (GPa) = 37.68037 54.72925 46.20481
# Shear Modulus (GPa) = 26.25223 30.11287 28.18255
#
# Velocity S-wave (km/s) = 3.55140 3.80358 3.67965
# Velocity P-wave (km/s) = 5.90928 6.75155 6.34441
#
# Compressibility (1/GPa) = 0.02653902
#
# Stress axis : x y z
#
# Youngs Moduli (GPa) = 63.77022 55.94265 47.95429
#
# Poissons Ratio (x) = 0.37652 0.47140
# Poissons Ratio (y) = 0.42921 -0.12589
# Poissons Ratio (z) = 0.62688 -0.14687
#
# Static dielectric constant tensor:
#      x y z
#    x 1.759370 0.000000 0.068710 
#    y 0.000000 1.773460 0.000000 
#    z 0.068710 0.000000 1.892290 
# 
# From -- ./inp_files/79931.got.cif
#   From: 2010.05.17/outbox.cif.g08.bks.cpg/sg13_40_cif.got.tgz:79931.got - 2010.06.03 16:44:36.
