data_PCOD9232381
_publ_section_title
;
Structure prediction by ZEFSAII (Michael W. Deem and Ramdas Pophale) SiO2 
 PCOD9232381
Probable space group: P 2/C
;
_chemical_formula_sum "Si O2"
_cell_formula_units_Z 30
_cell_length_a 9.571865
_cell_length_b 10.835324
_cell_length_c 23.484321
_cell_angle_alpha 90.000000
_cell_angle_beta 142.260611
_cell_angle_gamma 90.000000
_cell_volume 1490.795804
_symmetry_space_group_name_H-M "P 2/C"
_symmetry_group_IT_number 13
_symmetry_cell_setting 'monoclinic'
loop_
_space_group_symop_operation_xyz
x,y,z
-x,y,1/2-z
-x,-y,-z
x,-y,1/2+z
loop_
_atom_site_type_symbol
_atom_site_label
_atom_site_fract_x
_atom_site_fract_y
_atom_site_fract_z
Si Si1 0.282813 0.168916 0.449141
Si Si2 0.922105 0.928097 0.898312
Si Si3 0.753013 0.547586 0.156151
Si Si4 0.733080 0.858833 0.953753
Si Si5 0.403572 0.357282 0.014153
Si Si6 0.247750 0.050876 0.327146
Si Si7 0.608642 0.200768 0.662999
Si Si8 0.500000 0.110411 0.750000
O O1 0.386049 0.281518 0.446441
O O2 0.314151 0.055631 0.415189
O O3 0.421474 0.178074 0.553004
O O4 0.018682 0.162325 0.381700
O O5 0.846057 0.849673 0.928441
O O6 0.716292 0.019651 0.818807
O O7 0.131601 0.023288 0.977546
O O8 0.532317 0.460265 0.092708
O O9 0.723611 0.669800 0.185223
O O10 0.000000 0.492086 0.250000
O O11 0.734795 0.586959 0.083612
O O12 0.744648 0.739092 0.997295
O O13 0.462935 0.889759 0.864069
O O14 0.000000 0.113114 0.250000
O O15 0.224033 0.915378 0.292864
O O16 0.507203 0.187965 0.693716
#
# Coordination Sequence:
#
# PCOD9232381 Si02
#       8
#     4   4   4   4   4   4   4   2
#     4  10  21  36  63  88 128 163 195 253 320 377
#     4  11  21  37  58  95 134 162 195 242 320 386
#     4  10  22  40  62  89 116 159 216 271 310 351
#     4  10  21  38  61  89 128 168 190 248 321 379
#     4   9  22  40  64  90 121 158 215 261 311 377
#     4  11  20  34  57  95 122 159 210 251 309 376
#     4  11  21  37  58  90 125 161 207 258 307 365
#     4  12  24  36  58  96 130 164 212 254 306 392
#
# _framework density 20.123481000000002
#
# number of rings (size 3 to 8) (size 9 to 14) (size 15 to 20)
#    0.000    1.600    2.667    2.400    5.600    2.133 
#    0.000    0.000    2.933    3.200    0.000    0.000 
#    0.000    0.000    0.000    0.000    0.000    0.000 
#
# Total GULP energy -167199.783438 kJ/mol
# GULP energy per Si atom -5573.326115 kJ/mol
# Density = 2.007768 g / cm^3
# Si number density = 20.123481 Si / 1000 Ang^3
#
#
#
# Elastic Constant Matrix: (Units=GPa)
#
#
# Indices 1 2 3 4 5 6 
#
# 1 104.2809 29.0727 14.4719 0.0000 -15.6086 0.0000
# 2 29.0727 33.8282 5.8534 0.0000 -5.8773 0.0000
# 3 14.4719 5.8534 62.1415 0.0000 5.0611 0.0000
# 4 0.0000 0.0000 0.0000 4.7074 0.0000 -6.4556
# 5 -15.6086 -5.8773 5.0611 0.0000 34.6473 0.0000
# 6 0.0000 0.0000 0.0000 -6.4556 0.0000 20.2269
#
#
#
# Elastic Compliance Matrix: (Units=1/GPa)
#
#
# Indices 1 2 3 4 5 6 
#
# 1 0.013544 -0.010378 -0.002561 0.000000 0.004715 0.000000
# 2 -0.010378 0.039107 -0.001444 0.000000 0.002170 0.000000
# 3 -0.002561 -0.001444 0.017142 0.000000 -0.003903 0.000000
# 4 0.000000 0.000000 0.000000 0.377779 0.000000 0.120572
# 5 0.004715 0.002170 -0.003903 0.000000 0.031925 0.000000
# 6 0.000000 0.000000 0.000000 0.120572 0.000000 0.087921
#
#
# Mechanical properties :
#
#
# Convention : Reuss Voigt Hill
#
# Bulk Modulus (GPa) = 24.37283 33.22739 28.80011
# Shear Modulus (GPa) = 8.19864 21.97315 15.08590
#
# Velocity S-wave (km/s) = 2.02065 3.30800 2.74097
# Velocity P-wave (km/s) = 4.19308 5.58015 4.93559
#
# Compressibility (1/GPa) = 0.04102929
#
# Stress axis : x y z
#
# Youngs Moduli (GPa) = 73.83458 25.57115 58.33460
#
# Poissons Ratio (x) = 0.26537 0.14938
# Poissons Ratio (y) = 0.76622 0.08421
# Poissons Ratio (z) = 0.18907 0.03691
#
# Static dielectric constant tensor:
#      x y z
#    x 1.733040 0.000000 -0.015450 
#    y 0.000000 1.737880 0.000000 
#    z -0.015450 0.000000 1.796510 
# 
# From -- ./inp_files/85238.got.cif
#   From: 2010.05.17/outbox.cif.g08.bks.cpg/sg13_43_cif.got.tgz:85238.got - 2010.06.03 16:44:36.
