data_PCOD9232829
_publ_section_title
;
Structure prediction by ZEFSAII (Michael W. Deem and Ramdas Pophale) SiO2 
 PCOD9232829
Probable space group: P 2/C
;
_chemical_formula_sum "Si O2"
_cell_formula_units_Z 26
_cell_length_a 24.010077
_cell_length_b 6.409168
_cell_length_c 14.020129
_cell_angle_alpha 90.000000
_cell_angle_beta 34.434162
_cell_angle_gamma 90.000000
_cell_volume 1219.967434
_symmetry_space_group_name_H-M "P 2/C"
_symmetry_group_IT_number 13
_symmetry_cell_setting 'monoclinic'
loop_
_space_group_symop_operation_xyz
x,y,z
-x,y,1/2-z
-x,-y,-z
x,-y,1/2+z
loop_
_atom_site_type_symbol
_atom_site_label
_atom_site_fract_x
_atom_site_fract_y
_atom_site_fract_z
Si Si1 0.677539 0.453441 0.599988
Si Si2 0.000000 0.039832 0.750000
Si Si3 0.490543 0.311742 0.089625
Si Si4 0.647098 0.071760 0.782640
Si Si5 0.159944 0.545439 0.783970
Si Si6 0.190500 0.744383 0.948255
Si Si7 0.976497 0.800607 0.971481
O O1 0.574837 0.581159 0.735865
O O2 0.657348 0.231713 0.679556
O O3 0.738962 0.433915 0.416459
O O4 0.745204 0.586580 0.578508
O O5 0.091827 0.189328 0.642746
O O6 0.032385 0.887341 0.621021
O O7 0.423903 0.121794 0.144279
O O8 0.500000 0.500000 0.000000
O O9 0.598337 0.204847 0.938064
O O10 0.748736 0.955872 0.657417
O O11 0.165680 0.645851 0.880916
O O12 0.071543 0.652310 0.849095
O O13 0.121566 0.312170 0.854558
O O14 0.000000 0.000000 0.000000
#
# Coordination Sequence:
#
# PCOD9232829 Si02
#       7
#     4   2   4   4   4   4   4
#     4  10  21  38  63  91 123 166 208 258 322 372
#     4  12  24  42  66  86 126 172 212 258 324 376
#     4   8  16  35  65  92 119 155 209 255 311 382
#     4   9  18  37  64  91 118 164 202 255 318 378
#     4  11  25  39  60  91 127 163 211 270 311 375
#     4  11  24  38  59  94 123 165 215 257 313 388
#     4  11  24  43  59  88 125 169 215 263 315 376
#
# _framework density 21.312045000000001
#
# number of rings (size 3 to 8) (size 9 to 14) (size 15 to 20)
#    0.000    1.846    1.538    1.846    6.462    1.231 
#    0.000    0.000    0.000   42.462    0.000    0.000 
#    0.000    0.000    0.000    0.000    0.000    0.000 
#
# Total GULP energy -145085.599750 kJ/mol
# GULP energy per Si atom -5580.215375 kJ/mol
# Density = 2.126354 g / cm^3
# Si number density = 21.312045 Si / 1000 Ang^3
#
#
#
# Elastic Constant Matrix: (Units=GPa)
#
#
# Indices 1 2 3 4 5 6 
#
# 1 35.3626 13.9080 -6.1691 0.0000 -2.0235 0.0000
# 2 13.9080 126.5902 38.6263 0.0000 -6.9549 0.0000
# 3 -6.1691 38.6263 105.3440 0.0000 -15.0406 0.0000
# 4 0.0000 0.0000 0.0000 37.7786 0.0000 -9.0882
# 5 -2.0235 -6.9549 -15.0406 0.0000 28.3235 0.0000
# 6 0.0000 0.0000 0.0000 -9.0882 0.0000 34.0355
#
#
#
# Elastic Compliance Matrix: (Units=1/GPa)
#
#
# Indices 1 2 3 4 5 6 
#
# 1 0.030867 -0.004399 0.003875 0.000000 0.003183 0.000000
# 2 -0.004399 0.009528 -0.003746 0.000000 0.000036 0.000000
# 3 0.003875 -0.003746 0.011904 0.000000 0.005678 0.000000
# 4 0.000000 0.000000 0.000000 0.028287 0.000000 0.007553
# 5 0.003183 0.000036 0.005678 0.000000 0.038558 0.000000
# 6 0.000000 0.000000 0.000000 0.007553 0.000000 0.031398
#
#
# Mechanical properties :
#
#
# Convention : Reuss Voigt Hill
#
# Bulk Modulus (GPa) = 22.85263 40.00304 31.42783
# Shear Modulus (GPa) = 28.79073 34.75628 31.77351
#
# Velocity S-wave (km/s) = 3.67947 4.04273 3.86537
# Velocity P-wave (km/s) = 5.36632 6.37201 5.89067
#
# Compressibility (1/GPa) = 0.04375864
#
# Stress axis : x y z
#
# Youngs Moduli (GPa) = 32.39750 104.95641 84.00615
#
# Poissons Ratio (x) = 0.46167 -0.32551
# Poissons Ratio (y) = 0.14251 0.31468
# Poissons Ratio (z) = -0.12554 0.39316
#
# Static dielectric constant tensor:
#      x y z
#    x 1.786680 0.000000 -0.053440 
#    y 0.000000 1.769800 0.000000 
#    z -0.053440 0.000000 1.809580 
# 
# From -- ./inp_files/59742.got.cif
#   From: 2010.05.17/outbox.cif.g08.bks.cpg/sg13_30_cif.got.tgz:59742.got - 2010.06.03 16:44:36.
