data_PCOD9232293
_publ_section_title
;
Structure prediction by ZEFSAII (Michael W. Deem and Ramdas Pophale) SiO2 
 PCOD9232293
Probable space group: P 2/C
;
_chemical_formula_sum "Si O2"
_cell_formula_units_Z 26
_cell_length_a 10.773784
_cell_length_b 18.918276
_cell_length_c 5.918180
_cell_angle_alpha 90.000000
_cell_angle_beta 106.759218
_cell_angle_gamma 90.000000
_cell_volume 1155.016278
_symmetry_space_group_name_H-M "P 2/C"
_symmetry_group_IT_number 13
_symmetry_cell_setting 'monoclinic'
loop_
_space_group_symop_operation_xyz
x,y,z
-x,y,1/2-z
-x,-y,-z
x,-y,1/2+z
loop_
_atom_site_type_symbol
_atom_site_label
_atom_site_fract_x
_atom_site_fract_y
_atom_site_fract_z
Si Si1 0.811997 0.335551 0.564938
Si Si2 0.157152 0.029173 0.319286
Si Si3 0.362907 0.708671 0.154458
Si Si4 0.844122 0.524169 0.287077
Si Si5 0.856914 0.814634 0.581486
Si Si6 0.370226 0.578682 0.832461
Si Si7 0.000000 0.218713 0.750000
O O1 0.688852 0.301561 0.620580
O O2 0.862740 0.391686 0.777306
O O3 0.757313 0.384059 0.341701
O O4 0.912457 0.274938 0.566299
O O5 0.188282 0.112786 0.334067
O O6 0.000000 0.022298 0.250000
O O7 0.200103 0.000881 0.593769
O O8 0.500000 0.746698 0.250000
O O9 0.251295 0.753838 0.971222
O O10 0.388195 0.632555 0.049691
O O11 0.890252 0.504449 0.564482
O O12 0.690500 0.500152 0.180767
O O13 0.898475 0.825809 0.340080
O O14 0.000000 0.798150 0.750000
O O15 0.500000 0.578253 0.750000
#
# Coordination Sequence:
#
# PCOD9232293 Si02
#       7
#     4   4   4   4   4   4   2
#     4  10  21  38  55  80 113 152 200 255 309 379
#     4   9  19  35  61  96 130 160 204 255 298 350
#     4  11  21  38  58  87 119 156 209 254 314 366
#     4  10  21  36  57  81 109 148 202 254 321 373
#     4  10  22  37  63  90 125 164 200 249 303 373
#     4  11  21  34  56  80 112 148 199 263 317 363
#     4  10  22  38  58  82 120 160 202 240 314 366
#
# _framework density 22.510505999999999
#
# number of rings (size 3 to 8) (size 9 to 14) (size 15 to 20)
#    0.000    1.846    3.077    0.923    5.385    3.077 
#    0.000    3.077    1.692    0.923    0.000    0.000 
#    0.000    0.000    0.000    0.000    0.000    0.000 
#
# Total GULP energy -144736.413568 kJ/mol
# GULP energy per Si atom -5566.785137 kJ/mol
# Density = 2.245927 g / cm^3
# Si number density = 22.510506 Si / 1000 Ang^3
#
#
#
# Elastic Constant Matrix: (Units=GPa)
#
#
# Indices 1 2 3 4 5 6 
#
# 1 77.1377 40.2047 21.4632 0.0000 -7.0609 0.0000
# 2 40.2047 66.6614 35.1188 0.0000 -6.8768 0.0000
# 3 21.4632 35.1188 110.8838 0.0000 3.5584 0.0000
# 4 0.0000 0.0000 0.0000 80.4385 0.0000 -36.8758
# 5 -7.0609 -6.8768 3.5584 0.0000 37.0650 0.0000
# 6 0.0000 0.0000 0.0000 -36.8758 0.0000 36.4484
#
#
#
# Elastic Compliance Matrix: (Units=1/GPa)
#
#
# Indices 1 2 3 4 5 6 
#
# 1 0.018994 -0.011201 -0.000179 0.000000 0.001557 0.000000
# 2 -0.011201 0.025191 -0.005910 0.000000 0.003107 0.000000
# 3 -0.000179 -0.005910 0.010995 0.000000 -0.002186 0.000000
# 4 0.000000 0.000000 0.000000 0.023186 0.000000 0.023457
# 5 0.001557 0.003107 -0.002186 0.000000 0.028063 0.000000
# 6 0.000000 0.000000 0.000000 0.023457 0.000000 0.051168
#
#
# Mechanical properties :
#
#
# Convention : Reuss Voigt Hill
#
# Bulk Modulus (GPa) = 48.54309 49.80627 49.17468
# Shear Modulus (GPa) = 25.12026 41.31680 33.21853
#
# Velocity S-wave (km/s) = 3.34419 4.28886 3.84564
# Velocity P-wave (km/s) = 6.04342 6.83371 6.45068
#
# Compressibility (1/GPa) = 0.02060025
#
# Stress axis : x y z
#
# Youngs Moduli (GPa) = 52.64796 39.69741 90.94985
#
# Poissons Ratio (x) = 0.44464 0.01629
# Poissons Ratio (y) = 0.58969 0.53751
# Poissons Ratio (z) = 0.00943 0.23461
#
# Static dielectric constant tensor:
#      x y z
#    x 1.916230 0.000000 -0.024210 
#    y 0.000000 1.845540 0.000000 
#    z -0.024210 0.000000 2.051510 
# 
# From -- ./inp_files/3977.got.cif
#   From: 2010.05.17/outbox.cif.g08.bks.cpg/sg13_2_cif.got.tgz:3977.got - 2010.06.03 16:44:36.
