data_PCOD9232095
_publ_section_title
;
Structure prediction by ZEFSAII (Michael W. Deem and Ramdas Pophale) SiO2 
 PCOD9232095
Probable space group: P 2/C
;
_chemical_formula_sum "Si O2"
_cell_formula_units_Z 20
_cell_length_a 28.509017
_cell_length_b 5.544283
_cell_length_c 15.121547
_cell_angle_alpha 90.000000
_cell_angle_beta 17.233841
_cell_angle_gamma 90.000000
_cell_volume 708.132929
_symmetry_space_group_name_H-M "P 2/C"
_symmetry_group_IT_number 13
_symmetry_cell_setting 'monoclinic'
loop_
_space_group_symop_operation_xyz
x,y,z
-x,y,1/2-z
-x,-y,-z
x,-y,1/2+z
loop_
_atom_site_type_symbol
_atom_site_label
_atom_site_fract_x
_atom_site_fract_y
_atom_site_fract_z
Si Si1 0.886222 0.519194 0.581484
Si Si2 0.913459 0.994515 0.812866
Si Si3 0.450783 0.025430 0.987433
Si Si4 0.603846 0.474243 0.950329
Si Si5 0.798627 0.347161 0.427180
O O1 0.749842 0.486083 0.755636
O O2 0.820352 0.514294 0.799361
O O3 0.982762 0.767419 0.398148
O O4 0.031922 0.324814 0.320312
O O5 0.000000 0.926562 0.750000
O O6 0.815203 0.938610 0.890544
O O7 0.739142 0.045909 0.173839
O O8 0.502465 0.284652 0.856360
O O9 0.489746 0.775595 0.869170
O O10 0.500000 0.000000 0.000000
O O11 0.677894 0.446629 0.717113
#
# Coordination Sequence:
#
# PCOD9232095 Si02
#       5
#     4   4   4   4   4
#     4  11  20  35  60  95 127 165 212 269 329 377
#     4  11  19  36  61  92 131 164 217 266 325 379
#     4  11  23  40  67  91 125 175 216 256 321 389
#     4  11  22  42  62  91 127 166 215 263 320 382
#     4  10  21  33  58  96 127 165 207 272 326 380
#
# _framework density 28.243286999999999
#
# number of rings (size 3 to 8) (size 9 to 14) (size 15 to 20)
#    0.000    1.200    4.000    4.200    0.000    0.000 
#    0.000    0.000    0.000   15.600    0.000    0.000 
#    0.000    0.000    0.000    0.000    0.000    0.000 
#
# Total GULP energy -111476.975628 kJ/mol
# GULP energy per Si atom -5573.848781 kJ/mol
# Density = 2.817900 g / cm^3
# Si number density = 28.243287 Si / 1000 Ang^3
#
#
#
# Elastic Constant Matrix: (Units=GPa)
#
#
# Indices 1 2 3 4 5 6 
#
# 1 148.8408 48.0719 47.6611 0.0000 -1.1021 0.0000
# 2 48.0719 203.1967 33.5302 0.0000 -12.4671 0.0000
# 3 47.6611 33.5302 103.2043 0.0000 -21.5424 0.0000
# 4 0.0000 0.0000 0.0000 36.7094 0.0000 -15.8523
# 5 -1.1021 -12.4671 -21.5424 0.0000 52.1392 0.0000
# 6 0.0000 0.0000 0.0000 -15.8523 0.0000 39.9438
#
#
#
# Elastic Compliance Matrix: (Units=1/GPa)
#
#
# Indices 1 2 3 4 5 6 
#
# 1 0.008382 -0.001470 -0.003754 0.000000 -0.001725 0.000000
# 2 -0.001470 0.005475 -0.000912 0.000000 0.000901 0.000000
# 3 -0.003754 -0.000912 0.012758 0.000000 0.004974 0.000000
# 4 0.000000 0.000000 0.000000 0.032875 0.000000 0.013047
# 5 -0.001725 0.000901 0.004974 0.000000 0.021413 0.000000
# 6 0.000000 0.000000 0.000000 0.013047 0.000000 0.030213
#
#
# Mechanical properties :
#
#
# Convention : Reuss Voigt Hill
#
# Bulk Modulus (GPa) = 69.71439 79.30756 74.51098
# Shear Modulus (GPa) = 39.01122 47.49040 43.25081
#
# Velocity S-wave (km/s) = 3.72056 4.10503 3.91751
# Velocity P-wave (km/s) = 6.57220 7.11403 6.84848
#
# Compressibility (1/GPa) = 0.01434424
#
# Stress axis : x y z
#
# Youngs Moduli (GPa) = 119.29677 182.65593 78.38508
#
# Poissons Ratio (x) = 0.26842 0.29424
# Poissons Ratio (y) = 0.17531 0.07148
# Poissons Ratio (z) = 0.44782 0.16657
#
# Static dielectric constant tensor:
#      x y z
#    x 2.161460 0.000000 -0.039440 
#    y 0.000000 2.546780 0.000000 
#    z -0.039440 0.000000 2.373910 
# 
# From -- ./inp_files/71995.got.cif
#   From: 2010.05.17/outbox.cif.g08.bks.cpg/sg13_36_cif.got.tgz:71995.got - 2010.06.03 16:44:36.
