data_PCOD9232621
_publ_section_title
;
Structure prediction by ZEFSAII (Michael W. Deem and Ramdas Pophale) SiO2 
 PCOD9232621
Probable space group: P 2/C
;
_chemical_formula_sum "Si O2"
_cell_formula_units_Z 30
_cell_length_a 29.355687
_cell_length_b 5.171380
_cell_length_c 27.270803
_cell_angle_alpha 90.000000
_cell_angle_beta 158.258868
_cell_angle_gamma 90.000000
_cell_volume 1533.499500
_symmetry_space_group_name_H-M "P 2/C"
_symmetry_group_IT_number 13
_symmetry_cell_setting 'monoclinic'
loop_
_space_group_symop_operation_xyz
x,y,z
-x,y,1/2-z
-x,-y,-z
x,-y,1/2+z
loop_
_atom_site_type_symbol
_atom_site_label
_atom_site_fract_x
_atom_site_fract_y
_atom_site_fract_z
Si Si1 0.799014 0.078500 0.449005
Si Si2 0.226029 0.691896 0.472435
Si Si3 0.000000 0.338721 0.250000
Si Si4 0.926224 0.967992 0.264292
Si Si5 0.338777 0.429158 0.715992
Si Si6 0.489819 0.750207 0.024069
Si Si7 0.585975 0.569562 0.914159
Si Si8 0.314352 0.917944 0.931695
O O1 0.766759 0.118561 0.474348
O O2 0.725496 0.292503 0.344130
O O3 0.757816 0.790198 0.395116
O O4 0.943633 0.131564 0.587095
O O5 0.360053 0.627692 0.585518
O O6 0.125863 0.484279 0.389857
O O7 0.154314 0.788402 0.352111
O O8 0.964131 0.185849 0.263031
O O9 0.831352 0.037042 0.212103
O O10 0.408428 0.311421 0.832611
O O11 0.445689 0.484720 0.782620
O O12 0.500000 0.500000 0.000000
O O13 0.368631 0.811260 0.935303
O O14 0.500000 0.000000 0.000000
O O15 0.661175 0.315978 0.006173
O O16 0.615665 0.821054 0.978787
#
# Coordination Sequence:
#
# PCOD9232621 Si02
#       8
#     4   4   2   4   4   4   4   4
#     4  12  23  38  59  87 133 169 199 243 296 360
#     4  11  22  34  58  86 122 177 222 247 270 332
#     4  12  16  36  54  88 122 162 232 240 272 320
#     4  11  22  35  59  89 127 169 216 246 277 339
#     4  11  25  41  59  91 123 156 196 251 327 369
#     4  11  22  44  73  90 110 147 202 261 320 388
#     4  10  21  39  57  84 127 160 205 256 288 346
#     4  10  21  37  65  95 116 149 203 268 299 340
#
# _framework density 19.563099000000001
#
# number of rings (size 3 to 8) (size 9 to 14) (size 15 to 20)
#    0.000    1.067    4.000    4.800    0.000    0.533 
#    0.000    5.333    0.000    4.800    0.000    0.000 
#    0.000    0.000    0.000    0.000    0.000    0.000 
#
# Total GULP energy -167235.646730 kJ/mol
# GULP energy per Si atom -5574.521558 kJ/mol
# Density = 1.951857 g / cm^3
# Si number density = 19.563099 Si / 1000 Ang^3
#
#
#
# Elastic Constant Matrix: (Units=GPa)
#
#
# Indices 1 2 3 4 5 6 
#
# 1 97.7581 17.2939 38.6360 0.0000 11.5794 0.0000
# 2 17.2939 94.5899 15.1134 0.0000 0.6116 0.0000
# 3 38.6360 15.1134 69.3311 0.0000 4.8774 0.0000
# 4 0.0000 0.0000 0.0000 36.1111 0.0000 2.1759
# 5 11.5794 0.6116 4.8774 0.0000 18.3812 0.0000
# 6 0.0000 0.0000 0.0000 2.1759 0.0000 40.8099
#
#
#
# Elastic Compliance Matrix: (Units=1/GPa)
#
#
# Indices 1 2 3 4 5 6 
#
# 1 0.014091 -0.001404 -0.007057 0.000000 -0.006957 0.000000
# 2 -0.001404 0.011095 -0.001704 0.000000 0.000967 0.000000
# 3 -0.007057 -0.001704 0.018761 0.000000 -0.000476 0.000000
# 4 0.000000 0.000000 0.000000 0.027782 0.000000 -0.001481
# 5 -0.006957 0.000967 -0.000476 0.000000 0.058880 0.000000
# 6 0.000000 0.000000 0.000000 -0.001481 0.000000 0.024583
#
#
# Mechanical properties :
#
#
# Convention : Reuss Voigt Hill
#
# Bulk Modulus (GPa) = 42.34292 44.86287 43.60290
# Shear Modulus (GPa) = 27.26378 31.76950 29.51664
#
# Velocity S-wave (km/s) = 3.73719 4.03420 3.88853
# Velocity P-wave (km/s) = 6.34928 6.68445 6.51902
#
# Compressibility (1/GPa) = 0.02361670
#
# Stress axis : x y z
#
# Youngs Moduli (GPa) = 70.96834 90.13355 53.30163
#
# Poissons Ratio (x) = 0.12652 0.37615
# Poissons Ratio (y) = 0.09962 0.09084
# Poissons Ratio (z) = 0.50082 0.15362
#
# Static dielectric constant tensor:
#      x y z
#    x 1.719130 0.000000 0.028320 
#    y 0.000000 1.747650 0.000000 
#    z 0.028320 0.000000 1.719910 
# 
# From -- ./inp_files/94367.got.cif
#   From: 2010.05.17/outbox.cif.g08.bks.cpg/sg13_48_cif.got.tgz:94367.got - 2010.06.03 16:44:36.
