data_PCOD9232424
_publ_section_title
;
Structure prediction by ZEFSAII (Michael W. Deem and Ramdas Pophale) SiO2 
 PCOD9232424
Probable space group: P 2/C
;
_chemical_formula_sum "Si O2"
_cell_formula_units_Z 24
_cell_length_a 7.186020
_cell_length_b 27.455644
_cell_length_c 5.238630
_cell_angle_alpha 90.000000
_cell_angle_beta 91.582275
_cell_angle_gamma 90.000000
_cell_volume 1033.170878
_symmetry_space_group_name_H-M "P 2/C"
_symmetry_group_IT_number 13
_symmetry_cell_setting 'monoclinic'
loop_
_space_group_symop_operation_xyz
x,y,z
-x,y,1/2-z
-x,-y,-z
x,-y,1/2+z
loop_
_atom_site_type_symbol
_atom_site_label
_atom_site_fract_x
_atom_site_fract_y
_atom_site_fract_z
Si Si1 0.370681 0.724575 0.994054
Si Si2 0.630027 0.382563 0.003953
Si Si3 0.710056 0.020633 0.528890
Si Si4 0.782706 0.176980 0.201575
Si Si5 0.225246 0.129434 0.794837
Si Si6 0.786424 0.520283 0.322972
O O1 0.500000 0.723278 0.750000
O O2 0.277237 0.671085 0.994988
O O3 0.240814 0.770428 0.930421
O O4 0.500000 0.730304 0.250000
O O5 0.500000 0.387572 0.250000
O O6 0.500000 0.382855 0.750000
O O7 0.766795 0.427612 0.958896
O O8 0.718626 0.076587 0.605457
O O9 0.500000 0.000000 0.500000
O O10 0.797149 0.010611 0.259085
O O11 0.710248 0.168193 0.485984
O O12 0.000000 0.167439 0.250000
O O13 0.701977 0.140478 0.986195
O O14 0.000000 0.130987 0.750000
O O15 0.701925 0.483976 0.534186
O O16 0.000000 0.509990 0.250000
#
# Coordination Sequence:
#
# PCOD9232424 Si02
#       6
#     4   4   4   4   4   4
#     4  10  21  40  58  88 120 153 196 246 303 352
#     4  10  21  37  59  83 119 158 201 253 301 367
#     4  10  21  38  53  79 115 144 183 233 275 336
#     4  10  21  40  61  87 117 149 193 240 290 356
#     4  10  21  38  60  83 112 150 189 233 287 344
#     4  10  21  37  56  84 121 157 202 254 303 359
#
# _framework density 23.229462000000002
#
# number of rings (size 3 to 8) (size 9 to 14) (size 15 to 20)
#    0.000    2.000    0.000    3.000    0.000    2.667 
#   18.000   10.000    0.000    0.000    0.000    0.000 
#    0.000    0.000    0.000    0.000    0.000    0.000 
#
# Total GULP energy -133905.600751 kJ/mol
# GULP energy per Si atom -5579.400031 kJ/mol
# Density = 2.317659 g / cm^3
# Si number density = 23.229462 Si / 1000 Ang^3
#
#
#
# Elastic Constant Matrix: (Units=GPa)
#
#
# Indices 1 2 3 4 5 6 
#
# 1 56.0662 -1.8035 32.8932 0.0000 -0.3521 0.0000
# 2 -1.8035 136.2567 63.2187 0.0000 17.6571 0.0000
# 3 32.8932 63.2187 214.6208 0.0000 13.9622 0.0000
# 4 0.0000 0.0000 0.0000 46.3464 0.0000 8.5334
# 5 -0.3521 17.6571 13.9622 0.0000 7.0420 0.0000
# 6 0.0000 0.0000 0.0000 8.5334 0.0000 39.3697
#
#
#
# Elastic Compliance Matrix: (Units=1/GPa)
#
#
# Indices 1 2 3 4 5 6 
#
# 1 0.020160 0.001376 -0.003830 0.000000 0.005151 0.000000
# 2 0.001376 0.011493 -0.001982 0.000000 -0.024820 0.000000
# 3 -0.003830 -0.001982 0.006337 0.000000 -0.007786 0.000000
# 4 0.000000 0.000000 0.000000 0.022474 0.000000 -0.004871
# 5 0.005151 -0.024820 -0.007786 0.000000 0.219933 0.000000
# 6 0.000000 0.000000 0.000000 -0.004871 0.000000 0.026456
#
#
# Mechanical properties :
#
#
# Convention : Reuss Voigt Hill
#
# Bulk Modulus (GPa) = 34.34235 66.17339 50.25787
# Shear Modulus (GPa) = 15.36429 39.39398 27.37914
#
# Velocity S-wave (km/s) = 2.57459 4.12255 3.43685
# Velocity P-wave (km/s) = 4.86354 7.15607 6.11814
#
# Compressibility (1/GPa) = 0.02911856
#
# Stress axis : x y z
#
# Youngs Moduli (GPa) = 49.60355 87.00892 157.81098
#
# Poissons Ratio (x) = -0.11976 0.60446
# Poissons Ratio (y) = -0.06828 0.31273
# Poissons Ratio (z) = 0.19000 0.17243
#
# Static dielectric constant tensor:
#      x y z
#    x 1.851370 0.000000 0.053100 
#    y 0.000000 1.927230 0.000000 
#    z 0.053100 0.000000 1.969490 
# 
# From -- ./inp_files/2417.got.cif
#   From: 2010.05.17/outbox.cif.g08.bks.cpg/sg13_2_cif.got.tgz:2417.got - 2010.06.03 16:44:36.
