data_PCOD9232009
_publ_section_title
;
Structure prediction by ZEFSAII (Michael W. Deem and Ramdas Pophale) SiO2 
 PCOD9232009
Probable space group: P 2/C
;
_chemical_formula_sum "Si O2"
_cell_formula_units_Z 20
_cell_length_a 8.838599
_cell_length_b 10.467178
_cell_length_c 18.068297
_cell_angle_alpha 90.000000
_cell_angle_beta 33.997394
_cell_angle_gamma 90.000000
_cell_volume 934.679302
_symmetry_space_group_name_H-M "P 2/C"
_symmetry_group_IT_number 13
_symmetry_cell_setting 'monoclinic'
loop_
_space_group_symop_operation_xyz
x,y,z
-x,y,1/2-z
-x,-y,-z
x,-y,1/2+z
loop_
_atom_site_type_symbol
_atom_site_label
_atom_site_fract_x
_atom_site_fract_y
_atom_site_fract_z
Si Si1 0.561827 0.882036 0.375133
Si Si2 0.000000 0.679859 0.250000
Si Si3 0.294111 0.844940 0.639391
Si Si4 0.031251 0.560126 0.387699
Si Si5 0.500000 0.245896 0.750000
Si Si6 0.493255 0.645985 0.672196
O O1 0.371394 0.879201 0.523972
O O2 0.440128 0.841202 0.346040
O O3 0.772630 0.772316 0.310680
O O4 0.700637 0.020763 0.318751
O O5 0.913918 0.597272 0.354717
O O6 0.473027 0.746838 0.613908
O O7 0.000000 0.786191 0.750000
O O8 0.239598 0.666322 0.336102
O O9 0.226623 0.441459 0.289298
O O10 0.763079 0.559751 0.548123
O O11 0.500000 0.712430 0.750000
#
# Coordination Sequence:
#
# PCOD9232009 Si02
#       6
#     4   2   4   4   2   4
#     4  10  22  45  68 100 135 173 219 280 340 407
#     4  10  20  44  68  90 134 172 226 262 354 390
#     4  11  25  43  70 102 133 175 227 283 330 409
#     4  11  25  45  66 100 131 186 223 285 329 410
#     4  10  24  42  74  92 140 178 224 266 360 396
#     4  12  27  44  67  98 143 176 231 282 341 397
#
# _framework density 21.397713
#
# number of rings (size 3 to 8) (size 9 to 14) (size 15 to 20)
#    0.000    1.200    4.000    0.600    5.600    2.400 
#    0.000    2.000    0.000    0.000    0.000    0.000 
#    0.000    0.000    0.000    0.000    0.000    0.000 
#
# Total GULP energy -111530.528371 kJ/mol
# GULP energy per Si atom -5576.526419 kJ/mol
# Density = 2.134901 g / cm^3
# Si number density = 21.397713 Si / 1000 Ang^3
#
#
#
# Elastic Constant Matrix: (Units=GPa)
#
#
# Indices 1 2 3 4 5 6 
#
# 1 125.8681 40.9869 26.6108 0.0000 29.0827 0.0000
# 2 40.9869 55.3647 6.2119 0.0000 14.4280 0.0000
# 3 26.6108 6.2119 73.9789 0.0000 11.6572 0.0000
# 4 0.0000 0.0000 0.0000 19.8471 0.0000 8.7733
# 5 29.0827 14.4280 11.6572 0.0000 35.6852 0.0000
# 6 0.0000 0.0000 0.0000 8.7733 0.0000 37.8212
#
#
#
# Elastic Compliance Matrix: (Units=1/GPa)
#
#
# Indices 1 2 3 4 5 6 
#
# 1 0.012321 -0.007184 -0.002851 0.000000 -0.006205 0.000000
# 2 -0.007184 0.024391 0.001231 0.000000 -0.004409 0.000000
# 3 -0.002851 0.001231 0.014920 0.000000 -0.003048 0.000000
# 4 0.000000 0.000000 0.000000 0.056142 0.000000 -0.013023
# 5 -0.006205 -0.004409 -0.003048 0.000000 0.035858 0.000000
# 6 0.000000 0.000000 0.000000 -0.013023 0.000000 0.029461
#
#
# Mechanical properties :
#
#
# Convention : Reuss Voigt Hill
#
# Bulk Modulus (GPa) = 29.39140 44.75899 37.07519
# Shear Modulus (GPa) = 24.74721 30.76415 27.75568
#
# Velocity S-wave (km/s) = 3.40448 3.79586 3.60548
# Velocity P-wave (km/s) = 5.40551 6.33833 5.89041
#
# Compressibility (1/GPa) = 0.03402356
#
# Stress axis : x y z
#
# Youngs Moduli (GPa) = 81.16424 40.99799 67.02506
#
# Poissons Ratio (x) = 0.29454 0.19108
# Poissons Ratio (y) = 0.58310 -0.08250
# Poissons Ratio (z) = 0.23138 -0.05046
#
# Static dielectric constant tensor:
#      x y z
#    x 1.793210 0.000000 -0.022220 
#    y 0.000000 1.768280 0.000000 
#    z -0.022220 0.000000 1.351670 
# 
# From -- ./inp_files/64421.got.cif
#   From: 2010.05.17/outbox.cif.g08.bks.cpg/sg13_33_cif.got.tgz:64421.got - 2010.06.03 16:44:36.
