data_PCOD9232736
_publ_section_title
;
Structure prediction by ZEFSAII (Michael W. Deem and Ramdas Pophale) SiO2 
 PCOD9232736
Probable space group: P 2/C
;
_chemical_formula_sum "Si O2"
_cell_formula_units_Z 24
_cell_length_a 10.604440
_cell_length_b 9.024320
_cell_length_c 22.637872
_cell_angle_alpha 90.000000
_cell_angle_beta 149.498121
_cell_angle_gamma 90.000000
_cell_volume 1099.590246
_symmetry_space_group_name_H-M "P 2/C"
_symmetry_group_IT_number 13
_symmetry_cell_setting 'monoclinic'
loop_
_space_group_symop_operation_xyz
x,y,z
-x,y,1/2-z
-x,-y,-z
x,-y,1/2+z
loop_
_atom_site_type_symbol
_atom_site_label
_atom_site_fract_x
_atom_site_fract_y
_atom_site_fract_z
Si Si1 0.441127 0.060561 0.566488
Si Si2 0.119220 0.680342 0.963564
Si Si3 0.552434 0.529964 0.840330
Si Si4 0.602553 0.152316 0.230714
Si Si5 0.968939 0.531938 0.305465
Si Si6 0.824256 0.859363 0.127353
O O1 0.316822 0.190776 0.552353
O O2 0.571484 0.141969 0.563522
O O3 0.604302 0.960181 0.676627
O O4 0.231181 0.958519 0.451490
O O5 0.857956 0.765346 0.851933
O O6 0.129280 0.583462 0.907882
O O7 0.200771 0.557682 0.043246
O O8 0.500000 0.506742 0.750000
O O9 0.570419 0.707170 0.856872
O O10 0.312739 0.477826 0.782621
O O11 0.500000 0.082365 0.250000
O O12 0.000000 0.488402 0.250000
O O13 0.069551 0.700321 0.348304
O O14 0.000000 0.923863 0.250000
#
# Coordination Sequence:
#
# PCOD9232736 Si02
#       6
#     4   4   4   4   4   4
#     4  11  23  37  59  90 126 165 209 259 315 379
#     4  11  23  39  64  92 124 165 211 263 320 373
#     4  10  23  42  66  94 125 166 215 263 316 376
#     4  10  24  43  62  91 128 168 214 260 312 378
#     4  10  22  39  63  92 125 162 211 264 314 374
#     4  10  21  38  60  86 123 165 205 256 318 373
#
# _framework density 21.826312000000001
#
# number of rings (size 3 to 8) (size 9 to 14) (size 15 to 20)
#    0.000    1.667    0.000    4.000    0.000   17.333 
#    0.000    0.000    0.000    0.000    0.000    0.000 
#    0.000    0.000    0.000    0.000    0.000    0.000 
#
# Total GULP energy -133810.991363 kJ/mol
# GULP energy per Si atom -5575.457973 kJ/mol
# Density = 2.177663 g / cm^3
# Si number density = 21.826312 Si / 1000 Ang^3
#
#
#
# Elastic Constant Matrix: (Units=GPa)
#
#
# Indices 1 2 3 4 5 6 
#
# 1 108.4994 56.9864 22.6920 0.0000 -15.8407 0.0000
# 2 56.9864 67.7102 33.1407 0.0000 6.1783 0.0000
# 3 22.6920 33.1407 75.3699 0.0000 -8.8234 0.0000
# 4 0.0000 0.0000 0.0000 -78.9743 0.0000 174.3796
# 5 -15.8407 6.1783 -8.8234 0.0000 19.1382 0.0000
# 6 0.0000 0.0000 0.0000 174.3796 0.0000 -252.3176
#
#
#
# Elastic Compliance Matrix: (Units=1/GPa)
#
#
# Indices 1 2 3 4 5 6 
#
# 1 0.033351 -0.038108 0.012037 0.000000 0.045456 0.000000
# 2 -0.038108 0.064574 -0.024368 0.000000 -0.063623 0.000000
# 3 0.012037 -0.024368 0.023727 0.000000 0.028768 0.000000
# 4 0.000000 0.000000 0.000000 0.024072 0.000000 0.016637
# 5 0.045456 -0.063623 0.028768 0.000000 0.123678 0.000000
# 6 0.000000 0.000000 0.000000 0.016637 0.000000 0.007535
#
#
# Mechanical properties :
#
#
# Convention : Reuss Voigt Hill
#
# Bulk Modulus (GPa) = 48.14142 53.02421 50.58281
# Shear Modulus (GPa) = 12.99578 -53.18005 -20.09214
#
# Velocity S-wave (km/s) = 2.44277 -4.94146 -3.03734
# Velocity P-wave (km/s) = 5.48276 2.86547 3.30528
#
# Compressibility (1/GPa) = 0.02077213
#
# Stress axis : x y z
#
# Youngs Moduli (GPa) = 29.98410 15.48615 42.14646
#
# Poissons Ratio (x) = 0.59015 -0.50730
# Poissons Ratio (y) = 1.14263 1.02704
# Poissons Ratio (z) = -0.36091 0.37737
#
# Static dielectric constant tensor:
#      x y z
#    x 1.850260 0.000000 0.061150 
#    y 0.000000 1.784500 0.000000 
#    z 0.061150 0.000000 1.866740 
# 
# From -- ./inp_files/86425.got.cif
#   From: 2010.05.17/outbox.cif.g08.bks.cpg/sg13_44_cif.got.tgz:86425.got - 2010.06.03 16:44:36.
