data_PCOD9232582
_publ_section_title
;
Structure prediction by ZEFSAII (Michael W. Deem and Ramdas Pophale) SiO2 
 PCOD9232582
Probable space group: P 2/C
;
_chemical_formula_sum "Si O2"
_cell_formula_units_Z 26
_cell_length_a 8.360146
_cell_length_b 11.686860
_cell_length_c 19.852079
_cell_angle_alpha 90.000000
_cell_angle_beta 40.098116
_cell_angle_gamma 90.000000
_cell_volume 1249.309294
_symmetry_space_group_name_H-M "P 2/C"
_symmetry_group_IT_number 13
_symmetry_cell_setting 'monoclinic'
loop_
_space_group_symop_operation_xyz
x,y,z
-x,y,1/2-z
-x,-y,-z
x,-y,1/2+z
loop_
_atom_site_type_symbol
_atom_site_label
_atom_site_fract_x
_atom_site_fract_y
_atom_site_fract_z
Si Si1 0.500000 0.875378 0.750000
Si Si2 0.219615 0.906183 0.289733
Si Si3 0.037694 0.377628 0.953415
Si Si4 0.778712 0.036641 0.424041
Si Si5 0.500000 0.520216 0.250000
Si Si6 0.000000 0.220781 0.250000
Si Si7 0.285564 0.169187 0.921276
Si Si8 0.484306 0.317714 0.361325
O O1 0.591733 0.788204 0.663306
O O2 0.674843 0.964101 0.733562
O O3 0.415087 0.838100 0.181481
O O4 0.209673 0.861407 0.369246
O O5 0.945308 0.926591 0.353516
O O6 0.257234 0.400312 0.829868
O O7 0.156158 0.291578 0.970834
O O8 0.000000 0.500000 0.000000
O O9 0.768616 0.335546 0.014333
O O10 0.796986 0.079644 0.495596
O O11 0.878728 0.139568 0.345917
O O12 0.500000 0.000000 0.500000
O O13 0.509491 0.433360 0.309645
O O14 0.243224 0.289967 0.197328
#
# Coordination Sequence:
#
# PCOD9232582 Si02
#       8
#     2   4   4   4   2   2   4   4
#     4   9  16  35  60  84 116 161 208 257 288 370
#     4  10  21  38  61  89 127 156 208 262 311 367
#     4  10  21  38  68  91 113 155 211 279 321 353
#     4  12  25  38  59  90 134 177 204 244 308 391
#     4   9  20  41  68  94 114 147 220 281 324 358
#     4  12  26  40  56  88 136 170 210 238 308 388
#     4  10  22  38  64  91 120 160 214 262 314 367
#     4  10  21  37  63  88 122 165 206 258 313 379
#
# _framework density 20.811499999999999
#
# number of rings (size 3 to 8) (size 9 to 14) (size 15 to 20)
#    0.000    1.846    1.538    3.231    8.615    0.000 
#    0.000    0.769    0.000    0.000    0.000    0.000 
#    0.000    0.000    0.000    0.000    0.000    0.000 
#
# Total GULP energy -144875.129035 kJ/mol
# GULP energy per Si atom -5572.120348 kJ/mol
# Density = 2.076413 g / cm^3
# Si number density = 20.811500 Si / 1000 Ang^3
#
#
#
# Elastic Constant Matrix: (Units=GPa)
#
#
# Indices 1 2 3 4 5 6 
#
# 1 70.1182 25.1607 50.3766 0.0000 -42.5360 0.0000
# 2 25.1607 83.8778 32.1878 0.0000 -18.9760 0.0000
# 3 50.3766 32.1878 131.3586 0.0000 -38.8977 0.0000
# 4 0.0000 0.0000 0.0000 18.1775 0.0000 -8.1654
# 5 -42.5360 -18.9760 -38.8977 0.0000 51.1446 0.0000
# 6 0.0000 0.0000 0.0000 -8.1654 0.0000 20.4524
#
#
#
# Elastic Compliance Matrix: (Units=1/GPa)
#
#
# Indices 1 2 3 4 5 6 
#
# 1 0.032235 -0.002725 -0.005234 0.000000 0.021818 0.000000
# 2 -0.002725 0.013792 -0.001923 0.000000 0.001388 0.000000
# 3 -0.005234 -0.001923 0.011088 0.000000 0.003366 0.000000
# 4 0.000000 0.000000 0.000000 0.067035 0.000000 0.026763
# 5 0.021818 0.001388 0.003366 0.000000 0.040773 0.000000
# 6 0.000000 0.000000 0.000000 0.026763 0.000000 0.059579
#
#
# Mechanical properties :
#
#
# Convention : Reuss Voigt Hill
#
# Bulk Modulus (GPa) = 26.77384 55.64500 41.20942
# Shear Modulus (GPa) = 19.47670 29.79687 24.63679
#
# Velocity S-wave (km/s) = 3.06251 3.78795 3.44438
# Velocity P-wave (km/s) = 5.03965 6.77695 5.97182
#
# Compressibility (1/GPa) = 0.03734989
#
# Stress axis : x y z
#
# Youngs Moduli (GPa) = 31.02197 72.50775 90.18633
#
# Poissons Ratio (x) = 0.19759 0.47203
# Poissons Ratio (y) = 0.08454 0.17347
# Poissons Ratio (z) = 0.16237 0.13946
#
# Static dielectric constant tensor:
#      x y z
#    x 1.790200 0.000000 -0.030450 
#    y 0.000000 1.794640 0.000000 
#    z -0.030450 0.000000 1.857400 
# 
# From -- ./inp_files/76398.got.cif
#   From: 2010.05.17/outbox.cif.g08.bks.cpg/sg13_39_cif.got.tgz:76398.got - 2010.06.03 16:44:36.
