data_PCOD9232081
_publ_section_title
;
Structure prediction by ZEFSAII (Michael W. Deem and Ramdas Pophale) SiO2 
 PCOD9232081
Probable space group: P 2/C
;
_chemical_formula_sum "Si O2"
_cell_formula_units_Z 16
_cell_length_a 14.104400
_cell_length_b 12.964943
_cell_length_c 5.117934
_cell_angle_alpha 90.000000
_cell_angle_beta 70.457847
_cell_angle_gamma 90.000000
_cell_volume 881.968719
_symmetry_space_group_name_H-M "P 2/C"
_symmetry_group_IT_number 13
_symmetry_cell_setting 'monoclinic'
loop_
_space_group_symop_operation_xyz
x,y,z
-x,y,1/2-z
-x,-y,-z
x,-y,1/2+z
loop_
_atom_site_type_symbol
_atom_site_label
_atom_site_fract_x
_atom_site_fract_y
_atom_site_fract_z
Si Si1 0.000000 0.074189 0.250000
Si Si2 0.378567 0.555485 0.327532
Si Si3 0.390807 0.788433 0.210181
Si Si4 0.500000 0.923380 0.750000
Si Si5 0.781682 0.928026 0.905014
O O1 0.890719 0.126833 0.341013
O O2 0.000000 0.000000 0.500000
O O3 0.500000 0.547889 0.250000
O O4 0.341293 0.527346 0.650120
O O5 0.358759 0.669566 0.237457
O O6 0.500000 0.790528 0.250000
O O7 0.309927 0.853998 0.443406
O O8 0.410765 0.844616 0.914280
O O9 0.500000 0.000000 0.500000
O O10 0.776606 0.019414 0.126265
#
# Coordination Sequence:
#
# PCOD9232081 Si02
#       5
#     2   4   4   2   4
#     4   8  16  34  50  68  94 128 174 206 234 276
#     4   9  20  34  51  68  93 128 170 214 247 287
#     4  11  24  34  52  75 105 137 171 201 256 304
#     4  12  24  34  44  68 108 140 160 190 236 302
#     4  10  21  33  51  73 101 136 166 203 241 294
#
# _framework density 18.141235000000002
#
# number of rings (size 3 to 8) (size 9 to 14) (size 15 to 20)
#    0.000    2.000    1.250    1.500   12.250    0.000 
#    0.000    0.000    0.000    0.000    0.000    1.750 
#    0.000    0.000    0.000    0.000    0.000    0.000 
#
# Total GULP energy -89145.687391 kJ/mol
# GULP energy per Si atom -5571.605462 kJ/mol
# Density = 1.809994 g / cm^3
# Si number density = 18.141235 Si / 1000 Ang^3
#
#
#
# Elastic Constant Matrix: (Units=GPa)
#
#
# Indices 1 2 3 4 5 6 
#
# 1 69.7040 19.6863 25.2266 0.0000 -15.5335 0.0000
# 2 19.6863 87.8742 22.4743 0.0000 4.1078 0.0000
# 3 25.2266 22.4743 91.2628 0.0000 12.5758 0.0000
# 4 0.0000 0.0000 0.0000 8.9807 0.0000 9.4381
# 5 -15.5335 4.1078 12.5758 0.0000 40.1385 0.0000
# 6 0.0000 0.0000 0.0000 9.4381 0.0000 13.5746
#
#
#
# Elastic Compliance Matrix: (Units=1/GPa)
#
#
# Indices 1 2 3 4 5 6 
#
# 1 0.019627 -0.003332 -0.005956 0.000000 0.009803 0.000000
# 2 -0.003332 0.012714 -0.001937 0.000000 -0.001984 0.000000
# 3 -0.005956 -0.001937 0.013974 0.000000 -0.006485 0.000000
# 4 0.000000 0.000000 0.000000 0.413460 0.000000 -0.287471
# 5 0.009803 -0.001984 -0.006485 0.000000 0.030942 0.000000
# 6 0.000000 0.000000 0.000000 -0.287471 0.000000 0.273540
#
#
# Mechanical properties :
#
#
# Convention : Reuss Voigt Hill
#
# Bulk Modulus (GPa) = 41.89838 42.62395 42.26117
# Shear Modulus (GPa) = 6.29198 24.63568 15.46383
#
# Velocity S-wave (km/s) = 1.86437 3.68909 2.92278
# Velocity P-wave (km/s) = 5.27070 6.45697 5.89376
#
# Compressibility (1/GPa) = 0.02386727
#
# Stress axis : x y z
#
# Youngs Moduli (GPa) = 50.94920 78.65073 71.56103
#
# Poissons Ratio (x) = 0.26208 0.42619
# Poissons Ratio (y) = 0.16977 0.13858
# Poissons Ratio (z) = 0.30343 0.15231
#
# Static dielectric constant tensor:
#      x y z
#    x 1.735910 0.000000 0.007800 
#    y 0.000000 1.630910 0.000000 
#    z 0.007800 0.000000 1.664890 
# 
# From -- ./inp_files/4670.got.cif
#   From: 2010.05.17/outbox.cif.g08.bks.cpg/sg13_3_cif.got.tgz:4670.got - 2010.06.03 16:44:36.
