data_PCOD9232201
_publ_section_title
;
Structure prediction by ZEFSAII (Michael W. Deem and Ramdas Pophale) SiO2 
 PCOD9232201
Probable space group: P 2/C
;
_chemical_formula_sum "Si O2"
_cell_formula_units_Z 28
_cell_length_a 21.704104
_cell_length_b 10.257720
_cell_length_c 11.502825
_cell_angle_alpha 90.000000
_cell_angle_beta 28.557398
_cell_angle_gamma 90.000000
_cell_volume 1224.222785
_symmetry_space_group_name_H-M "P 2/C"
_symmetry_group_IT_number 13
_symmetry_cell_setting 'monoclinic'
loop_
_space_group_symop_operation_xyz
x,y,z
-x,y,1/2-z
-x,-y,-z
x,-y,1/2+z
loop_
_atom_site_type_symbol
_atom_site_label
_atom_site_fract_x
_atom_site_fract_y
_atom_site_fract_z
Si Si1 0.262101 0.413893 0.227358
Si Si2 0.109507 0.832746 0.249874
Si Si3 0.382275 0.087120 0.356779
Si Si4 0.000000 0.622766 0.250000
Si Si5 0.550446 0.711726 0.913331
Si Si6 0.681901 0.786081 0.056174
Si Si7 0.084316 0.877284 0.719042
Si Si8 0.500000 0.419729 0.250000
O O1 0.116530 0.456244 0.496438
O O2 0.331739 0.368426 0.230121
O O3 0.257508 0.285581 0.154024
O O4 0.363734 0.506011 0.993936
O O5 0.069344 0.716311 0.230724
O O6 0.997427 0.849890 0.529824
O O7 0.115273 0.968063 0.167381
O O8 0.246867 0.832528 0.091353
O O9 0.500000 0.111975 0.250000
O O10 0.422875 0.136935 0.161181
O O11 0.351592 0.934901 0.418640
O O12 0.512274 0.653045 0.853037
O O13 0.441728 0.710752 0.191561
O O14 0.784880 0.796802 0.988567
O O15 0.000000 0.842022 0.750000
#
# Coordination Sequence:
#
# PCOD9232201 Si02
#       8
#     4   4   4   2   4   4   4   2
#     4  12  25  46  74  99 135 187 233 290 338 410
#     4  10  21  37  60  92 137 186 222 259 338 423
#     4  11  23  39  65 107 145 171 218 281 345 415
#     4  12  22  44  68  98 134 180 236 280 344 406
#     4  12  24  45  72 100 135 181 231 290 344 405
#     4  11  24  41  69 107 141 178 222 278 354 418
#     4  10  21  35  59  94 140 184 216 267 332 425
#     4  12  28  50  74  96 130 184 248 284 348 396
#
# _framework density 22.871653999999999
#
# number of rings (size 3 to 8) (size 9 to 14) (size 15 to 20)
#    0.000    0.857    5.714    1.714    2.000    0.000 
#    0.000    0.714    4.714    0.000    0.000    0.000 
#    0.000    0.000    0.000    0.000    0.000    0.000 
#
# Total GULP energy -156399.846842 kJ/mol
# GULP energy per Si atom -5585.708816 kJ/mol
# Density = 2.281960 g / cm^3
# Si number density = 22.871654 Si / 1000 Ang^3
#
#
#
# Elastic Constant Matrix: (Units=GPa)
#
#
# Indices 1 2 3 4 5 6 
#
# 1 68.1047 3.2762 -1.8608 0.0000 -21.1064 0.0000
# 2 3.2762 32.7605 17.5123 0.0000 1.4507 0.0000
# 3 -1.8608 17.5123 133.6521 0.0000 -21.7860 0.0000
# 4 0.0000 0.0000 0.0000 5.1756 0.0000 -3.8538
# 5 -21.1064 1.4507 -21.7860 0.0000 43.3799 0.0000
# 6 0.0000 0.0000 0.0000 -3.8538 0.0000 13.3725
#
#
#
# Elastic Compliance Matrix: (Units=1/GPa)
#
#
# Indices 1 2 3 4 5 6 
#
# 1 0.018039 -0.003508 0.002353 0.000000 0.010076 0.000000
# 2 -0.003508 0.034015 -0.005413 0.000000 -0.005563 0.000000
# 3 0.002353 -0.005413 0.009193 0.000000 0.005943 0.000000
# 4 0.000000 0.000000 0.000000 0.246007 0.000000 0.070897
# 5 0.010076 -0.005563 0.005943 0.000000 0.031125 0.000000
# 6 0.000000 0.000000 0.000000 0.070897 0.000000 0.095213
#
#
# Mechanical properties :
#
#
# Convention : Reuss Voigt Hill
#
# Bulk Modulus (GPa) = 20.78484 30.26363 25.52423
# Shear Modulus (GPa) = 10.80465 26.75823 18.78144
#
# Velocity S-wave (km/s) = 2.17584 3.42413 2.86871
# Velocity P-wave (km/s) = 3.92679 5.37528 4.70709
#
# Compressibility (1/GPa) = 0.04811199
#
# Stress axis : x y z
#
# Youngs Moduli (GPa) = 55.43554 29.39874 108.78117
#
# Poissons Ratio (x) = 0.10313 -0.25599
# Poissons Ratio (y) = 0.19447 0.58878
# Poissons Ratio (z) = -0.13045 0.15912
#
# Static dielectric constant tensor:
#      x y z
#    x 1.811200 0.000000 -0.032230 
#    y 0.000000 1.903800 0.000000 
#    z -0.032230 0.000000 1.908040 
# 
# From -- ./inp_files/40785.got.cif
#   From: 2010.05.17/outbox.cif.g08.bks.cpg/sg13_21_cif.got.tgz:40785.got - 2010.06.03 16:44:36.
