data_PCOD9232097
_publ_section_title
;
Structure prediction by ZEFSAII (Michael W. Deem and Ramdas Pophale) SiO2 
 PCOD9232097
Probable space group: P 2/C
;
_chemical_formula_sum "Si O2"
_cell_formula_units_Z 28
_cell_length_a 20.610147
_cell_length_b 9.365332
_cell_length_c 7.507214
_cell_angle_alpha 90.000000
_cell_angle_beta 111.361716
_cell_angle_gamma 90.000000
_cell_volume 1349.498455
_symmetry_space_group_name_H-M "P 2/C"
_symmetry_group_IT_number 13
_symmetry_cell_setting 'monoclinic'
loop_
_space_group_symop_operation_xyz
x,y,z
-x,y,1/2-z
-x,-y,-z
x,-y,1/2+z
loop_
_atom_site_type_symbol
_atom_site_label
_atom_site_fract_x
_atom_site_fract_y
_atom_site_fract_z
Si Si1 0.787442 0.167321 0.323724
Si Si2 0.499999 0.669849 0.536885
Si Si3 0.348586 0.668993 0.384644
Si Si4 0.077520 0.667258 0.541093
Si Si5 0.348587 0.668997 0.812532
Si Si6 0.787443 0.167323 0.751163
Si Si7 0.077519 0.667259 0.113945
O O1 0.858373 0.239674 0.325442
O O2 0.717993 0.245400 0.185093
O O3 0.787606 0.187514 0.537607
O O4 0.785898 0.999999 0.285900
O O5 0.500000 0.691192 0.750000
O O6 0.500000 0.500000 0.500000
O O7 0.424648 0.720160 0.392836
O O8 0.575350 0.720163 0.543539
O O9 0.350155 0.685132 0.600155
O O10 0.341044 0.499998 0.341047
O O11 0.282005 0.754595 0.249105
O O12 0.075339 0.684934 0.325339
O O13 0.089933 0.500000 0.589933
O O14 0.000001 0.703703 0.532439
O O15 0.858375 0.239673 0.891306
#
# Coordination Sequence:
#
# PCOD9232097 Si02
#       7
#     4   4   4   4   4   4   4
#     4  10  21  34  47  67  96 127 157 189 227 272
#     4   8  14  26  45  68  92 116 146 188 233 272
#     4   9  17  30  49  71  93 119 153 192 232 274
#     4   9  18  33  52  73  95 119 151 191 232 274
#     4   9  17  30  49  71  93 119 153 192 232 274
#     4  10  21  34  47  67  96 127 157 189 227 272
#     4   9  18  33  52  73  95 119 151 191 232 274
#
# _framework density 20.748449999999998
#
# number of rings (size 3 to 8) (size 9 to 14) (size 15 to 20)
#    0.000    2.857    0.000    0.857    0.000    2.857 
#    0.000    0.714    0.000    0.000    0.000    0.000 
#    0.000    0.000    0.000    0.000    0.000    0.000 
#
# Total GULP energy -156149.535327 kJ/mol
# GULP energy per Si atom -5576.769119 kJ/mol
# Density = 2.070123 g / cm^3
# Si number density = 20.748450 Si / 1000 Ang^3
#
#
#
# Elastic Constant Matrix: (Units=GPa)
#
#
# Indices 1 2 3 4 5 6 
#
# 1 205.2145 108.8420 56.9461 0.0000 82.9443 0.0000
# 2 108.8420 94.8797 12.9392 0.0000 47.7307 0.0000
# 3 56.9461 12.9392 47.7400 0.0000 -4.5746 0.0000
# 4 0.0000 0.0000 0.0000 18.9438 0.0000 -9.7724
# 5 82.9443 47.7307 -4.5746 0.0000 34.3658 0.0000
# 6 0.0000 0.0000 0.0000 -9.7724 0.0000 -0.6888
#
#
#
# Elastic Compliance Matrix: (Units=1/GPa)
#
#
# Indices 1 2 3 4 5 6 
#
# 1 -0.006687 -0.011050 0.014169 0.000000 0.033373 0.000000
# 2 -0.011050 0.030074 0.003629 0.000000 -0.014616 0.000000
# 3 0.014169 0.003629 -0.000707 0.000000 -0.039333 0.000000
# 4 0.000000 0.000000 0.000000 0.006345 0.000000 -0.090029
# 5 0.033373 -0.014616 -0.039333 0.000000 -0.036384 0.000000
# 6 0.000000 0.000000 0.000000 -0.090029 0.000000 -0.174522
#
#
# Mechanical properties :
#
#
# Convention : Reuss Voigt Hill
#
# Bulk Modulus (GPa) = 27.64228 78.36543 53.00385
# Shear Modulus (GPa) = -27.27503 21.79797 -2.73853
#
# Velocity S-wave (km/s) = -3.62962 3.24479 -1.15010
# Velocity P-wave (km/s) = 2.05280 7.20343 4.88239
#
# Compressibility (1/GPa) = 0.03617647
#
# Stress axis : x y z
#
# Youngs Moduli (GPa) = -149.54962 33.25141 -1413.84705
#
# Poissons Ratio (x) = 0.36743 20.03285
# Poissons Ratio (y) = -1.65254 5.13140
# Poissons Ratio (z) = 2.11897 -0.12068
#
# Static dielectric constant tensor:
#      x y z
#    x 1.800230 0.000000 0.019540 
#    y 0.000000 1.656960 0.000000 
#    z 0.019540 0.000000 1.760970 
# 
# From -- ./inp_files/22565.got.cif
#   From: 2010.05.17/outbox.cif.g08.bks.cpg/sg13_12_cif.got.tgz:22565.got - 2010.06.03 16:44:36.
