data_PCOD9232618
_publ_section_title
;
Structure prediction by ZEFSAII (Michael W. Deem and Ramdas Pophale) SiO2 
 PCOD9232618
Probable space group: P 2/C
;
_chemical_formula_sum "Si O2"
_cell_formula_units_Z 32
_cell_length_a 14.582651
_cell_length_b 14.091639
_cell_length_c 11.305815
_cell_angle_alpha 90.000000
_cell_angle_beta 38.595808
_cell_angle_gamma 90.000000
_cell_volume 1449.308509
_symmetry_space_group_name_H-M "P 2/C"
_symmetry_group_IT_number 13
_symmetry_cell_setting 'monoclinic'
loop_
_space_group_symop_operation_xyz
x,y,z
-x,y,1/2-z
-x,-y,-z
x,-y,1/2+z
loop_
_atom_site_type_symbol
_atom_site_label
_atom_site_fract_x
_atom_site_fract_y
_atom_site_fract_z
Si Si1 0.060510 0.402387 0.808378
Si Si2 0.068824 0.909905 0.998725
Si Si3 0.774398 0.098640 0.927418
Si Si4 0.435815 0.724901 0.446128
Si Si5 0.294350 0.746086 0.169839
Si Si6 0.571037 0.048418 0.546821
Si Si7 0.864115 0.607718 0.724948
Si Si8 0.966038 0.211602 0.410530
O O1 0.184777 0.335108 0.736488
O O2 0.129028 0.506397 0.718602
O O3 0.000000 0.358426 0.750000
O O4 0.919365 0.412558 0.036027
O O5 0.203725 0.917844 0.954269
O O6 0.932125 0.875902 0.215702
O O7 0.080700 0.829665 0.888969
O O8 0.000000 0.000000 0.000000
O O9 0.674949 0.181709 0.970090
O O10 0.725290 0.002900 0.912110
O O11 0.500000 0.708402 0.250000
O O12 0.560615 0.704122 0.417659
O O13 0.416030 0.838922 0.478851
O O14 0.289697 0.662392 0.608887
O O15 0.198900 0.799089 0.371499
O O16 0.500000 0.029484 0.750000
O O17 0.500000 0.000000 0.500000
O O18 0.991331 0.678766 0.640521
O O19 0.000000 0.165427 0.250000
#
# Coordination Sequence:
#
# PCOD9232618 Si02
#       8
#     4   4   4   4   4   4   4   4
#     4  10  23  45  73  96 134 175 226 281 349 416
#     4  10  24  36  59  90 124 168 214 285 330 382
#     4  10  23  42  59  87 130 168 224 270 334 396
#     4  11  24  42  69 101 142 178 225 286 344 407
#     4  10  22  42  65  95 131 176 218 279 341 399
#     4  11  25  44  67  94 135 190 230 273 337 420
#     4  10  23  41  68 103 130 175 227 273 346 414
#     4  10  21  37  65  91 128 170 226 271 333 405
#
# _framework density 22.079495000000001
#
# number of rings (size 3 to 8) (size 9 to 14) (size 15 to 20)
#    0.000    1.750    1.250    1.125   10.500    3.500 
#    0.000    0.625    0.000    0.000    0.000    0.000 
#    0.000    0.000    0.000    0.000    0.000    0.000 
#
# Total GULP energy -178498.132501 kJ/mol
# GULP energy per Si atom -5578.066641 kJ/mol
# Density = 2.202924 g / cm^3
# Si number density = 22.079495 Si / 1000 Ang^3
#
#
#
# Elastic Constant Matrix: (Units=GPa)
#
#
# Indices 1 2 3 4 5 6 
#
# 1 112.7039 25.9331 30.7414 0.0000 24.6181 0.0000
# 2 25.9331 98.6319 23.5203 0.0000 4.5892 0.0000
# 3 30.7414 23.5203 80.2164 0.0000 0.1672 0.0000
# 4 0.0000 0.0000 0.0000 28.4173 0.0000 -5.3059
# 5 24.6181 4.5892 0.1672 0.0000 29.6482 0.0000
# 6 0.0000 0.0000 0.0000 -5.3059 0.0000 25.6792
#
#
#
# Elastic Compliance Matrix: (Units=1/GPa)
#
#
# Indices 1 2 3 4 5 6 
#
# 1 0.012709 -0.001837 -0.004310 0.000000 -0.010244 0.000000
# 2 -0.001837 0.011250 -0.002594 0.000000 -0.000201 0.000000
# 3 -0.004310 -0.002594 0.014871 0.000000 0.003897 0.000000
# 4 0.000000 0.000000 0.000000 0.036602 0.000000 0.007563
# 5 -0.010244 -0.000201 0.003897 0.000000 0.042244 0.000000
# 6 0.000000 0.000000 0.000000 0.007563 0.000000 0.040505
#
#
# Mechanical properties :
#
#
# Convention : Reuss Voigt Hill
#
# Bulk Modulus (GPa) = 46.84697 50.21578 48.53138
# Shear Modulus (GPa) = 27.35554 30.83943 29.09749
#
# Velocity S-wave (km/s) = 3.52370 3.74136 3.63416
# Velocity P-wave (km/s) = 6.14970 6.43865 6.29583
#
# Compressibility (1/GPa) = 0.02134610
#
# Stress axis : x y z
#
# Youngs Moduli (GPa) = 78.68535 88.89142 67.24641
#
# Poissons Ratio (x) = 0.16329 0.28986
# Poissons Ratio (y) = 0.14454 0.17445
# Poissons Ratio (z) = 0.33917 0.23060
#
# Static dielectric constant tensor:
#      x y z
#    x 1.873710 0.000000 0.066440 
#    y 0.000000 1.851720 0.000000 
#    z 0.066440 0.000000 1.915900 
# 
# From -- ./inp_files/37506.got.cif
#   From: 2010.05.17/outbox.cif.g08.bks.cpg/sg13_19_cif.got.tgz:37506.got - 2010.06.03 16:44:36.
