data_PCOD9232938
_publ_section_title
;
Structure prediction by ZEFSAII (Michael W. Deem and Ramdas Pophale) SiO2 
 PCOD9232938
Probable space group: P 2/C
;
_chemical_formula_sum "Si O2"
_cell_formula_units_Z 20
_cell_length_a 12.491964
_cell_length_b 5.075278
_cell_length_c 21.268573
_cell_angle_alpha 90.000000
_cell_angle_beta 44.659966
_cell_angle_gamma 90.000000
_cell_volume 947.809689
_symmetry_space_group_name_H-M "P 2/C"
_symmetry_group_IT_number 13
_symmetry_cell_setting 'monoclinic'
loop_
_space_group_symop_operation_xyz
x,y,z
-x,y,1/2-z
-x,-y,-z
x,-y,1/2+z
loop_
_atom_site_type_symbol
_atom_site_label
_atom_site_fract_x
_atom_site_fract_y
_atom_site_fract_z
Si Si1 0.867569 0.577261 0.356789
Si Si2 0.248379 0.964857 0.445422
Si Si3 0.664409 0.911180 0.954530
Si Si4 0.980982 0.623855 0.578405
Si Si5 0.675320 0.538324 0.661520
O O1 0.736525 0.359255 0.399319
O O2 0.000000 0.559753 0.250000
O O3 0.940670 0.516771 0.395017
O O4 0.787069 0.859596 0.390081
O O5 0.342073 0.885029 0.467445
O O6 0.295109 0.762829 0.370908
O O7 0.071559 0.900083 0.534804
O O8 0.284757 0.260823 0.411591
O O9 0.500000 0.000000 0.000000
O O10 0.799022 0.623795 0.662239
O O11 0.000000 0.500000 0.500000
O O12 0.500000 0.574078 0.750000
#
# Coordination Sequence:
#
# PCOD9232938 Si02
#       5
#     4   4   4   4   4
#     4  11  24  41  62  94 125 159 206 257 307 358
#     4  10  21  39  58  84 117 158 203 239 296 369
#     4  11  23  41  64  87 120 166 208 250 303 369
#     4   9  20  39  63  84 117 161 198 235 294 369
#     4  11  22  36  58  91 120 150 195 257 303 343
#
# _framework density 21.101282999999999
#
# number of rings (size 3 to 8) (size 9 to 14) (size 15 to 20)
#    0.000    1.600    0.000    6.000    0.000    8.000 
#    0.000    0.000    0.000    0.000    0.000    0.000 
#    0.000    0.000    0.000    0.000    0.000    0.000 
#
# Total GULP energy -111657.591651 kJ/mol
# GULP energy per Si atom -5582.879583 kJ/mol
# Density = 2.105326 g / cm^3
# Si number density = 21.101283 Si / 1000 Ang^3
#
#
#
# Elastic Constant Matrix: (Units=GPa)
#
#
# Indices 1 2 3 4 5 6 
#
# 1 106.3893 -5.2773 42.0971 0.0000 -23.3547 0.0000
# 2 -5.2773 64.0453 14.3260 0.0000 4.7406 0.0000
# 3 42.0971 14.3260 96.1478 0.0000 -20.6690 0.0000
# 4 0.0000 0.0000 0.0000 28.5940 0.0000 -10.5913
# 5 -23.3547 4.7406 -20.6690 0.0000 40.4418 0.0000
# 6 0.0000 0.0000 0.0000 -10.5913 0.0000 23.6133
#
#
#
# Elastic Compliance Matrix: (Units=1/GPa)
#
#
# Indices 1 2 3 4 5 6 
#
# 1 0.012332 0.001729 -0.004684 0.000000 0.004525 0.000000
# 2 0.001729 0.016850 -0.003907 0.000000 -0.002973 0.000000
# 3 -0.004684 -0.003907 0.014100 0.000000 0.004959 0.000000
# 4 0.000000 0.000000 0.000000 0.041940 0.000000 0.018812
# 5 0.004525 -0.002973 0.004959 0.000000 0.030223 0.000000
# 6 0.000000 0.000000 0.000000 0.018812 0.000000 0.050787
#
#
# Mechanical properties :
#
#
# Convention : Reuss Voigt Hill
#
# Bulk Modulus (GPa) = 33.83206 40.98599 37.40903
# Shear Modulus (GPa) = 26.34224 32.89225 29.61725
#
# Velocity S-wave (km/s) = 3.53706 3.95242 3.75050
# Velocity P-wave (km/s) = 5.72268 6.34779 6.04332
#
# Compressibility (1/GPa) = 0.02955776
#
# Stress axis : x y z
#
# Youngs Moduli (GPa) = 81.08950 59.34565 70.92302
#
# Poissons Ratio (x) = -0.10261 0.33223
# Poissons Ratio (y) = -0.14021 0.27709
# Poissons Ratio (z) = 0.37985 0.23186
#
# Static dielectric constant tensor:
#      x y z
#    x 1.786500 0.000000 -0.022190 
#    y 0.000000 1.764730 0.000000 
#    z -0.022190 0.000000 1.794390 
# 
# From -- ./inp_files/85498.got.cif
#   From: 2010.05.17/outbox.cif.g08.bks.cpg/sg13_43_cif.got.tgz:85498.got - 2010.06.03 16:44:36.
