data_PCOD9232284
_publ_section_title
;
Structure prediction by ZEFSAII (Michael W. Deem and Ramdas Pophale) SiO2 
 PCOD9232284
Probable space group: P 2/C
;
_chemical_formula_sum "Si O2"
_cell_formula_units_Z 24
_cell_length_a 18.158162
_cell_length_b 5.123243
_cell_length_c 21.881728
_cell_angle_alpha 90.000000
_cell_angle_beta 27.829057
_cell_angle_gamma 90.000000
_cell_volume 950.302868
_symmetry_space_group_name_H-M "P 2/C"
_symmetry_group_IT_number 13
_symmetry_cell_setting 'monoclinic'
loop_
_space_group_symop_operation_xyz
x,y,z
-x,y,1/2-z
-x,-y,-z
x,-y,1/2+z
loop_
_atom_site_type_symbol
_atom_site_label
_atom_site_fract_x
_atom_site_fract_y
_atom_site_fract_z
Si Si1 0.286285 0.734265 0.241899
Si Si2 0.932488 0.853030 0.732614
Si Si3 0.665078 0.175149 0.094860
Si Si4 0.980207 0.641921 0.406300
Si Si5 0.633423 0.783115 0.887247
Si Si6 0.557366 0.330984 0.638369
O O1 0.370564 0.514266 0.135210
O O2 0.399543 0.719166 0.216636
O O3 0.102399 0.654956 0.372837
O O4 0.282393 0.040050 0.226646
O O5 0.748181 0.779576 0.861190
O O6 0.000000 0.825996 0.750000
O O7 0.013130 0.645870 0.627054
O O8 0.952868 0.148151 0.692538
O O9 0.500000 0.133245 0.250000
O O10 0.642645 0.398494 0.060798
O O11 0.681852 0.902589 0.048358
O O12 0.800606 0.260403 0.042302
O O13 0.500000 0.000000 0.000000
O O14 0.500000 0.374566 0.750000
#
# Coordination Sequence:
#
# PCOD9232284 Si02
#       6
#     4   4   4   4   4   4
#     4  10  21  38  58  82 118 157 194 239 295 352
#     4  10  21  36  56  85 116 152 195 237 288 352
#     4  10  21  38  58  85 114 146 196 248 293 349
#     4  10  21  38  58  82 117 156 194 239 296 353
#     4  10  21  36  56  85 117 153 194 237 289 351
#     4  10  21  38  58  85 114 146 195 246 292 349
#
# _framework density 25.255109000000001
#
# number of rings (size 3 to 8) (size 9 to 14) (size 15 to 20)
#    0.000    2.000    0.000    3.000    0.000    4.000 
#    0.000    6.667    0.000    0.000    0.000    0.000 
#    0.000    0.000    0.000    0.000    0.000    0.000 
#
# Total GULP energy -133884.611774 kJ/mol
# GULP energy per Si atom -5578.525491 kJ/mol
# Density = 2.519763 g / cm^3
# Si number density = 25.255109 Si / 1000 Ang^3
#
#
#
# Elastic Constant Matrix: (Units=GPa)
#
#
# Indices 1 2 3 4 5 6 
#
# 1 99.5740 0.8894 3.2632 0.0000 -42.9805 0.0000
# 2 0.8894 161.2179 -16.5730 0.0000 6.3750 0.0000
# 3 3.2632 -16.5730 66.8702 0.0000 -31.1576 0.0000
# 4 0.0000 0.0000 0.0000 12.0046 0.0000 -10.8274
# 5 -42.9805 6.3750 -31.1576 0.0000 40.6487 0.0000
# 6 0.0000 0.0000 0.0000 -10.8274 0.0000 23.3754
#
#
#
# Elastic Compliance Matrix: (Units=1/GPa)
#
#
# Indices 1 2 3 4 5 6 
#
# 1 0.029733 0.000083 0.020553 0.000000 0.047180 0.000000
# 2 0.000083 0.006368 0.001789 0.000000 0.000460 0.000000
# 3 0.020553 0.001789 0.037940 0.000000 0.050532 0.000000
# 4 0.000000 0.000000 0.000000 0.143075 0.000000 0.066272
# 5 0.047180 0.000460 0.050532 0.000000 0.113148 0.000000
# 6 0.000000 0.000000 0.000000 0.066272 0.000000 0.073477
#
#
# Mechanical properties :
#
#
# Convention : Reuss Voigt Hill
#
# Bulk Modulus (GPa) = 8.41117 33.64680 21.02898
# Shear Modulus (GPa) = 12.54635 37.87791 25.21213
#
# Velocity S-wave (km/s) = 2.23129 3.87694 3.16301
# Velocity P-wave (km/s) = 3.15846 5.77863 4.65663
#
# Compressibility (1/GPa) = 0.11888952
#
# Stress axis : x y z
#
# Youngs Moduli (GPa) = 33.63233 157.03528 26.35764
#
# Poissons Ratio (x) = -0.01306 -0.54172
# Poissons Ratio (y) = -0.00280 -0.04714
# Poissons Ratio (z) = -0.69123 -0.28087
#
# Static dielectric constant tensor:
#      x y z
#    x 2.633580 0.000000 1.324570 
#    y 0.000000 2.133070 0.000000 
#    z 1.324570 0.000000 4.947560 
# 
# From -- ./inp_files/87686.got.cif
#   From: 2010.05.17/outbox.cif.g08.bks.cpg/sg13_44_cif.got.tgz:87686.got - 2010.06.03 16:44:36.
