data_PCOD9232056
_publ_section_title
;
Structure prediction by ZEFSAII (Michael W. Deem and Ramdas Pophale) SiO2 
 PCOD9232056
Probable space group: P 2/C
;
_chemical_formula_sum "Si O2"
_cell_formula_units_Z 26
_cell_length_a 12.042374
_cell_length_b 19.496462
_cell_length_c 5.574131
_cell_angle_alpha 90.000000
_cell_angle_beta 65.832205
_cell_angle_gamma 90.000000
_cell_volume 1194.006657
_symmetry_space_group_name_H-M "P 2/C"
_symmetry_group_IT_number 13
_symmetry_cell_setting 'monoclinic'
loop_
_space_group_symop_operation_xyz
x,y,z
-x,y,1/2-z
-x,-y,-z
x,-y,1/2+z
loop_
_atom_site_type_symbol
_atom_site_label
_atom_site_fract_x
_atom_site_fract_y
_atom_site_fract_z
Si Si1 0.000000 0.176268 0.250000
Si Si2 0.204476 0.245528 0.363635
Si Si3 0.369257 0.813119 0.355476
Si Si4 0.166401 0.872715 0.235669
Si Si5 0.373996 0.678794 0.008281
Si Si6 0.360517 0.526839 0.150091
Si Si7 0.634190 0.040727 0.161806
O O1 0.893466 0.228342 0.256017
O O2 0.956454 0.124761 0.501246
O O3 0.154400 0.201539 0.625945
O O4 0.258571 0.314570 0.428286
O O5 0.326881 0.210903 0.152724
O O6 0.500000 0.845320 0.250000
O O7 0.272306 0.865382 0.338990
O O8 0.374735 0.745231 0.181533
O O9 0.234685 0.920865 0.985572
O O10 0.500000 0.675442 0.750000
O O11 0.362621 0.608879 0.165895
O O12 0.305727 0.494801 0.440569
O O13 0.500000 0.500000 0.000000
O O14 0.500000 0.077271 0.250000
O O15 0.634096 0.008975 0.428225
#
# Coordination Sequence:
#
# PCOD9232056 Si02
#       7
#     2   4   4   4   4   4   4
#     4  10  22  44  62  88 120 166 218 264 324 378
#     4  10  22  37  59  87 120 161 204 267 318 379
#     4  10  21  30  55  88 121 158 197 258 320 387
#     4  10  23  39  64  87 125 164 209 265 319 375
#     4  11  20  32  52  85 127 158 212 257 323 388
#     4  10  21  32  50  78 121 178 206 254 309 392
#     4  10  24  42  65  98 134 170 210 257 317 392
#
# _framework density 21.775421999999999
#
# number of rings (size 3 to 8) (size 9 to 14) (size 15 to 20)
#    0.000    1.846    3.077    0.462   10.769    0.615 
#    0.000    0.769    0.000    0.000    0.000    1.077 
#    0.000    0.000    0.000    0.000    0.000    0.000 
#
# Total GULP energy -144785.934179 kJ/mol
# GULP energy per Si atom -5568.689776 kJ/mol
# Density = 2.172586 g / cm^3
# Si number density = 21.775422 Si / 1000 Ang^3
#
#
#
# Elastic Constant Matrix: (Units=GPa)
#
#
# Indices 1 2 3 4 5 6 
#
# 1 79.7966 17.2340 3.0409 0.0000 -5.4432 0.0000
# 2 17.2340 44.5748 16.2623 0.0000 3.2731 0.0000
# 3 3.0409 16.2623 118.4920 0.0000 6.5876 0.0000
# 4 0.0000 0.0000 0.0000 26.7950 0.0000 12.9419
# 5 -5.4432 3.2731 6.5876 0.0000 37.6233 0.0000
# 6 0.0000 0.0000 0.0000 12.9419 0.0000 21.3070
#
#
#
# Elastic Compliance Matrix: (Units=1/GPa)
#
#
# Indices 1 2 3 4 5 6 
#
# 1 0.013911 -0.005662 0.000284 0.000000 0.002456 0.000000
# 2 -0.005662 0.026006 -0.003284 0.000000 -0.002507 0.000000
# 3 0.000284 -0.003284 0.008952 0.000000 -0.001241 0.000000
# 4 0.000000 0.000000 0.000000 0.052815 0.000000 -0.032080
# 5 0.002456 -0.002507 -0.001241 0.000000 0.027370 0.000000
# 6 0.000000 0.000000 0.000000 -0.032080 0.000000 0.066418
#
#
# Mechanical properties :
#
#
# Convention : Reuss Voigt Hill
#
# Bulk Modulus (GPa) = 31.70315 35.10420 33.40367
# Shear Modulus (GPa) = 22.39013 30.90014 26.64514
#
# Velocity S-wave (km/s) = 3.21008 3.77110 3.50184
# Velocity P-wave (km/s) = 5.32262 5.92601 5.63240
#
# Compressibility (1/GPa) = 0.03154261
#
# Stress axis : x y z
#
# Youngs Moduli (GPa) = 71.88304 38.45298 111.70863
#
# Poissons Ratio (x) = 0.21774 -0.03168
# Poissons Ratio (y) = 0.40703 0.36690
# Poissons Ratio (z) = -0.02038 0.12630
#
# Static dielectric constant tensor:
#      x y z
#    x 1.863480 0.000000 0.024390 
#    y 0.000000 1.849050 0.000000 
#    z 0.024390 0.000000 1.874600 
# 
# From -- ./inp_files/4044.got.cif
#   From: 2010.05.17/outbox.cif.g08.bks.cpg/sg13_3_cif.got.tgz:4044.got - 2010.06.03 16:44:36.
