data_PCOD9232524
_publ_section_title
;
Structure prediction by ZEFSAII (Michael W. Deem and Ramdas Pophale) SiO2 
 PCOD9232524
Probable space group: P 2/C
;
_chemical_formula_sum "Si O2"
_cell_formula_units_Z 32
_cell_length_a 14.543402
_cell_length_b 20.606687
_cell_length_c 14.755106
_cell_angle_alpha 90.000000
_cell_angle_beta 160.836411
_cell_angle_gamma 90.000000
_cell_volume 1451.586760
_symmetry_space_group_name_H-M "P 2/C"
_symmetry_group_IT_number 13
_symmetry_cell_setting 'monoclinic'
loop_
_space_group_symop_operation_xyz
x,y,z
-x,y,1/2-z
-x,-y,-z
x,-y,1/2+z
loop_
_atom_site_type_symbol
_atom_site_label
_atom_site_fract_x
_atom_site_fract_y
_atom_site_fract_z
Si Si1 0.350218 0.766713 0.347108
Si Si2 0.935050 0.056703 0.294818
Si Si3 0.713348 0.702398 0.527210
Si Si4 0.903873 0.629518 0.351943
Si Si5 0.337055 0.585450 0.894874
Si Si6 0.815164 0.850675 0.833391
Si Si7 0.270929 0.465203 0.957258
Si Si8 0.433941 0.971750 0.794439
O O1 0.524445 0.746636 0.418802
O O2 0.163355 0.705704 0.205215
O O3 0.598866 0.791478 0.642872
O O4 0.129359 0.824904 0.135043
O O5 0.806415 0.118095 0.224942
O O6 0.000000 0.068861 0.250000
O O7 0.222809 0.032334 0.606330
O O8 0.722590 0.996106 0.106236
O O9 0.797391 0.639285 0.663903
O O10 0.000000 0.730366 0.750000
O O11 0.500000 0.682593 0.250000
O O12 0.834447 0.600731 0.188784
O O13 0.191194 0.601399 0.662028
O O14 0.662720 0.601985 0.192575
O O15 0.331144 0.514201 0.930903
O O16 0.712444 0.908900 0.801157
O O17 0.000000 0.496515 0.750000
O O18 0.500000 0.458397 0.250000
O O19 0.500000 0.961258 0.750000
#
# Coordination Sequence:
#
# PCOD9232524 Si02
#       8
#     4   4   4   4   4   4   4   4
#     4  11  25  39  58  86 121 167 212 239 290 373
#     4  10  21  37  60  91 123 153 190 248 316 372
#     4  11  21  37  58  85 122 160 199 256 312 367
#     4  11  23  43  61  83 124 167 199 247 309 369
#     4  11  21  39  64  89 116 156 204 250 314 383
#     4  12  22  39  62  88 121 162 207 253 294 363
#     4  12  24  39  63  95 120 149 202 266 316 365
#     4  10  21  39  62  89 119 154 201 255 311 358
#
# _framework density 22.044841999999999
#
# number of rings (size 3 to 8) (size 9 to 14) (size 15 to 20)
#    0.000    1.000    0.000    9.000    0.000    1.500 
#    0.000    1.875    0.000    0.000    0.000    0.000 
#    0.000    0.000    0.000    0.000    0.000    0.000 
#
# Total GULP energy -178694.201993 kJ/mol
# GULP energy per Si atom -5584.193812 kJ/mol
# Density = 2.199467 g / cm^3
# Si number density = 22.044842 Si / 1000 Ang^3
#
#
#
# Elastic Constant Matrix: (Units=GPa)
#
#
# Indices 1 2 3 4 5 6 
#
# 1 59.2399 30.5878 17.2955 0.0000 2.7139 0.0000
# 2 30.5878 76.8800 9.7737 0.0000 3.0298 0.0000
# 3 17.2955 9.7737 111.7618 0.0000 -2.6080 0.0000
# 4 0.0000 0.0000 0.0000 19.5464 0.0000 8.2460
# 5 2.7139 3.0298 -2.6080 0.0000 31.9134 0.0000
# 6 0.0000 0.0000 0.0000 8.2460 0.0000 0.0196
#
#
#
# Elastic Compliance Matrix: (Units=1/GPa)
#
#
# Indices 1 2 3 4 5 6 
#
# 1 0.022059 -0.008380 -0.002711 0.000000 -0.001302 0.000000
# 2 -0.008380 0.016395 -0.000157 0.000000 -0.000857 0.000000
# 3 -0.002711 -0.000157 0.009405 0.000000 0.001014 0.000000
# 4 0.000000 0.000000 0.000000 -0.000290 0.000000 0.121959
# 5 -0.001302 -0.000857 0.001014 0.000000 0.031610 0.000000
# 6 0.000000 0.000000 0.000000 0.121959 0.000000 -0.289094
#
#
# Mechanical properties :
#
#
# Convention : Reuss Voigt Hill
#
# Bulk Modulus (GPa) = 39.42961 40.35509 39.89235
# Shear Modulus (GPa) = -27.93833 22.97754 -2.48039
#
# Velocity S-wave (km/s) = -3.56384 3.23198 -1.06189
# Velocity P-wave (km/s) = 0.99517 5.68096 4.07821
#
# Compressibility (1/GPa) = 0.02536165
#
# Stress axis : x y z
#
# Youngs Moduli (GPa) = 45.33324 60.99320 106.33156
#
# Poissons Ratio (x) = 0.51115 0.28828
# Poissons Ratio (y) = 0.37991 0.01668
# Poissons Ratio (z) = 0.12291 0.00957
#
# Static dielectric constant tensor:
#      x y z
#    x 1.903490 0.000000 -0.000570 
#    y 0.000000 1.860930 0.000000 
#    z -0.000570 0.000000 1.784070 
# 
# From -- ./inp_files/54020.got.cif
#   From: 2010.05.17/outbox.cif.g08.bks.cpg/sg13_28_cif.got.tgz:54020.got - 2010.06.03 16:44:36.
