data_PCOD9232617
_publ_section_title
;
Structure prediction by ZEFSAII (Michael W. Deem and Ramdas Pophale) SiO2 
 PCOD9232617
Probable space group: P 2/C
;
_chemical_formula_sum "Si O2"
_cell_formula_units_Z 26
_cell_length_a 14.787817
_cell_length_b 8.941222
_cell_length_c 9.536914
_cell_angle_alpha 90.000000
_cell_angle_beta 70.852345
_cell_angle_gamma 90.000000
_cell_volume 1191.219763
_symmetry_space_group_name_H-M "P 2/C"
_symmetry_group_IT_number 13
_symmetry_cell_setting 'monoclinic'
loop_
_space_group_symop_operation_xyz
x,y,z
-x,y,1/2-z
-x,-y,-z
x,-y,1/2+z
loop_
_atom_site_type_symbol
_atom_site_label
_atom_site_fract_x
_atom_site_fract_y
_atom_site_fract_z
Si Si1 0.283222 0.253350 0.248069
Si Si2 0.487397 0.156417 0.087085
Si Si3 0.160685 0.991977 0.693228
Si Si4 0.309152 0.776968 0.047923
Si Si5 0.093934 0.175501 0.967600
Si Si6 0.183199 0.447357 0.762888
Si Si7 0.000000 0.632068 0.750000
O O1 0.382961 0.227857 0.115936
O O2 0.298929 0.182570 0.391365
O O3 0.253124 0.424069 0.281270
O O4 0.192563 0.170539 0.228353
O O5 0.500000 0.139185 0.250000
O O6 0.578956 0.249593 0.984895
O O7 0.500000 0.000000 0.000000
O O8 0.259241 0.086943 0.655315
O O9 0.084504 0.084969 0.824965
O O10 0.132763 0.956603 0.548358
O O11 0.242113 0.637856 0.113862
O O12 0.157917 0.319417 0.889538
O O13 0.017918 0.259873 0.106198
O O14 0.087916 0.523245 0.747769
#
# Coordination Sequence:
#
# PCOD9232617 Si02
#       7
#     4   4   4   4   4   4   2
#     4  11  21  39  65  94 137 172 221 272 334 400
#     4  10  21  37  64  98 134 175 221 270 325 395
#     4  11  21  41  67  97 131 174 220 277 337 393
#     4  10  22  41  66  96 133 177 220 272 334 396
#     4  11  25  43  68  98 132 175 226 280 342 403
#     4  11  25  43  70  93 136 178 224 278 346 408
#     4  12  24  46  68 102 128 180 230 284 346 408
#
# _framework density 21.826366
#
# number of rings (size 3 to 8) (size 9 to 14) (size 15 to 20)
#    0.000    1.231    4.615    1.385    0.000    1.231 
#    0.000    3.077    0.000    0.000    0.000    0.000 
#    0.000    0.000    0.000    0.000    0.000    0.000 
#
# Total GULP energy -144875.446675 kJ/mol
# GULP energy per Si atom -5572.132564 kJ/mol
# Density = 2.177669 g / cm^3
# Si number density = 21.826366 Si / 1000 Ang^3
#
#
#
# Elastic Constant Matrix: (Units=GPa)
#
#
# Indices 1 2 3 4 5 6 
#
# 1 80.5898 34.0437 45.9955 0.0000 -35.2402 0.0000
# 2 34.0437 108.2251 50.0739 0.0000 -22.3887 0.0000
# 3 45.9955 50.0739 119.0653 0.0000 -28.8851 0.0000
# 4 0.0000 0.0000 0.0000 38.4637 0.0000 -1.7232
# 5 -35.2402 -22.3887 -28.8851 0.0000 37.2630 0.0000
# 6 0.0000 0.0000 0.0000 -1.7232 0.0000 24.5589
#
#
#
# Elastic Compliance Matrix: (Units=1/GPa)
#
#
# Indices 1 2 3 4 5 6 
#
# 1 0.023180 -0.001814 -0.003865 0.000000 0.017836 0.000000
# 2 -0.001814 0.012089 -0.003741 0.000000 0.002648 0.000000
# 3 -0.003865 -0.003741 0.012357 0.000000 0.003676 0.000000
# 4 0.000000 0.000000 0.000000 0.026080 0.000000 0.001830
# 5 0.017836 0.002648 0.003676 0.000000 0.048145 0.000000
# 6 0.000000 0.000000 0.000000 0.001830 0.000000 0.040847
#
#
# Mechanical properties :
#
#
# Convention : Reuss Voigt Hill
#
# Bulk Modulus (GPa) = 34.73806 63.12293 48.93050
# Shear Modulus (GPa) = 26.15988 31.90826 29.03407
#
# Velocity S-wave (km/s) = 3.46576 3.82765 3.65119
# Velocity P-wave (km/s) = 5.65380 6.96547 6.34363
#
# Compressibility (1/GPa) = 0.02878687
#
# Stress axis : x y z
#
# Youngs Moduli (GPa) = 43.14139 82.71736 80.92662
#
# Poissons Ratio (x) = 0.15002 0.31276
# Poissons Ratio (y) = 0.07824 0.30276
# Poissons Ratio (z) = 0.16673 0.30946
#
# Static dielectric constant tensor:
#      x y z
#    x 1.858460 0.000000 -0.013330 
#    y 0.000000 1.801500 0.000000 
#    z -0.013330 0.000000 1.853500 
# 
# From -- ./inp_files/36090.got.cif
#   From: 2010.05.17/outbox.cif.g08.bks.cpg/sg13_19_cif.got.tgz:36090.got - 2010.06.03 16:44:36.
