data_PCOD9232100
_publ_section_title
;
Structure prediction by ZEFSAII (Michael W. Deem and Ramdas Pophale) SiO2 
 PCOD9232100
Probable space group: P 2/C
;
_chemical_formula_sum "Si O2"
_cell_formula_units_Z 32
_cell_length_a 14.759203
_cell_length_b 8.728142
_cell_length_c 29.253359
_cell_angle_alpha 90.000000
_cell_angle_beta 150.503683
_cell_angle_gamma 90.000000
_cell_volume 1855.452871
_symmetry_space_group_name_H-M "P 2/C"
_symmetry_group_IT_number 13
_symmetry_cell_setting 'monoclinic'
loop_
_space_group_symop_operation_xyz
x,y,z
-x,y,1/2-z
-x,-y,-z
x,-y,1/2+z
loop_
_atom_site_type_symbol
_atom_site_label
_atom_site_fract_x
_atom_site_fract_y
_atom_site_fract_z
Si Si1 0.769409 0.695578 0.829924
Si Si2 0.588618 0.363439 0.905130
Si Si3 0.360177 0.548550 0.477891
Si Si4 0.651730 0.665626 0.880631
Si Si5 0.903917 0.855492 0.573683
Si Si6 0.180096 0.208322 0.953127
Si Si7 0.180130 0.581641 0.213478
Si Si8 0.996017 0.366264 0.197228
O O1 0.753111 0.688614 0.877214
O O2 0.561522 0.715626 0.719565
O O3 0.831951 0.533103 0.835259
O O4 0.914671 0.822241 0.877030
O O5 0.651472 0.486509 0.894760
O O6 0.374577 0.332281 0.801080
O O7 0.599511 0.453915 0.958139
O O8 0.728865 0.223484 0.971901
O O9 0.500000 0.500000 0.500000
O O10 0.326135 0.722256 0.480405
O O11 0.166183 0.489952 0.373898
O O12 0.742031 0.753535 0.962444
O O13 0.944059 0.762305 0.637834
O O14 0.861799 0.029719 0.567074
O O15 0.991774 0.304527 0.863617
O O16 0.164907 0.463243 0.249936
O O17 0.000000 0.303843 0.250000
#
# Coordination Sequence:
#
# PCOD9232100 Si02
#       8
#     4   4   4   4   4   4   4   4
#     4   9  18  34  56  78 100 134 179 222 260 305
#     4   9  18  33  52  74 100 133 176 220 255 302
#     4   9  17  32  53  72  93 128 175 217 252 298
#     4   9  18  34  56  78 100 135 182 220 256 309
#     4  10  21  34  49  77 113 140 167 211 271 327
#     4  10  21  34  50  77 110 138 167 211 268 323
#     4   9  18  33  53  74  97 132 178 220 256 303
#     4   9  17  32  52  72  96 130 173 215 255 303
#
# _framework density 17.246462999999999
#
# number of rings (size 3 to 8) (size 9 to 14) (size 15 to 20)
#    0.000    2.750    0.000    3.000    0.000    4.500 
#    0.000    6.250    0.000    3.000    0.000    0.000 
#    0.000    0.000    0.000    0.000    0.000    0.000 
#
# Total GULP energy -178185.998775 kJ/mol
# GULP energy per Si atom -5568.312462 kJ/mol
# Density = 1.720721 g / cm^3
# Si number density = 17.246463 Si / 1000 Ang^3
#
#
#
# Elastic Constant Matrix: (Units=GPa)
#
#
# Indices 1 2 3 4 5 6 
#
# 1 126.5847 50.2078 32.1265 0.0000 1.2011 0.0000
# 2 50.2078 102.4067 32.3440 0.0000 11.9922 0.0000
# 3 32.1265 32.3440 59.6926 0.0000 0.3442 0.0000
# 4 0.0000 0.0000 0.0000 8.7852 0.0000 4.3451
# 5 1.2011 11.9922 0.3442 0.0000 25.0998 0.0000
# 6 0.0000 0.0000 0.0000 4.3451 0.0000 15.5686
#
#
#
# Elastic Compliance Matrix: (Units=1/GPa)
#
#
# Indices 1 2 3 4 5 6 
#
# 1 0.010408 -0.004241 -0.003313 0.000000 0.001573 0.000000
# 2 -0.004241 0.014334 -0.005446 0.000000 -0.006571 0.000000
# 3 -0.003313 -0.005446 0.021472 0.000000 0.002466 0.000000
# 4 0.000000 0.000000 0.000000 0.132056 0.000000 -0.036856
# 5 0.001573 -0.006571 0.002466 0.000000 0.042871 0.000000
# 6 0.000000 0.000000 0.000000 -0.036856 0.000000 0.074518
#
#
# Mechanical properties :
#
#
# Convention : Reuss Voigt Hill
#
# Bulk Modulus (GPa) = 49.47040 57.56006 53.51523
# Shear Modulus (GPa) = 15.22548 21.49110 18.35829
#
# Velocity S-wave (km/s) = 2.97445 3.53387 3.26616
# Velocity P-wave (km/s) = 6.36735 7.07802 6.73207
#
# Compressibility (1/GPa) = 0.02021411
#
# Stress axis : x y z
#
# Youngs Moduli (GPa) = 96.08330 69.76555 46.57169
#
# Poissons Ratio (x) = 0.29585 0.15428
# Poissons Ratio (y) = 0.40745 0.25365
# Poissons Ratio (z) = 0.31830 0.37997
#
# Static dielectric constant tensor:
#      x y z
#    x 1.615970 0.000000 0.016010 
#    y 0.000000 1.563400 0.000000 
#    z 0.016010 0.000000 1.607320 
# 
# From -- ./inp_files/96960.got.cif
#   From: 2010.05.17/outbox.cif.g08.bks.cpg/sg13_49_cif.got.tgz:96960.got - 2010.06.03 16:44:36.
