data_PCOD9232160
_publ_section_title
;
Structure prediction by ZEFSAII (Michael W. Deem and Ramdas Pophale) SiO2 
 PCOD9232160
Probable space group: P 2/C
;
_chemical_formula_sum "Si O2"
_cell_formula_units_Z 32
_cell_length_a 7.325905
_cell_length_b 14.343748
_cell_length_c 14.117486
_cell_angle_alpha 90.000000
_cell_angle_beta 87.883040
_cell_angle_gamma 90.000000
_cell_volume 1482.466162
_symmetry_space_group_name_H-M "P 2/C"
_symmetry_group_IT_number 13
_symmetry_cell_setting 'monoclinic'
loop_
_space_group_symop_operation_xyz
x,y,z
-x,y,1/2-z
-x,-y,-z
x,-y,1/2+z
loop_
_atom_site_type_symbol
_atom_site_label
_atom_site_fract_x
_atom_site_fract_y
_atom_site_fract_z
Si Si1 0.131220 0.921191 0.953492
Si Si2 0.820787 0.615823 0.949014
Si Si3 0.223127 0.488236 0.231433
Si Si4 0.290699 0.672454 0.114984
Si Si5 0.245325 0.571453 0.934212
Si Si6 0.623222 0.117479 0.878446
Si Si7 0.930629 0.769498 0.058919
Si Si8 0.770263 0.935785 0.185432
O O1 0.167059 0.962519 0.849773
O O2 0.306604 0.909365 0.018898
O O3 0.029842 0.824234 0.971274
O O4 0.000000 0.000000 0.000000
O O5 0.743794 0.591045 0.848235
O O6 0.041294 0.614229 0.930318
O O7 0.776096 0.527206 0.013818
O O8 0.778889 0.706951 0.011084
O O9 0.295424 0.587149 0.188889
O O10 0.307790 0.453546 0.328071
O O11 0.000000 0.498784 0.250000
O O12 0.385890 0.770504 0.135285
O O13 0.076940 0.703097 0.108151
O O14 0.348289 0.634751 0.009499
O O15 0.432747 0.073641 0.853594
O O16 0.765545 0.079079 0.797452
O O17 0.868376 0.848284 0.133105
#
# Coordination Sequence:
#
# PCOD9232160 Si02
#       8
#     4   4   4   4   4   4   4   4
#     4   9  19  35  56  78 105 128 167 223 274 312
#     4   8  14  24  39  69 100 132 166 204 257 311
#     4   9  15  23  44  71 104 139 167 212 267 304
#     4   9  18  28  48  79 101 130 180 222 255 308
#     4   8  14  25  40  68 106 134 163 212 263 304
#     4  10  21  35  55  79 104 138 178 213 261 341
#     4   9  17  30  50  75 107 129 172 223 261 310
#     4  10  21  35  54  78 103 141 168 218 272 324
#
# _framework density 21.585654000000002
#
# number of rings (size 3 to 8) (size 9 to 14) (size 15 to 20)
#    0.000    3.000    0.000    2.625    3.500    4.000 
#    0.000    0.000   35.750    3.000    0.000    0.000 
#    0.000    0.000    0.000    0.000    0.000    0.000 
#
# Total GULP energy -178430.920798 kJ/mol
# GULP energy per Si atom -5575.966275 kJ/mol
# Density = 2.153652 g / cm^3
# Si number density = 21.585654 Si / 1000 Ang^3
#
#
#
# Elastic Constant Matrix: (Units=GPa)
#
#
# Indices 1 2 3 4 5 6 
#
# 1 40.7448 6.8974 3.1133 0.0000 6.6490 0.0000
# 2 6.8974 38.4403 19.9397 0.0000 6.9428 0.0000
# 3 3.1133 19.9397 92.8704 0.0000 -5.6564 0.0000
# 4 0.0000 0.0000 0.0000 27.4109 0.0000 0.8818
# 5 6.6490 6.9428 -5.6564 0.0000 9.1392 0.0000
# 6 0.0000 0.0000 0.0000 0.8818 0.0000 15.7531
#
#
#
# Elastic Compliance Matrix: (Units=1/GPa)
#
#
# Indices 1 2 3 4 5 6 
#
# 1 0.028311 0.000121 -0.002323 0.000000 -0.022127 0.000000
# 2 0.000121 0.037604 -0.010208 0.000000 -0.034973 0.000000
# 3 -0.002323 -0.010208 0.014146 0.000000 0.018200 0.000000
# 4 0.000000 0.000000 0.000000 0.036548 0.000000 -0.002046
# 5 -0.022127 -0.034973 0.018200 0.000000 0.163349 0.000000
# 6 0.000000 0.000000 0.000000 -0.002046 0.000000 0.063594
#
#
# Mechanical properties :
#
#
# Convention : Reuss Voigt Hill
#
# Bulk Modulus (GPa) = 18.10215 25.77291 21.93753
# Shear Modulus (GPa) = 12.92712 19.93431 16.43072
#
# Velocity S-wave (km/s) = 2.44985 3.04221 2.76195
# Velocity P-wave (km/s) = 4.05052 4.93009 4.51179
#
# Compressibility (1/GPa) = 0.05524206
#
# Stress axis : x y z
#
# Youngs Moduli (GPa) = 35.32228 26.59277 70.69280
#
# Poissons Ratio (x) = -0.00323 0.16420
# Poissons Ratio (y) = -0.00429 0.72163
# Poissons Ratio (z) = 0.08205 0.27146
#
# Static dielectric constant tensor:
#      x y z
#    x 1.875600 0.000000 -0.026090 
#    y 0.000000 1.756160 0.000000 
#    z -0.026090 0.000000 1.820030 
# 
# From -- ./inp_files/47492.got.cif
#   From: 2010.05.17/outbox.cif.g08.bks.cpg/sg13_24_cif.got.tgz:47492.got - 2010.06.03 16:44:36.
