data_PCOD9232087
_publ_section_title
;
Structure prediction by ZEFSAII (Michael W. Deem and Ramdas Pophale) SiO2 
 PCOD9232087
Probable space group: P 2/C
;
_chemical_formula_sum "Si O2"
_cell_formula_units_Z 28
_cell_length_a 12.519604
_cell_length_b 5.468425
_cell_length_c 25.079868
_cell_angle_alpha 90.000000
_cell_angle_beta 56.121043
_cell_angle_gamma 90.000000
_cell_volume 1425.508326
_symmetry_space_group_name_H-M "P 2/C"
_symmetry_group_IT_number 13
_symmetry_cell_setting 'monoclinic'
loop_
_space_group_symop_operation_xyz
x,y,z
-x,y,1/2-z
-x,-y,-z
x,-y,1/2+z
loop_
_atom_site_type_symbol
_atom_site_label
_atom_site_fract_x
_atom_site_fract_y
_atom_site_fract_z
Si Si1 0.727149 0.657613 0.138757
Si Si2 0.846020 0.547177 0.802128
Si Si3 0.017863 0.070400 0.907782
Si Si4 0.369405 0.506794 0.221365
Si Si5 0.510718 0.993675 0.683153
Si Si6 0.895310 0.954746 0.327069
Si Si7 0.883365 0.689089 0.537722
O O1 0.864921 0.736548 0.124420
O O2 0.650695 0.533776 0.209048
O O3 0.654296 0.896368 0.136028
O O4 0.755887 0.464230 0.084348
O O5 0.766821 0.532365 0.769616
O O6 0.821324 0.301626 0.842612
O O7 0.000000 0.553769 0.750000
O O8 0.813844 0.800873 0.840149
O O9 0.968151 0.027624 0.862722
O O10 0.082620 0.841843 0.919119
O O11 0.901610 0.149930 0.979667
O O12 0.424208 0.773055 0.189207
O O13 0.457496 0.272136 0.181225
O O14 0.500000 0.982863 0.750000
O O15 0.000000 0.947635 0.250000
O O16 0.000000 0.500000 0.500000
#
# Coordination Sequence:
#
# PCOD9232087 Si02
#       7
#     4   4   4   4   4   4   4
#     4  10  21  34  60  81 121 162 200 242 307 364
#     4  10  21  34  51  81 108 154 193 225 301 355
#     4  10  21  36  58  87 126 152 199 253 296 369
#     4  11  22  36  54  81 126 153 194 249 289 365
#     4  10  22  35  52  84 115 161 196 238 298 360
#     4  10  21  33  54  84 115 152 190 231 300 362
#     4   9  21  36  56  86 119 159 202 241 308 354
#
# _framework density 19.642116999999999
#
# number of rings (size 3 to 8) (size 9 to 14) (size 15 to 20)
#    0.000    2.000    0.000    3.857   14.000    0.000 
#    0.000    0.000    0.000    0.000    0.000    6.000 
#    0.000    0.000    0.000    0.000    0.000    0.000 
#
# Total GULP energy -156019.763296 kJ/mol
# GULP energy per Si atom -5572.134403 kJ/mol
# Density = 1.959741 g / cm^3
# Si number density = 19.642117 Si / 1000 Ang^3
#
#
#
# Elastic Constant Matrix: (Units=GPa)
#
#
# Indices 1 2 3 4 5 6 
#
# 1 72.1702 16.6216 11.2135 0.0000 0.0987 0.0000
# 2 16.6216 146.2900 15.0798 0.0000 -5.6501 0.0000
# 3 11.2135 15.0798 43.1961 0.0000 0.0496 0.0000
# 4 0.0000 0.0000 0.0000 22.1931 0.0000 4.9214
# 5 0.0987 -5.6501 0.0496 0.0000 20.7750 0.0000
# 6 0.0000 0.0000 0.0000 4.9214 0.0000 5.8153
#
#
#
# Elastic Compliance Matrix: (Units=1/GPa)
#
#
# Indices 1 2 3 4 5 6 
#
# 1 0.014685 -0.001340 -0.003344 0.000000 -0.000426 0.000000
# 2 -0.001340 0.007292 -0.002200 0.000000 0.001995 0.000000
# 3 -0.003344 -0.002200 0.024787 0.000000 -0.000642 0.000000
# 4 0.000000 0.000000 0.000000 0.055469 0.000000 -0.046942
# 5 -0.000426 0.001995 -0.000642 0.000000 0.048681 0.000000
# 6 0.000000 0.000000 0.000000 -0.046942 0.000000 0.211685
#
#
# Mechanical properties :
#
#
# Convention : Reuss Voigt Hill
#
# Bulk Modulus (GPa) = 30.30693 38.60958 34.45825
# Shear Modulus (GPa) = 12.90773 24.33944 18.62359
#
# Velocity S-wave (km/s) = 2.56627 3.52397 3.08254
# Velocity P-wave (km/s) = 4.92382 6.02138 5.50005
#
# Compressibility (1/GPa) = 0.03299576
#
# Stress axis : x y z
#
# Youngs Moduli (GPa) = 68.09696 137.13960 40.34377
#
# Poissons Ratio (x) = 0.18381 0.13490
# Poissons Ratio (y) = 0.09127 0.08875
# Poissons Ratio (z) = 0.22770 0.30170
#
# Static dielectric constant tensor:
#      x y z
#    x 1.721200 0.000000 -0.059450 
#    y 0.000000 1.820910 0.000000 
#    z -0.059450 0.000000 1.677850 
# 
# From -- ./inp_files/77480.got.cif
#   From: 2010.05.17/outbox.cif.g08.bks.cpg/sg13_39_cif.got.tgz:77480.got - 2010.06.03 16:44:36.
