data_PCOD9232573
_publ_section_title
;
Structure prediction by ZEFSAII (Michael W. Deem and Ramdas Pophale) SiO2 
 PCOD9232573
Probable space group: P 2/C
;
_chemical_formula_sum "Si O2"
_cell_formula_units_Z 22
_cell_length_a 10.885697
_cell_length_b 11.421356
_cell_length_c 9.476424
_cell_angle_alpha 90.000000
_cell_angle_beta 117.225932
_cell_angle_gamma 90.000000
_cell_volume 1047.665010
_symmetry_space_group_name_H-M "P 2/C"
_symmetry_group_IT_number 13
_symmetry_cell_setting 'monoclinic'
loop_
_space_group_symop_operation_xyz
x,y,z
-x,y,1/2-z
-x,-y,-z
x,-y,1/2+z
loop_
_atom_site_type_symbol
_atom_site_label
_atom_site_fract_x
_atom_site_fract_y
_atom_site_fract_z
Si Si1 0.636941 0.874198 0.747210
Si Si2 0.734336 0.073645 0.007521
Si Si3 0.000000 0.928919 0.250000
Si Si4 0.881938 0.741696 0.408651
Si Si5 0.167052 0.552963 0.335890
Si Si6 0.172700 0.349012 0.141558
O O1 0.500000 0.826892 0.750000
O O2 0.627926 0.906654 0.578376
O O3 0.755293 0.776312 0.818397
O O4 0.677573 0.989045 0.856799
O O5 0.870340 0.009221 0.141437
O O6 0.783858 0.195191 0.967336
O O7 0.954612 0.843891 0.353657
O O8 0.802402 0.657435 0.258338
O O9 0.007071 0.671470 0.548095
O O10 0.212761 0.430882 0.293139
O O11 0.211877 0.585200 0.516504
O O12 0.000000 0.552246 0.250000
#
# Coordination Sequence:
#
# PCOD9232573 Si02
#       6
#     4   4   2   4   4   4
#     4  12  27  45  64  87 126 175 219 261 299 370
#     4  12  24  40  66  93 130 162 215 252 328 375
#     4  12  18  38  60 102 128 160 184 272 322 376
#     4  11  19  36  63  96 130 160 191 262 324 371
#     4  10  21  37  62  93 133 158 198 254 322 377
#     4  11  23  40  63  93 129 161 209 255 314 377
#
# _framework density 20.999078999999998
#
# number of rings (size 3 to 8) (size 9 to 14) (size 15 to 20)
#    0.000    0.727    6.364    4.364    5.091    0.000 
#    0.000    0.909    0.000    0.000    0.000    0.000 
#    0.000    0.000    0.000    0.000    0.000    0.000 
#
# Total GULP energy -123102.271043 kJ/mol
# GULP energy per Si atom -5595.557775 kJ/mol
# Density = 2.095128 g / cm^3
# Si number density = 20.999079 Si / 1000 Ang^3
#
#
#
# Elastic Constant Matrix: (Units=GPa)
#
#
# Indices 1 2 3 4 5 6 
#
# 1 48.7772 13.9074 24.6029 0.0000 -29.0177 0.0000
# 2 13.9074 91.0443 45.9093 0.0000 -26.8907 0.0000
# 3 24.6029 45.9093 70.4991 0.0000 -36.3806 0.0000
# 4 0.0000 0.0000 0.0000 38.5419 0.0000 -22.4522
# 5 -29.0177 -26.8907 -36.3806 0.0000 34.0062 0.0000
# 6 0.0000 0.0000 0.0000 -22.4522 0.0000 18.5344
#
#
#
# Elastic Compliance Matrix: (Units=1/GPa)
#
#
# Indices 1 2 3 4 5 6 
#
# 1 0.045056 0.004129 0.006949 0.000000 0.049146 0.000000
# 2 0.004129 0.016914 -0.008339 0.000000 0.007977 0.000000
# 3 0.006949 -0.008339 0.037611 0.000000 0.039572 0.000000
# 4 0.000000 0.000000 0.000000 0.088154 0.000000 0.106788
# 5 0.049146 0.007977 0.039572 0.000000 0.119987 0.000000
# 6 0.000000 0.000000 0.000000 0.106788 0.000000 0.183314
#
#
# Mechanical properties :
#
#
# Convention : Reuss Voigt Hill
#
# Bulk Modulus (GPa) = 9.51845 42.12886 25.82365
# Shear Modulus (GPa) = 9.60471 26.60990 18.10730
#
# Velocity S-wave (km/s) = 2.14098 3.56363 2.93966
# Velocity P-wave (km/s) = 3.26410 6.08592 4.88328
#
# Compressibility (1/GPa) = 0.10505916
#
# Stress axis : x y z
#
# Youngs Moduli (GPa) = 22.19456 59.12286 26.58793
#
# Poissons Ratio (x) = -0.24414 -0.18475
# Poissons Ratio (y) = -0.09165 0.22171
# Poissons Ratio (z) = -0.15422 0.49301
#
# Static dielectric constant tensor:
#      x y z
#    x 1.747110 0.000000 -0.023980 
#    y 0.000000 1.753650 0.000000 
#    z -0.023980 0.000000 1.770440 
# 
# From -- ./inp_files/15562.got.cif
#   From: 2010.05.17/outbox.cif.g08.bks.cpg/sg13_8_cif.got.tgz:15562.got - 2010.06.03 16:44:36.
