data_PCOD9232643
_publ_section_title
;
Structure prediction by ZEFSAII (Michael W. Deem and Ramdas Pophale) SiO2 
 PCOD9232643
Probable space group: P 2/C
;
_chemical_formula_sum "Si O2"
_cell_formula_units_Z 28
_cell_length_a 5.033425
_cell_length_b 14.855831
_cell_length_c 18.314316
_cell_angle_alpha 90.000000
_cell_angle_beta 109.649124
_cell_angle_gamma 90.000000
_cell_volume 1289.721311
_symmetry_space_group_name_H-M "P 2/C"
_symmetry_group_IT_number 13
_symmetry_cell_setting 'monoclinic'
loop_
_space_group_symop_operation_xyz
x,y,z
-x,y,1/2-z
-x,-y,-z
x,-y,1/2+z
loop_
_atom_site_type_symbol
_atom_site_label
_atom_site_fract_x
_atom_site_fract_y
_atom_site_fract_z
Si Si1 0.682901 0.239837 0.195957
Si Si2 0.255953 0.283585 0.591824
Si Si3 0.709344 0.367619 0.059936
Si Si4 0.322363 0.597117 0.300167
Si Si5 0.668523 0.900730 0.932992
Si Si6 0.699896 0.893805 0.464407
Si Si7 0.826477 0.444716 0.562499
O O1 0.500000 0.269183 0.250000
O O2 0.724849 0.317915 0.138405
O O3 0.500283 0.160215 0.140455
O O4 0.000000 0.212822 0.250000
O O5 0.256265 0.298972 0.504275
O O6 0.535548 0.310084 0.661616
O O7 0.232564 0.177181 0.593232
O O8 0.040481 0.362496 0.595499
O O9 0.917365 0.452007 0.060222
O O10 0.401322 0.407906 0.014790
O O11 0.500000 0.558099 0.250000
O O12 0.336440 0.541368 0.375330
O O13 0.000000 0.605295 0.250000
O O14 0.622555 0.008153 0.925883
O O15 0.551363 0.871172 0.002115
O O16 0.007820 0.893988 0.962353
#
# Coordination Sequence:
#
# PCOD9232643 Si02
#       7
#     4   4   4   4   4   4   4
#     4  12  26  43  66  95 144 187 219 283 354 417
#     4  11  21  39  69  94 127 170 214 281 330 386
#     4  10  23  40  62  99 127 172 234 270 332 404
#     4  11  23  41  60  89 126 164 208 264 333 395
#     4  10  21  42  62 100 124 166 220 274 328 402
#     4  10  21  37  73  93 125 160 221 281 326 396
#     4  10  22  40  67  92 128 177 220 295 320 387
#
# _framework density 21.710118000000001
#
# number of rings (size 3 to 8) (size 9 to 14) (size 15 to 20)
#    0.000    1.429    2.857    2.143    4.000    1.143 
#    0.000    1.429    0.000    0.000    0.000    0.000 
#    0.000    0.000    0.000    0.000    0.000    0.000 
#
# Total GULP energy -156007.622147 kJ/mol
# GULP energy per Si atom -5571.700791 kJ/mol
# Density = 2.166071 g / cm^3
# Si number density = 21.710118 Si / 1000 Ang^3
#
#
#
# Elastic Constant Matrix: (Units=GPa)
#
#
# Indices 1 2 3 4 5 6 
#
# 1 95.0838 17.3415 31.0391 0.0000 0.0290 0.0000
# 2 17.3415 110.2056 17.2575 0.0000 4.7659 0.0000
# 3 31.0391 17.2575 76.0082 0.0000 11.4415 0.0000
# 4 0.0000 0.0000 0.0000 9.7844 0.0000 -1.1669
# 5 0.0290 4.7659 11.4415 0.0000 31.1949 0.0000
# 6 0.0000 0.0000 0.0000 -1.1669 0.0000 25.7081
#
#
#
# Elastic Compliance Matrix: (Units=1/GPa)
#
#
# Indices 1 2 3 4 5 6 
#
# 1 0.012405 -0.001243 -0.005092 0.000000 0.002046 0.000000
# 2 -0.001243 0.009547 -0.001525 0.000000 -0.000898 0.000000
# 3 -0.005092 -0.001525 0.016455 0.000000 -0.005797 0.000000
# 4 0.000000 0.000000 0.000000 0.102759 0.000000 0.004664
# 5 0.002046 -0.000898 -0.005797 0.000000 0.034318 0.000000
# 6 0.000000 0.000000 0.000000 0.004664 0.000000 0.039110
#
#
# Mechanical properties :
#
#
# Convention : Reuss Voigt Hill
#
# Bulk Modulus (GPa) = 44.07636 45.84154 44.95895
# Shear Modulus (GPa) = 21.01933 27.71480 24.36706
#
# Velocity S-wave (km/s) = 3.11494 3.57681 3.35383
# Velocity P-wave (km/s) = 5.76918 6.18217 5.97924
#
# Compressibility (1/GPa) = 0.02268790
#
# Stress axis : x y z
#
# Youngs Moduli (GPa) = 80.61102 104.74291 60.77334
#
# Poissons Ratio (x) = 0.13022 0.30943
# Poissons Ratio (y) = 0.10022 0.09267
# Poissons Ratio (z) = 0.41044 0.15971
#
# Static dielectric constant tensor:
#      x y z
#    x 1.802880 0.000000 -0.073790 
#    y 0.000000 1.873980 0.000000 
#    z -0.073790 0.000000 1.810370 
# 
# From -- ./inp_files/61420.got.cif
#   From: 2010.05.17/outbox.cif.g08.bks.cpg/sg13_31_cif.got.tgz:61420.got - 2010.06.03 16:44:36.
