data_PCOD9232124
_publ_section_title
;
Structure prediction by ZEFSAII (Michael W. Deem and Ramdas Pophale) SiO2 
 PCOD9232124
Probable space group: P 2/C
;
_chemical_formula_sum "Si O2"
_cell_formula_units_Z 28
_cell_length_a 9.535751
_cell_length_b 11.733025
_cell_length_c 14.742077
_cell_angle_alpha 90.000000
_cell_angle_beta 43.582299
_cell_angle_gamma 90.000000
_cell_volume 1137.083079
_symmetry_space_group_name_H-M "P 2/C"
_symmetry_group_IT_number 13
_symmetry_cell_setting 'monoclinic'
loop_
_space_group_symop_operation_xyz
x,y,z
-x,y,1/2-z
-x,-y,-z
x,-y,1/2+z
loop_
_atom_site_type_symbol
_atom_site_label
_atom_site_fract_x
_atom_site_fract_y
_atom_site_fract_z
Si Si1 0.410160 0.933784 0.413531
Si Si2 0.081843 0.587815 0.579465
Si Si3 0.194386 0.980901 0.701578
Si Si4 0.063386 0.659687 0.371883
Si Si5 0.297377 0.811391 0.937745
Si Si6 0.737098 0.246808 0.253290
Si Si7 0.520753 0.319245 0.641673
O O1 0.321369 0.936018 0.556037
O O2 0.386357 0.808089 0.386010
O O3 0.652686 0.950534 0.307762
O O4 0.320455 0.051450 0.415187
O O5 0.082109 0.629708 0.472288
O O6 0.310909 0.621795 0.499653
O O7 0.044616 0.455209 0.610734
O O8 0.883548 0.651181 0.712051
O O9 0.136518 0.867027 0.782030
O O10 0.000000 0.039148 0.750000
O O11 0.284885 0.680665 0.224244
O O12 0.913661 0.765592 0.424760
O O13 0.292928 0.755863 0.840527
O O14 0.501727 0.769836 0.894700
O O15 0.500000 0.378958 0.750000
#
# Coordination Sequence:
#
# PCOD9232124 Si02
#       7
#     4   4   4   4   4   4   4
#     4  10  22  36  55  85 114 148 189 233 281 344
#     4   9  18  34  53  83 115 149 188 231 288 339
#     4  10  21  36  54  78 111 157 186 225 279 342
#     4   9  19  33  54  83 119 149 182 237 289 336
#     4   9  19  34  57  88 115 146 189 234 290 339
#     4   9  18  34  58  84 109 150 192 234 282 341
#     4  10  21  34  54  86 116 146 182 239 288 331
#
# _framework density 24.624409
#
# number of rings (size 3 to 8) (size 9 to 14) (size 15 to 20)
#    0.000    2.571    0.000    0.857    8.000    0.000 
#    0.000    2.857    0.000    0.857   18.571    0.000 
#    0.000    0.000    0.000    0.000    0.000    0.000 
#
# Total GULP energy -156123.636184 kJ/mol
# GULP energy per Si atom -5575.844149 kJ/mol
# Density = 2.456836 g / cm^3
# Si number density = 24.624409 Si / 1000 Ang^3
#
#
#
# Elastic Constant Matrix: (Units=GPa)
#
#
# Indices 1 2 3 4 5 6 
#
# 1 52.1547 18.9617 38.6307 0.0000 -23.7073 0.0000
# 2 18.9617 102.8477 58.2998 0.0000 -34.0294 0.0000
# 3 38.6307 58.2998 134.4258 0.0000 -42.2633 0.0000
# 4 0.0000 0.0000 0.0000 29.4743 0.0000 -10.8300
# 5 -23.7073 -34.0294 -42.2633 0.0000 45.3572 0.0000
# 6 0.0000 0.0000 0.0000 -10.8300 0.0000 -12.2044
#
#
#
# Elastic Compliance Matrix: (Units=1/GPa)
#
#
# Indices 1 2 3 4 5 6 
#
# 1 0.027237 0.001346 -0.005117 0.000000 0.010478 0.000000
# 2 0.001346 0.014377 -0.004257 0.000000 0.007524 0.000000
# 3 -0.005117 -0.004257 0.012603 0.000000 0.005875 0.000000
# 4 0.000000 0.000000 0.000000 0.025585 0.000000 -0.022704
# 5 0.010478 0.007524 0.005875 0.000000 0.038643 0.000000
# 6 0.000000 0.000000 0.000000 -0.022704 0.000000 -0.061790
#
#
# Mechanical properties :
#
#
# Convention : Reuss Voigt Hill
#
# Bulk Modulus (GPa) = 26.20389 57.91252 42.05820
# Shear Modulus (GPa) = 58.52649 24.09447 41.31048
#
# Velocity S-wave (km/s) = 4.88050 3.13146 4.10032
# Velocity P-wave (km/s) = 6.51334 6.05344 6.28759
#
# Compressibility (1/GPa) = 0.03816227
#
# Stress axis : x y z
#
# Youngs Moduli (GPa) = 36.71431 69.55412 79.34849
#
# Poissons Ratio (x) = -0.09360 0.40599
# Poissons Ratio (y) = -0.04941 0.33776
# Poissons Ratio (z) = 0.18785 0.29607
#
# Static dielectric constant tensor:
#      x y z
#    x 1.998800 0.000000 -0.018260 
#    y 0.000000 1.909160 0.000000 
#    z -0.018260 0.000000 2.063300 
# 
# From -- ./inp_files/78544.got.cif
#   From: 2010.05.17/outbox.cif.g08.bks.cpg/sg13_40_cif.got.tgz:78544.got - 2010.06.03 16:44:36.
