data_PCOD9232426
_publ_section_title
;
Structure prediction by ZEFSAII (Michael W. Deem and Ramdas Pophale) SiO2 
 PCOD9232426
Probable space group: P 2/C
;
_chemical_formula_sum "Si O2"
_cell_formula_units_Z 32
_cell_length_a 12.833080
_cell_length_b 9.874223
_cell_length_c 26.363421
_cell_angle_alpha 90.000000
_cell_angle_beta 156.176464
_cell_angle_gamma 90.000000
_cell_volume 1349.373413
_symmetry_space_group_name_H-M "P 2/C"
_symmetry_group_IT_number 13
_symmetry_cell_setting 'monoclinic'
loop_
_space_group_symop_operation_xyz
x,y,z
-x,y,1/2-z
-x,-y,-z
x,-y,1/2+z
loop_
_atom_site_type_symbol
_atom_site_label
_atom_site_fract_x
_atom_site_fract_y
_atom_site_fract_z
Si Si1 0.201716 0.563534 0.131008
Si Si2 0.776952 0.136962 0.813159
Si Si3 0.829992 0.245406 0.224256
Si Si4 0.094397 0.357023 0.438599
Si Si5 0.014952 0.240053 0.818065
Si Si6 0.607004 0.458000 0.492889
Si Si7 0.229063 0.084826 0.533632
Si Si8 0.457359 0.032657 0.039081
O O1 0.500000 0.537472 0.250000
O O2 0.185702 0.723282 0.138336
O O3 0.109898 0.470496 0.136664
O O4 0.000000 0.500000 0.000000
O O5 0.486890 0.071882 0.683498
O O6 0.995968 0.027255 0.929645
O O7 0.811153 0.191701 0.769648
O O8 0.596452 0.350136 0.117639
O O9 0.720637 0.093887 0.177848
O O10 0.000000 0.259306 0.250000
O O11 0.986560 0.278625 0.342798
O O12 0.350446 0.429543 0.531096
O O13 0.137964 0.239974 0.499420
O O14 0.000000 0.219342 0.750000
O O15 0.112799 0.392715 0.870514
O O16 0.252751 0.151515 0.943329
O O17 0.500000 0.500000 0.500000
O O18 0.339241 0.071514 0.525293
O O19 0.500000 0.000000 0.000000
#
# Coordination Sequence:
#
# PCOD9232426 Si02
#       8
#     4   4   4   4   4   4   4   4
#     4  12  30  55  83 114 148 195 253 323 409 470
#     4  11  25  50  76 114 155 200 255 316 377 463
#     4  11  23  38  62 102 148 197 255 302 370 444
#     4  12  26  45  74 107 147 198 252 324 376 459
#     4  10  22  36  61  97 144 202 244 296 362 438
#     4  11  24  36  59 101 148 197 250 303 371 443
#     4  11  25  44  76 112 151 205 256 308 385 449
#     4  10  21  37  56  93 149 202 248 293 349 442
#
# _framework density 23.714713
#
# number of rings (size 3 to 8) (size 9 to 14) (size 15 to 20)
#    0.000    1.000    2.500    3.000    8.750    3.500 
#    0.000    3.125    0.000    0.000    0.000    0.000 
#    0.000    0.000    0.000    0.000    0.000    0.000 
#
# Total GULP energy -178600.812347 kJ/mol
# GULP energy per Si atom -5581.275386 kJ/mol
# Density = 2.366074 g / cm^3
# Si number density = 23.714713 Si / 1000 Ang^3
#
#
#
# Elastic Constant Matrix: (Units=GPa)
#
#
# Indices 1 2 3 4 5 6 
#
# 1 101.6558 53.9349 48.1089 0.0000 3.2047 0.0000
# 2 53.9349 145.9862 75.7711 0.0000 16.9976 0.0000
# 3 48.1089 75.7711 141.2205 0.0000 15.2430 0.0000
# 4 0.0000 0.0000 0.0000 48.4652 0.0000 0.5492
# 5 3.2047 16.9976 15.2430 0.0000 32.8685 0.0000
# 6 0.0000 0.0000 0.0000 0.5492 0.0000 25.6987
#
#
#
# Elastic Compliance Matrix: (Units=1/GPa)
#
#
# Indices 1 2 3 4 5 6 
#
# 1 0.012963 -0.003616 -0.002676 0.000000 0.001847 0.000000
# 2 -0.003616 0.010732 -0.004175 0.000000 -0.003262 0.000000
# 3 -0.002676 -0.004175 0.010497 0.000000 -0.002448 0.000000
# 4 0.000000 0.000000 0.000000 0.020638 0.000000 -0.000441
# 5 0.001847 -0.003262 -0.002448 0.000000 0.033066 0.000000
# 6 0.000000 0.000000 0.000000 -0.000441 0.000000 0.038922
#
#
# Mechanical properties :
#
#
# Convention : Reuss Voigt Hill
#
# Bulk Modulus (GPa) = 75.41019 82.72139 79.06579
# Shear Modulus (GPa) = 32.85781 35.47632 34.16707
#
# Velocity S-wave (km/s) = 3.72633 3.87196 3.79984
# Velocity P-wave (km/s) = 7.09803 7.41263 7.25703
#
# Compressibility (1/GPa) = 0.01326081
#
# Stress axis : x y z
#
# Youngs Moduli (GPa) = 77.13983 93.17706 95.26840
#
# Poissons Ratio (x) = 0.33690 0.25489
# Poissons Ratio (y) = 0.27892 0.39770
# Poissons Ratio (z) = 0.20639 0.38897
#
# Static dielectric constant tensor:
#      x y z
#    x 1.926610 0.000000 0.079890 
#    y 0.000000 1.966920 0.000000 
#    z 0.079890 0.000000 1.657550 
# 
# From -- ./inp_files/86615.got.cif
#   From: 2010.05.17/outbox.cif.g08.bks.cpg/sg13_44_cif.got.tgz:86615.got - 2010.06.03 16:44:36.
