data_PCOD9232319
_publ_section_title
;
Structure prediction by ZEFSAII (Michael W. Deem and Ramdas Pophale) SiO2 
 PCOD9232319
Probable space group: P 2/C
;
_chemical_formula_sum "Si O2"
_cell_formula_units_Z 30
_cell_length_a 21.704783
_cell_length_b 6.230193
_cell_length_c 19.459361
_cell_angle_alpha 90.000000
_cell_angle_beta 28.910007
_cell_angle_gamma 90.000000
_cell_volume 1272.107652
_symmetry_space_group_name_H-M "P 2/C"
_symmetry_group_IT_number 13
_symmetry_cell_setting 'monoclinic'
loop_
_space_group_symop_operation_xyz
x,y,z
-x,y,1/2-z
-x,-y,-z
x,-y,1/2+z
loop_
_atom_site_type_symbol
_atom_site_label
_atom_site_fract_x
_atom_site_fract_y
_atom_site_fract_z
Si Si1 0.639542 0.462445 0.273158
Si Si2 0.826503 0.151596 0.618843
Si Si3 0.422423 0.308841 0.916713
Si Si4 0.262965 0.684754 0.030792
Si Si5 0.098704 0.395458 0.822817
Si Si6 0.272426 0.777303 0.688504
Si Si7 0.500000 0.967808 0.750000
Si Si8 0.141674 0.215461 0.512647
O O1 0.722486 0.678931 0.195134
O O2 0.503816 0.505327 0.373175
O O3 0.638014 0.371048 0.351355
O O4 0.721063 0.295492 0.148824
O O5 0.909204 0.277176 0.595764
O O6 0.763583 0.974518 0.729688
O O7 0.882735 0.017008 0.499364
O O8 0.320446 0.440595 0.969917
O O9 0.522937 0.143839 0.786811
O O10 0.344819 0.175456 0.048304
O O11 0.381865 0.832615 0.892557
O O12 0.202227 0.699642 0.166588
O O13 0.154803 0.752206 0.081244
O O14 0.151539 0.632082 0.786334
O O15 0.964470 0.371521 0.916129
#
# Coordination Sequence:
#
# PCOD9232319 Si02
#       8
#     4   4   4   4   4   4   2   4
#     4  10  21  36  58  87 116 151 193 241 299 356
#     4  10  21  38  61  92 122 153 200 250 300 354
#     4  11  22  39  59  84 120 154 195 246 296 356
#     4  11  24  41  60  86 120 160 203 246 299 360
#     4  10  22  40  61  86 120 160 201 248 299 355
#     4   9  21  38  59  87 116 152 194 241 298 357
#     4  12  22  36  60  82 110 150 194 242 296 350
#     4  11  22  38  60  87 120 159 203 249 299 354
#
# _framework density 23.582909000000001
#
# number of rings (size 3 to 8) (size 9 to 14) (size 15 to 20)
#    0.000    1.600    0.000    4.800    0.000    7.467 
#    0.000    0.000    0.000    4.800    0.000    0.000 
#    0.000    0.000    0.000    0.000    0.000    0.000 
#
# Total GULP energy -167527.224346 kJ/mol
# GULP energy per Si atom -5584.240812 kJ/mol
# Density = 2.352923 g / cm^3
# Si number density = 23.582909 Si / 1000 Ang^3
#
#
#
# Elastic Constant Matrix: (Units=GPa)
#
#
# Indices 1 2 3 4 5 6 
#
# 1 104.2019 15.5761 20.9630 0.0000 1.2132 0.0000
# 2 15.5761 50.7483 13.6054 0.0000 15.7869 0.0000
# 3 20.9630 13.6054 90.8471 0.0000 16.4522 0.0000
# 4 0.0000 0.0000 0.0000 15.5759 0.0000 9.7830
# 5 1.2132 15.7869 16.4522 0.0000 33.8881 0.0000
# 6 0.0000 0.0000 0.0000 9.7830 0.0000 20.3664
#
#
#
# Elastic Compliance Matrix: (Units=1/GPa)
#
#
# Indices 1 2 3 4 5 6 
#
# 1 0.010540 -0.003324 -0.002353 0.000000 0.002314 0.000000
# 2 -0.003324 0.024321 -0.000927 0.000000 -0.010761 0.000000
# 3 -0.002353 -0.000927 0.012714 0.000000 -0.005656 0.000000
# 4 0.000000 0.000000 0.000000 0.091939 0.000000 -0.044163
# 5 0.002314 -0.010761 -0.005656 0.000000 0.037185 0.000000
# 6 0.000000 0.000000 0.000000 -0.044163 0.000000 0.070314
#
#
# Mechanical properties :
#
#
# Convention : Reuss Voigt Hill
#
# Bulk Modulus (GPa) = 29.09715 38.45402 33.77559
# Shear Modulus (GPa) = 18.40417 27.00960 22.70688
#
# Velocity S-wave (km/s) = 2.79660 3.38791 3.10635
# Velocity P-wave (km/s) = 4.77420 5.62540 5.21719
#
# Compressibility (1/GPa) = 0.03436762
#
# Stress axis : x y z
#
# Youngs Moduli (GPa) = 94.87572 41.11612 78.65549
#
# Poissons Ratio (x) = 0.13666 0.18510
# Poissons Ratio (y) = 0.31535 0.07288
# Poissons Ratio (z) = 0.22327 0.03810
#
# Static dielectric constant tensor:
#      x y z
#    x 1.923500 0.000000 0.022130 
#    y 0.000000 1.910420 0.000000 
#    z 0.022130 0.000000 1.889680 
# 
# From -- ./inp_files/81984.got.cif
#   From: 2010.05.17/outbox.cif.g08.bks.cpg/sg13_41_cif.got.tgz:81984.got - 2010.06.03 16:44:36.
