data_PCOD9232345
_publ_section_title
;
Structure prediction by ZEFSAII (Michael W. Deem and Ramdas Pophale) SiO2 
 PCOD9232345
Probable space group: P 2/C
;
_chemical_formula_sum "Si O2"
_cell_formula_units_Z 28
_cell_length_a 9.426011
_cell_length_b 17.574842
_cell_length_c 16.105463
_cell_angle_alpha 90.000000
_cell_angle_beta 34.467281
_cell_angle_gamma 90.000000
_cell_volume 1509.939483
_symmetry_space_group_name_H-M "P 2/C"
_symmetry_group_IT_number 13
_symmetry_cell_setting 'monoclinic'
loop_
_space_group_symop_operation_xyz
x,y,z
-x,y,1/2-z
-x,-y,-z
x,-y,1/2+z
loop_
_atom_site_type_symbol
_atom_site_label
_atom_site_fract_x
_atom_site_fract_y
_atom_site_fract_z
Si Si1 0.425444 0.465085 0.124709
Si Si2 0.143754 0.288546 0.049382
Si Si3 0.898477 0.456341 0.470427
Si Si4 0.736869 0.166664 0.892682
Si Si5 0.765797 0.999812 0.419912
Si Si6 0.617674 0.704732 0.886343
Si Si7 0.406425 0.867780 0.388026
O O1 0.485911 0.375049 0.096153
O O2 0.127066 0.468290 0.292117
O O3 0.500000 0.500000 0.000000
O O4 0.624377 0.509153 0.085318
O O5 0.134882 0.365781 0.001219
O O6 0.300635 0.308139 0.057177
O O7 0.864034 0.274334 0.216325
O O8 0.253397 0.211396 0.959131
O O9 0.000000 0.500000 0.500000
O O10 0.798761 0.090595 0.915634
O O11 0.609359 0.145859 0.865046
O O12 0.000000 0.206618 0.750000
O O13 0.560991 0.223403 0.026480
O O14 0.000000 0.024994 0.250000
O O15 0.500000 0.000000 0.500000
O O16 0.744121 0.058418 0.505869
O O17 0.500000 0.882832 0.250000
#
# Coordination Sequence:
#
# PCOD9232345 Si02
#       7
#     4   4   4   4   4   4   4
#     4  11  21  38  59  87 111 151 201 240 279 350
#     4   9  19  36  58  83 110 151 196 235 281 351
#     4  11  23  39  58  83 121 152 189 240 302 345
#     4   9  19  37  58  84 118 148 191 238 287 341
#     4   9  19  35  60  87 114 154 197 231 285 353
#     4   9  18  35  61  82 108 150 202 237 273 343
#     4  10  21  36  60  88 116 147 193 242 291 346
#
# _framework density 18.543789
#
# number of rings (size 3 to 8) (size 9 to 14) (size 15 to 20)
#    0.000    2.286    1.429    0.857    6.000    2.286 
#    2.571    6.429    0.000    0.000    0.000    0.000 
#    0.000    0.000    0.000    0.000    0.000    0.000 
#
# Total GULP energy -155869.887253 kJ/mol
# GULP energy per Si atom -5566.781688 kJ/mol
# Density = 1.850158 g / cm^3
# Si number density = 18.543789 Si / 1000 Ang^3
#
#
#
# Elastic Constant Matrix: (Units=GPa)
#
#
# Indices 1 2 3 4 5 6 
#
# 1 23.2490 33.4685 16.0082 0.0000 -1.1519 0.0000
# 2 33.4685 134.1583 72.4359 0.0000 10.0571 0.0000
# 3 16.0082 72.4359 84.2591 0.0000 5.1981 0.0000
# 4 0.0000 0.0000 0.0000 35.1810 0.0000 -7.6163
# 5 -1.1519 10.0571 5.1981 0.0000 27.8520 0.0000
# 6 0.0000 0.0000 0.0000 -7.6163 0.0000 21.8836
#
#
#
# Elastic Compliance Matrix: (Units=1/GPa)
#
#
# Indices 1 2 3 4 5 6 
#
# 1 0.069891 -0.019896 0.003241 0.000000 0.009470 0.000000
# 2 -0.019896 0.019798 -0.012896 0.000000 -0.005565 0.000000
# 3 0.003241 -0.012896 0.022300 0.000000 0.000629 0.000000
# 4 0.000000 0.000000 0.000000 0.030741 0.000000 0.010699
# 5 0.009470 -0.005565 0.000629 0.000000 0.038188 0.000000
# 6 0.000000 0.000000 0.000000 0.010699 0.000000 0.049420
#
#
# Mechanical properties :
#
#
# Convention : Reuss Voigt Hill
#
# Bulk Modulus (GPa) = 18.90804 53.94351 36.42578
# Shear Modulus (GPa) = 16.28303 24.96691 20.62497
#
# Velocity S-wave (km/s) = 2.96647 3.67328 3.33863
# Velocity P-wave (km/s) = 4.68527 6.86612 5.87773
#
# Compressibility (1/GPa) = 0.05288754
#
# Stress axis : x y z
#
# Youngs Moduli (GPa) = 14.30794 50.51137 44.84255
#
# Poissons Ratio (x) = 1.00496 -0.14535
# Poissons Ratio (y) = 0.28467 0.57830
# Poissons Ratio (z) = -0.04638 0.65141
#
# Static dielectric constant tensor:
#      x y z
#    x 1.658010 0.000000 -0.000160 
#    y 0.000000 3.939570 0.000000 
#    z -0.000160 0.000000 1.636590 
# 
# From -- ./inp_files/48075.got.cif
#   From: 2010.05.17/outbox.cif.g08.bks.cpg/sg13_25_cif.got.tgz:48075.got - 2010.06.03 16:44:36.
