data_PCOD9232798
_publ_section_title
;
Structure prediction by ZEFSAII (Michael W. Deem and Ramdas Pophale) SiO2 
 PCOD9232798
Probable space group: P 2/C
;
_chemical_formula_sum "Si O2"
_cell_formula_units_Z 18
_cell_length_a 13.268304
_cell_length_b 6.877122
_cell_length_c 16.439730
_cell_angle_alpha 90.000000
_cell_angle_beta 30.654501
_cell_angle_gamma 90.000000
_cell_volume 764.834932
_symmetry_space_group_name_H-M "P 2/C"
_symmetry_group_IT_number 13
_symmetry_cell_setting 'monoclinic'
loop_
_space_group_symop_operation_xyz
x,y,z
-x,y,1/2-z
-x,-y,-z
x,-y,1/2+z
loop_
_atom_site_type_symbol
_atom_site_label
_atom_site_fract_x
_atom_site_fract_y
_atom_site_fract_z
Si Si1 0.778214 0.380219 0.317713
Si Si2 0.343897 0.209302 0.627824
Si Si3 0.801856 0.296497 0.493418
Si Si4 0.500000 0.397578 0.250000
Si Si5 0.434121 0.958379 0.908476
O O1 0.563338 0.290653 0.451607
O O2 0.786742 0.599924 0.277994
O O3 0.789974 0.376936 0.408132
O O4 0.967520 0.273121 0.149494
O O5 0.384372 0.083764 0.680099
O O6 0.293007 0.079585 0.584972
O O7 0.686343 0.457527 0.625444
O O8 0.685546 0.093821 0.570705
O O9 0.515950 0.247975 0.164635
#
# Coordination Sequence:
#
# PCOD9232798 Si02
#       5
#     4   4   4   2   4
#     4   9  18  39  65  90 115 157 201 253 299 347
#     4   9  18  39  65  90 120 152 202 255 296 348
#     4  10  21  38  62  89 121 157 204 247 296 363
#     4  12  22  40  58  86 128 164 194 250 304 360
#     4  10  21  38  62  88 119 162 199 240 303 356
#
# _framework density 23.534489000000001
#
# number of rings (size 3 to 8) (size 9 to 14) (size 15 to 20)
#    0.000    2.222    2.222    0.667    0.000    0.000 
#   20.000    2.222    0.000    0.000    0.000    0.000 
#    0.000    0.000    0.000    0.000    0.000    0.000 
#
# Total GULP energy -100513.950302 kJ/mol
# GULP energy per Si atom -5584.108350 kJ/mol
# Density = 2.348092 g / cm^3
# Si number density = 23.534489 Si / 1000 Ang^3
#
#
#
# Elastic Constant Matrix: (Units=GPa)
#
#
# Indices 1 2 3 4 5 6 
#
# 1 42.6748 7.7327 9.7229 0.0000 3.0820 0.0000
# 2 7.7327 113.7646 26.5106 0.0000 -1.5733 0.0000
# 3 9.7229 26.5106 78.0309 0.0000 -15.4211 0.0000
# 4 0.0000 0.0000 0.0000 25.1441 0.0000 17.0104
# 5 3.0820 -1.5733 -15.4211 0.0000 21.1065 0.0000
# 6 0.0000 0.0000 0.0000 17.0104 0.0000 34.4575
#
#
#
# Elastic Compliance Matrix: (Units=1/GPa)
#
#
# Indices 1 2 3 4 5 6 
#
# 1 0.025022 -0.000821 -0.004176 0.000000 -0.006766 0.000000
# 2 -0.000821 0.009641 -0.003515 0.000000 -0.001730 0.000000
# 3 -0.004176 -0.003515 0.017062 0.000000 0.012814 0.000000
# 4 0.000000 0.000000 0.000000 0.059713 0.000000 -0.029478
# 5 -0.006766 -0.001730 0.012814 0.000000 0.057600 0.000000
# 6 0.000000 0.000000 0.000000 -0.029478 0.000000 0.043573
#
#
# Mechanical properties :
#
#
# Convention : Reuss Voigt Hill
#
# Bulk Modulus (GPa) = 28.81755 35.82252 32.32003
# Shear Modulus (GPa) = 20.72937 28.84191 24.78564
#
# Velocity S-wave (km/s) = 2.97106 3.50454 3.24877
# Velocity P-wave (km/s) = 4.90316 5.62406 5.27594
#
# Compressibility (1/GPa) = 0.03470107
#
# Stress axis : x y z
#
# Youngs Moduli (GPa) = 39.96488 103.72285 58.60834
#
# Poissons Ratio (x) = 0.08518 0.24475
# Poissons Ratio (y) = 0.03282 0.20601
# Poissons Ratio (z) = 0.16689 0.36459
#
# Static dielectric constant tensor:
#      x y z
#    x 1.982520 0.000000 0.027840 
#    y 0.000000 1.965350 0.000000 
#    z 0.027840 0.000000 1.904570 
# 
# From -- ./inp_files/67684.got.cif
#   From: 2010.05.17/outbox.cif.g08.bks.cpg/sg13_34_cif.got.tgz:67684.got - 2010.06.03 16:44:36.
