data_PCOD9232216
_publ_section_title
;
Structure prediction by ZEFSAII (Michael W. Deem and Ramdas Pophale) SiO2 
 PCOD9232216
Probable space group: P 2/C
;
_chemical_formula_sum "Si O2"
_cell_formula_units_Z 16
_cell_length_a 5.174074
_cell_length_b 10.300748
_cell_length_c 20.932554
_cell_angle_alpha 90.000000
_cell_angle_beta 54.274165
_cell_angle_gamma 90.000000
_cell_volume 905.698268
_symmetry_space_group_name_H-M "P 2/C"
_symmetry_group_IT_number 13
_symmetry_cell_setting 'monoclinic'
loop_
_space_group_symop_operation_xyz
x,y,z
-x,y,1/2-z
-x,-y,-z
x,-y,1/2+z
loop_
_atom_site_type_symbol
_atom_site_label
_atom_site_fract_x
_atom_site_fract_y
_atom_site_fract_z
Si Si1 0.056360 0.642384 0.465255
Si Si2 0.879524 0.988458 0.199718
Si Si3 0.091718 0.111510 0.037490
Si Si4 0.692147 0.240734 0.904132
O O1 0.946735 0.752644 0.532157
O O2 0.868711 0.665724 0.427428
O O3 0.000000 0.500000 0.500000
O O4 0.429092 0.680204 0.402057
O O5 0.500000 0.973510 0.250000
O O6 0.984808 0.072139 0.123122
O O7 0.000000 0.044270 0.250000
O O8 0.057547 0.849856 0.167481
O O9 0.467248 0.141809 0.977008
O O10 0.000000 0.000000 0.000000
#
# Coordination Sequence:
#
# PCOD9232216 Si02
#       4
#     4   4   4   4
#     4  10  21  35  63  88 111 148 202 245 289 336
#     4  12  23  34  56  93 121 152 188 243 302 344
#     4  10  21  37  63  86 120 145 202 246 287 341
#     4  10  21  37  59  83 120 147 200 240 288 342
#
# _framework density 17.665928000000001
#
# number of rings (size 3 to 8) (size 9 to 14) (size 15 to 20)
#    1.500    0.000    2.500    4.500    3.500    0.000 
#    0.000    0.000    0.000    6.000    0.000    0.000 
#    0.000    0.000    0.000    0.000    0.000    0.000 
#
# Total GULP energy -89119.315919 kJ/mol
# GULP energy per Si atom -5569.957245 kJ/mol
# Density = 1.762572 g / cm^3
# Si number density = 17.665928 Si / 1000 Ang^3
#
#
#
# Elastic Constant Matrix: (Units=GPa)
#
#
# Indices 1 2 3 4 5 6 
#
# 1 127.6726 17.4159 33.1046 0.0000 -6.5433 0.0000
# 2 17.4159 104.5509 22.9159 0.0000 4.9791 0.0000
# 3 33.1046 22.9159 89.2857 0.0000 3.1610 0.0000
# 4 0.0000 0.0000 0.0000 12.2541 0.0000 10.7932
# 5 -6.5433 4.9791 3.1610 0.0000 34.8640 0.0000
# 6 0.0000 0.0000 0.0000 10.7932 0.0000 21.1900
#
#
#
# Elastic Compliance Matrix: (Units=1/GPa)
#
#
# Indices 1 2 3 4 5 6 
#
# 1 0.008873 -0.000890 -0.003135 0.000000 0.002077 0.000000
# 2 -0.000890 0.010276 -0.002257 0.000000 -0.001430 0.000000
# 3 -0.003135 -0.002257 0.012993 0.000000 -0.001444 0.000000
# 4 0.000000 0.000000 0.000000 0.148003 0.000000 -0.075386
# 5 0.002077 -0.001430 -0.001444 0.000000 0.029408 0.000000
# 6 0.000000 0.000000 0.000000 -0.075386 0.000000 0.085590
#
#
# Mechanical properties :
#
#
# Convention : Reuss Voigt Hill
#
# Bulk Modulus (GPa) = 51.07700 52.04243 51.55971
# Shear Modulus (GPa) = 15.91177 30.19980 23.05579
#
# Velocity S-wave (km/s) = 3.00443 4.13909 3.61653
# Velocity P-wave (km/s) = 6.40398 7.23643 6.83289
#
# Compressibility (1/GPa) = 0.01957828
#
# Stress axis : x y z
#
# Youngs Moduli (GPa) = 112.69829 97.31698 76.96597
#
# Poissons Ratio (x) = 0.08659 0.24129
# Poissons Ratio (y) = 0.10028 0.17370
# Poissons Ratio (z) = 0.35332 0.21963
#
# Static dielectric constant tensor:
#      x y z
#    x 1.638760 0.000000 -0.002260 
#    y 0.000000 1.594320 0.000000 
#    z -0.002260 0.000000 1.607750 
# 
# From -- ./inp_files/60512.got.cif
#   From: 2010.05.17/outbox.cif.g08.bks.cpg/sg13_31_cif.got.tgz:60512.got - 2010.06.03 16:44:36.
