data_PCOD9232372
_publ_section_title
;
Structure prediction by ZEFSAII (Michael W. Deem and Ramdas Pophale) SiO2 
 PCOD9232372
Probable space group: P 2/C
;
_chemical_formula_sum "Si O2"
_cell_formula_units_Z 28
_cell_length_a 5.800799
_cell_length_b 14.501472
_cell_length_c 15.226471
_cell_angle_alpha 90.000000
_cell_angle_beta 119.394709
_cell_angle_gamma 90.000000
_cell_volume 1115.954563
_symmetry_space_group_name_H-M "P 2/C"
_symmetry_group_IT_number 13
_symmetry_cell_setting 'monoclinic'
loop_
_space_group_symop_operation_xyz
x,y,z
-x,y,1/2-z
-x,-y,-z
x,-y,1/2+z
loop_
_atom_site_type_symbol
_atom_site_label
_atom_site_fract_x
_atom_site_fract_y
_atom_site_fract_z
Si Si1 0.817900 0.563670 0.304764
Si Si2 0.003475 0.374954 0.356001
Si Si3 0.509105 0.265712 0.521959
Si Si4 0.204712 0.077512 0.462471
Si Si5 0.471524 0.960885 0.845445
Si Si6 0.721974 0.782636 0.888352
Si Si7 0.257772 0.757417 0.254824
O O1 0.500000 0.542553 0.250000
O O2 0.826891 0.673256 0.324512
O O3 0.000000 0.560202 0.250000
O O4 0.947728 0.477906 0.380506
O O5 0.271227 0.330371 0.444634
O O6 0.000000 0.376093 0.250000
O O7 0.774429 0.303312 0.337753
O O8 0.420826 0.159033 0.515040
O O9 0.723545 0.259807 0.485559
O O10 0.615346 0.292175 0.636338
O O11 0.238728 0.026484 0.374621
O O12 0.945774 0.140346 0.415386
O O13 0.285098 0.006936 0.554401
O O14 0.500000 0.991919 0.750000
O O15 0.467042 0.848412 0.836753
O O16 0.500000 0.807099 0.250000
O O17 0.000000 0.806042 0.250000
#
# Coordination Sequence:
#
# PCOD9232372 Si02
#       7
#     4   4   4   4   4   4   4
#     4   9  20  40  62  90 131 169 214 278 336 395
#     4  10  23  37  64  94 131 169 218 277 334 410
#     4  10  23  41  64  95 128 177 220 280 338 402
#     4   9  21  41  55  91 132 165 219 285 325 408
#     4  10  21  36  62  88 125 174 216 271 345 404
#     4  10  22  36  64  89 130 165 223 270 339 392
#     4  10  23  44  70  94 131 176 228 279 341 410
#
# _framework density 25.090629
#
# number of rings (size 3 to 8) (size 9 to 14) (size 15 to 20)
#    0.000    2.286    0.000    0.429   14.000    0.571 
#    0.000    9.286    0.000    0.000    0.000    0.000 
#    0.000    0.000    0.000    0.000    0.000    0.000 
#
# Total GULP energy -155882.705956 kJ/mol
# GULP energy per Si atom -5567.239498 kJ/mol
# Density = 2.503352 g / cm^3
# Si number density = 25.090629 Si / 1000 Ang^3
#
#
#
# Elastic Constant Matrix: (Units=GPa)
#
#
# Indices 1 2 3 4 5 6 
#
# 1 150.0721 13.5136 39.1029 0.0000 -13.3648 0.0000
# 2 13.5136 111.1909 13.5593 0.0000 -2.8105 0.0000
# 3 39.1029 13.5593 123.4440 0.0000 -13.2421 0.0000
# 4 0.0000 0.0000 0.0000 5.6962 0.0000 -16.1886
# 5 -13.3648 -2.8105 -13.2421 0.0000 35.8627 0.0000
# 6 0.0000 0.0000 0.0000 -16.1886 0.0000 -3.9896
#
#
#
# Elastic Compliance Matrix: (Units=1/GPa)
#
#
# Indices 1 2 3 4 5 6 
#
# 1 0.007433 -0.000600 -0.002079 0.000000 0.001955 0.000000
# 2 -0.000600 0.009169 -0.000795 0.000000 0.000201 0.000000
# 3 -0.002079 -0.000795 0.009118 0.000000 0.002530 0.000000
# 4 0.000000 0.000000 0.000000 0.014008 0.000000 -0.056843
# 5 0.001955 0.000201 0.002530 0.000000 0.029563 0.000000
# 6 0.000000 0.000000 0.000000 -0.056843 0.000000 -0.020001
#
#
# Mechanical properties :
#
#
# Convention : Reuss Voigt Hill
#
# Bulk Modulus (GPa) = 53.27466 57.45095 55.36280
# Shear Modulus (GPa) = 80.00442 28.74928 54.37685
#
# Velocity S-wave (km/s) = 5.65291 3.38866 4.66039
# Velocity P-wave (km/s) = 7.99288 6.18529 7.14647
#
# Compressibility (1/GPa) = 0.01877065
#
# Stress axis : x y z
#
# Youngs Moduli (GPa) = 134.52860 109.06805 109.67197
#
# Poissons Ratio (x) = 0.06549 0.22800
# Poissons Ratio (y) = 0.08078 0.08722
# Poissons Ratio (z) = 0.27967 0.08674
#
# Static dielectric constant tensor:
#      x y z
#    x 2.150800 0.000000 0.030090 
#    y 0.000000 1.952970 0.000000 
#    z 0.030090 0.000000 2.139720 
# 
# From -- ./inp_files/44503.got.cif
#   From: 2010.05.17/outbox.cif.g08.bks.cpg/sg13_23_cif.got.tgz:44503.got - 2010.06.03 16:44:36.
