data_PCOD9232062
_publ_section_title
;
Structure prediction by ZEFSAII (Michael W. Deem and Ramdas Pophale) SiO2 
 PCOD9232062
Probable space group: P 2/C
;
_chemical_formula_sum "Si O2"
_cell_formula_units_Z 32
_cell_length_a 9.262083
_cell_length_b 6.635290
_cell_length_c 22.535900
_cell_angle_alpha 90.000000
_cell_angle_beta 80.627454
_cell_angle_gamma 90.000000
_cell_volume 1366.490888
_symmetry_space_group_name_H-M "P 2/C"
_symmetry_group_IT_number 13
_symmetry_cell_setting 'monoclinic'
loop_
_space_group_symop_operation_xyz
x,y,z
-x,y,1/2-z
-x,-y,-z
x,-y,1/2+z
loop_
_atom_site_type_symbol
_atom_site_label
_atom_site_fract_x
_atom_site_fract_y
_atom_site_fract_z
Si Si1 0.368607 0.922661 0.935976
Si Si2 0.394830 0.308586 0.022555
Si Si3 0.757496 0.430085 0.726347
Si Si4 0.971745 0.454861 0.880751
Si Si5 0.853710 0.780324 0.796416
Si Si6 0.407921 0.723058 0.365402
Si Si7 0.258028 0.189921 0.653263
Si Si8 0.196644 0.468239 0.465301
O O1 0.240593 0.767110 0.961522
O O2 0.381753 0.108603 0.981652
O O3 0.347391 0.048206 0.877071
O O4 0.518368 0.792050 0.928359
O O5 0.237815 0.416838 0.024179
O O6 0.500000 0.500000 0.000000
O O7 0.892586 0.401038 0.672455
O O8 0.761637 0.652098 0.754476
O O9 0.618353 0.364741 0.697581
O O10 0.779942 0.292241 0.781654
O O11 0.048813 0.490817 0.938879
O O12 0.901706 0.638843 0.848258
O O13 0.857034 0.271754 0.886674
O O14 0.764096 0.958214 0.831733
O O15 0.000000 0.844130 0.750000
O O16 0.317632 0.574847 0.413943
O O17 0.577500 0.741221 0.371940
#
# Coordination Sequence:
#
# PCOD9232062 Si02
#       8
#     4   4   4   4   4   4   4   4
#     4   9  17  30  51  79 106 131 162 205 259 307
#     4   8  15  30  52  79 104 128 162 208 254 300
#     4   9  19  35  48  67  95 130 176 213 246 289
#     4   9  19  33  50  71  95 129 172 213 247 288
#     4   9  18  32  51  69  90 129 176 216 250 291
#     4  10  21  32  48  76 104 132 165 210 260 305
#     4  11  20  33  50  70 102 137 168 209 258 299
#     4   9  18  33  53  76 102 131 167 207 247 301
#
# _framework density 23.417646999999999
#
# number of rings (size 3 to 8) (size 9 to 14) (size 15 to 20)
#    0.000    2.750    0.000    2.250    0.000    8.000 
#    0.000    2.500    0.000    0.750    0.000   30.625 
#    0.000    0.000    0.000    0.000    0.000    0.000 
#
# Total GULP energy -178412.654632 kJ/mol
# GULP energy per Si atom -5575.395457 kJ/mol
# Density = 2.336435 g / cm^3
# Si number density = 23.417647 Si / 1000 Ang^3
#
#
#
# Elastic Constant Matrix: (Units=GPa)
#
#
# Indices 1 2 3 4 5 6 
#
# 1 98.3378 27.4217 -3.3395 0.0000 22.5263 0.0000
# 2 27.4217 89.5940 -8.7681 0.0000 3.3945 0.0000
# 3 -3.3395 -8.7681 55.5792 0.0000 4.5825 0.0000
# 4 0.0000 0.0000 0.0000 17.6597 0.0000 2.2253
# 5 22.5263 3.3945 4.5825 0.0000 27.4822 0.0000
# 6 0.0000 0.0000 0.0000 2.2253 0.0000 19.0886
#
#
#
# Elastic Compliance Matrix: (Units=1/GPa)
#
#
# Indices 1 2 3 4 5 6 
#
# 1 0.013758 -0.003680 0.001154 0.000000 -0.011015 0.000000
# 2 -0.003680 0.012402 0.001635 0.000000 0.001212 0.000000
# 3 0.001154 0.001635 0.018671 0.000000 -0.004261 0.000000
# 4 0.000000 0.000000 0.000000 0.057471 0.000000 -0.006700
# 5 -0.011015 0.001212 -0.004261 0.000000 0.045976 0.000000
# 6 0.000000 0.000000 0.000000 -0.006700 0.000000 0.053168
#
#
# Mechanical properties :
#
#
# Convention : Reuss Voigt Hill
#
# Bulk Modulus (GPa) = 23.22936 30.45993 26.84464
# Shear Modulus (GPa) = 22.98032 28.05921 25.51977
#
# Velocity S-wave (km/s) = 3.13601 3.46527 3.30474
# Velocity P-wave (km/s) = 4.80144 5.38946 5.10393
#
# Compressibility (1/GPa) = 0.04304897
#
# Stress axis : x y z
#
# Youngs Moduli (GPa) = 72.68682 80.63181 53.55891
#
# Poissons Ratio (x) = 0.29676 -0.06182
# Poissons Ratio (y) = 0.26752 -0.08759
# Poissons Ratio (z) = -0.08389 -0.13187
#
# Static dielectric constant tensor:
#      x y z
#    x 1.980310 0.000000 -0.004010 
#    y 0.000000 1.883990 0.000000 
#    z -0.004010 0.000000 1.996690 
# 
# From -- ./inp_files/95656.got.cif
#   From: 2010.05.17/outbox.cif.g08.bks.cpg/sg13_48_cif.got.tgz:95656.got - 2010.06.03 16:44:36.
