data_PCOD9232804
_publ_section_title
;
Structure prediction by ZEFSAII (Michael W. Deem and Ramdas Pophale) SiO2 
 PCOD9232804
Probable space group: P 2/C
;
_chemical_formula_sum "Si O2"
_cell_formula_units_Z 16
_cell_length_a 19.408195
_cell_length_b 5.090377
_cell_length_c 11.151019
_cell_angle_alpha 90.000000
_cell_angle_beta 149.836931
_cell_angle_gamma 90.000000
_cell_volume 553.545761
_symmetry_space_group_name_H-M "P 2/C"
_symmetry_group_IT_number 13
_symmetry_cell_setting 'monoclinic'
loop_
_space_group_symop_operation_xyz
x,y,z
-x,y,1/2-z
-x,-y,-z
x,-y,1/2+z
loop_
_atom_site_type_symbol
_atom_site_label
_atom_site_fract_x
_atom_site_fract_y
_atom_site_fract_z
Si Si1 0.543144 0.602228 0.194129
Si Si2 0.807295 0.069999 0.104155
Si Si3 0.726749 0.830733 0.731497
Si Si4 0.940952 0.401972 0.037283
O O1 0.500000 0.447229 0.250000
O O2 0.701002 0.683775 0.437734
O O3 0.500000 0.500000 0.000000
O O4 0.434663 0.842691 0.036229
O O5 0.756168 0.911486 0.911860
O O6 0.790760 0.990229 0.219475
O O7 0.964425 0.137566 0.315824
O O8 0.790164 0.536989 0.812973
O O9 0.000000 0.528385 0.250000
O O10 0.000000 0.500000 0.000000
#
# Coordination Sequence:
#
# PCOD9232804 Si02
#       4
#     4   4   4   4
#     4  10  21  38  62  92 126 164 208 260 318 378
#     4  10  22  40  63  93 127 165 211 262 317 378
#     4  10  22  40  63  93 127 165 211 262 317 378
#     4  10  22  40  60  86 124 166 208 256 312 374
#
# _framework density 28.904565000000002
#
# number of rings (size 3 to 8) (size 9 to 14) (size 15 to 20)
#    0.000    2.000    0.000    2.250    0.000    5.000 
#    0.000    5.000    0.000    0.000    0.000    0.000 
#    0.000    0.000    0.000    0.000    0.000    0.000 
#
# Total GULP energy -89149.051262 kJ/mol
# GULP energy per Si atom -5571.815704 kJ/mol
# Density = 2.883878 g / cm^3
# Si number density = 28.904565 Si / 1000 Ang^3
#
#
#
# Elastic Constant Matrix: (Units=GPa)
#
#
# Indices 1 2 3 4 5 6 
#
# 1 198.8076 34.0879 49.1254 0.0000 -37.1518 0.0000
# 2 34.0879 64.1534 20.9816 0.0000 -4.3464 0.0000
# 3 49.1254 20.9816 216.5100 0.0000 -10.2628 0.0000
# 4 0.0000 0.0000 0.0000 24.8131 0.0000 -6.5022
# 5 -37.1518 -4.3464 -10.2628 0.0000 36.1859 0.0000
# 6 0.0000 0.0000 0.0000 -6.5022 0.0000 35.0765
#
#
#
# Elastic Compliance Matrix: (Units=1/GPa)
#
#
# Indices 1 2 3 4 5 6 
#
# 1 0.007007 -0.002954 -0.000993 0.000000 0.006558 0.000000
# 2 -0.002954 0.017425 -0.001077 0.000000 -0.001246 0.000000
# 3 -0.000993 -0.001077 0.004961 0.000000 0.000258 0.000000
# 4 0.000000 0.000000 0.000000 0.042359 0.000000 0.007852
# 5 0.006558 -0.001246 0.000258 0.000000 0.034292 0.000000
# 6 0.000000 0.000000 0.000000 0.007852 0.000000 0.029965
#
#
# Mechanical properties :
#
#
# Convention : Reuss Voigt Hill
#
# Bulk Modulus (GPa) = 51.69473 76.42900 64.06186
# Shear Modulus (GPa) = 32.78558 44.23348 38.50953
#
# Velocity S-wave (km/s) = 3.37155 3.91619 3.65403
# Velocity P-wave (km/s) = 5.75151 6.85186 6.32565
#
# Compressibility (1/GPa) = 0.01934433
#
# Stress axis : x y z
#
# Youngs Moduli (GPa) = 142.70666 57.38745 201.58716
#
# Poissons Ratio (x) = 0.16954 0.20013
# Poissons Ratio (y) = 0.42161 0.21719
# Poissons Ratio (z) = 0.14168 0.06183
#
# Static dielectric constant tensor:
#      x y z
#    x 2.290190 0.000000 -0.031820 
#    y 0.000000 2.414870 0.000000 
#    z -0.031820 0.000000 2.254460 
# 
# From -- ./inp_files/23924.got.cif
#   From: 2010.05.17/outbox.cif.g08.bks.cpg/sg13_12_cif.got.tgz:23924.got - 2010.06.03 16:44:36.
