data_PCOD9232316
_publ_section_title
;
Structure prediction by ZEFSAII (Michael W. Deem and Ramdas Pophale) SiO2 
 PCOD9232316
Probable space group: P 2/C
;
_chemical_formula_sum "Si O2"
_cell_formula_units_Z 32
_cell_length_a 5.618969
_cell_length_b 12.318409
_cell_length_c 30.119474
_cell_angle_alpha 90.000000
_cell_angle_beta 41.539607
_cell_angle_gamma 90.000000
_cell_volume 1382.490981
_symmetry_space_group_name_H-M "P 2/C"
_symmetry_group_IT_number 13
_symmetry_cell_setting 'monoclinic'
loop_
_space_group_symop_operation_xyz
x,y,z
-x,y,1/2-z
-x,-y,-z
x,-y,1/2+z
loop_
_atom_site_type_symbol
_atom_site_label
_atom_site_fract_x
_atom_site_fract_y
_atom_site_fract_z
Si Si1 0.121126 0.397973 0.283833
Si Si2 0.670769 0.286254 0.770396
Si Si3 0.732171 0.548459 0.917068
Si Si4 0.825622 0.849835 0.104294
Si Si5 0.928927 0.917549 0.333022
Si Si6 0.071746 0.157358 0.187431
Si Si7 0.704359 0.770495 0.538850
Si Si8 0.872838 0.407022 0.483867
O O1 0.500000 0.433361 0.250000
O O2 0.000000 0.400543 0.250000
O O3 0.841255 0.465347 0.351752
O O4 0.096752 0.271770 0.303440
O O5 0.500000 0.336068 0.750000
O O6 0.365353 0.258857 0.849189
O O7 0.000000 0.342285 0.750000
O O8 0.845792 0.172792 0.726310
O O9 0.510984 0.662602 0.947357
O O10 0.543533 0.437866 0.958979
O O11 0.029330 0.571097 0.913081
O O12 0.480761 0.908479 0.128843
O O13 0.004840 0.897130 0.124027
O O14 0.136755 0.835175 0.024577
O O15 0.065276 0.039642 0.307052
O O16 0.465054 0.168482 0.109006
O O17 0.000000 0.158218 0.250000
O O18 0.046245 0.713710 0.513960
O O19 0.000000 0.500000 0.500000
#
# Coordination Sequence:
#
# PCOD9232316 Si02
#       8
#     4   4   4   4   4   4   4   4
#     4  10  23  37  61  95 128 162 198 252 311 365
#     4   8  15  30  52  74 100 143 203 237 287 347
#     4   9  20  38  62  93 122 163 200 245 311 390
#     4  10  21  36  58  85 115 159 201 262 299 347
#     4  10  21  38  57  82 116 166 212 248 306 364
#     4  10  22  39  58  87 125 166 208 258 308 371
#     4  10  22  37  58  92 124 156 206 259 313 366
#     4   9  19  37  65  90 117 159 203 245 304 388
#
# _framework density 23.146623000000002
#
# number of rings (size 3 to 8) (size 9 to 14) (size 15 to 20)
#    0.000    2.500    0.000    1.125    8.750    4.500 
#    2.250    0.000    0.000    2.250    6.500    0.000 
#    0.000    0.000    0.000    0.000    0.000    0.000 
#
# Total GULP energy -178143.040508 kJ/mol
# GULP energy per Si atom -5566.970016 kJ/mol
# Density = 2.309394 g / cm^3
# Si number density = 23.146623 Si / 1000 Ang^3
#
#
#
# Elastic Constant Matrix: (Units=GPa)
#
#
# Indices 1 2 3 4 5 6 
#
# 1 134.7686 18.8122 41.3230 0.0000 19.5797 0.0000
# 2 18.8122 84.3801 33.1198 0.0000 1.3184 0.0000
# 3 41.3230 33.1198 139.9080 0.0000 23.2789 0.0000
# 4 0.0000 0.0000 0.0000 23.5943 0.0000 10.7253
# 5 19.5797 1.3184 23.2789 0.0000 30.6208 0.0000
# 6 0.0000 0.0000 0.0000 10.7253 0.0000 15.4751
#
#
#
# Elastic Compliance Matrix: (Units=1/GPa)
#
#
# Indices 1 2 3 4 5 6 
#
# 1 0.008701 -0.001264 -0.001550 0.000000 -0.004331 0.000000
# 2 -0.001264 0.013362 -0.003238 0.000000 0.002694 0.000000
# 3 -0.001550 -0.003238 0.009369 0.000000 -0.005992 0.000000
# 4 0.000000 0.000000 0.000000 0.061878 0.000000 -0.042885
# 5 -0.004331 0.002694 -0.005992 0.000000 0.039866 0.000000
# 6 0.000000 0.000000 0.000000 -0.042885 0.000000 0.094342
#
#
# Mechanical properties :
#
#
# Convention : Reuss Voigt Hill
#
# Bulk Modulus (GPa) = 51.73939 60.61852 56.17896
# Shear Modulus (GPa) = 20.31990 31.65814 25.98902
#
# Velocity S-wave (km/s) = 2.96611 3.70228 3.35446
# Velocity P-wave (km/s) = 5.84225 6.67246 6.27111
#
# Compressibility (1/GPa) = 0.01932763
#
# Stress axis : x y z
#
# Youngs Moduli (GPa) = 114.92879 74.84036 106.73556
#
# Poissons Ratio (x) = 0.09458 0.16546
# Poissons Ratio (y) = 0.14524 0.34563
# Poissons Ratio (z) = 0.17816 0.24234
#
# Static dielectric constant tensor:
#      x y z
#    x 1.877470 0.000000 -0.840270 
#    y 0.000000 1.870050 0.000000 
#    z -0.840270 0.000000 -2.975190 
# 
# From -- ./inp_files/95260.got.cif
#   From: 2010.05.17/outbox.cif.g08.bks.cpg/sg13_48_cif.got.tgz:95260.got - 2010.06.03 16:44:36.
