data_PCOD9232623
_publ_section_title
;
Structure prediction by ZEFSAII (Michael W. Deem and Ramdas Pophale) SiO2 
 PCOD9232623
Probable space group: P 2/C
;
_chemical_formula_sum "Si O2"
_cell_formula_units_Z 20
_cell_length_a 18.786529
_cell_length_b 9.066795
_cell_length_c 16.805356
_cell_angle_alpha 90.000000
_cell_angle_beta 19.261515
_cell_angle_gamma 90.000000
_cell_volume 944.288156
_symmetry_space_group_name_H-M "P 2/C"
_symmetry_group_IT_number 13
_symmetry_cell_setting 'monoclinic'
loop_
_space_group_symop_operation_xyz
x,y,z
-x,y,1/2-z
-x,-y,-z
x,-y,1/2+z
loop_
_atom_site_type_symbol
_atom_site_label
_atom_site_fract_x
_atom_site_fract_y
_atom_site_fract_z
Si Si1 0.000000 0.551449 0.750000
Si Si2 0.560333 0.309209 0.474984
Si Si3 0.284340 0.199761 0.029660
Si Si4 0.000000 0.045094 0.750000
Si Si5 0.797747 0.402810 0.742542
Si Si6 0.866315 0.703845 0.499789
O O1 0.140768 0.657363 0.657748
O O2 0.144978 0.442545 0.542808
O O3 0.642400 0.201382 0.456246
O O4 0.696383 0.288576 0.250523
O O5 0.617967 0.472440 0.448722
O O6 0.310596 0.306614 0.712868
O O7 0.500000 0.205530 0.750000
O O8 0.144401 0.059356 0.152615
O O9 0.143226 0.153643 0.545055
O O10 0.000000 0.500000 0.500000
O O11 0.894791 0.309507 0.711913
#
# Coordination Sequence:
#
# PCOD9232623 Si02
#       6
#     2   4   4   2   4   4
#     4  10  22  38  64  96 122 164 206 272 324 362
#     4  10  21  37  65  97 122 163 211 262 319 379
#     4  11  25  40  61  90 132 170 209 258 321 383
#     4  10  26  46  58  90 132 174 212 262 312 376
#     4   9  19  34  61  97 126 150 202 263 315 367
#     4  10  21  41  68  90 124 164 216 265 311 372
#
# _framework density 21.179974000000001
#
# number of rings (size 3 to 8) (size 9 to 14) (size 15 to 20)
#    0.000    2.000    2.000    0.000    8.400    4.000 
#    0.000    6.000    0.000    0.000    0.000    0.000 
#    0.000    0.000    0.000    0.000    0.000    0.000 
#
# Total GULP energy -111655.653238 kJ/mol
# GULP energy per Si atom -5582.782662 kJ/mol
# Density = 2.113177 g / cm^3
# Si number density = 21.179974 Si / 1000 Ang^3
#
#
#
# Elastic Constant Matrix: (Units=GPa)
#
#
# Indices 1 2 3 4 5 6 
#
# 1 123.6720 46.0632 32.5034 0.0000 -0.5849 0.0000
# 2 46.0632 104.7368 22.6847 0.0000 1.7539 0.0000
# 3 32.5034 22.6847 67.5110 0.0000 6.8919 0.0000
# 4 0.0000 0.0000 0.0000 0.2519 0.0000 -6.3411
# 5 -0.5849 1.7539 6.8919 0.0000 49.4068 0.0000
# 6 0.0000 0.0000 0.0000 -6.3411 0.0000 25.2997
#
#
#
# Elastic Compliance Matrix: (Units=1/GPa)
#
#
# Indices 1 2 3 4 5 6 
#
# 1 0.010523 -0.003803 -0.003870 0.000000 0.000799 0.000000
# 2 -0.003803 0.011672 -0.002074 0.000000 -0.000170 0.000000
# 3 -0.003870 -0.002074 0.017621 0.000000 -0.002430 0.000000
# 4 0.000000 0.000000 0.000000 -0.747705 0.000000 -0.187404
# 5 0.000799 -0.000170 -0.002430 0.000000 0.020595 0.000000
# 6 0.000000 0.000000 0.000000 -0.187404 0.000000 -0.007444
#
#
# Mechanical properties :
#
#
# Convention : Reuss Voigt Hill
#
# Bulk Modulus (GPa) = 49.20737 55.38027 52.29382
# Shear Modulus (GPa) = -7.47976 27.96958 10.24491
#
# Velocity S-wave (km/s) = -1.88127 3.63790 2.20172
# Velocity P-wave (km/s) = 4.30865 6.62193 5.58635
#
# Compressibility (1/GPa) = 0.02032216
#
# Stress axis : x y z
#
# Youngs Moduli (GPa) = 95.02575 85.67205 56.75186
#
# Poissons Ratio (x) = 0.32584 0.21964
# Poissons Ratio (y) = 0.36142 0.11768
# Poissons Ratio (z) = 0.36777 0.17765
#
# Static dielectric constant tensor:
#      x y z
#    x 1.820120 0.000000 -0.022150 
#    y 0.000000 1.771980 0.000000 
#    z -0.022150 0.000000 1.800400 
# 
# From -- ./inp_files/81510.got.cif
#   From: 2010.05.17/outbox.cif.g08.bks.cpg/sg13_41_cif.got.tgz:81510.got - 2010.06.03 16:44:36.
