data_PCOD9232378
_publ_section_title
;
Structure prediction by ZEFSAII (Michael W. Deem and Ramdas Pophale) SiO2 
 PCOD9232378
Probable space group: P 2/C
;
_chemical_formula_sum "Si O2"
_cell_formula_units_Z 20
_cell_length_a 10.237071
_cell_length_b 8.937947
_cell_length_c 23.752599
_cell_angle_alpha 90.000000
_cell_angle_beta 154.151874
_cell_angle_gamma 90.000000
_cell_volume 947.541721
_symmetry_space_group_name_H-M "P 2/C"
_symmetry_group_IT_number 13
_symmetry_cell_setting 'monoclinic'
loop_
_space_group_symop_operation_xyz
x,y,z
-x,y,1/2-z
-x,-y,-z
x,-y,1/2+z
loop_
_atom_site_type_symbol
_atom_site_label
_atom_site_fract_x
_atom_site_fract_y
_atom_site_fract_z
Si Si1 0.641848 0.914666 0.609151
Si Si2 0.216411 0.166073 0.108080
Si Si3 0.307254 0.356157 0.035322
Si Si4 0.329907 0.429130 0.743475
Si Si5 0.590521 0.880758 0.382139
O O1 0.574487 0.024552 0.635110
O O2 0.000000 0.890347 0.750000
O O3 0.500000 0.000000 0.500000
O O4 0.470000 0.758755 0.556085
O O5 0.500000 0.230914 0.250000
O O6 0.166236 0.254982 0.030954
O O7 0.312491 0.998204 0.128451
O O8 0.918756 0.173677 0.029578
O O9 0.534941 0.465614 0.155690
O O10 0.026544 0.444443 0.900971
O O11 0.500000 0.452018 0.750000
O O12 0.399900 0.257598 0.787385
#
# Coordination Sequence:
#
# PCOD9232378 Si02
#       5
#     4   4   4   4   4
#     4  11  26  48  69  94 128 178 235 279 316 377
#     4  10  21  36  63 100 133 170 217 273 338 392
#     4  11  26  41  67  98 138 175 216 267 337 398
#     4  12  23  42  64 104 139 169 205 272 347 410
#     4  10  23  38  67  95 132 172 221 277 330 389
#
# _framework density 21.107251999999999
#
# number of rings (size 3 to 8) (size 9 to 14) (size 15 to 20)
#    0.000    1.200    2.000    3.000   14.000    0.000 
#    0.000    5.000    0.000    0.000    0.000    0.000 
#    0.000    0.000    0.000    0.000    0.000    0.000 
#
# Total GULP energy -111765.782049 kJ/mol
# GULP energy per Si atom -5588.289102 kJ/mol
# Density = 2.105921 g / cm^3
# Si number density = 21.107252 Si / 1000 Ang^3
#
#
#
# Elastic Constant Matrix: (Units=GPa)
#
#
# Indices 1 2 3 4 5 6 
#
# 1 65.4917 31.6951 59.3083 0.0000 9.9933 0.0000
# 2 31.6951 111.8176 50.7288 0.0000 -13.4141 0.0000
# 3 59.3083 50.7288 187.5356 0.0000 4.5051 0.0000
# 4 0.0000 0.0000 0.0000 22.8103 0.0000 -19.4856
# 5 9.9933 -13.4141 4.5051 0.0000 33.6811 0.0000
# 6 0.0000 0.0000 0.0000 -19.4856 0.0000 11.8450
#
#
#
# Elastic Compliance Matrix: (Units=1/GPa)
#
#
# Indices 1 2 3 4 5 6 
#
# 1 0.024721 -0.005225 -0.006198 0.000000 -0.008587 0.000000
# 2 -0.005225 0.012008 -0.001753 0.000000 0.006567 0.000000
# 3 -0.006198 -0.001753 0.007764 0.000000 0.000102 0.000000
# 4 0.000000 0.000000 0.000000 -0.108175 0.000000 -0.177953
# 5 -0.008587 0.006567 0.000102 0.000000 0.034840 0.000000
# 6 0.000000 0.000000 0.000000 -0.177953 0.000000 -0.208316
#
#
# Mechanical properties :
#
#
# Convention : Reuss Voigt Hill
#
# Bulk Modulus (GPa) = 55.12946 72.03437 63.58191
# Shear Modulus (GPa) = -24.41908 28.54146 2.06119
#
# Velocity S-wave (km/s) = -3.40502 3.68123 0.98927
# Velocity P-wave (km/s) = 3.27361 7.22983 5.61191
#
# Compressibility (1/GPa) = 0.01813912
#
# Stress axis : x y z
#
# Youngs Moduli (GPa) = 40.45066 83.28087 128.79321
#
# Poissons Ratio (x) = 0.43518 0.79831
# Poissons Ratio (y) = 0.21137 0.22581
# Poissons Ratio (z) = 0.25073 0.14601
#
# Static dielectric constant tensor:
#      x y z
#    x 1.724850 0.000000 -0.018320 
#    y 0.000000 1.800410 0.000000 
#    z -0.018320 0.000000 1.873910 
# 
# From -- ./inp_files/96653.got.cif
#   From: 2010.05.17/outbox.cif.g08.bks.cpg/sg13_49_cif.got.tgz:96653.got - 2010.06.03 16:44:36.
