data_PCOD9232587
_publ_section_title
;
Structure prediction by ZEFSAII (Michael W. Deem and Ramdas Pophale) SiO2 
 PCOD9232587
Probable space group: P 2/C
;
_chemical_formula_sum "Si O2"
_cell_formula_units_Z 32
_cell_length_a 13.906123
_cell_length_b 8.107481
_cell_length_c 24.041585
_cell_angle_alpha 90.000000
_cell_angle_beta 31.758743
_cell_angle_gamma 90.000000
_cell_volume 1426.673228
_symmetry_space_group_name_H-M "P 2/C"
_symmetry_group_IT_number 13
_symmetry_cell_setting 'monoclinic'
loop_
_space_group_symop_operation_xyz
x,y,z
-x,y,1/2-z
-x,-y,-z
x,-y,1/2+z
loop_
_atom_site_type_symbol
_atom_site_label
_atom_site_fract_x
_atom_site_fract_y
_atom_site_fract_z
Si Si1 0.877700 0.112561 0.767244
Si Si2 0.715491 0.973585 0.131085
Si Si3 0.460661 0.287343 0.622457
Si Si4 0.676128 0.702693 0.705659
Si Si5 0.647082 0.140816 0.439143
Si Si6 0.813920 0.662251 0.143586
Si Si7 0.862693 0.837160 0.454300
Si Si8 0.493724 0.667984 0.914260
O O1 0.706853 0.221453 0.832527
O O2 0.000000 0.215277 0.750000
O O3 0.995597 0.071678 0.655335
O O4 0.819637 0.950646 0.829195
O O5 0.500000 0.960145 0.250000
O O6 0.775700 0.126065 0.141422
O O7 0.801528 0.795995 0.100621
O O8 0.766431 0.045403 0.046221
O O9 0.628560 0.184243 0.513331
O O10 0.363551 0.287117 0.730531
O O11 0.518192 0.473035 0.583743
O O12 0.500000 0.689210 0.750000
O O13 0.786742 0.531279 0.644399
O O14 0.608126 0.717870 0.802670
O O15 0.590619 0.284327 0.424160
O O16 0.500000 0.000000 0.500000
O O17 0.005224 0.702003 0.080488
O O18 0.702705 0.752951 0.497109
#
# Coordination Sequence:
#
# PCOD9232587 Si02
#       8
#     4   4   4   4   4   4   4   4
#     4  10  22  40  61  91 129 156 201 274 317 369
#     4  11  22  39  65  89 124 173 212 254 314 386
#     4   9  21  40  66  91 119 170 210 252 317 385
#     4  10  21  41  62  89 125 166 214 260 309 379
#     4  10  21  37  63  91 118 162 203 250 310 383
#     4  10  23  39  63  94 132 159 210 268 317 372
#     4  11  22  38  62  93 122 166 208 261 329 362
#     4  11  21  40  65  87 125 166 213 259 307 388
#
# _framework density 22.429801999999999
#
# number of rings (size 3 to 8) (size 9 to 14) (size 15 to 20)
#    0.000    1.750    2.500    2.625    5.250    1.500 
#    0.000    4.375    5.500    0.000    0.000    0.000 
#    0.000    0.000    0.000    0.000    0.000    0.000 
#
# Total GULP energy -178486.558975 kJ/mol
# GULP energy per Si atom -5577.704968 kJ/mol
# Density = 2.237875 g / cm^3
# Si number density = 22.429802 Si / 1000 Ang^3
#
#
#
# Elastic Constant Matrix: (Units=GPa)
#
#
# Indices 1 2 3 4 5 6 
#
# 1 41.6408 4.7077 8.8040 0.0000 -4.9818 0.0000
# 2 4.7077 67.4239 12.6296 0.0000 -1.5950 0.0000
# 3 8.8040 12.6296 98.9108 0.0000 0.0886 0.0000
# 4 0.0000 0.0000 0.0000 11.7945 0.0000 6.2598
# 5 -4.9818 -1.5950 0.0886 0.0000 32.4360 0.0000
# 6 0.0000 0.0000 0.0000 6.2598 0.0000 15.6687
#
#
#
# Elastic Compliance Matrix: (Units=1/GPa)
#
#
# Indices 1 2 3 4 5 6 
#
# 1 0.025050 -0.001272 -0.002071 0.000000 0.003791 0.000000
# 2 -0.001272 0.015278 -0.001838 0.000000 0.000561 0.000000
# 3 -0.002071 -0.001838 0.010530 0.000000 -0.000437 0.000000
# 4 0.000000 0.000000 0.000000 0.107600 0.000000 -0.042987
# 5 0.003791 0.000561 -0.000437 0.000000 0.031441 0.000000
# 6 0.000000 0.000000 0.000000 -0.042987 0.000000 0.080995
#
#
# Mechanical properties :
#
#
# Convention : Reuss Voigt Hill
#
# Bulk Modulus (GPa) = 24.69339 28.91759 26.80549
# Shear Modulus (GPa) = 16.96332 24.10213 20.53273
#
# Velocity S-wave (km/s) = 2.75305 3.28160 3.02888
# Velocity P-wave (km/s) = 4.59769 5.22293 4.92025
#
# Compressibility (1/GPa) = 0.04049667
#
# Stress axis : x y z
#
# Youngs Moduli (GPa) = 39.92024 65.45404 94.97102
#
# Poissons Ratio (x) = 0.08323 0.19666
# Poissons Ratio (y) = 0.05076 0.17457
# Poissons Ratio (z) = 0.08266 0.12031
#
# Static dielectric constant tensor:
#      x y z
#    x 1.912530 0.000000 -0.008050 
#    y 0.000000 1.818450 0.000000 
#    z -0.008050 0.000000 1.925650 
# 
# From -- ./inp_files/87399.got.cif
#   From: 2010.05.17/outbox.cif.g08.bks.cpg/sg13_44_cif.got.tgz:87399.got - 2010.06.03 16:44:36.
