data_PCOD9232353
_publ_section_title
;
Structure prediction by ZEFSAII (Michael W. Deem and Ramdas Pophale) SiO2 
 PCOD9232353
Probable space group: P 2/C
;
_chemical_formula_sum "Si O2"
_cell_formula_units_Z 20
_cell_length_a 14.173755
_cell_length_b 8.986135
_cell_length_c 22.660093
_cell_angle_alpha 90.000000
_cell_angle_beta 159.794078
_cell_angle_gamma 90.000000
_cell_volume 996.863843
_symmetry_space_group_name_H-M "P 2/C"
_symmetry_group_IT_number 13
_symmetry_cell_setting 'monoclinic'
loop_
_space_group_symop_operation_xyz
x,y,z
-x,y,1/2-z
-x,-y,-z
x,-y,1/2+z
loop_
_atom_site_type_symbol
_atom_site_label
_atom_site_fract_x
_atom_site_fract_y
_atom_site_fract_z
Si Si1 0.734678 0.057366 0.261726
Si Si2 0.253582 0.182371 0.823511
Si Si3 0.747267 0.638836 0.556944
Si Si4 0.681679 0.287486 0.505086
Si Si5 0.323797 0.843860 0.093903
O O1 0.056967 0.071691 0.462584
O O2 0.717278 0.981870 0.186180
O O3 0.538016 0.953606 0.186278
O O4 0.594781 0.218745 0.182067
O O5 0.283823 0.209400 0.910673
O O6 0.950566 0.236112 0.627942
O O7 0.481278 0.286223 0.928708
O O8 0.694338 0.463857 0.518563
O O9 0.786828 0.725113 0.518620
O O10 0.000000 0.659505 0.750000
O O11 0.500000 0.773772 0.250000
#
# Coordination Sequence:
#
# PCOD9232353 Si02
#       5
#     4   4   4   4   4
#     4  11  22  42  65  91 126 167 211 261 312 370
#     4  10  21  36  60  94 131 156 210 252 319 371
#     4  11  23  39  65  94 127 165 206 259 317 375
#     4  11  21  36  63  97 129 161 204 263 314 374
#     4  11  25  44  66  92 127 167 214 259 315 373
#
# _framework density 20.062920999999999
#
# number of rings (size 3 to 8) (size 9 to 14) (size 15 to 20)
#    0.000    1.200    4.000    3.000    2.800    1.600 
#    0.000    2.000    0.000    0.000    0.000    0.000 
#    0.000    0.000    0.000    0.000    0.000    0.000 
#
# Total GULP energy -111604.452580 kJ/mol
# GULP energy per Si atom -5580.222629 kJ/mol
# Density = 2.001726 g / cm^3
# Si number density = 20.062921 Si / 1000 Ang^3
#
#
#
# Elastic Constant Matrix: (Units=GPa)
#
#
# Indices 1 2 3 4 5 6 
#
# 1 51.5646 25.5895 49.5910 0.0000 10.6978 0.0000
# 2 25.5895 95.0140 68.3606 0.0000 2.8806 0.0000
# 3 49.5910 68.3606 119.1575 0.0000 13.5535 0.0000
# 4 0.0000 0.0000 0.0000 9.2415 0.0000 8.4224
# 5 10.6978 2.8806 13.5535 0.0000 42.0524 0.0000
# 6 0.0000 0.0000 0.0000 8.4224 0.0000 6.8088
#
#
#
# Elastic Compliance Matrix: (Units=1/GPa)
#
#
# Indices 1 2 3 4 5 6 
#
# 1 0.033110 0.001349 -0.014102 0.000000 -0.003970 0.000000
# 2 0.001349 0.018170 -0.011216 0.000000 0.002027 0.000000
# 3 -0.014102 -0.011216 0.020969 0.000000 -0.002403 0.000000
# 4 0.000000 0.000000 0.000000 -0.849634 0.000000 1.050989
# 5 -0.003970 0.002027 -0.002403 0.000000 0.025425 0.000000
# 6 0.000000 0.000000 0.000000 1.050989 0.000000 -1.153194
#
#
# Mechanical properties :
#
#
# Convention : Reuss Voigt Hill
#
# Bulk Modulus (GPa) = 41.13403 61.42426 51.27915
# Shear Modulus (GPa) = -2.70400 19.76687 8.53144
#
# Velocity S-wave (km/s) = -1.16219 3.14227 2.06436
# Velocity P-wave (km/s) = 4.32968 6.62174 5.59435
#
# Compressibility (1/GPa) = 0.02431077
#
# Stress axis : x y z
#
# Youngs Moduli (GPa) = 30.20279 55.03705 47.68913
#
# Poissons Ratio (x) = -0.07426 0.67251
# Poissons Ratio (y) = -0.04075 0.53488
# Poissons Ratio (z) = 0.42592 0.61730
#
# Static dielectric constant tensor:
#      x y z
#    x 1.749640 0.000000 -0.006530 
#    y 0.000000 1.687410 0.000000 
#    z -0.006530 0.000000 1.741900 
# 
# From -- ./inp_files/28111.got.cif
#   From: 2010.05.17/outbox.cif.g08.bks.cpg/sg13_15_cif.got.tgz:28111.got - 2010.06.03 16:44:36.
