data_PCOD9232356
_publ_section_title
;
Structure prediction by ZEFSAII (Michael W. Deem and Ramdas Pophale) SiO2 
 PCOD9232356
Probable space group: P 2/C
;
_chemical_formula_sum "Si O2"
_cell_formula_units_Z 18
_cell_length_a 21.482864
_cell_length_b 6.841742
_cell_length_c 22.145261
_cell_angle_alpha 90.000000
_cell_angle_beta 14.029025
_cell_angle_gamma 90.000000
_cell_volume 789.035050
_symmetry_space_group_name_H-M "P 2/C"
_symmetry_group_IT_number 13
_symmetry_cell_setting 'monoclinic'
loop_
_space_group_symop_operation_xyz
x,y,z
-x,y,1/2-z
-x,-y,-z
x,-y,1/2+z
loop_
_atom_site_type_symbol
_atom_site_label
_atom_site_fract_x
_atom_site_fract_y
_atom_site_fract_z
Si Si1 0.009172 0.346881 0.911393
Si Si2 0.187855 0.250614 0.866430
Si Si3 0.251795 0.707123 0.632628
Si Si4 0.000000 0.823037 0.750000
Si Si5 0.216187 0.203893 0.500351
O O1 0.111389 0.214237 0.869351
O O2 0.236473 0.483985 0.670888
O O3 0.823095 0.511533 0.115674
O O4 0.865905 0.251155 0.990189
O O5 0.473974 0.194201 0.615421
O O6 0.966350 0.188647 0.121266
O O7 0.156467 0.711285 0.653755
O O8 0.192999 0.971960 0.534431
O O9 0.500000 0.273828 0.250000
O O10 0.000000 0.285383 0.750000
#
# Coordination Sequence:
#
# PCOD9232356 Si02
#       5
#     4   4   4   2   4
#     4   9  21  37  62  85 111 142 187 235 278 325
#     4   9  21  34  63  86 110 138 190 233 282 319
#     4  10  21  36  61  83 114 141 187 232 276 329
#     4  10  26  38  56  82 118 152 186 222 276 338
#     4  10  25  38  57  79 118 149 187 226 275 333
#
# _framework density 22.812673
#
# number of rings (size 3 to 8) (size 9 to 14) (size 15 to 20)
#    2.000    0.444    0.000    0.667    7.778    0.000 
#    0.000    2.222    0.000    0.000    0.000    0.000 
#    0.000    0.000    0.000    0.000    0.000    0.000 
#
# Total GULP energy -100327.706502 kJ/mol
# GULP energy per Si atom -5573.761472 kJ/mol
# Density = 2.276075 g / cm^3
# Si number density = 22.812673 Si / 1000 Ang^3
#
#
#
# Elastic Constant Matrix: (Units=GPa)
#
#
# Indices 1 2 3 4 5 6 
#
# 1 206.2674 12.1181 69.5711 0.0000 0.3075 0.0000
# 2 12.1181 32.5334 2.5185 0.0000 9.9490 0.0000
# 3 69.5711 2.5185 155.5367 0.0000 -33.7850 0.0000
# 4 0.0000 0.0000 0.0000 -15.4841 0.0000 -5.9299
# 5 0.3075 9.9490 -33.7850 0.0000 24.4005 0.0000
# 6 0.0000 0.0000 0.0000 -5.9299 0.0000 21.4474
#
#
#
# Elastic Compliance Matrix: (Units=1/GPa)
#
#
# Indices 1 2 3 4 5 6 
#
# 1 0.006206 -0.000359 -0.003941 0.000000 -0.005388 0.000000
# 2 -0.000359 0.038430 -0.005526 0.000000 -0.023317 0.000000
# 3 -0.003941 -0.005526 0.012559 0.000000 0.019692 0.000000
# 4 0.000000 0.000000 0.000000 -0.058399 0.000000 -0.016146
# 5 -0.005388 -0.023317 0.019692 0.000000 0.077823 0.000000
# 6 0.000000 0.000000 0.000000 -0.016146 0.000000 0.042162
#
#
# Mechanical properties :
#
#
# Convention : Reuss Voigt Hill
#
# Bulk Modulus (GPa) = 26.63631 62.52810 44.58220
# Shear Modulus (GPa) = 33.12422 26.74808 29.93615
#
# Velocity S-wave (km/s) = 3.81466 3.42791 3.62644
# Velocity P-wave (km/s) = 5.57706 6.56782 6.09261
#
# Compressibility (1/GPa) = 0.03754274
#
# Stress axis : x y z
#
# Youngs Moduli (GPa) = 161.12624 26.02165 79.62493
#
# Poissons Ratio (x) = 0.00934 0.31377
# Poissons Ratio (y) = 0.05784 0.44004
# Poissons Ratio (z) = 0.63494 0.14381
#
# Static dielectric constant tensor:
#      x y z
#    x 1.809300 0.000000 0.015010 
#    y 0.000000 1.926510 0.000000 
#    z 0.015010 0.000000 1.851940 
# 
# From -- ./inp_files/69383.got.cif
#   From: 2010.05.17/outbox.cif.g08.bks.cpg/sg13_35_cif.got.tgz:69383.got - 2010.06.03 16:44:36.
