data_PCOD9232401
_publ_section_title
;
Structure prediction by ZEFSAII (Michael W. Deem and Ramdas Pophale) SiO2 
 PCOD9232401
Probable space group: P 2/C
;
_chemical_formula_sum "Si O2"
_cell_formula_units_Z 26
_cell_length_a 14.338525
_cell_length_b 8.965130
_cell_length_c 11.340884
_cell_angle_alpha 90.000000
_cell_angle_beta 119.346306
_cell_angle_gamma 90.000000
_cell_volume 1270.754941
_symmetry_space_group_name_H-M "P 2/C"
_symmetry_group_IT_number 13
_symmetry_cell_setting 'monoclinic'
loop_
_space_group_symop_operation_xyz
x,y,z
-x,y,1/2-z
-x,-y,-z
x,-y,1/2+z
loop_
_atom_site_type_symbol
_atom_site_label
_atom_site_fract_x
_atom_site_fract_y
_atom_site_fract_z
Si Si1 0.500000 0.644737 0.250000
Si Si2 0.879843 0.685785 0.683523
Si Si3 0.673408 0.749737 0.186295
Si Si4 0.755221 0.785262 0.829055
Si Si5 0.776694 0.892916 0.454389
Si Si6 0.619984 0.944437 0.557690
Si Si7 0.303547 0.463234 0.014724
O O1 0.562053 0.737190 0.188289
O O2 0.408679 0.545707 0.129569
O O3 0.842964 0.720894 0.793492
O O4 0.866298 0.838627 0.600293
O O5 0.794207 0.574804 0.571346
O O6 0.000000 0.629544 0.750000
O O7 0.763132 0.772512 0.341470
O O8 0.683021 0.901704 0.119447
O O9 0.677153 0.613742 0.099704
O O10 0.655078 0.828382 0.680865
O O11 0.725801 0.664012 0.908541
O O12 0.788890 0.942096 0.909287
O O13 0.665429 0.890434 0.460979
O O14 0.500000 0.000000 0.500000
#
# Coordination Sequence:
#
# PCOD9232401 Si02
#       7
#     2   4   4   4   4   4   4
#     4  12  24  38  62  96 142 174 212 260 322 400
#     4  11  26  47  70  96 128 170 225 279 327 391
#     4  11  22  39  63  94 132 175 212 262 317 390
#     4  10  24  43  67  97 132 171 218 276 328 393
#     4  10  21  46  65  96 130 169 220 271 325 383
#     4  10  21  36  66  95 136 172 219 260 321 385
#     4  12  25  43  65  99 135 176 218 263 334 395
#
# _framework density 20.460279
#
# number of rings (size 3 to 8) (size 9 to 14) (size 15 to 20)
#    0.000    1.231    3.077    2.308    4.308    3.077 
#    0.000    0.769    0.000    0.000    0.000    0.000 
#    0.000    0.000    0.000    0.000    0.000    0.000 
#
# Total GULP energy -145169.254841 kJ/mol
# GULP energy per Si atom -5583.432878 kJ/mol
# Density = 2.041371 g / cm^3
# Si number density = 20.460279 Si / 1000 Ang^3
#
#
#
# Elastic Constant Matrix: (Units=GPa)
#
#
# Indices 1 2 3 4 5 6 
#
# 1 77.5149 33.9521 53.3666 0.0000 -0.1473 0.0000
# 2 33.9521 92.9598 49.4636 0.0000 -10.4173 0.0000
# 3 53.3666 49.4636 90.9234 0.0000 -14.0088 0.0000
# 4 0.0000 0.0000 0.0000 45.7148 0.0000 -17.5841
# 5 -0.1473 -10.4173 -14.0088 0.0000 31.7786 0.0000
# 6 0.0000 0.0000 0.0000 -17.5841 0.0000 18.5772
#
#
#
# Elastic Compliance Matrix: (Units=1/GPa)
#
#
# Indices 1 2 3 4 5 6 
#
# 1 0.022989 -0.001986 -0.013407 0.000000 -0.006455 0.000000
# 2 -0.001986 0.015372 -0.006890 0.000000 0.001993 0.000000
# 3 -0.013407 -0.006890 0.023880 0.000000 0.008206 0.000000
# 4 0.000000 0.000000 0.000000 0.034399 0.000000 0.032560
# 5 -0.006455 0.001993 0.008206 0.000000 0.035708 0.000000
# 6 0.000000 0.000000 0.000000 0.032560 0.000000 0.084649
#
#
# Mechanical properties :
#
#
# Convention : Reuss Voigt Hill
#
# Bulk Modulus (GPa) = 56.57750 59.44030 58.00890
# Shear Modulus (GPa) = 18.69474 27.52183 23.10829
#
# Velocity S-wave (km/s) = 3.02604 3.67159 3.36433
# Velocity P-wave (km/s) = 6.31836 6.86212 6.59584
#
# Compressibility (1/GPa) = 0.01767487
#
# Stress axis : x y z
#
# Youngs Moduli (GPa) = 43.49969 65.05289 41.87559
#
# Poissons Ratio (x) = 0.12917 0.56144
# Poissons Ratio (y) = 0.08637 0.28853
# Poissons Ratio (z) = 0.58321 0.44823
#
# Static dielectric constant tensor:
#      x y z
#    x 1.706100 0.000000 -0.001890 
#    y 0.000000 1.753810 0.000000 
#    z -0.001890 0.000000 1.778140 
# 
# From -- ./inp_files/36282.got.cif
#   From: 2010.05.17/outbox.cif.g08.bks.cpg/sg13_19_cif.got.tgz:36282.got - 2010.06.03 16:44:36.
