data_PCOD9232659
_publ_section_title
;
Structure prediction by ZEFSAII (Michael W. Deem and Ramdas Pophale) SiO2 
 PCOD9232659
Probable space group: P 2/C
;
_chemical_formula_sum "Si O2"
_cell_formula_units_Z 32
_cell_length_a 26.713540
_cell_length_b 10.429543
_cell_length_c 22.025443
_cell_angle_alpha 90.000000
_cell_angle_beta 162.545194
_cell_angle_gamma 90.000000
_cell_volume 1840.666914
_symmetry_space_group_name_H-M "P 2/C"
_symmetry_group_IT_number 13
_symmetry_cell_setting 'monoclinic'
loop_
_space_group_symop_operation_xyz
x,y,z
-x,y,1/2-z
-x,-y,-z
x,-y,1/2+z
loop_
_atom_site_type_symbol
_atom_site_label
_atom_site_fract_x
_atom_site_fract_y
_atom_site_fract_z
Si Si1 0.863649 0.455509 0.793014
Si Si2 0.506598 0.165708 0.447307
Si Si3 0.890904 0.658326 0.717256
Si Si4 0.261794 0.658328 0.088147
Si Si5 0.874816 0.165710 0.815525
Si Si6 0.656786 0.902835 0.247734
Si Si7 0.974886 0.097168 0.383937
Si Si8 0.504918 0.544494 0.575552
O O1 0.868114 0.548664 0.740767
O O2 0.899177 0.307285 0.817377
O O3 0.682274 0.460558 0.614550
O O4 0.000000 0.500000 0.000000
O O5 0.688624 0.159110 0.627250
O O6 0.536651 0.146543 0.554343
O O7 0.437220 0.307285 0.355420
O O8 0.400823 0.045170 0.302070
O O9 0.769934 0.645079 0.519933
O O10 0.873950 0.796553 0.730016
O O11 0.080629 0.651543 0.911261
O O12 0.338177 0.796553 0.194244
O O13 0.377186 0.548665 0.249840
O O14 0.998732 0.146541 0.016424
O O15 0.901668 0.045170 0.802917
O O16 0.841669 0.910168 0.433335
O O17 0.500000 0.500000 0.500000
#
# Coordination Sequence:
#
# PCOD9232659 Si02
#       8
#     4   4   4   4   4   4   4   4
#     4  11  21  35  56  82 113 145 184 229 276 326
#     4   9  18  32  51  78 107 135 173 223 271 315
#     4  10  21  38  57  79 111 147 183 226 277 332
#     4  10  21  38  57  79 111 147 183 226 277 332
#     4   9  18  32  51  78 107 135 173 223 271 315
#     4   9  17  32  52  77 106 137 175 219 268 322
#     4   9  17  32  52  77 106 137 175 219 268 322
#     4  11  21  35  56  82 113 145 184 229 276 326
#
# _framework density 17.385003000000001
#
# number of rings (size 3 to 8) (size 9 to 14) (size 15 to 20)
#    0.000    2.250    2.500    0.750    0.000    3.500 
#    0.000    1.250    0.000    4.500    0.000    0.000 
#    0.000    0.000    0.000    0.000    0.000    0.000 
#
# Total GULP energy -178506.675727 kJ/mol
# GULP energy per Si atom -5578.333616 kJ/mol
# Density = 1.734543 g / cm^3
# Si number density = 17.385003 Si / 1000 Ang^3
#
#
#
# Elastic Constant Matrix: (Units=GPa)
#
#
# Indices 1 2 3 4 5 6 
#
# 1 69.0627 66.8616 30.3956 0.0000 -26.5157 0.0000
# 2 66.8616 204.4044 70.5911 0.0000 -26.8591 0.0000
# 3 30.3956 70.5911 76.3618 0.0000 -26.0279 0.0000
# 4 0.0000 0.0000 0.0000 30.1455 0.0000 4.4339
# 5 -26.5157 -26.8591 -26.0279 0.0000 17.6704 0.0000
# 6 0.0000 0.0000 0.0000 4.4339 0.0000 30.7623
#
#
#
# Elastic Compliance Matrix: (Units=1/GPa)
#
#
# Indices 1 2 3 4 5 6 
#
# 1 0.052292 -0.012718 0.022289 0.000000 0.091968 0.000000
# 2 -0.012718 0.010326 -0.011323 0.000000 -0.020067 0.000000
# 3 0.022289 -0.011323 0.040617 0.000000 0.076062 0.000000
# 4 0.000000 0.000000 0.000000 0.033891 0.000000 -0.004885
# 5 0.091968 -0.020067 0.076062 0.000000 0.276132 0.000000
# 6 0.000000 0.000000 0.000000 -0.004885 0.000000 0.033211
#
#
# Mechanical properties :
#
#
# Convention : Reuss Voigt Hill
#
# Bulk Modulus (GPa) = 10.02691 76.16949 43.09820
# Shear Modulus (GPa) = 10.34733 27.84769 19.09751
#
# Velocity S-wave (km/s) = 2.44229 4.00662 3.31797
# Velocity P-wave (km/s) = 3.70583 8.08161 6.28672
#
# Compressibility (1/GPa) = 0.09973159
#
# Stress axis : x y z
#
# Youngs Moduli (GPa) = 19.12330 96.84365 24.62042
#
# Poissons Ratio (x) = 1.23164 -0.54878
# Poissons Ratio (y) = 0.24321 0.27878
# Poissons Ratio (z) = -0.42625 1.09658
#
# Static dielectric constant tensor:
#      x y z
#    x 1.579640 0.000000 0.012440 
#    y 0.000000 1.594260 0.000000 
#    z 0.012440 0.000000 1.577910 
# 
# From -- ./inp_files/82522.got.cif
#   From: 2010.05.17/outbox.cif.g08.bks.cpg/sg13_42_cif.got.tgz:82522.got - 2010.06.03 16:44:36.
