data_PCOD9232876
_publ_section_title
;
Structure prediction by ZEFSAII (Michael W. Deem and Ramdas Pophale) SiO2 
 PCOD9232876
Probable space group: P 2/C
;
_chemical_formula_sum "Si O2"
_cell_formula_units_Z 32
_cell_length_a 21.801273
_cell_length_b 12.411926
_cell_length_c 8.796524
_cell_angle_alpha 90.000000
_cell_angle_beta 134.653089
_cell_angle_gamma 90.000000
_cell_volume 1693.287910
_symmetry_space_group_name_H-M "P 2/C"
_symmetry_group_IT_number 13
_symmetry_cell_setting 'monoclinic'
loop_
_space_group_symop_operation_xyz
x,y,z
-x,y,1/2-z
-x,-y,-z
x,-y,1/2+z
loop_
_atom_site_type_symbol
_atom_site_label
_atom_site_fract_x
_atom_site_fract_y
_atom_site_fract_z
Si Si1 0.945294 0.320982 0.887618
Si Si2 0.076376 0.919753 0.085371
Si Si3 0.788632 0.559590 0.252490
Si Si4 0.668739 0.497627 0.284482
Si Si5 0.259418 0.840965 0.896185
Si Si6 0.201569 0.003802 0.548545
Si Si7 0.597646 0.656570 0.397109
Si Si8 0.875977 0.334643 0.420857
O O1 0.957491 0.200373 0.966306
O O2 0.877204 0.379053 0.877916
O O3 0.906060 0.320718 0.647968
O O4 0.040984 0.367145 0.034459
O O5 0.122041 0.948047 0.007087
O O6 0.154430 0.929872 0.341846
O O7 0.000000 0.000000 0.000000
O O8 0.735636 0.577252 0.313542
O O9 0.810603 0.433092 0.297718
O O10 0.724592 0.573162 0.999574
O O11 0.605726 0.574193 0.269313
O O12 0.625347 0.417936 0.088651
O O13 0.171301 0.772406 0.718556
O O14 0.257949 0.931294 0.760647
O O15 0.252016 0.904136 0.043113
O O16 0.337176 0.756434 0.013386
O O17 0.500000 0.693573 0.250000
#
# Coordination Sequence:
#
# PCOD9232876 Si02
#       8
#     4   4   4   4   4   4   4   4
#     4  11  22  33  56  84 122 164 209 254 288 338
#     4  11  22  36  56  83 115 157 213 259 292 328
#     4  11  20  38  55  90 120 165 196 240 289 374
#     4  10  21  38  65  89 127 150 194 232 307 379
#     4  11  21  43  60  86 118 163 201 253 310 362
#     4  10  23  37  58  81 116 157 205 249 303 347
#     4  11  23  42  69  95 120 150 189 250 315 383
#     4  11  21  36  56  82 122 169 201 247 300 347
#
# _framework density 18.898143999999998
#
# number of rings (size 3 to 8) (size 9 to 14) (size 15 to 20)
#    0.000    1.250    5.000    2.625    3.500    0.000 
#    0.000    1.875    0.000    0.000    0.000    0.000 
#    0.000    0.000    0.000    0.000    0.000    0.000 
#
# Total GULP energy -178690.624134 kJ/mol
# GULP energy per Si atom -5584.082004 kJ/mol
# Density = 1.885513 g / cm^3
# Si number density = 18.898144 Si / 1000 Ang^3
#
#
#
# Elastic Constant Matrix: (Units=GPa)
#
#
# Indices 1 2 3 4 5 6 
#
# 1 105.5808 31.6014 39.3550 0.0000 7.6618 0.0000
# 2 31.6014 82.6728 21.3304 0.0000 0.3578 0.0000
# 3 39.3550 21.3304 48.3154 0.0000 1.9037 0.0000
# 4 0.0000 0.0000 0.0000 20.1770 0.0000 1.4596
# 5 7.6618 0.3578 1.9037 0.0000 30.0135 0.0000
# 6 0.0000 0.0000 0.0000 1.4596 0.0000 29.9094
#
#
#
# Elastic Compliance Matrix: (Units=1/GPa)
#
#
# Indices 1 2 3 4 5 6 
#
# 1 0.014394 -0.002815 -0.010364 0.000000 -0.002983 0.000000
# 2 -0.002815 0.014203 -0.004009 0.000000 0.000804 0.000000
# 3 -0.010364 -0.004009 0.030880 0.000000 0.000735 0.000000
# 4 0.000000 0.000000 0.000000 0.049737 0.000000 -0.002427
# 5 -0.002983 0.000804 0.000735 0.000000 0.034024 0.000000
# 6 0.000000 0.000000 0.000000 -0.002427 0.000000 0.033553
#
#
# Mechanical properties :
#
#
# Convention : Reuss Voigt Hill
#
# Bulk Modulus (GPa) = 39.83948 46.79361 43.31655
# Shear Modulus (GPa) = 22.77567 25.63881 24.20724
#
# Velocity S-wave (km/s) = 3.47534 3.68732 3.58289
# Velocity P-wave (km/s) = 6.10171 6.55310 6.33143
#
# Compressibility (1/GPa) = 0.02510073
#
# Stress axis : x y z
#
# Youngs Moduli (GPa) = 69.47539 70.40873 32.38333
#
# Poissons Ratio (x) = 0.19820 0.33562
# Poissons Ratio (y) = 0.19557 0.12982
# Poissons Ratio (z) = 0.72003 0.28227
#
# Static dielectric constant tensor:
#      x y z
#    x 1.680750 0.000000 -0.036630 
#    y 0.000000 1.639950 0.000000 
#    z -0.036630 0.000000 1.677250 
# 
# From -- ./inp_files/23375.got.cif
#   From: 2010.05.17/outbox.cif.g08.bks.cpg/sg13_12_cif.got.tgz:23375.got - 2010.06.03 16:44:36.
