data_PCOD9232467
_publ_section_title
;
Structure prediction by ZEFSAII (Michael W. Deem and Ramdas Pophale) SiO2 
 PCOD9232467
Probable space group: P 2/C
;
_chemical_formula_sum "Si O2"
_cell_formula_units_Z 32
_cell_length_a 18.933610
_cell_length_b 9.344835
_cell_length_c 14.272195
_cell_angle_alpha 90.000000
_cell_angle_beta 137.788270
_cell_angle_gamma 90.000000
_cell_volume 1696.611990
_symmetry_space_group_name_H-M "P 2/C"
_symmetry_group_IT_number 13
_symmetry_cell_setting 'monoclinic'
loop_
_space_group_symop_operation_xyz
x,y,z
-x,y,1/2-z
-x,-y,-z
x,-y,1/2+z
loop_
_atom_site_type_symbol
_atom_site_label
_atom_site_fract_x
_atom_site_fract_y
_atom_site_fract_z
Si Si1 0.804418 0.086071 0.468463
Si Si2 0.288748 0.618647 0.840335
Si Si3 0.173763 0.816722 0.306336
Si Si4 0.142814 0.873892 0.692146
Si Si5 0.067100 0.802027 0.909129
Si Si6 0.389363 0.728966 0.750565
Si Si7 0.374719 0.365591 0.038287
Si Si8 0.895628 0.408227 0.901166
O O1 0.849195 0.161715 0.605989
O O2 0.848637 0.138169 0.411870
O O3 0.679574 0.127137 0.339530
O O4 0.844286 0.922985 0.517512
O O5 0.220036 0.752454 0.811070
O O6 0.355070 0.677209 0.818578
O O7 0.201305 0.510650 0.715023
O O8 0.360304 0.522045 0.978930
O O9 0.285490 0.738088 0.410751
O O10 0.099254 0.712594 0.174527
O O11 0.177989 0.970113 0.260922
O O12 0.023919 0.857054 0.609802
O O13 0.000000 0.771474 0.750000
O O14 0.115014 0.666504 0.008602
O O15 0.515232 0.716147 0.870364
O O16 0.356770 0.625919 0.632432
O O17 0.000000 0.500000 0.000000
#
# Coordination Sequence:
#
# PCOD9232467 Si02
#       8
#     4   4   4   4   4   4   4   4
#     4  10  21  37  58  90 108 158 200 243 299 357
#     4  10  21  37  61  84 119 156 198 242 299 359
#     4  10  21  38  63  83 118 157 199 251 299 357
#     4  11  21  37  58  83 120 154 197 251 284 359
#     4  12  23  37  59  84 121 156 197 245 299 348
#     4   9  19  37  63  86 117 153 199 245 298 367
#     4   9  19  38  62  87 117 153 197 248 305 352
#     4  11  23  41  56  87 123 160 202 247 298 358
#
# _framework density 18.861118999999999
#
# number of rings (size 3 to 8) (size 9 to 14) (size 15 to 20)
#    0.000    1.750    3.750    0.750    0.000    1.000 
#    4.500    2.500    2.750    1.500    0.000    0.000 
#    0.000    0.000    0.000    0.000    0.000    0.000 
#
# Total GULP energy -178316.655604 kJ/mol
# GULP energy per Si atom -5572.395488 kJ/mol
# Density = 1.881819 g / cm^3
# Si number density = 18.861119 Si / 1000 Ang^3
#
#
#
# Elastic Constant Matrix: (Units=GPa)
#
#
# Indices 1 2 3 4 5 6 
#
# 1 52.6847 23.9531 27.0276 0.0000 -6.2864 0.0000
# 2 23.9531 99.9108 44.7989 0.0000 0.5634 0.0000
# 3 27.0276 44.7989 97.2887 0.0000 -4.0872 0.0000
# 4 0.0000 0.0000 0.0000 20.2228 0.0000 1.0096
# 5 -6.2864 0.5634 -4.0872 0.0000 27.1422 0.0000
# 6 0.0000 0.0000 0.0000 1.0096 0.0000 24.8709
#
#
#
# Elastic Compliance Matrix: (Units=1/GPa)
#
#
# Indices 1 2 3 4 5 6 
#
# 1 0.023597 -0.003574 -0.004707 0.000000 0.004831 0.000000
# 2 -0.003574 0.013190 -0.005160 0.000000 -0.001879 0.000000
# 3 -0.004707 -0.005160 0.014009 0.000000 0.001127 0.000000
# 4 0.000000 0.000000 0.000000 0.049550 0.000000 -0.002011
# 5 0.004831 -0.001879 0.001127 0.000000 0.038170 0.000000
# 6 0.000000 0.000000 0.000000 -0.002011 0.000000 0.040289
#
#
# Mechanical properties :
#
#
# Convention : Reuss Voigt Hill
#
# Bulk Modulus (GPa) = 41.81407 49.04928 45.43167
# Shear Modulus (GPa) = 23.40192 24.72083 24.06137
#
# Velocity S-wave (km/s) = 3.52625 3.62425 3.57559
# Velocity P-wave (km/s) = 6.22871 6.60118 6.41765
#
# Compressibility (1/GPa) = 0.02391540
#
# Stress axis : x y z
#
# Youngs Moduli (GPa) = 42.37881 75.81563 71.38040
#
# Poissons Ratio (x) = 0.27096 0.33597
# Poissons Ratio (y) = 0.15146 0.36830
# Poissons Ratio (z) = 0.19946 0.39118
#
# Static dielectric constant tensor:
#      x y z
#    x 1.678200 0.000000 0.009450 
#    y 0.000000 1.668180 0.000000 
#    z 0.009450 0.000000 1.734010 
# 
# From -- ./inp_files/57276.got.cif
#   From: 2010.05.17/outbox.cif.g08.bks.cpg/sg13_29_cif.got.tgz:57276.got - 2010.06.03 16:44:36.
