data_PCOD9232487
_publ_section_title
;
Structure prediction by ZEFSAII (Michael W. Deem and Ramdas Pophale) SiO2 
 PCOD9232487
Probable space group: P 2/C
;
_chemical_formula_sum "Si O2"
_cell_formula_units_Z 28
_cell_length_a 17.815914
_cell_length_b 13.852753
_cell_length_c 5.339328
_cell_angle_alpha 90.000000
_cell_angle_beta 118.492818
_cell_angle_gamma 90.000000
_cell_volume 1158.134122
_symmetry_space_group_name_H-M "P 2/C"
_symmetry_group_IT_number 13
_symmetry_cell_setting 'monoclinic'
loop_
_space_group_symop_operation_xyz
x,y,z
-x,y,1/2-z
-x,-y,-z
x,-y,1/2+z
loop_
_atom_site_type_symbol
_atom_site_label
_atom_site_fract_x
_atom_site_fract_y
_atom_site_fract_z
Si Si1 0.334647 0.263033 0.213831
Si Si2 0.582750 0.889330 0.274911
Si Si3 0.100466 0.440029 0.441847
Si Si4 0.500000 0.738665 0.750000
Si Si5 0.096127 0.057883 0.704468
Si Si6 0.256012 0.121264 0.714606
Si Si7 0.825969 0.275956 0.220773
Si Si8 0.000000 0.773317 0.250000
O O1 0.370457 0.173172 0.435926
O O2 0.421152 0.316188 0.258907
O O3 0.256960 0.306914 0.250327
O O4 0.294078 0.216833 0.902692
O O5 0.500000 0.945435 0.250000
O O6 0.661814 0.936892 0.253395
O O7 0.540888 0.809966 0.022461
O O8 0.116796 0.487081 0.736526
O O9 0.157180 0.346606 0.483029
O O10 0.000000 0.415507 0.250000
O O11 0.196793 0.076007 0.830929
O O12 0.043241 0.156786 0.611677
O O13 0.079628 0.989945 0.444320
O O14 0.193872 0.166223 0.401932
O O15 0.916528 0.279825 0.511934
#
# Coordination Sequence:
#
# PCOD9232487 Si02
#       8
#     4   4   4   2   4   4   4   2
#     4   9  17  33  55  91 120 152 204 258 314 358
#     4   8  15  29  55  86 120 150 191 262 321 364
#     4  10  25  43  62  90 129 171 210 253 319 378
#     4   8  14  28  54  88 124 152 184 258 322 362
#     4  12  27  45  61  84 124 170 212 263 326 381
#     4  10  21  37  59  88 118 158 217 261 311 371
#     4  11  24  38  65  90 126 160 217 266 307 363
#     4  12  26  44  64  90 120 166 222 268 312 364
#
# _framework density 24.176819999999999
#
# number of rings (size 3 to 8) (size 9 to 14) (size 15 to 20)
#    0.000    2.000    1.429    1.286    9.000    1.143 
#    0.000    0.000    0.000    0.857    0.000    1.000 
#    0.000    0.000    0.000    0.000    0.000    0.000 
#
# Total GULP energy -156433.830981 kJ/mol
# GULP energy per Si atom -5586.922535 kJ/mol
# Density = 2.412179 g / cm^3
# Si number density = 24.176820 Si / 1000 Ang^3
#
#
#
# Elastic Constant Matrix: (Units=GPa)
#
#
# Indices 1 2 3 4 5 6 
#
# 1 170.5474 50.2120 45.6974 0.0000 5.1219 0.0000
# 2 50.2120 44.3526 17.5800 0.0000 0.5735 0.0000
# 3 45.6974 17.5800 91.4475 0.0000 5.4624 0.0000
# 4 0.0000 0.0000 0.0000 18.5616 0.0000 -16.5398
# 5 5.1219 0.5735 5.4624 0.0000 44.2016 0.0000
# 6 0.0000 0.0000 0.0000 -16.5398 0.0000 35.1508
#
#
#
# Elastic Compliance Matrix: (Units=1/GPa)
#
#
# Indices 1 2 3 4 5 6 
#
# 1 0.009466 -0.009578 -0.002852 0.000000 -0.000620 0.000000
# 2 -0.009578 0.034101 -0.001823 0.000000 0.000893 0.000000
# 3 -0.002852 -0.001823 0.012784 0.000000 -0.001226 0.000000
# 4 0.000000 0.000000 0.000000 0.092773 0.000000 0.043653
# 5 -0.000620 0.000893 -0.001226 0.000000 0.022835 0.000000
# 6 0.000000 0.000000 0.000000 0.043653 0.000000 0.048989
#
#
# Mechanical properties :
#
#
# Convention : Reuss Voigt Hill
#
# Bulk Modulus (GPa) = 35.91229 59.25849 47.58539
# Shear Modulus (GPa) = 19.32467 32.44002 25.88234
#
# Velocity S-wave (km/s) = 2.83027 3.66701 3.27547
# Velocity P-wave (km/s) = 5.05636 6.51866 5.83351
#
# Compressibility (1/GPa) = 0.02784562
#
# Stress axis : x y z
#
# Youngs Moduli (GPa) = 105.63746 29.32441 78.22275
#
# Poissons Ratio (x) = 0.28088 0.22309
# Poissons Ratio (y) = 1.01184 0.14256
# Poissons Ratio (z) = 0.30128 0.05344
#
# Static dielectric constant tensor:
#      x y z
#    x 2.081490 0.000000 -0.006390 
#    y 0.000000 1.910080 0.000000 
#    z -0.006390 0.000000 2.006360 
# 
# From -- ./inp_files/6253.got.cif
#   From: 2010.05.17/outbox.cif.g08.bks.cpg/sg13_4_cif.got.tgz:6253.got - 2010.06.03 16:44:36.
