data_PCOD9232320
_publ_section_title
;
Structure prediction by ZEFSAII (Michael W. Deem and Ramdas Pophale) SiO2 
 PCOD9232320
Probable space group: P 2/C
;
_chemical_formula_sum "Si O2"
_cell_formula_units_Z 20
_cell_length_a 6.678052
_cell_length_b 5.110378
_cell_length_c 25.159383
_cell_angle_alpha 90.000000
_cell_angle_beta 67.246825
_cell_angle_gamma 90.000000
_cell_volume 791.805093
_symmetry_space_group_name_H-M "P 2/C"
_symmetry_group_IT_number 13
_symmetry_cell_setting 'monoclinic'
loop_
_space_group_symop_operation_xyz
x,y,z
-x,y,1/2-z
-x,-y,-z
x,-y,1/2+z
loop_
_atom_site_type_symbol
_atom_site_label
_atom_site_fract_x
_atom_site_fract_y
_atom_site_fract_z
Si Si1 0.943442 0.024425 0.664562
Si Si2 0.202823 0.059044 0.426706
Si Si3 0.617295 0.567658 0.042637
Si Si4 0.794040 0.478149 0.231649
Si Si5 0.610944 0.198695 0.839705
O O1 0.852856 0.317818 0.679190
O O2 0.831661 0.038370 0.825776
O O3 0.982648 0.957407 0.598744
O O4 0.788037 0.811456 0.708741
O O5 0.238222 0.330326 0.451452
O O6 0.233923 0.828136 0.466680
O O7 0.411158 0.999124 0.366638
O O8 0.426230 0.616393 0.105338
O O9 0.500000 0.500000 0.000000
O O10 0.617528 0.616102 0.287607
O O11 0.000000 0.478229 0.250000
#
# Coordination Sequence:
#
# PCOD9232320 Si02
#       5
#     4   4   4   4   4
#     4  11  22  39  59  89 127 157 201 250 296 379
#     4  10  23  40  62  90 121 158 210 252 312 371
#     4  10  22  43  65  86 122 160 209 265 312 361
#     4  10  21  36  58  88 124 161 197 241 299 371
#     4   9  24  39  63  87 126 166 199 248 314 363
#
# _framework density 25.25874
#
# number of rings (size 3 to 8) (size 9 to 14) (size 15 to 20)
#    1.200    0.800    0.000    3.600    8.400    0.800 
#    0.000    2.000    0.000    0.000    0.000    0.000 
#    0.000    0.000    0.000    0.000    0.000    0.000 
#
# Total GULP energy -111761.488984 kJ/mol
# GULP energy per Si atom -5588.074449 kJ/mol
# Density = 2.520125 g / cm^3
# Si number density = 25.258740 Si / 1000 Ang^3
#
#
#
# Elastic Constant Matrix: (Units=GPa)
#
#
# Indices 1 2 3 4 5 6 
#
# 1 50.8443 2.4834 9.1215 0.0000 6.1603 0.0000
# 2 2.4834 140.5621 25.1226 0.0000 15.5042 0.0000
# 3 9.1215 25.1226 137.2314 0.0000 26.1509 0.0000
# 4 0.0000 0.0000 0.0000 36.0734 0.0000 13.3267
# 5 6.1603 15.5042 26.1509 0.0000 48.1982 0.0000
# 6 0.0000 0.0000 0.0000 13.3267 0.0000 24.3249
#
#
#
# Elastic Compliance Matrix: (Units=1/GPa)
#
#
# Indices 1 2 3 4 5 6 
#
# 1 0.020086 0.000043 -0.000949 0.000000 -0.002066 0.000000
# 2 0.000043 0.007502 -0.001021 0.000000 -0.001865 0.000000
# 3 -0.000949 -0.001021 0.008310 0.000000 -0.004059 0.000000
# 4 0.000000 0.000000 0.000000 0.034756 0.000000 -0.019041
# 5 -0.002066 -0.001865 -0.004059 0.000000 0.023814 0.000000
# 6 0.000000 0.000000 0.000000 -0.019041 0.000000 0.051542
#
#
# Mechanical properties :
#
#
# Convention : Reuss Voigt Hill
#
# Bulk Modulus (GPa) = 31.20724 44.67697 37.94211
# Shear Modulus (GPa) = 31.14366 41.17999 36.16182
#
# Velocity S-wave (km/s) = 3.51520 4.04211 3.78783
# Velocity P-wave (km/s) = 5.37190 6.28578 5.84672
#
# Compressibility (1/GPa) = 0.03204384
#
# Stress axis : x y z
#
# Youngs Moduli (GPa) = 49.78488 133.30368 120.32994
#
# Poissons Ratio (x) = -0.00569 0.11422
# Poissons Ratio (y) = -0.00212 0.12283
# Poissons Ratio (z) = 0.04726 0.13608
#
# Static dielectric constant tensor:
#      x y z
#    x 2.094270 0.000000 -0.067510 
#    y 0.000000 1.926870 0.000000 
#    z -0.067510 0.000000 2.031480 
# 
# From -- ./inp_files/84005.got.cif
#   From: 2010.05.17/outbox.cif.g08.bks.cpg/sg13_43_cif.got.tgz:84005.got - 2010.06.03 16:44:36.
