data_PCOD9232418
_publ_section_title
;
Structure prediction by ZEFSAII (Michael W. Deem and Ramdas Pophale) SiO2 
 PCOD9232418
Probable space group: P 2/C
;
_chemical_formula_sum "Si O2"
_cell_formula_units_Z 24
_cell_length_a 7.694277
_cell_length_b 9.862761
_cell_length_c 23.150505
_cell_angle_alpha 90.000000
_cell_angle_beta 131.660516
_cell_angle_gamma 90.000000
_cell_volume 1312.512529
_symmetry_space_group_name_H-M "P 2/C"
_symmetry_group_IT_number 13
_symmetry_cell_setting 'monoclinic'
loop_
_space_group_symop_operation_xyz
x,y,z
-x,y,1/2-z
-x,-y,-z
x,-y,1/2+z
loop_
_atom_site_type_symbol
_atom_site_label
_atom_site_fract_x
_atom_site_fract_y
_atom_site_fract_z
Si Si1 0.314424 0.685817 0.657213
Si Si2 0.985930 0.200247 0.843242
Si Si3 0.113095 0.496193 0.907514
Si Si4 0.688431 0.996488 0.844216
Si Si5 0.516967 0.503808 0.407515
Si Si6 0.387036 0.799754 0.343242
O O1 0.500000 0.685051 0.750000
O O2 0.424482 0.605795 0.627820
O O3 0.086795 0.605798 0.627821
O O4 0.258888 0.841482 0.629444
O O5 0.905380 0.082146 0.868177
O O6 0.789668 0.211243 0.750000
O O7 0.006296 0.345907 0.878029
O O8 0.228186 0.171942 0.864093
O O9 0.270836 0.520159 0.885417
O O10 0.285713 0.500001 1.000000
O O11 0.500000 0.993440 0.750000
O O12 0.567324 0.082144 0.868177
O O13 0.505824 0.654095 0.378030
#
# Coordination Sequence:
#
# PCOD9232418 Si02
#       6
#     4   4   4   4   4   4
#     4  11  22  35  55  82 109 137 172 219 270 314
#     4   9  17  32  54  75  98 135 179 217 257 311
#     4  10  21  37  56  79 108 141 178 220 264 312
#     4   9  19  33  50  76 106 135 170 215 264 310
#     4  10  21  37  56  79 108 141 178 220 264 312
#     4   9  17  32  54  75  98 135 179 217 257 311
#
# _framework density 18.285540999999998
#
# number of rings (size 3 to 8) (size 9 to 14) (size 15 to 20)
#    0.000    2.333    0.000    2.500    0.000    4.667 
#    0.000    6.667    0.000    6.000    0.000    0.000 
#    0.000    0.000    0.000    0.000    0.000    0.000 
#
# Total GULP energy -133979.673832 kJ/mol
# GULP energy per Si atom -5582.486410 kJ/mol
# Density = 1.824392 g / cm^3
# Si number density = 18.285541 Si / 1000 Ang^3
#
#
#
# Elastic Constant Matrix: (Units=GPa)
#
#
# Indices 1 2 3 4 5 6 
#
# 1 120.6505 125.5124 32.5430 0.0000 -4.6063 0.0000
# 2 125.5124 205.1118 38.6809 0.0000 -5.8068 0.0000
# 3 32.5430 38.6809 24.1224 0.0000 -1.8488 0.0000
# 4 0.0000 0.0000 0.0000 -17.6786 0.0000 -0.6320
# 5 -4.6063 -5.8068 -1.8488 0.0000 9.7977 0.0000
# 6 0.0000 0.0000 0.0000 -0.6320 0.0000 -8.2459
#
#
#
# Elastic Compliance Matrix: (Units=1/GPa)
#
#
# Indices 1 2 3 4 5 6 
#
# 1 0.025560 -0.013065 -0.013400 0.000000 0.001745 0.000000
# 2 -0.013065 0.013708 -0.004265 0.000000 0.001177 0.000000
# 3 -0.013400 -0.004265 0.066659 0.000000 0.003751 0.000000
# 4 0.000000 0.000000 0.000000 -0.056721 0.000000 0.004347
# 5 0.001745 0.001177 0.003751 0.000000 0.104291 0.000000
# 6 0.000000 0.000000 0.000000 0.004347 0.000000 -0.121606
#
#
# Mechanical properties :
#
#
# Convention : Reuss Voigt Hill
#
# Bulk Modulus (GPa) = 22.48791 82.59526 52.54158
# Shear Modulus (GPa) = 46.22218 6.98454 26.60336
#
# Velocity S-wave (km/s) = 5.03318 1.95653 3.81843
# Velocity P-wave (km/s) = 6.78985 7.09731 6.94528
#
# Compressibility (1/GPa) = 0.04446834
#
# Stress axis : x y z
#
# Youngs Moduli (GPa) = 39.12298 72.95255 15.00165
#
# Poissons Ratio (x) = 0.95309 0.20102
# Poissons Ratio (y) = 0.51113 0.06398
# Poissons Ratio (z) = 0.52424 0.31115
#
# Static dielectric constant tensor:
#      x y z
#    x 1.634760 0.000000 -0.002010 
#    y 0.000000 1.596270 0.000000 
#    z -0.002010 0.000000 1.604710 
# 
# From -- ./inp_files/84846.got.cif
#   From: 2010.05.17/outbox.cif.g08.bks.cpg/sg13_43_cif.got.tgz:84846.got - 2010.06.03 16:44:36.
