data_PCOD9232891
_publ_section_title
;
Structure prediction by ZEFSAII (Michael W. Deem and Ramdas Pophale) SiO2 
 PCOD9232891
Probable space group: P 2/C
;
_chemical_formula_sum "Si O2"
_cell_formula_units_Z 24
_cell_length_a 9.424875
_cell_length_b 14.140273
_cell_length_c 13.550193
_cell_angle_alpha 90.000000
_cell_angle_beta 149.885396
_cell_angle_gamma 90.000000
_cell_volume 906.045515
_symmetry_space_group_name_H-M "P 2/C"
_symmetry_group_IT_number 13
_symmetry_cell_setting 'monoclinic'
loop_
_space_group_symop_operation_xyz
x,y,z
-x,y,1/2-z
-x,-y,-z
x,-y,1/2+z
loop_
_atom_site_type_symbol
_atom_site_label
_atom_site_fract_x
_atom_site_fract_y
_atom_site_fract_z
Si Si1 0.655727 0.645703 0.447467
Si Si2 0.849589 0.142528 0.392706
Si Si3 0.720423 0.151371 0.016041
Si Si4 0.289179 0.941393 0.487080
Si Si5 0.756873 0.438931 0.529592
Si Si6 0.815166 0.647634 0.863281
O O1 0.500000 0.634521 0.250000
O O2 0.565469 0.747885 0.434511
O O3 0.643380 0.543600 0.489321
O O4 0.979830 0.651682 0.606934
O O5 0.821695 0.072400 0.467322
O O6 0.828110 0.249220 0.419116
O O7 0.145634 0.141625 0.513234
O O8 0.573055 0.123215 0.157061
O O9 0.000000 0.159584 0.250000
O O10 0.596826 0.048226 0.962427
O O11 0.000000 0.924983 0.250000
O O12 0.488912 0.372314 0.364214
O O13 0.869311 0.427642 0.483902
O O14 0.000000 0.411192 0.750000
#
# Coordination Sequence:
#
# PCOD9232891 Si02
#       6
#     4   4   4   4   4   4
#     4  11  23  42  63  88 127 166 204 257 311 367
#     4  10  22  41  62  87 129 160 199 265 304 364
#     4  10  23  42  59  91 126 161 210 257 306 376
#     4  10  21  38  66  91 120 160 212 251 312 369
#     4  11  22  39  68  90 120 160 207 253 316 365
#     4  10  23  43  59  91 128 155 207 259 299 375
#
# _framework density 26.488734000000001
#
# number of rings (size 3 to 8) (size 9 to 14) (size 15 to 20)
#    0.000    1.667    1.667    3.500    2.333    6.000 
#   12.000    0.000    0.000    0.000    0.000    0.000 
#    0.000    0.000    0.000    0.000    0.000    0.000 
#
# Total GULP energy -134251.438329 kJ/mol
# GULP energy per Si atom -5593.809930 kJ/mol
# Density = 2.642844 g / cm^3
# Si number density = 26.488734 Si / 1000 Ang^3
#
#
#
# Elastic Constant Matrix: (Units=GPa)
#
#
# Indices 1 2 3 4 5 6 
#
# 1 47.9003 31.9945 1.8101 0.0000 6.2493 0.0000
# 2 31.9945 151.1053 23.0634 0.0000 -14.8858 0.0000
# 3 1.8101 23.0634 145.4235 0.0000 -9.6764 0.0000
# 4 0.0000 0.0000 0.0000 24.7805 0.0000 -4.0952
# 5 6.2493 -14.8858 -9.6764 0.0000 29.6060 0.0000
# 6 0.0000 0.0000 0.0000 -4.0952 0.0000 22.4775
#
#
#
# Elastic Compliance Matrix: (Units=1/GPa)
#
#
# Indices 1 2 3 4 5 6 
#
# 1 0.026328 -0.006455 0.000113 0.000000 -0.008766 0.000000
# 2 -0.006455 0.008660 -0.000933 0.000000 0.005412 0.000000
# 3 0.000113 -0.000933 0.007146 0.000000 0.001843 0.000000
# 4 0.000000 0.000000 0.000000 0.041607 0.000000 0.007580
# 5 -0.008766 0.005412 0.001843 0.000000 0.038951 0.000000
# 6 0.000000 0.000000 0.000000 0.007580 0.000000 0.045870
#
#
# Mechanical properties :
#
#
# Convention : Reuss Voigt Hill
#
# Bulk Modulus (GPa) = 36.25471 50.90725 43.58098
# Shear Modulus (GPa) = 26.00008 34.54354 30.27181
#
# Velocity S-wave (km/s) = 3.13637 3.61513 3.38423
# Velocity P-wave (km/s) = 5.17999 6.05687 5.63551
#
# Compressibility (1/GPa) = 0.02758263
#
# Stress axis : x y z
#
# Youngs Moduli (GPa) = 37.98246 115.46928 139.94556
#
# Poissons Ratio (x) = 0.74540 -0.01578
# Poissons Ratio (y) = 0.24519 0.13057
# Poissons Ratio (z) = -0.00428 0.10773
#
# Static dielectric constant tensor:
#      x y z
#    x 2.104260 0.000000 -0.097770 
#    y 0.000000 2.069380 0.000000 
#    z -0.097770 0.000000 1.921690 
# 
# From -- ./inp_files/51511.got.cif
#   From: 2010.05.17/outbox.cif.g08.bks.cpg/sg13_26_cif.got.tgz:51511.got - 2010.06.03 16:44:36.
