data_PCOD9232229
_publ_section_title
;
Structure prediction by ZEFSAII (Michael W. Deem and Ramdas Pophale) SiO2 
 PCOD9232229
Probable space group: P 2/C
;
_chemical_formula_sum "Si O2"
_cell_formula_units_Z 24
_cell_length_a 15.183201
_cell_length_b 5.042359
_cell_length_c 30.081302
_cell_angle_alpha 90.000000
_cell_angle_beta 147.092566
_cell_angle_gamma 90.000000
_cell_volume 1251.181046
_symmetry_space_group_name_H-M "P 2/C"
_symmetry_group_IT_number 13
_symmetry_cell_setting 'monoclinic'
loop_
_space_group_symop_operation_xyz
x,y,z
-x,y,1/2-z
-x,-y,-z
x,-y,1/2+z
loop_
_atom_site_type_symbol
_atom_site_label
_atom_site_fract_x
_atom_site_fract_y
_atom_site_fract_z
Si Si1 0.999240 0.562320 0.361317
Si Si2 0.679435 0.101885 0.307777
Si Si3 0.795057 0.943305 0.758457
Si Si4 0.337209 0.250701 0.390315
Si Si5 0.287137 0.247779 0.923305
Si Si6 0.110046 0.393936 0.586399
O O1 0.943869 0.261652 0.329240
O O2 0.992906 0.608501 0.411539
O O3 0.165083 0.648608 0.408773
O O4 0.864360 0.761088 0.283925
O O5 0.500000 0.061565 0.250000
O O6 0.689461 0.064658 0.258719
O O7 0.745334 0.395121 0.345480
O O8 0.806123 0.892270 0.382745
O O9 0.703837 0.842474 0.676360
O O10 0.530111 0.244072 0.480446
O O11 0.280305 0.542524 0.379930
O O12 0.255673 0.041849 0.389885
O O13 0.000000 0.500000 0.500000
#
# Coordination Sequence:
#
# PCOD9232229 Si02
#       6
#     4   4   4   4   4   4
#     4  10  21  36  55  80 108 139 178 222 265 317
#     4  10  21  38  58  83 113 144 183 230 277 331
#     4  10  21  36  55  80 108 139 179 222 265 318
#     4  10  21  36  53  77 108 141 178 220 265 316
#     4  10  21  36  53  77 109 141 178 221 264 316
#     4  10  21  38  58  83 113 144 183 229 277 332
#
# _framework density 19.181877
#
# number of rings (size 3 to 8) (size 9 to 14) (size 15 to 20)
#    0.000    2.000    0.000    3.000    0.000    5.333 
#    0.000    5.000    0.000    0.000    0.000    0.000 
#    0.000    0.000    0.000    0.000    0.000    0.000 
#
# Total GULP energy -134020.251225 kJ/mol
# GULP energy per Si atom -5584.177134 kJ/mol
# Density = 1.913822 g / cm^3
# Si number density = 19.181877 Si / 1000 Ang^3
#
#
#
# Elastic Constant Matrix: (Units=GPa)
#
#
# Indices 1 2 3 4 5 6 
#
# 1 125.0855 15.3394 59.1303 0.0000 10.7851 0.0000
# 2 15.3394 66.5962 1.4664 0.0000 1.2037 0.0000
# 3 59.1303 1.4664 50.3771 0.0000 -16.0346 0.0000
# 4 0.0000 0.0000 0.0000 26.5789 0.0000 -3.1838
# 5 10.7851 1.2037 -16.0346 0.0000 26.7797 0.0000
# 6 0.0000 0.0000 0.0000 -3.1838 0.0000 21.4602
#
#
#
# Elastic Compliance Matrix: (Units=1/GPa)
#
#
# Indices 1 2 3 4 5 6 
#
# 1 0.075132 -0.012823 -0.120161 0.000000 -0.101629 0.000000
# 2 -0.012823 0.017243 0.019700 0.000000 0.016185 0.000000
# 3 -0.120161 0.019700 0.216745 0.000000 0.177285 0.000000
# 4 0.000000 0.000000 0.000000 0.038305 0.000000 0.005683
# 5 -0.101629 0.016185 0.177285 0.000000 0.183695 0.000000
# 6 0.000000 0.000000 0.000000 0.005683 0.000000 0.047441
#
#
# Mechanical properties :
#
#
# Convention : Reuss Voigt Hill
#
# Bulk Modulus (GPa) = 12.11346 43.77012 27.94179
# Shear Modulus (GPa) = 6.00496 26.03861 16.02179
#
# Velocity S-wave (km/s) = 1.77125 3.68837 2.89322
# Velocity P-wave (km/s) = 3.24220 6.40365 5.07536
#
# Compressibility (1/GPa) = 0.08255278
#
# Stress axis : x y z
#
# Youngs Moduli (GPa) = 13.30989 57.99435 4.61372
#
# Poissons Ratio (x) = 0.74364 0.55439
# Poissons Ratio (y) = 0.17067 -0.09089
# Poissons Ratio (z) = 1.59933 -1.14250
#
# Static dielectric constant tensor:
#      x y z
#    x 1.646020 0.000000 -0.006810 
#    y 0.000000 1.661170 0.000000 
#    z -0.006810 0.000000 1.635230 
# 
# From -- ./inp_files/96885.got.cif
#   From: 2010.05.17/outbox.cif.g08.bks.cpg/sg13_49_cif.got.tgz:96885.got - 2010.06.03 16:44:36.
