data_PCOD9232937
_publ_section_title
;
Structure prediction by ZEFSAII (Michael W. Deem and Ramdas Pophale) SiO2 
 PCOD9232937
Probable space group: P 2/C
;
_chemical_formula_sum "Si O2"
_cell_formula_units_Z 18
_cell_length_a 12.950282
_cell_length_b 9.533940
_cell_length_c 7.955293
_cell_angle_alpha 90.000000
_cell_angle_beta 78.188796
_cell_angle_gamma 90.000000
_cell_volume 961.421720
_symmetry_space_group_name_H-M "P 2/C"
_symmetry_group_IT_number 13
_symmetry_cell_setting 'monoclinic'
loop_
_space_group_symop_operation_xyz
x,y,z
-x,y,1/2-z
-x,-y,-z
x,-y,1/2+z
loop_
_atom_site_type_symbol
_atom_site_label
_atom_site_fract_x
_atom_site_fract_y
_atom_site_fract_z
Si Si1 0.793418 0.830166 0.596486
Si Si2 0.890251 0.897155 0.888534
Si Si3 0.500000 0.413711 0.750000
Si Si4 0.007122 0.659966 0.049891
Si Si5 0.579628 0.686859 0.580742
O O1 0.796242 0.856508 0.794123
O O2 0.877995 0.708789 0.543390
O O3 0.684508 0.778490 0.556210
O O4 0.847569 0.968053 0.499410
O O5 0.000000 0.931006 0.750000
O O6 0.923670 0.765145 0.991036
O O7 0.587614 0.524828 0.647907
O O8 0.461785 0.328956 0.597767
O O9 0.000000 0.675475 0.250000
O O10 0.000000 0.500000 0.000000
O O11 0.500000 0.747196 0.750000
#
# Coordination Sequence:
#
# PCOD9232937 Si02
#       5
#     4   4   2   4   4
#     4  11  21  38  62  85 116 166 194 234 309 358
#     4  10  21  39  58  83 125 158 192 236 295 362
#     4   8  18  40  62  82 128 150 194 270 304 338
#     4  11  22  38  57  91 122 150 197 249 287 356
#     4   9  19  39  61  89 116 157 206 252 304 361
#
# _framework density 18.722273000000001
#
# number of rings (size 3 to 8) (size 9 to 14) (size 15 to 20)
#    0.667    1.333    0.000    6.667    0.000    3.556 
#    8.000    1.111    0.000    0.000    0.000    0.000 
#    0.000    0.000    0.000    0.000    0.000    0.000 
#
# Total GULP energy -100216.047537 kJ/mol
# GULP energy per Si atom -5567.558197 kJ/mol
# Density = 1.867966 g / cm^3
# Si number density = 18.722273 Si / 1000 Ang^3
#
#
#
# Elastic Constant Matrix: (Units=GPa)
#
#
# Indices 1 2 3 4 5 6 
#
# 1 85.4189 72.2206 43.8985 0.0000 25.9281 0.0000
# 2 72.2206 142.2218 60.0787 0.0000 9.3197 0.0000
# 3 43.8985 60.0787 117.5188 0.0000 39.3076 0.0000
# 4 0.0000 0.0000 0.0000 30.7492 0.0000 12.2840
# 5 25.9281 9.3197 39.3076 0.0000 23.5829 0.0000
# 6 0.0000 0.0000 0.0000 12.2840 0.0000 14.5015
#
#
#
# Elastic Compliance Matrix: (Units=1/GPa)
#
#
# Indices 1 2 3 4 5 6 
#
# 1 0.051655 -0.031590 0.026383 0.000000 -0.088283 0.000000
# 2 -0.031590 0.029282 -0.024669 0.000000 0.064278 0.000000
# 3 0.026383 -0.024669 0.040016 0.000000 -0.085956 0.000000
# 4 0.000000 0.000000 0.000000 0.049155 0.000000 -0.041639
# 5 -0.088283 0.064278 -0.085956 0.000000 0.257335 0.000000
# 6 0.000000 0.000000 0.000000 -0.041639 0.000000 0.104230
#
#
# Mechanical properties :
#
#
# Convention : Reuss Voigt Hill
#
# Bulk Modulus (GPa) = 16.33969 77.50611 46.92290
# Shear Modulus (GPa) = 8.17228 25.03084 16.60156
#
# Velocity S-wave (km/s) = 2.09153 3.66041 2.98103
# Velocity P-wave (km/s) = 3.81825 7.70405 6.07994
#
# Compressibility (1/GPa) = 0.06120066
#
# Stress axis : x y z
#
# Youngs Moduli (GPa) = 19.35929 34.15098 24.99008
#
# Poissons Ratio (x) = 1.07884 -0.65932
# Poissons Ratio (y) = 0.61157 0.61648
# Poissons Ratio (z) = -0.51076 0.84246
#
# Static dielectric constant tensor:
#      x y z
#    x 1.637300 0.000000 0.024540 
#    y 0.000000 1.629810 0.000000 
#    z 0.024540 0.000000 1.766100 
# 
# From -- ./inp_files/14848.got.cif
#   From: 2010.05.17/outbox.cif.g08.bks.cpg/sg13_8_cif.got.tgz:14848.got - 2010.06.03 16:44:36.
