data_PCOD9232998
_publ_section_title
;
Structure prediction by ZEFSAII (Michael W. Deem and Ramdas Pophale) SiO2 
 PCOD9232998
Probable space group: P 2/C
;
_chemical_formula_sum "Si O2"
_cell_formula_units_Z 24
_cell_length_a 5.091687
_cell_length_b 23.198924
_cell_length_c 10.968053
_cell_angle_alpha 90.000000
_cell_angle_beta 64.100278
_cell_angle_gamma 90.000000
_cell_volume 1165.437982
_symmetry_space_group_name_H-M "P 2/C"
_symmetry_group_IT_number 13
_symmetry_cell_setting 'monoclinic'
loop_
_space_group_symop_operation_xyz
x,y,z
-x,y,1/2-z
-x,-y,-z
x,-y,1/2+z
loop_
_atom_site_type_symbol
_atom_site_label
_atom_site_fract_x
_atom_site_fract_y
_atom_site_fract_z
Si Si1 0.172085 0.657837 0.100410
Si Si2 0.355056 0.766335 0.913788
Si Si3 0.313842 0.473374 0.186232
Si Si4 0.856319 0.838392 0.912860
Si Si5 0.173123 0.974345 0.581197
Si Si6 0.712836 0.584474 0.050865
O O1 0.459658 0.631005 0.102240
O O2 0.000000 0.683301 0.250000
O O3 0.981766 0.607127 0.074544
O O4 0.249052 0.705541 0.985993
O O5 0.500000 0.759814 0.750000
O O6 0.582580 0.796107 0.958850
O O7 0.089860 0.810952 0.955439
O O8 0.500000 0.439531 0.250000
O O9 0.563179 0.522773 0.113483
O O10 0.000000 0.505875 0.250000
O O11 0.222218 0.427430 0.102693
O O12 0.796880 0.905483 0.944061
O O13 0.000000 0.835813 0.750000
O O14 0.000000 0.983159 0.750000
O O15 0.500000 0.000000 0.500000
O O16 0.000000 0.000000 0.500000
#
# Coordination Sequence:
#
# PCOD9232998 Si02
#       6
#     4   4   4   4   4   4
#     4  12  24  40  60  85 119 156 192 238 303 363
#     4  10  21  39  62  86 112 154 209 255 293 346
#     4  11  22  39  61  85 112 146 192 239 288 352
#     4   9  19  38  62  85 119 164 205 249 304 360
#     4  11  22  39  64  97 134 173 216 263 319 380
#     4  11  24  39  59  84 115 153 187 232 298 367
#
# _framework density 20.593116999999999
#
# number of rings (size 3 to 8) (size 9 to 14) (size 15 to 20)
#    0.000    1.333    0.000    6.500    0.000    7.333 
#    0.000    5.000    0.000    0.000    0.000    0.000 
#    0.000    0.000    0.000    0.000    0.000    0.000 
#
# Total GULP energy -133725.869619 kJ/mol
# GULP energy per Si atom -5571.911234 kJ/mol
# Density = 2.054625 g / cm^3
# Si number density = 20.593117 Si / 1000 Ang^3
#
#
#
# Elastic Constant Matrix: (Units=GPa)
#
#
# Indices 1 2 3 4 5 6 
#
# 1 119.8913 14.9558 36.0009 0.0000 -5.2556 0.0000
# 2 14.9558 75.6719 36.1074 0.0000 -9.4990 0.0000
# 3 36.0009 36.1074 86.3831 0.0000 3.1707 0.0000
# 4 0.0000 0.0000 0.0000 34.0979 0.0000 4.0755
# 5 -5.2556 -9.4990 3.1707 0.0000 25.3891 0.0000
# 6 0.0000 0.0000 0.0000 4.0755 0.0000 42.5097
#
#
#
# Elastic Compliance Matrix: (Units=1/GPa)
#
#
# Indices 1 2 3 4 5 6 
#
# 1 0.009706 0.000505 -0.004357 0.000000 0.002742 0.000000
# 2 0.000505 0.017901 -0.007979 0.000000 0.007799 0.000000
# 3 -0.004357 -0.007979 0.016948 0.000000 -0.006004 0.000000
# 4 0.000000 0.000000 0.000000 0.029667 0.000000 -0.002844
# 5 0.002742 0.007799 -0.006004 0.000000 0.043622 0.000000
# 6 0.000000 0.000000 0.000000 -0.002844 0.000000 0.023797
#
#
# Mechanical properties :
#
#
# Convention : Reuss Voigt Hill
#
# Bulk Modulus (GPa) = 47.86322 50.67495 49.26908
# Shear Modulus (GPa) = 29.02441 33.39150 31.20796
#
# Velocity S-wave (km/s) = 3.75830 4.03114 3.89711
# Velocity P-wave (km/s) = 6.49045 6.80646 6.65033
#
# Compressibility (1/GPa) = 0.02089287
#
# Stress axis : x y z
#
# Youngs Moduli (GPa) = 103.02469 55.86127 59.00490
#
# Poissons Ratio (x) = -0.02820 0.25708
# Poissons Ratio (y) = -0.05200 0.47082
# Poissons Ratio (z) = 0.44887 0.44573
#
# Static dielectric constant tensor:
#      x y z
#    x 1.240530 0.000000 -0.125430 
#    y 0.000000 1.703850 0.000000 
#    z -0.125430 0.000000 2.017160 
# 
# From -- ./inp_files/26611.got.cif
#   From: 2010.05.17/outbox.cif.g08.bks.cpg/sg13_14_cif.got.tgz:26611.got - 2010.06.03 16:44:36.
