data_PCOD9232650
_publ_section_title
;
Structure prediction by ZEFSAII (Michael W. Deem and Ramdas Pophale) SiO2 
 PCOD9232650
Probable space group: P 2/C
;
_chemical_formula_sum "Si O2"
_cell_formula_units_Z 20
_cell_length_a 8.032152
_cell_length_b 22.718795
_cell_length_c 5.306282
_cell_angle_alpha 90.000000
_cell_angle_beta 120.123543
_cell_angle_gamma 90.000000
_cell_volume 837.521893
_symmetry_space_group_name_H-M "P 2/C"
_symmetry_group_IT_number 13
_symmetry_cell_setting 'monoclinic'
loop_
_space_group_symop_operation_xyz
x,y,z
-x,y,1/2-z
-x,-y,-z
x,-y,1/2+z
loop_
_atom_site_type_symbol
_atom_site_label
_atom_site_fract_x
_atom_site_fract_y
_atom_site_fract_z
Si Si1 0.716057 0.475171 0.641018
Si Si2 0.623094 0.855076 0.589786
Si Si3 0.768985 0.273766 0.076469
Si Si4 0.233429 0.660718 0.424905
Si Si5 0.265241 0.971138 0.607553
O O1 0.500000 0.500000 0.500000
O O2 0.806715 0.509993 0.477648
O O3 0.710302 0.406381 0.580074
O O4 0.500000 0.843573 0.750000
O O5 0.714669 0.793689 0.578816
O O6 0.763791 0.907232 0.788680
O O7 0.500000 0.875538 0.250000
O O8 0.701900 0.314195 0.257655
O O9 0.000000 0.277332 0.250000
O O10 0.702065 0.298115 0.756761
O O11 0.000000 0.661454 0.250000
O O12 0.500000 0.975041 0.750000
O O13 0.197421 0.983157 0.271386
#
# Coordination Sequence:
#
# PCOD9232650 Si02
#       5
#     4   4   4   4   4
#     4  10  21  38  54  82 112 138 174 223 278 333
#     4  11  21  35  54  88 116 141 195 240 279 329
#     4  10  22  41  59  81 114 154 188 227 283 333
#     4  10  21  39  61  80 106 148 192 221 266 341
#     4   9  16  28  49  76 110 149 182 229 281 327
#
# _framework density 23.879971000000001
#
# number of rings (size 3 to 8) (size 9 to 14) (size 15 to 20)
#    0.000    2.000    0.000    5.400    0.000    0.800 
#   21.600    0.000    0.000    1.200    0.000    0.000 
#    0.000    3.200    0.000    0.000    0.000    0.000 
#
# Total GULP energy -111904.035374 kJ/mol
# GULP energy per Si atom -5595.201769 kJ/mol
# Density = 2.382562 g / cm^3
# Si number density = 23.879971 Si / 1000 Ang^3
#
#
#
# Elastic Constant Matrix: (Units=GPa)
#
#
# Indices 1 2 3 4 5 6 
#
# 1 85.1509 38.8656 57.3876 0.0000 -24.1374 0.0000
# 2 38.8656 198.9192 62.9941 0.0000 -39.7694 0.0000
# 3 57.3876 62.9941 168.0048 0.0000 -37.5177 0.0000
# 4 0.0000 0.0000 0.0000 41.7059 0.0000 -11.7470
# 5 -24.1374 -39.7694 -37.5177 0.0000 48.3785 0.0000
# 6 0.0000 0.0000 0.0000 -11.7470 0.0000 37.7183
#
#
#
# Elastic Compliance Matrix: (Units=1/GPa)
#
#
# Indices 1 2 3 4 5 6 
#
# 1 0.016206 -0.001028 -0.004273 0.000000 0.003927 0.000000
# 2 -0.001028 0.006363 -0.001187 0.000000 0.003798 0.000000
# 3 -0.004273 -0.001187 0.008663 0.000000 0.003611 0.000000
# 4 0.000000 0.000000 0.000000 0.026283 0.000000 0.008186
# 5 0.003927 0.003798 0.003611 0.000000 0.028551 0.000000
# 6 0.000000 0.000000 0.000000 0.008186 0.000000 0.029062
#
#
# Mechanical properties :
#
#
# Convention : Reuss Voigt Hill
#
# Bulk Modulus (GPa) = 54.77605 85.61885 70.19745
# Shear Modulus (GPa) = 37.26053 45.08236 41.17144
#
# Velocity S-wave (km/s) = 3.95438 4.34968 4.15673
# Velocity P-wave (km/s) = 6.62098 7.82036 7.24553
#
# Compressibility (1/GPa) = 0.01825615
#
# Stress axis : x y z
#
# Youngs Moduli (GPa) = 61.70467 157.15701 115.43072
#
# Poissons Ratio (x) = 0.16157 0.49329
# Poissons Ratio (y) = 0.06344 0.13697
# Poissons Ratio (z) = 0.26369 0.18649
#
# Static dielectric constant tensor:
#      x y z
#    x 2.003310 0.000000 -0.039050 
#    y 0.000000 1.849030 0.000000 
#    z -0.039050 0.000000 1.990790 
# 
# From -- ./inp_files/2162.got.cif
#   From: 2010.05.17/outbox.cif.g08.bks.cpg/sg13_2_cif.got.tgz:2162.got - 2010.06.03 16:44:36.
