data_PCOD9232341
_publ_section_title
;
Structure prediction by ZEFSAII (Michael W. Deem and Ramdas Pophale) SiO2 
 PCOD9232341
Probable space group: P 2/C
;
_chemical_formula_sum "Si O2"
_cell_formula_units_Z 26
_cell_length_a 26.838244
_cell_length_b 8.826863
_cell_length_c 9.217024
_cell_angle_alpha 90.000000
_cell_angle_beta 30.576354
_cell_angle_gamma 90.000000
_cell_volume 1110.711093
_symmetry_space_group_name_H-M "P 2/C"
_symmetry_group_IT_number 13
_symmetry_cell_setting 'monoclinic'
loop_
_space_group_symop_operation_xyz
x,y,z
-x,y,1/2-z
-x,-y,-z
x,-y,1/2+z
loop_
_atom_site_type_symbol
_atom_site_label
_atom_site_fract_x
_atom_site_fract_y
_atom_site_fract_z
Si Si1 0.321606 0.698720 0.914593
Si Si2 0.288708 0.496250 0.251988
Si Si3 0.500000 0.014371 0.250000
Si Si4 0.117398 0.800462 0.462254
Si Si5 0.904102 0.919445 0.676448
Si Si6 0.800684 0.698178 0.765789
Si Si7 0.366207 0.942815 0.332504
O O1 0.348410 0.596904 0.986110
O O2 0.201659 0.684479 0.211614
O O3 0.351981 0.621868 0.688021
O O4 0.347857 0.875322 0.865420
O O5 0.240340 0.606097 0.493057
O O6 0.208972 0.402021 0.354953
O O7 0.434239 0.922353 0.301682
O O8 0.425648 0.104171 0.539582
O O9 0.143298 0.856046 0.559096
O O10 0.000000 0.761061 0.750000
O O11 0.138004 0.937806 0.301776
O O12 0.899801 0.781016 0.572886
O O13 0.000000 0.000000 0.500000
O O14 0.728070 0.839231 0.919763
#
# Coordination Sequence:
#
# PCOD9232341 Si02
#       7
#     4   4   2   4   4   4   4
#     4  11  21  41  65  91 125 178 210 263 316 397
#     4  10  24  36  62  98 135 162 221 258 329 382
#     4  10  24  38  60 110 124 152 202 296 316 362
#     4  10  21  36  59  93 126 156 216 267 303 364
#     4  10  21  36  61  95 126 158 220 271 303 360
#     4  11  21  41  67  96 126 179 210 267 320 390
#     4  11  22  40  71  90 129 162 222 256 325 387
#
# _framework density 23.408425999999999
#
# number of rings (size 3 to 8) (size 9 to 14) (size 15 to 20)
#    0.000    1.538    3.077    1.846    2.154    0.000 
#    0.000    0.769    0.000   64.615    0.000    0.000 
#    0.000    0.000    0.000    0.000    0.000    0.000 
#
# Total GULP energy -144939.394191 kJ/mol
# GULP energy per Si atom -5574.592084 kJ/mol
# Density = 2.335515 g / cm^3
# Si number density = 23.408426 Si / 1000 Ang^3
#
#
#
# Elastic Constant Matrix: (Units=GPa)
#
#
# Indices 1 2 3 4 5 6 
#
# 1 137.6855 58.9155 37.7401 0.0000 29.1489 0.0000
# 2 58.9155 126.7482 6.9712 0.0000 6.4055 0.0000
# 3 37.7401 6.9712 32.7954 0.0000 4.2333 0.0000
# 4 0.0000 0.0000 0.0000 8.6728 0.0000 10.2287
# 5 29.1489 6.4055 4.2333 0.0000 35.1186 0.0000
# 6 0.0000 0.0000 0.0000 10.2287 0.0000 21.8167
#
#
#
# Elastic Compliance Matrix: (Units=1/GPa)
#
#
# Indices 1 2 3 4 5 6 
#
# 1 0.016827 -0.006362 -0.016617 0.000000 -0.010803 0.000000
# 2 -0.006362 0.010444 0.004739 0.000000 0.002804 0.000000
# 3 -0.016617 0.004739 0.047681 0.000000 0.007181 0.000000
# 4 0.000000 0.000000 0.000000 0.257923 0.000000 -0.120926
# 5 -0.010803 0.002804 0.007181 0.000000 0.036065 0.000000
# 6 0.000000 0.000000 0.000000 -0.120926 0.000000 0.102532
#
#
# Mechanical properties :
#
#
# Convention : Reuss Voigt Hill
#
# Bulk Modulus (GPa) = 25.99315 56.05364 41.02339
# Shear Modulus (GPa) = 9.60104 26.02842 17.81473
#
# Velocity S-wave (km/s) = 2.02742 3.33817 2.76169
# Velocity P-wave (km/s) = 4.07540 6.23344 5.26615
#
# Compressibility (1/GPa) = 0.03847168
#
# Stress axis : x y z
#
# Youngs Moduli (GPa) = 59.42783 95.74529 20.97276
#
# Poissons Ratio (x) = 0.60910 0.34851
# Poissons Ratio (y) = 0.37806 -0.09939
# Poissons Ratio (z) = 0.98754 -0.45372
#
# Static dielectric constant tensor:
#      x y z
#    x 1.972060 0.000000 0.011860 
#    y 0.000000 1.951590 0.000000 
#    z 0.011860 0.000000 2.035650 
# 
# From -- ./inp_files/24405.got.cif
#   From: 2010.05.17/outbox.cif.g08.bks.cpg/sg13_13_cif.got.tgz:24405.got - 2010.06.03 16:44:36.
