data_PCOD9232171
_publ_section_title
;
Structure prediction by ZEFSAII (Michael W. Deem and Ramdas Pophale) SiO2 
 PCOD9232171
Probable space group: P 2/C
;
_chemical_formula_sum "Si O2"
_cell_formula_units_Z 28
_cell_length_a 8.565441
_cell_length_b 36.056514
_cell_length_c 5.200384
_cell_angle_alpha 90.000000
_cell_angle_beta 121.412351
_cell_angle_gamma 90.000000
_cell_volume 1370.695828
_symmetry_space_group_name_H-M "P 2/C"
_symmetry_group_IT_number 13
_symmetry_cell_setting 'monoclinic'
loop_
_space_group_symop_operation_xyz
x,y,z
-x,y,1/2-z
-x,-y,-z
x,-y,1/2+z
loop_
_atom_site_type_symbol
_atom_site_label
_atom_site_fract_x
_atom_site_fract_y
_atom_site_fract_z
Si Si1 0.214884 0.517638 0.391431
Si Si2 0.218760 0.977050 0.443618
Si Si3 0.777151 0.202438 0.061938
Si Si4 0.625252 0.324942 0.605882
Si Si5 0.782907 0.752771 0.072698
Si Si6 0.500000 0.087125 0.250000
Si Si7 0.628176 0.593892 0.111836
Si Si8 0.500000 0.137493 0.750000
O O1 0.294422 0.509681 0.741942
O O2 0.239826 0.559117 0.310148
O O3 0.000000 0.510283 0.250000
O O4 0.326248 0.940289 0.614639
O O5 0.000000 0.971222 0.250000
O O6 0.266291 0.007705 0.701279
O O7 0.722961 0.230727 0.246333
O O8 0.000000 0.198171 0.250000
O O9 0.717930 0.220650 0.743114
O O10 0.670272 0.163865 0.975782
O O11 0.500000 0.318423 0.750000
O O12 0.737555 0.288736 0.624589
O O13 0.719547 0.365258 0.719398
O O14 0.500000 0.329986 0.250000
O O15 0.000000 0.755064 0.250000
O O16 0.530853 0.112101 0.527666
O O17 0.500000 0.589216 0.250000
O O18 0.500000 0.593311 0.750000
#
# Coordination Sequence:
#
# PCOD9232171 Si02
#       8
#     4   4   4   4   4   2   4   2
#     4  10  21  36  54  77 104 141 186 223 266 325
#     4  10  21  39  64  92 123 162 204 250 306 357
#     4  10  23  41  59  84 117 151 201 253 288 356
#     4  10  21  35  55  85 111 141 177 229 289 345
#     4  10  21  38  60  84 109 145 191 239 292 348
#     4  12  24  39  60  92 124 160 206 252 296 363
#     4  10  21  36  53  79 113 139 177 223 276 337
#     4  12  26  39  60  88 120 166 204 240 314 355
#
# _framework density 20.427581
#
# number of rings (size 3 to 8) (size 9 to 14) (size 15 to 20)
#    0.000    1.714    0.000    3.857    3.000    3.429 
#    0.000    0.000    0.000   10.286    0.000    0.000 
#    0.000    0.000    0.000    0.000    0.000    0.000 
#
# Total GULP energy -156245.874315 kJ/mol
# GULP energy per Si atom -5580.209797 kJ/mol
# Density = 2.038109 g / cm^3
# Si number density = 20.427581 Si / 1000 Ang^3
#
#
#
# Elastic Constant Matrix: (Units=GPa)
#
#
# Indices 1 2 3 4 5 6 
#
# 1 61.7170 42.3078 46.7322 0.0000 -27.3556 0.0000
# 2 42.3078 118.1388 14.5916 0.0000 -15.3096 0.0000
# 3 46.7322 14.5916 79.0632 0.0000 -29.4587 0.0000
# 4 0.0000 0.0000 0.0000 4.0856 0.0000 -75.5025
# 5 -27.3556 -15.3096 -29.4587 0.0000 38.8231 0.0000
# 6 0.0000 0.0000 0.0000 -75.5025 0.0000 -97.0169
#
#
#
# Elastic Compliance Matrix: (Units=1/GPa)
#
#
# Indices 1 2 3 4 5 6 
#
# 1 0.044603 -0.012016 -0.019799 0.000000 0.011666 0.000000
# 2 -0.012016 0.012170 0.004865 0.000000 0.000024 0.000000
# 3 -0.019799 0.004865 0.026447 0.000000 0.008035 0.000000
# 4 0.000000 0.000000 0.000000 0.015912 0.000000 -0.012384
# 5 0.011666 0.000024 0.008035 0.000000 0.040085 0.000000
# 6 0.000000 0.000000 0.000000 -0.012384 0.000000 -0.000670
#
#
# Mechanical properties :
#
#
# Convention : Reuss Voigt Hill
#
# Bulk Modulus (GPa) = 34.10618 51.79803 42.95210
# Shear Modulus (GPa) = 24.72543 -0.46916 12.12814
#
# Velocity S-wave (km/s) = 3.48285 -0.47976 2.43927
# Velocity P-wave (km/s) = 5.73638 5.01050 5.38568
#
# Compressibility (1/GPa) = 0.02932020
#
# Stress axis : x y z
#
# Youngs Moduli (GPa) = 22.41987 82.16930 37.81146
#
# Poissons Ratio (x) = 0.98735 0.74864
# Poissons Ratio (y) = 0.26940 -0.18396
# Poissons Ratio (z) = 0.44390 -0.39978
#
# Static dielectric constant tensor:
#      x y z
#    x 1.744060 0.000000 -0.004150 
#    y 0.000000 1.785410 0.000000 
#    z -0.004150 0.000000 1.735250 
# 
# From -- ./inp_files/2762.got.cif
#   From: 2010.05.17/outbox.cif.g08.bks.cpg/sg13_2_cif.got.tgz:2762.got - 2010.06.03 16:44:36.
