data_PCOD9232436
_publ_section_title
;
Structure prediction by ZEFSAII (Michael W. Deem and Ramdas Pophale) SiO2 
 PCOD9232436
Probable space group: P 2/C
;
_chemical_formula_sum "Si O2"
_cell_formula_units_Z 26
_cell_length_a 21.962541
_cell_length_b 12.396919
_cell_length_c 23.949570
_cell_angle_alpha 90.000000
_cell_angle_beta 11.503872
_cell_angle_gamma 90.000000
_cell_volume 1300.449852
_symmetry_space_group_name_H-M "P 2/C"
_symmetry_group_IT_number 13
_symmetry_cell_setting 'monoclinic'
loop_
_space_group_symop_operation_xyz
x,y,z
-x,y,1/2-z
-x,-y,-z
x,-y,1/2+z
loop_
_atom_site_type_symbol
_atom_site_label
_atom_site_fract_x
_atom_site_fract_y
_atom_site_fract_z
Si Si1 0.500000 0.980823 0.250000
Si Si2 0.881838 0.094762 0.693035
Si Si3 0.431382 0.863469 0.914455
Si Si4 0.357415 0.627612 0.939194
Si Si5 0.269718 0.816695 0.365413
Si Si6 0.358172 0.393211 0.938211
Si Si7 0.390558 0.860089 0.552258
O O1 0.625799 0.062232 0.088999
O O2 0.299085 0.897019 0.392849
O O3 0.650425 0.165694 0.864034
O O4 0.235284 0.105675 0.361061
O O5 0.829328 0.119798 0.805366
O O6 0.770092 0.972471 0.786401
O O7 0.456615 0.736848 0.879504
O O8 0.500000 0.629195 0.750000
O O9 0.409234 0.510339 0.920744
O O10 0.000000 0.635683 0.250000
O O11 0.470147 0.709088 0.191393
O O12 0.429996 0.870752 0.167435
O O13 0.912642 0.787260 0.679571
O O14 0.500000 0.405225 0.750000
O O15 0.000000 0.372715 0.250000
#
# Coordination Sequence:
#
# PCOD9232436 Si02
#       7
#     2   4   4   4   4   4   4
#     4  12  24  34  56  98 120 150 172 238 310 340
#     4  11  23  40  58  82 115 161 198 227 278 342
#     4  12  23  37  60  86 123 146 187 245 283 344
#     4  10  21  37  57  83 117 155 188 225 285 353
#     4  12  23  37  60  86 123 146 187 245 283 344
#     4  10  21  37  57  83 117 155 188 225 285 353
#     4  11  23  40  58  82 115 161 198 227 278 342
#
# _framework density 19.993082000000001
#
# number of rings (size 3 to 8) (size 9 to 14) (size 15 to 20)
#    0.000    0.923    4.615    2.769    0.000    3.692 
#    0.000    0.000    0.000    5.538    0.000    0.000 
#    0.000    0.000    0.000    0.000    0.000    0.000 
#
# Total GULP energy -145058.318073 kJ/mol
# GULP energy per Si atom -5579.166080 kJ/mol
# Density = 1.994758 g / cm^3
# Si number density = 19.993082 Si / 1000 Ang^3
#
#
#
# Elastic Constant Matrix: (Units=GPa)
#
#
# Indices 1 2 3 4 5 6 
#
# 1 44.2063 14.9450 13.8641 0.0000 -6.1486 0.0000
# 2 14.9450 123.7240 17.6876 0.0000 -15.6819 0.0000
# 3 13.8641 17.6876 101.6496 0.0000 6.4442 0.0000
# 4 0.0000 0.0000 0.0000 24.1302 0.0000 2.4289
# 5 -6.1486 -15.6819 6.4442 0.0000 24.7549 0.0000
# 6 0.0000 0.0000 0.0000 2.4289 0.0000 10.4059
#
#
#
# Elastic Compliance Matrix: (Units=1/GPa)
#
#
# Indices 1 2 3 4 5 6 
#
# 1 0.025160 -0.001772 -0.003506 0.000000 0.006039 0.000000
# 2 -0.001772 0.009295 -0.001750 0.000000 0.005904 0.000000
# 3 -0.003506 -0.001750 0.010926 0.000000 -0.004824 0.000000
# 4 0.000000 0.000000 0.000000 0.042439 0.000000 -0.009906
# 5 0.006039 0.005904 -0.004824 0.000000 0.046892 0.000000
# 6 0.000000 0.000000 0.000000 -0.009906 0.000000 0.098411
#
#
# Mechanical properties :
#
#
# Convention : Reuss Voigt Hill
#
# Bulk Modulus (GPa) = 31.92401 40.28593 36.10497
# Shear Modulus (GPa) = 19.40833 26.73041 23.06937
#
# Velocity S-wave (km/s) = 3.11907 3.66044 3.40055
# Velocity P-wave (km/s) = 5.38272 6.16918 5.78932
#
# Compressibility (1/GPa) = 0.03132439
#
# Stress axis : x y z
#
# Youngs Moduli (GPa) = 39.74565 107.58418 91.52314
#
# Poissons Ratio (x) = 0.19069 0.32088
# Poissons Ratio (y) = 0.07045 0.16016
# Poissons Ratio (z) = 0.13935 0.18826
#
# Static dielectric constant tensor:
#      x y z
#    x 1.732310 0.000000 -0.035220 
#    y 0.000000 1.806190 0.000000 
#    z -0.035220 0.000000 1.724750 
# 
# From -- ./inp_files/93864.got.cif
#   From: 2010.05.17/outbox.cif.g08.bks.cpg/sg13_47_cif.got.tgz:93864.got - 2010.06.03 16:44:36.
