data_PCOD9232155
_publ_section_title
;
Structure prediction by ZEFSAII (Michael W. Deem and Ramdas Pophale) SiO2 
 PCOD9232155
Probable space group: P 2/C
;
_chemical_formula_sum "Si O2"
_cell_formula_units_Z 28
_cell_length_a 13.617144
_cell_length_b 17.739350
_cell_length_c 5.398667
_cell_angle_alpha 90.000000
_cell_angle_beta 63.746755
_cell_angle_gamma 90.000000
_cell_volume 1169.577398
_symmetry_space_group_name_H-M "P 2/C"
_symmetry_group_IT_number 13
_symmetry_cell_setting 'monoclinic'
loop_
_space_group_symop_operation_xyz
x,y,z
-x,y,1/2-z
-x,-y,-z
x,-y,1/2+z
loop_
_atom_site_type_symbol
_atom_site_label
_atom_site_fract_x
_atom_site_fract_y
_atom_site_fract_z
Si Si1 0.650460 0.750563 0.023685
Si Si2 0.384667 0.841625 0.946862
Si Si3 0.000000 0.864832 0.250000
Si Si4 0.000000 0.397008 0.750000
Si Si5 0.096897 0.740764 0.831815
Si Si6 0.780975 0.565873 0.272834
Si Si7 0.815569 0.046495 0.714028
Si Si8 0.297223 0.598738 0.644826
O O1 0.636741 0.792945 0.777529
O O2 0.782501 0.746926 0.912744
O O3 0.617431 0.662346 0.028554
O O4 0.601952 0.790109 0.320615
O O5 0.500000 0.881475 0.750000
O O6 0.284974 0.897019 0.119984
O O7 0.066965 0.914399 0.370168
O O8 0.911458 0.808197 0.462875
O O9 0.060887 0.338161 0.499466
O O10 0.095396 0.446311 0.769547
O O11 0.000000 0.755958 0.750000
O O12 0.731782 0.619184 0.539464
O O13 0.702784 0.492525 0.329797
O O14 0.784847 0.599931 0.998281
O O15 0.808065 0.015381 0.443364
#
# Coordination Sequence:
#
# PCOD9232155 Si02
#       8
#     4   4   2   2   4   4   4   4
#     4  12  23  45  70 100 141 178 239 291 355 404
#     4  12  28  50  78 106 134 177 235 301 356 408
#     4  11  24  42  66 108 143 194 230 266 327 414
#     4  11  22  34  52  92 143 186 246 272 343 410
#     4  11  23  36  65  96 146 194 230 287 332 410
#     4  10  21  35  52  87 137 189 228 285 334 419
#     4  12  27  47  74 107 146 186 222 274 336 425
#     4  10  21  36  58  87 128 181 233 280 346 403
#
# _framework density 23.940270999999999
#
# number of rings (size 3 to 8) (size 9 to 14) (size 15 to 20)
#    0.000    0.857    2.857    4.286    4.000    2.857 
#    1.286    0.000    0.000    0.000    0.000   40.000 
#    0.000    0.000    0.000    0.000    0.000    0.000 
#
# Total GULP energy -156113.183313 kJ/mol
# GULP energy per Si atom -5575.470833 kJ/mol
# Density = 2.388578 g / cm^3
# Si number density = 23.940271 Si / 1000 Ang^3
#
#
#
# Elastic Constant Matrix: (Units=GPa)
#
#
# Indices 1 2 3 4 5 6 
#
# 1 31.0240 5.3930 17.4263 0.0000 -3.3875 0.0000
# 2 5.3930 76.4154 15.9171 0.0000 -6.0513 0.0000
# 3 17.4263 15.9171 131.2167 0.0000 4.9489 0.0000
# 4 0.0000 0.0000 0.0000 28.9344 0.0000 11.6049
# 5 -3.3875 -6.0513 4.9489 0.0000 54.3532 0.0000
# 6 0.0000 0.0000 0.0000 11.6049 0.0000 -99.0932
#
#
#
# Elastic Compliance Matrix: (Units=1/GPa)
#
#
# Indices 1 2 3 4 5 6 
#
# 1 0.035332 -0.001335 -0.004624 0.000000 0.002474 0.000000
# 2 -0.001335 0.013625 -0.001535 0.000000 0.001573 0.000000
# 3 -0.004624 -0.001535 0.008468 0.000000 -0.001230 0.000000
# 4 0.000000 0.000000 0.000000 0.033010 0.000000 0.003866
# 5 0.002474 0.001573 -0.001230 0.000000 0.018840 0.000000
# 6 0.000000 0.000000 0.000000 0.003866 0.000000 -0.009639
#
#
# Mechanical properties :
#
#
# Convention : Reuss Voigt Hill
#
# Bulk Modulus (GPa) = 23.56343 35.12542 29.34443
# Shear Modulus (GPa) = 38.82928 10.16686 24.49807
#
# Velocity S-wave (km/s) = 4.03168 2.06300 3.20238
# Velocity P-wave (km/s) = 5.61574 4.51427 5.09486
#
# Compressibility (1/GPa) = 0.04243865
#
# Stress axis : x y z
#
# Youngs Moduli (GPa) = 28.30256 73.39520 118.09690
#
# Poissons Ratio (x) = 0.09795 0.54605
# Poissons Ratio (y) = 0.03777 0.18126
# Poissons Ratio (z) = 0.13087 0.11265
#
# Static dielectric constant tensor:
#      x y z
#    x 2.068490 0.000000 0.039420 
#    y 0.000000 2.000910 0.000000 
#    z 0.039420 0.000000 1.962980 
# 
# From -- ./inp_files/5324.got.cif
#   From: 2010.05.17/outbox.cif.g08.bks.cpg/sg13_3_cif.got.tgz:5324.got - 2010.06.03 16:44:36.
