data_PCOD9232443
_publ_section_title
;
Structure prediction by ZEFSAII (Michael W. Deem and Ramdas Pophale) SiO2 
 PCOD9232443
Probable space group: P 2/C
;
_chemical_formula_sum "Si O2"
_cell_formula_units_Z 20
_cell_length_a 17.325799
_cell_length_b 7.230131
_cell_length_c 22.777976
_cell_angle_alpha 90.000000
_cell_angle_beta 16.504816
_cell_angle_gamma 90.000000
_cell_volume 810.624251
_symmetry_space_group_name_H-M "P 2/C"
_symmetry_group_IT_number 13
_symmetry_cell_setting 'monoclinic'
loop_
_space_group_symop_operation_xyz
x,y,z
-x,y,1/2-z
-x,-y,-z
x,-y,1/2+z
loop_
_atom_site_type_symbol
_atom_site_label
_atom_site_fract_x
_atom_site_fract_y
_atom_site_fract_z
Si Si1 0.697104 0.585356 0.779900
Si Si2 0.298354 0.921895 0.519522
Si Si3 0.547947 0.287053 0.146528
Si Si4 0.087440 0.139587 0.288424
Si Si5 0.862011 0.297982 0.749191
O O1 0.651496 0.580849 0.743849
O O2 0.822340 0.404642 0.717376
O O3 0.870664 0.748514 0.683412
O O4 0.395132 0.636653 0.024975
O O5 0.313806 0.820312 0.571003
O O6 0.000000 0.016838 0.750000
O O7 0.484138 0.088637 0.363802
O O8 0.199990 0.812490 0.533676
O O9 0.500000 0.258641 0.250000
O O10 0.860895 0.351395 0.919561
O O11 0.120519 0.921391 0.275680
#
# Coordination Sequence:
#
# PCOD9232443 Si02
#       5
#     4   4   4   4   4
#     4  11  20  36  63  86 106 150 191 239 289 321
#     4   7  15  34  56  80 112 140 184 230 275 322
#     4  11  21  37  56  79 124 159 178 230 290 340
#     4   8  16  35  60  83 110 137 181 247 274 317
#     4  10  21  37  57  89 107 141 203 235 278 337
#
# _framework density 24.672342
#
# number of rings (size 3 to 8) (size 9 to 14) (size 15 to 20)
#    1.200    1.200    2.000    1.200    0.000    0.800 
#   14.400    4.000    0.000    6.000    0.000    0.000 
#    0.000    0.000    0.000    0.000    0.000    0.000 
#
# Total GULP energy -111367.397675 kJ/mol
# GULP energy per Si atom -5568.369884 kJ/mol
# Density = 2.461619 g / cm^3
# Si number density = 24.672342 Si / 1000 Ang^3
#
#
#
# Elastic Constant Matrix: (Units=GPa)
#
#
# Indices 1 2 3 4 5 6 
#
# 1 142.6418 37.0991 5.2619 0.0000 -23.4874 0.0000
# 2 37.0991 98.2503 0.3360 0.0000 -19.1926 0.0000
# 3 5.2619 0.3360 22.6309 0.0000 -2.8269 0.0000
# 4 0.0000 0.0000 0.0000 0.2977 0.0000 -10.2011
# 5 -23.4874 -19.1926 -2.8269 0.0000 37.6526 0.0000
# 6 0.0000 0.0000 0.0000 -10.2011 0.0000 35.1773
#
#
#
# Elastic Compliance Matrix: (Units=1/GPa)
#
#
# Indices 1 2 3 4 5 6 
#
# 1 0.008319 -0.002381 -0.001416 0.000000 0.003870 0.000000
# 2 -0.002381 0.011992 0.000963 0.000000 0.004700 0.000000
# 3 -0.001416 0.000963 0.044874 0.000000 0.002977 0.000000
# 4 0.000000 0.000000 0.000000 -0.375860 0.000000 -0.108996
# 5 0.003870 0.004700 0.002977 0.000000 0.031592 0.000000
# 6 0.000000 0.000000 0.000000 -0.108996 0.000000 -0.003181
#
#
# Mechanical properties :
#
#
# Convention : Reuss Voigt Hill
#
# Bulk Modulus (GPa) = 16.80173 38.76857 27.78515
# Shear Modulus (GPa) = -19.47364 29.34725 4.93680
#
# Velocity S-wave (km/s) = -2.81248 3.45263 1.41608
# Velocity P-wave (km/s) = 1.92925 5.62509 3.73629
#
# Compressibility (1/GPa) = 0.05951768
#
# Stress axis : x y z
#
# Youngs Moduli (GPa) = 120.20506 83.39068 22.28464
#
# Poissons Ratio (x) = 0.19851 0.03155
# Poissons Ratio (y) = 0.28615 -0.02145
# Poissons Ratio (z) = 0.17016 -0.08026
#
# Static dielectric constant tensor:
#      x y z
#    x 2.189500 0.000000 0.035260 
#    y 0.000000 2.009160 0.000000 
#    z 0.035260 0.000000 2.049940 
# 
# From -- ./inp_files/79734.got.cif
#   From: 2010.05.17/outbox.cif.g08.bks.cpg/sg13_40_cif.got.tgz:79734.got - 2010.06.03 16:44:36.
