data_PCOD9232602
_publ_section_title
;
Structure prediction by ZEFSAII (Michael W. Deem and Ramdas Pophale) SiO2 
 PCOD9232602
Probable space group: P 2/C
;
_chemical_formula_sum "Si O2"
_cell_formula_units_Z 26
_cell_length_a 8.526123
_cell_length_b 20.223904
_cell_length_c 11.897400
_cell_angle_alpha 90.000000
_cell_angle_beta 138.938075
_cell_angle_gamma 90.000000
_cell_volume 1347.568789
_symmetry_space_group_name_H-M "P 2/C"
_symmetry_group_IT_number 13
_symmetry_cell_setting 'monoclinic'
loop_
_space_group_symop_operation_xyz
x,y,z
-x,y,1/2-z
-x,-y,-z
x,-y,1/2+z
loop_
_atom_site_type_symbol
_atom_site_label
_atom_site_fract_x
_atom_site_fract_y
_atom_site_fract_z
Si Si1 0.619378 0.071914 0.554733
Si Si2 0.882179 0.686621 0.808918
Si Si3 0.821630 0.158482 0.255879
Si Si4 0.500000 0.395237 0.250000
Si Si5 0.778498 0.393306 0.879218
Si Si6 0.928306 0.524204 0.091267
Si Si7 0.997987 0.071660 0.557405
O O1 0.426078 0.125830 0.414643
O O2 0.807492 0.069414 0.554978
O O3 0.753195 0.086079 0.744592
O O4 0.500000 0.000000 0.500000
O O5 0.807869 0.762810 0.762530
O O6 0.662992 0.646057 0.748722
O O7 0.000000 0.668770 0.750000
O O8 0.099767 0.673004 0.012718
O O9 0.920365 0.124290 0.421929
O O10 0.000000 0.143885 0.250000
O O11 0.681369 0.439939 0.422268
O O12 0.500000 0.394079 0.750000
O O13 0.866871 0.417918 0.806773
O O14 0.908218 0.454657 0.012981
O O15 0.000000 0.496964 0.250000
O O16 0.000000 0.000000 0.500000
#
# Coordination Sequence:
#
# PCOD9232602 Si02
#       7
#     4   4   4   2   4   4   4
#     4  11  23  39  65  96 124 164 202 259 322 371
#     4  10  24  43  63  91 128 177 214 263 328 384
#     4  11  24  43  63  90 128 171 216 261 320 384
#     4  10  22  42  64  94 130 164 220 266 318 394
#     4  10  21  39  61  93 130 160 219 268 320 392
#     4  10  21  37  63  97 121 167 209 268 331 375
#     4  11  23  39  65  97 126 157 209 260 312 380
#
# _framework density 19.294004000000001
#
# number of rings (size 3 to 8) (size 9 to 14) (size 15 to 20)
#    0.000    1.538    2.308    1.846    4.308    2.462 
#    5.538    0.000    0.000    0.000    0.000    0.000 
#    0.000    0.000    0.000    0.000    0.000    0.000 
#
# Total GULP energy -144793.107876 kJ/mol
# GULP energy per Si atom -5568.965688 kJ/mol
# Density = 1.925009 g / cm^3
# Si number density = 19.294004 Si / 1000 Ang^3
#
#
#
# Elastic Constant Matrix: (Units=GPa)
#
#
# Indices 1 2 3 4 5 6 
#
# 1 74.8617 35.9622 31.8678 0.0000 11.4587 0.0000
# 2 35.9622 100.2021 49.1471 0.0000 5.4046 0.0000
# 3 31.8678 49.1471 114.9467 0.0000 11.7392 0.0000
# 4 0.0000 0.0000 0.0000 38.5404 0.0000 -5.9538
# 5 11.4587 5.4046 11.7392 0.0000 36.0225 0.0000
# 6 0.0000 0.0000 0.0000 -5.9538 0.0000 32.2388
#
#
#
# Elastic Compliance Matrix: (Units=1/GPa)
#
#
# Indices 1 2 3 4 5 6 
#
# 1 0.017288 -0.004857 -0.002306 0.000000 -0.004019 0.000000
# 2 -0.004857 0.013993 -0.004738 0.000000 0.000989 0.000000
# 3 -0.002306 -0.004738 0.011603 0.000000 -0.002337 0.000000
# 4 0.000000 0.000000 0.000000 0.026709 0.000000 0.004933
# 5 -0.004019 0.000989 -0.002337 0.000000 0.029652 0.000000
# 6 0.000000 0.000000 0.000000 0.004933 0.000000 0.031929
#
#
# Mechanical properties :
#
#
# Convention : Reuss Voigt Hill
#
# Bulk Modulus (GPa) = 52.40007 58.21832 55.30919
# Shear Modulus (GPa) = 30.99116 32.89589 31.94352
#
# Velocity S-wave (km/s) = 4.01216 4.13362 4.07334
# Velocity P-wave (km/s) = 6.97717 7.28164 7.13103
#
# Compressibility (1/GPa) = 0.01908394
#
# Stress axis : x y z
#
# Youngs Moduli (GPa) = 57.84407 71.46310 86.18286
#
# Poissons Ratio (x) = 0.34708 0.19872
# Poissons Ratio (y) = 0.28094 0.40830
# Poissons Ratio (z) = 0.13338 0.33856
#
# Static dielectric constant tensor:
#      x y z
#    x 1.888970 0.000000 -0.098150 
#    y 0.000000 1.648220 0.000000 
#    z -0.098150 0.000000 1.700390 
# 
# From -- ./inp_files/30826.got.cif
#   From: 2010.05.17/outbox.cif.g08.bks.cpg/sg13_16_cif.got.tgz:30826.got - 2010.06.03 16:44:36.
