data_PCOD9232915
_publ_section_title
;
Structure prediction by ZEFSAII (Michael W. Deem and Ramdas Pophale) SiO2 
 PCOD9232915
Probable space group: P 2/C
;
_chemical_formula_sum "Si O2"
_cell_formula_units_Z 32
_cell_length_a 23.293175
_cell_length_b 9.247546
_cell_length_c 14.771315
_cell_angle_alpha 90.000000
_cell_angle_beta 27.715223
_cell_angle_gamma 90.000000
_cell_volume 1479.787876
_symmetry_space_group_name_H-M "P 2/C"
_symmetry_group_IT_number 13
_symmetry_cell_setting 'monoclinic'
loop_
_space_group_symop_operation_xyz
x,y,z
-x,y,1/2-z
-x,-y,-z
x,-y,1/2+z
loop_
_atom_site_type_symbol
_atom_site_label
_atom_site_fract_x
_atom_site_fract_y
_atom_site_fract_z
Si Si1 0.623271 0.920441 0.292525
Si Si2 0.728120 0.852875 0.757059
Si Si3 0.527044 0.653786 0.000510
Si Si4 0.005451 0.820145 0.134927
Si Si5 0.626135 0.478145 0.545437
Si Si6 0.292712 0.819451 0.507730
Si Si7 0.107954 0.375749 0.851113
Si Si8 0.010758 0.162134 0.343204
O O1 0.592147 0.752716 0.350419
O O2 0.500000 0.000000 0.500000
O O3 0.731572 0.994889 0.198455
O O4 0.647315 0.923194 0.151643
O O5 0.642738 0.754105 0.811209
O O6 0.857811 0.774630 0.585690
O O7 0.685042 0.876326 0.920889
O O8 0.500000 0.500000 0.000000
O O9 0.578213 0.613163 0.027363
O O10 0.000000 0.802289 0.250000
O O11 0.910221 0.724712 0.212326
O O12 0.000997 0.990821 0.119730
O O13 0.500000 0.561944 0.750000
O O14 0.658908 0.345688 0.567057
O O15 0.752712 0.561162 0.346327
O O16 0.149090 0.806926 0.684481
O O17 0.000000 0.500000 0.000000
O O18 0.078759 0.269081 0.976283
O O19 0.000000 0.182825 0.250000
#
# Coordination Sequence:
#
# PCOD9232915 Si02
#       8
#     4   4   4   4   4   4   4   4
#     4  10  21  38  69 101 131 184 247 283 350 447
#     4  10  22  41  70  99 132 188 233 296 373 427
#     4  10  22  40  64  91 137 180 230 293 351 430
#     4  11  24  45  71 104 147 183 236 316 379 433
#     4  11  23  43  69  99 144 200 236 295 382 441
#     4  11  21  44  71  96 147 188 238 297 371 439
#     4  12  24  45  70 113 147 191 256 310 373 455
#     4  11  24  44  76 107 137 194 245 308 375 448
#
# _framework density 21.624721000000001
#
# number of rings (size 3 to 8) (size 9 to 14) (size 15 to 20)
#    0.000    1.250    3.750    2.625    0.000    3.500 
#    0.000    0.000    0.000    0.750    0.000    0.000 
#    0.000    0.000    0.000    0.000    0.000    0.000 
#
# Total GULP energy -178271.271760 kJ/mol
# GULP energy per Si atom -5570.977243 kJ/mol
# Density = 2.157550 g / cm^3
# Si number density = 21.624721 Si / 1000 Ang^3
#
#
#
# Elastic Constant Matrix: (Units=GPa)
#
#
# Indices 1 2 3 4 5 6 
#
# 1 92.9356 52.8495 35.4613 0.0000 1.7105 0.0000
# 2 52.8495 111.1207 40.3723 0.0000 3.0804 0.0000
# 3 35.4613 40.3723 110.0572 0.0000 -4.0772 0.0000
# 4 0.0000 0.0000 0.0000 32.4395 0.0000 -5.1813
# 5 1.7105 3.0804 -4.0772 0.0000 46.7982 0.0000
# 6 0.0000 0.0000 0.0000 -5.1813 0.0000 41.6620
#
#
#
# Elastic Compliance Matrix: (Units=1/GPa)
#
#
# Indices 1 2 3 4 5 6 
#
# 1 0.015384 -0.006346 -0.002643 0.000000 -0.000375 0.000000
# 2 -0.006346 0.013050 -0.002774 0.000000 -0.000869 0.000000
# 3 -0.002643 -0.002774 0.011001 0.000000 0.001238 0.000000
# 4 0.000000 0.000000 0.000000 0.031451 0.000000 0.003911
# 5 -0.000375 -0.000869 0.001238 0.000000 0.021547 0.000000
# 6 0.000000 0.000000 0.000000 0.003911 0.000000 0.024489
#
#
# Mechanical properties :
#
#
# Convention : Reuss Voigt Hill
#
# Bulk Modulus (GPa) = 62.86021 63.49776 63.17898
# Shear Modulus (GPa) = 34.30471 36.54198 35.42334
#
# Velocity S-wave (km/s) = 3.98724 4.11521 4.05173
# Velocity P-wave (km/s) = 7.09431 7.21160 7.15320
#
# Compressibility (1/GPa) = 0.01590832
#
# Stress axis : x y z
#
# Youngs Moduli (GPa) = 65.00084 76.63066 90.89842
#
# Poissons Ratio (x) = 0.48632 0.24023
# Poissons Ratio (y) = 0.41252 0.25218
# Poissons Ratio (z) = 0.17179 0.21260
#
# Static dielectric constant tensor:
#      x y z
#    x 1.950600 0.000000 -0.072260 
#    y 0.000000 1.780940 0.000000 
#    z -0.072260 0.000000 1.962270 
# 
# From -- ./inp_files/58782.got.cif
#   From: 2010.05.17/outbox.cif.g08.bks.cpg/sg13_30_cif.got.tgz:58782.got - 2010.06.03 16:44:36.
