data_PCOD9232094
_publ_section_title
;
Structure prediction by ZEFSAII (Michael W. Deem and Ramdas Pophale) SiO2 
 PCOD9232094
Probable space group: P 2/C
;
_chemical_formula_sum "Si O2"
_cell_formula_units_Z 24
_cell_length_a 14.996927
_cell_length_b 10.383191
_cell_length_c 20.826121
_cell_angle_alpha 90.000000
_cell_angle_beta 157.444056
_cell_angle_gamma 90.000000
_cell_volume 1243.951648
_symmetry_space_group_name_H-M "P 2/C"
_symmetry_group_IT_number 13
_symmetry_cell_setting 'monoclinic'
loop_
_space_group_symop_operation_xyz
x,y,z
-x,y,1/2-z
-x,-y,-z
x,-y,1/2+z
loop_
_atom_site_type_symbol
_atom_site_label
_atom_site_fract_x
_atom_site_fract_y
_atom_site_fract_z
Si Si1 0.745861 0.845306 0.952144
Si Si2 0.187524 0.757610 0.170854
Si Si3 0.039884 0.325024 0.429087
Si Si4 0.372968 0.496105 0.348207
Si Si5 0.328841 0.565098 0.575177
Si Si6 0.630958 0.119671 0.906755
O O1 0.500000 0.844070 0.750000
O O2 0.756636 0.709168 0.995597
O O3 0.727907 0.976063 0.980653
O O4 0.973719 0.840561 0.057686
O O5 0.232889 0.629130 0.242540
O O6 0.430765 0.833879 0.322618
O O7 0.111447 0.709144 0.049407
O O8 0.148232 0.459286 0.478009
O O9 0.153678 0.217299 0.459223
O O10 0.771424 0.362471 0.250338
O O11 0.500000 0.500000 0.500000
O O12 0.545326 0.490157 0.402895
O O13 0.500000 0.574362 0.750000
O O14 0.500000 0.122179 0.750000
#
# Coordination Sequence:
#
# PCOD9232094 Si02
#       6
#     4   4   4   4   4   4
#     4  10  21  33  58  95 122 151 197 255 299 351
#     4  11  20  39  63  87 125 159 202 249 304 357
#     4  11  19  37  64  86 118 161 201 244 302 361
#     4  12  25  37  59  94 122 155 205 259 303 349
#     4  11  19  36  62  90 117 153 206 246 298 359
#     4   9  20  35  58  91 121 157 196 248 300 357
#
# _framework density 19.293354000000001
#
# number of rings (size 3 to 8) (size 9 to 14) (size 15 to 20)
#    0.000    1.333    5.000    3.000    0.000    8.000 
#    0.000    0.000    0.000    6.000    0.000    0.000 
#    0.000    0.000    0.000    0.000    0.000    0.000 
#
# Total GULP energy -133748.562479 kJ/mol
# GULP energy per Si atom -5572.856770 kJ/mol
# Density = 1.924944 g / cm^3
# Si number density = 19.293354 Si / 1000 Ang^3
#
#
#
# Elastic Constant Matrix: (Units=GPa)
#
#
# Indices 1 2 3 4 5 6 
#
# 1 87.6348 25.8272 45.8949 0.0000 17.2062 0.0000
# 2 25.8272 126.4913 18.6506 0.0000 12.5281 0.0000
# 3 45.8949 18.6506 34.7426 0.0000 8.3677 0.0000
# 4 0.0000 0.0000 0.0000 19.5855 0.0000 22.1593
# 5 17.2062 12.5281 8.3677 0.0000 29.6293 0.0000
# 6 0.0000 0.0000 0.0000 22.1593 0.0000 21.2802
#
#
#
# Elastic Compliance Matrix: (Units=1/GPa)
#
#
# Indices 1 2 3 4 5 6 
#
# 1 0.039011 0.000205 -0.049536 0.000000 -0.008751 0.000000
# 2 0.000205 0.008762 -0.004350 0.000000 -0.002596 0.000000
# 3 -0.049536 -0.004350 0.095692 0.000000 0.003581 0.000000
# 4 0.000000 0.000000 0.000000 -0.286593 0.000000 0.298432
# 5 -0.008751 -0.002596 0.003581 0.000000 0.038919 0.000000
# 6 0.000000 0.000000 0.000000 0.298432 0.000000 -0.263769
#
#
# Mechanical properties :
#
#
# Convention : Reuss Voigt Hill
#
# Bulk Modulus (GPa) = 27.69698 47.73490 37.71594
# Shear Modulus (GPa) = -20.11409 24.66540 2.27565
#
# Velocity S-wave (km/s) = -3.23234 3.57941 1.08723
# Velocity P-wave (km/s) = 0.67540 6.47134 4.60078
#
# Compressibility (1/GPa) = 0.03610501
#
# Stress axis : x y z
#
# Youngs Moduli (GPa) = 25.63390 114.12651 10.45018
#
# Poissons Ratio (x) = -0.02343 0.51766
# Poissons Ratio (y) = -0.00526 0.04546
# Poissons Ratio (z) = 1.26979 0.49643
#
# Static dielectric constant tensor:
#      x y z
#    x 1.636470 0.000000 0.029180 
#    y 0.000000 1.617560 0.000000 
#    z 0.029180 0.000000 1.680380 
# 
# From -- ./inp_files/80191.got.cif
#   From: 2010.05.17/outbox.cif.g08.bks.cpg/sg13_41_cif.got.tgz:80191.got - 2010.06.03 16:44:36.
