data_PCOD9232707
_publ_section_title
;
Structure prediction by ZEFSAII (Michael W. Deem and Ramdas Pophale) SiO2 
 PCOD9232707
Probable space group: P 2/C
;
_chemical_formula_sum "Si O2"
_cell_formula_units_Z 28
_cell_length_a 15.777940
_cell_length_b 16.503747
_cell_length_c 5.422458
_cell_angle_alpha 90.000000
_cell_angle_beta 58.275021
_cell_angle_gamma 90.000000
_cell_volume 1201.006097
_symmetry_space_group_name_H-M "P 2/C"
_symmetry_group_IT_number 13
_symmetry_cell_setting 'monoclinic'
loop_
_space_group_symop_operation_xyz
x,y,z
-x,y,1/2-z
-x,-y,-z
x,-y,1/2+z
loop_
_atom_site_type_symbol
_atom_site_label
_atom_site_fract_x
_atom_site_fract_y
_atom_site_fract_z
Si Si1 0.632183 0.455886 0.659110
Si Si2 0.886814 0.222528 0.416899
Si Si3 0.866139 0.038930 0.541739
Si Si4 0.145711 0.479814 0.637832
Si Si5 0.500000 0.304370 0.750000
Si Si6 0.122532 0.703548 0.070287
Si Si7 0.627392 0.955084 0.441137
Si Si8 0.500000 0.198956 0.250000
O O1 0.599128 0.510264 0.475690
O O2 0.751729 0.469410 0.488929
O O3 0.591529 0.366184 0.669418
O O4 0.892330 0.126510 0.396265
O O5 0.842331 0.245309 0.748310
O O6 0.000000 0.254896 0.250000
O O7 0.840107 0.259859 0.243882
O O8 0.746719 0.039912 0.746571
O O9 0.899473 0.978286 0.271542
O O10 0.094196 0.516143 0.478876
O O11 0.161052 0.386120 0.556798
O O12 0.517463 0.251884 0.472836
O O13 0.000000 0.702605 0.250000
O O14 0.589167 0.864126 0.548433
O O15 0.595542 0.008684 0.726044
#
# Coordination Sequence:
#
# PCOD9232707 Si02
#       8
#     4   4   4   4   2   4   4   2
#     4  10  21  41  62  80 117 164 195 244 306 364
#     4  10  21  38  59  89 126 161 198 249 308 351
#     4  10  21  38  61  88 122 162 204 242 291 359
#     4  10  21  38  59  87 111 154 208 242 299 366
#     4  12  24  40  62  90 128 152 202 256 308 356
#     4  10  21  38  59  86 123 159 199 256 307 351
#     4  10  21  41  64  87 124 164 200 245 299 352
#     4  12  24  40  62 100 118 158 206 250 300 366
#
# _framework density 23.313787000000001
#
# number of rings (size 3 to 8) (size 9 to 14) (size 15 to 20)
#    0.000    1.714    0.000    4.286    0.000    1.143 
#   15.429    0.000    0.000    0.000    0.000    0.000 
#    0.000    0.000    0.000    0.000    0.000    0.000 
#
# Total GULP energy -156378.871455 kJ/mol
# GULP energy per Si atom -5584.959695 kJ/mol
# Density = 2.326072 g / cm^3
# Si number density = 23.313787 Si / 1000 Ang^3
#
#
#
# Elastic Constant Matrix: (Units=GPa)
#
#
# Indices 1 2 3 4 5 6 
#
# 1 106.3438 32.7900 79.7507 0.0000 26.9816 0.0000
# 2 32.7900 120.0615 47.3265 0.0000 34.0618 0.0000
# 3 79.7507 47.3265 156.3036 0.0000 44.4293 0.0000
# 4 0.0000 0.0000 0.0000 62.8502 0.0000 10.5579
# 5 26.9816 34.0618 44.4293 0.0000 57.2672 0.0000
# 6 0.0000 0.0000 0.0000 10.5579 0.0000 28.5733
#
#
#
# Elastic Compliance Matrix: (Units=1/GPa)
#
#
# Indices 1 2 3 4 5 6 
#
# 1 0.015438 -0.001067 -0.007270 0.000000 -0.000999 0.000000
# 2 -0.001067 0.010467 -0.001280 0.000000 -0.004729 0.000000
# 3 -0.007270 -0.001280 0.011937 0.000000 -0.005074 0.000000
# 4 0.000000 0.000000 0.000000 0.016964 0.000000 -0.006268
# 5 -0.000999 -0.004729 -0.005074 0.000000 0.024682 0.000000
# 6 0.000000 0.000000 0.000000 -0.006268 0.000000 0.037314
#
#
# Mechanical properties :
#
#
# Convention : Reuss Voigt Hill
#
# Bulk Modulus (GPa) = 53.74285 78.04927 65.89606
# Shear Modulus (GPa) = 35.15205 44.59425 39.87315
#
# Velocity S-wave (km/s) = 3.88723 4.37828 4.14004
# Velocity P-wave (km/s) = 6.57643 7.68827 7.15398
#
# Compressibility (1/GPa) = 0.01860713
#
# Stress axis : x y z
#
# Youngs Moduli (GPa) = 64.77614 95.53831 83.77208
#
# Poissons Ratio (x) = 0.10196 0.60901
# Poissons Ratio (y) = 0.06913 0.10726
# Poissons Ratio (z) = 0.47091 0.12233
#
# Static dielectric constant tensor:
#      x y z
#    x 1.955940 0.000000 -0.062480 
#    y 0.000000 1.831400 0.000000 
#    z -0.062480 0.000000 2.001520 
# 
# From -- ./inp_files/6255.got.cif
#   From: 2010.05.17/outbox.cif.g08.bks.cpg/sg13_4_cif.got.tgz:6255.got - 2010.06.03 16:44:36.
