data_PCOD9232241
_publ_section_title
;
Structure prediction by ZEFSAII (Michael W. Deem and Ramdas Pophale) SiO2 
 PCOD9232241
Probable space group: P 2/C
;
_chemical_formula_sum "Si O2"
_cell_formula_units_Z 24
_cell_length_a 14.193078
_cell_length_b 4.984272
_cell_length_c 18.771768
_cell_angle_alpha 90.000000
_cell_angle_beta 111.163166
_cell_angle_gamma 90.000000
_cell_volume 1238.392929
_symmetry_space_group_name_H-M "P 2/C"
_symmetry_group_IT_number 13
_symmetry_cell_setting 'monoclinic'
loop_
_space_group_symop_operation_xyz
x,y,z
-x,y,1/2-z
-x,-y,-z
x,-y,1/2+z
loop_
_atom_site_type_symbol
_atom_site_label
_atom_site_fract_x
_atom_site_fract_y
_atom_site_fract_z
Si Si1 0.611013 0.753764 0.087449
Si Si2 0.380960 0.729536 0.008273
Si Si3 0.088996 0.330996 0.060298
Si Si4 0.230631 0.115356 0.751784
Si Si5 0.094589 0.367608 0.224065
Si Si6 0.222142 0.841723 0.086121
O O1 0.653995 0.536924 0.042909
O O2 0.676857 0.780400 0.176143
O O3 0.611454 0.039725 0.048765
O O4 0.494049 0.676876 0.068656
O O5 0.307931 0.832051 0.050292
O O6 0.061566 0.285518 0.135295
O O7 0.181640 0.539467 0.082269
O O8 0.131166 0.049293 0.041829
O O9 0.000000 0.500000 0.000000
O O10 0.142064 0.336860 0.732944
O O11 0.256547 0.076698 0.675346
O O12 0.183394 0.839805 0.768353
O O13 0.000000 0.355243 0.250000
#
# Coordination Sequence:
#
# PCOD9232241 Si02
#       6
#     4   4   4   4   4   4
#     4  10  21  37  57  83 112 142 182 228 274 329
#     4  10  21  37  57  83 112 142 181 228 275 329
#     4  10  21  36  54  79 110 143 182 227 271 322
#     4  10  21  37  56  80 110 144 183 226 273 327
#     4  10  21  36  54  79 109 142 183 227 270 323
#     4  10  21  37  56  80 111 145 183 226 272 326
#
# _framework density 19.379954000000001
#
# number of rings (size 3 to 8) (size 9 to 14) (size 15 to 20)
#    0.000    2.000    0.000    3.000    0.000    4.667 
#    0.000    0.000    0.000   12.000    0.000    0.000 
#    0.000    0.000    0.000    0.000    0.000    0.000 
#
# Total GULP energy -133924.141066 kJ/mol
# GULP energy per Si atom -5580.172544 kJ/mol
# Density = 1.933584 g / cm^3
# Si number density = 19.379954 Si / 1000 Ang^3
#
#
#
# Elastic Constant Matrix: (Units=GPa)
#
#
# Indices 1 2 3 4 5 6 
#
# 1 81.7724 -3.5429 38.4433 0.0000 -16.5071 0.0000
# 2 -3.5429 81.4002 -2.6051 0.0000 -0.2180 0.0000
# 3 38.4433 -2.6051 81.9148 0.0000 13.1000 0.0000
# 4 0.0000 0.0000 0.0000 27.4857 0.0000 3.0722
# 5 -16.5071 -0.2180 13.1000 0.0000 19.2659 0.0000
# 6 0.0000 0.0000 0.0000 3.0722 0.0000 23.9521
#
#
#
# Elastic Compliance Matrix: (Units=1/GPa)
#
#
# Indices 1 2 3 4 5 6 
#
# 1 0.029596 0.000749 -0.020110 0.000000 0.039040 0.000000
# 2 0.000749 0.012317 -0.000095 0.000000 0.000846 0.000000
# 3 -0.020110 -0.000095 0.027375 0.000000 -0.035845 0.000000
# 4 0.000000 0.000000 0.000000 0.036912 0.000000 -0.004734
# 5 0.039040 0.000846 -0.035845 0.000000 0.109737 0.000000
# 6 0.000000 0.000000 0.000000 -0.004734 0.000000 0.042357
#
#
# Mechanical properties :
#
#
# Convention : Reuss Voigt Hill
#
# Bulk Modulus (GPa) = 32.91969 34.40868 33.66419
# Shear Modulus (GPa) = 16.26909 28.32687 22.29798
#
# Velocity S-wave (km/s) = 2.90052 3.82731 3.39568
# Velocity P-wave (km/s) = 5.31420 6.10937 5.72561
#
# Compressibility (1/GPa) = 0.03037696
#
# Stress axis : x y z
#
# Youngs Moduli (GPa) = 33.78778 81.18981 36.53010
#
# Poissons Ratio (x) = -0.06083 0.73460
# Poissons Ratio (y) = -0.02531 0.00348
# Poissons Ratio (z) = 0.67946 0.00773
#
# Static dielectric constant tensor:
#      x y z
#    x 1.659300 0.000000 0.025390 
#    y 0.000000 1.686950 0.000000 
#    z 0.025390 0.000000 1.690060 
# 
# From -- ./inp_files/65447.got.cif
#   From: 2010.05.17/outbox.cif.g08.bks.cpg/sg13_33_cif.got.tgz:65447.got - 2010.06.03 16:44:36.
