data_PCOD9232114
_publ_section_title
;
Structure prediction by ZEFSAII (Michael W. Deem and Ramdas Pophale) SiO2 
 PCOD9232114
Probable space group: P 2/C
;
_chemical_formula_sum "Si O2"
_cell_formula_units_Z 30
_cell_length_a 21.360261
_cell_length_b 4.925061
_cell_length_c 22.087826
_cell_angle_alpha 90.000000
_cell_angle_beta 40.358790
_cell_angle_gamma 90.000000
_cell_volume 1504.732155
_symmetry_space_group_name_H-M "P 2/C"
_symmetry_group_IT_number 13
_symmetry_cell_setting 'monoclinic'
loop_
_space_group_symop_operation_xyz
x,y,z
-x,y,1/2-z
-x,-y,-z
x,-y,1/2+z
loop_
_atom_site_type_symbol
_atom_site_label
_atom_site_fract_x
_atom_site_fract_y
_atom_site_fract_z
Si Si1 0.390420 0.740336 0.809502
Si Si2 0.880604 0.559848 0.291432
Si Si3 0.937910 0.843419 0.595960
Si Si4 0.790639 0.212550 0.976390
Si Si5 0.185623 0.360775 0.791482
Si Si6 0.129365 0.724373 0.518559
Si Si7 0.691494 0.776671 0.196364
Si Si8 0.000000 0.038438 0.250000
O O1 0.500000 0.754658 0.750000
O O2 0.318288 0.810516 0.918625
O O3 0.361525 0.447193 0.805286
O O4 0.365593 0.948284 0.773714
O O5 0.808623 0.673618 0.396630
O O6 0.824136 0.534154 0.269714
O O7 0.925016 0.273184 0.279758
O O8 0.122454 0.423252 0.377471
O O9 0.018709 0.743216 0.583143
O O10 0.863585 0.066674 0.673746
O O11 0.713404 0.321788 0.747980
O O12 0.000000 0.000000 0.500000
O O13 0.841221 0.424671 0.984427
O O14 0.846017 0.929453 0.944962
O O15 0.035191 0.206365 0.772166
O O16 0.201644 0.817908 0.411996
#
# Coordination Sequence:
#
# PCOD9232114 Si02
#       8
#     4   4   4   4   4   4   4   2
#     4  10  21  40  66  90 108 136 184 245 309 364
#     4  11  24  39  52  80 116 161 202 237 282 323
#     4  12  24  35  52  80 116 160 202 237 270 331
#     4  10  22  36  59  79 113 149 187 246 285 339
#     4  12  25  36  55  81 118 163 194 238 282 342
#     4  10  21  34  53  80 109 151 197 235 279 316
#     4  10  21  38  56  85 115 143 179 235 301 350
#     4  10  24  36  52  74 112 162 216 240 248 314
#
# _framework density 19.937101999999999
#
# number of rings (size 3 to 8) (size 9 to 14) (size 15 to 20)
#    0.000    1.333    1.333    4.000   14.933    0.000 
#    0.000    0.000    0.000    1.600    0.000    0.000 
#    0.000    0.000    0.000    0.000    0.000    0.000 
#
# Total GULP energy -167332.504695 kJ/mol
# GULP energy per Si atom -5577.750157 kJ/mol
# Density = 1.989172 g / cm^3
# Si number density = 19.937102 Si / 1000 Ang^3
#
#
#
# Elastic Constant Matrix: (Units=GPa)
#
#
# Indices 1 2 3 4 5 6 
#
# 1 94.6383 2.8252 43.6291 0.0000 -1.9551 0.0000
# 2 2.8252 111.1253 13.0739 0.0000 -11.7253 0.0000
# 3 43.6291 13.0739 51.9074 0.0000 -11.9504 0.0000
# 4 0.0000 0.0000 0.0000 11.6716 0.0000 1.0511
# 5 -1.9551 -11.7253 -11.9504 0.0000 32.0250 0.0000
# 6 0.0000 0.0000 0.0000 1.0511 0.0000 24.0311
#
#
#
# Elastic Compliance Matrix: (Units=1/GPa)
#
#
# Indices 1 2 3 4 5 6 
#
# 1 0.018045 0.000987 -0.016496 0.000000 -0.004693 0.000000
# 2 0.000987 0.009556 -0.002644 0.000000 0.002572 0.000000
# 3 -0.016496 -0.002644 0.036475 0.000000 0.011636 0.000000
# 4 0.000000 0.000000 0.000000 0.086017 0.000000 -0.003762
# 5 -0.004693 0.002572 0.011636 0.000000 0.036223 0.000000
# 6 0.000000 0.000000 0.000000 -0.003762 0.000000 0.041777
#
#
# Mechanical properties :
#
#
# Convention : Reuss Voigt Hill
#
# Bulk Modulus (GPa) = 36.01052 41.85857 38.93455
# Shear Modulus (GPa) = 18.27107 26.75506 22.51306
#
# Velocity S-wave (km/s) = 3.03055 3.66727 3.36401
# Velocity P-wave (km/s) = 5.50881 6.24281 5.88726
#
# Compressibility (1/GPa) = 0.02776966
#
# Stress axis : x y z
#
# Youngs Moduli (GPa) = 55.41713 104.64331 27.41594
#
# Poissons Ratio (x) = -0.10327 0.45225
# Poissons Ratio (y) = -0.05469 0.07249
# Poissons Ratio (z) = 0.91416 0.27669
#
# Static dielectric constant tensor:
#      x y z
#    x 1.789630 0.000000 0.210510 
#    y 0.000000 1.710870 0.000000 
#    z 0.210510 0.000000 2.165720 
# 
# From -- ./inp_files/86989.got.cif
#   From: 2010.05.17/outbox.cif.g08.bks.cpg/sg13_44_cif.got.tgz:86989.got - 2010.06.03 16:44:36.
