data_PCOD9232273
_publ_section_title
;
Structure prediction by ZEFSAII (Michael W. Deem and Ramdas Pophale) SiO2 
 PCOD9232273
Probable space group: P 2/C
;
_chemical_formula_sum "Si O2"
_cell_formula_units_Z 24
_cell_length_a 13.174109
_cell_length_b 9.713706
_cell_length_c 13.310174
_cell_angle_alpha 90.000000
_cell_angle_beta 36.795841
_cell_angle_gamma 90.000000
_cell_volume 1020.215057
_symmetry_space_group_name_H-M "P 2/C"
_symmetry_group_IT_number 13
_symmetry_cell_setting 'monoclinic'
loop_
_space_group_symop_operation_xyz
x,y,z
-x,y,1/2-z
-x,-y,-z
x,-y,1/2+z
loop_
_atom_site_type_symbol
_atom_site_label
_atom_site_fract_x
_atom_site_fract_y
_atom_site_fract_z
Si Si1 0.901557 0.343678 0.515367
Si Si2 0.709806 0.754662 0.794405
Si Si3 0.416637 0.601372 0.914814
Si Si4 0.317314 0.106855 0.391184
Si Si5 0.805551 0.842396 0.927829
Si Si6 0.086437 0.409809 0.776445
O O1 0.098924 0.299842 0.360402
O O2 0.934171 0.492465 0.438293
O O3 0.777056 0.252225 0.547676
O O4 0.851251 0.338128 0.671751
O O5 0.565999 0.646884 0.872617
O O6 0.714216 0.865013 0.700475
O O7 0.691305 0.814143 0.921024
O O8 0.500000 0.533077 0.750000
O O9 0.342745 0.747810 0.929142
O O10 0.259834 0.526781 0.092964
O O11 0.500000 0.034616 0.250000
O O12 0.193737 0.001342 0.541430
O O13 0.000000 0.802461 0.750000
O O14 0.000000 0.334782 0.750000
#
# Coordination Sequence:
#
# PCOD9232273 Si02
#       6
#     4   4   4   4   4   4
#     4  10  23  38  56  87 116 154 199 242 293 348
#     4   9  19  38  54  78 122 152 194 245 288 348
#     4   9  20  37  60  89 116 152 198 241 291 349
#     4   9  20  35  55  84 115 152 198 244 291 346
#     4  10  21  36  56  81 120 158 194 240 293 348
#     4  11  21  38  63  84 116 153 195 247 294 345
#
# _framework density 23.524450999999999
#
# number of rings (size 3 to 8) (size 9 to 14) (size 15 to 20)
#    0.000    2.667    0.000    3.500    0.000   10.667 
#    0.000    0.000    0.000    5.000    0.000    0.000 
#    0.000    0.000    0.000    0.000    0.000    0.000 
#
# Total GULP energy -133745.067511 kJ/mol
# GULP energy per Si atom -5572.711146 kJ/mol
# Density = 2.347091 g / cm^3
# Si number density = 23.524451 Si / 1000 Ang^3
#
#
#
# Elastic Constant Matrix: (Units=GPa)
#
#
# Indices 1 2 3 4 5 6 
#
# 1 176.9695 30.9147 42.7315 0.0000 50.8991 0.0000
# 2 30.9147 38.8589 -3.7719 0.0000 23.6729 0.0000
# 3 42.7315 -3.7719 81.5323 0.0000 17.9149 0.0000
# 4 0.0000 0.0000 0.0000 23.9540 0.0000 -0.7676
# 5 50.8991 23.6729 17.9149 0.0000 42.4229 0.0000
# 6 0.0000 0.0000 0.0000 -0.7676 0.0000 14.9255
#
#
#
# Elastic Compliance Matrix: (Units=1/GPa)
#
#
# Indices 1 2 3 4 5 6 
#
# 1 0.009260 -0.002593 -0.003141 0.000000 -0.008336 0.000000
# 2 -0.002593 0.044043 0.008943 0.000000 -0.025242 0.000000
# 3 -0.003141 0.008943 0.016086 0.000000 -0.008014 0.000000
# 4 0.000000 0.000000 0.000000 0.041816 0.000000 0.002151
# 5 -0.008336 -0.025242 -0.008014 0.000000 0.051044 0.000000
# 6 0.000000 0.000000 0.000000 0.002151 0.000000 0.067110
#
#
# Mechanical properties :
#
#
# Convention : Reuss Voigt Hill
#
# Bulk Modulus (GPa) = 13.19161 48.56770 30.87965
# Shear Modulus (GPa) = 20.14419 31.42625 25.78522
#
# Velocity S-wave (km/s) = 2.92945 3.65896 3.31434
# Velocity P-wave (km/s) = 4.13062 6.20815 5.27272
#
# Compressibility (1/GPa) = 0.07580578
#
# Stress axis : x y z
#
# Youngs Moduli (GPa) = 107.99247 22.70520 62.16501
#
# Poissons Ratio (x) = 0.05888 0.19528
# Poissons Ratio (y) = 0.28005 -0.55594
# Poissons Ratio (z) = 0.33925 -0.20305
#
# Static dielectric constant tensor:
#      x y z
#    x 1.961250 0.000000 0.056780 
#    y 0.000000 1.971250 0.000000 
#    z 0.056780 0.000000 2.008880 
# 
# From -- ./inp_files/33741.got.cif
#   From: 2010.05.17/outbox.cif.g08.bks.cpg/sg13_17_cif.got.tgz:33741.got - 2010.06.03 16:44:36.
