data_PCOD9232099
_publ_section_title
;
Structure prediction by ZEFSAII (Michael W. Deem and Ramdas Pophale) SiO2 
 PCOD9232099
Probable space group: P 2/C
;
_chemical_formula_sum "Si O2"
_cell_formula_units_Z 24
_cell_length_a 4.998697
_cell_length_b 9.005982
_cell_length_c 28.312253
_cell_angle_alpha 90.000000
_cell_angle_beta 119.306766
_cell_angle_gamma 90.000000
_cell_volume 1111.436149
_symmetry_space_group_name_H-M "P 2/C"
_symmetry_group_IT_number 13
_symmetry_cell_setting 'monoclinic'
loop_
_space_group_symop_operation_xyz
x,y,z
-x,y,1/2-z
-x,-y,-z
x,-y,1/2+z
loop_
_atom_site_type_symbol
_atom_site_label
_atom_site_fract_x
_atom_site_fract_y
_atom_site_fract_z
Si Si1 0.252085 0.886490 0.418193
Si Si2 0.217707 0.190542 0.807813
Si Si3 0.920227 0.410655 0.918577
Si Si4 0.278132 0.599783 0.193858
Si Si5 0.171755 0.815362 0.965231
Si Si6 0.637274 0.609017 0.960106
O O1 0.279229 0.889326 0.363419
O O2 0.581590 0.852437 0.471686
O O3 0.017775 0.755438 0.412783
O O4 0.125311 0.034509 0.431955
O O5 0.514182 0.261536 0.808065
O O6 0.000000 0.110222 0.750000
O O7 0.012211 0.332145 0.805048
O O8 0.844078 0.485450 0.862216
O O9 0.634255 0.465087 0.926013
O O10 0.200690 0.445520 0.977725
O O11 0.500000 0.519521 0.250000
O O12 0.338646 0.702093 0.944379
O O13 0.874918 0.732959 0.959907
#
# Coordination Sequence:
#
# PCOD9232099 Si02
#       6
#     4   4   4   4   4   4
#     4   9  19  33  53  74  98 130 166 202 243 294
#     4   9  17  29  47  72  97 121 157 205 245 278
#     4   9  19  33  53  74  98 130 166 202 243 294
#     4   9  17  29  47  72  97 121 157 205 245 278
#     4  10  21  34  49  73 103 131 160 199 247 295
#     4  10  21  34  49  73 103 131 160 199 247 295
#
# _framework density 21.593682999999999
#
# number of rings (size 3 to 8) (size 9 to 14) (size 15 to 20)
#    0.000    2.667    0.000    1.000    0.000   17.333 
#    0.000    0.000    0.000    2.000    0.000    0.000 
#    0.000    0.000    0.000    0.000    0.000    0.000 
#
# Total GULP energy -133796.152779 kJ/mol
# GULP energy per Si atom -5574.839699 kJ/mol
# Density = 2.154453 g / cm^3
# Si number density = 21.593683 Si / 1000 Ang^3
#
#
#
# Elastic Constant Matrix: (Units=GPa)
#
#
# Indices 1 2 3 4 5 6 
#
# 1 85.2479 33.0235 23.7325 0.0000 -4.3710 0.0000
# 2 33.0235 80.1405 29.7771 0.0000 -13.0975 0.0000
# 3 23.7325 29.7771 166.3111 0.0000 -11.6489 0.0000
# 4 0.0000 0.0000 0.0000 24.3832 0.0000 -10.0840
# 5 -4.3710 -13.0975 -11.6489 0.0000 29.1390 0.0000
# 6 0.0000 0.0000 0.0000 -10.0840 0.0000 28.5514
#
#
#
# Elastic Compliance Matrix: (Units=1/GPa)
#
#
# Indices 1 2 3 4 5 6 
#
# 1 0.014143 -0.005559 -0.001080 0.000000 -0.000809 0.000000
# 2 -0.005559 0.016364 -0.001728 0.000000 0.005830 0.000000
# 3 -0.001080 -0.001728 0.006595 0.000000 0.001698 0.000000
# 4 0.000000 0.000000 0.000000 0.048027 0.000000 0.016962
# 5 -0.000809 0.005830 0.001698 0.000000 0.037496 0.000000
# 6 0.000000 0.000000 0.000000 0.016962 0.000000 0.041016
#
#
# Mechanical properties :
#
#
# Convention : Reuss Voigt Hill
#
# Bulk Modulus (GPa) = 49.09517 56.08508 52.59013
# Shear Modulus (GPa) = 26.71456 32.75913 29.73684
#
# Velocity S-wave (km/s) = 3.52113 3.89918 3.71497
# Velocity P-wave (km/s) = 6.27028 6.80447 6.54283
#
# Compressibility (1/GPa) = 0.02036860
#
# Stress axis : x y z
#
# Youngs Moduli (GPa) = 70.70626 61.11052 151.62484
#
# Poissons Ratio (x) = 0.33971 0.16369
# Poissons Ratio (y) = 0.39305 0.26204
# Poissons Ratio (z) = 0.07633 0.10561
#
# Static dielectric constant tensor:
#      x y z
#    x 1.870640 0.000000 -0.015600 
#    y 0.000000 1.802130 0.000000 
#    z -0.015600 0.000000 1.894860 
# 
# From -- ./inp_files/90173.got.cif
#   From: 2010.05.17/outbox.cif.g08.bks.cpg/sg13_46_cif.got.tgz:90173.got - 2010.06.03 16:44:36.
