data_PCOD9232922
_publ_section_title
;
Structure prediction by ZEFSAII (Michael W. Deem and Ramdas Pophale) SiO2 
 PCOD9232922
Probable space group: P 2/C
;
_chemical_formula_sum "Si O2"
_cell_formula_units_Z 28
_cell_length_a 8.845658
_cell_length_b 5.584566
_cell_length_c 31.593183
_cell_angle_alpha 90.000000
_cell_angle_beta 127.123896
_cell_angle_gamma 90.000000
_cell_volume 1244.377941
_symmetry_space_group_name_H-M "P 2/C"
_symmetry_group_IT_number 13
_symmetry_cell_setting 'monoclinic'
loop_
_space_group_symop_operation_xyz
x,y,z
-x,y,1/2-z
-x,-y,-z
x,-y,1/2+z
loop_
_atom_site_type_symbol
_atom_site_label
_atom_site_fract_x
_atom_site_fract_y
_atom_site_fract_z
Si Si1 0.651278 0.722281 0.704562
Si Si2 0.285497 0.230947 0.944861
Si Si3 0.500000 0.942482 0.250000
Si Si4 0.000000 0.607153 0.250000
Si Si5 0.892600 0.251900 0.971237
Si Si6 0.713440 0.263010 0.026045
Si Si7 0.292839 0.891521 0.348847
Si Si8 0.633294 0.331762 0.851094
O O1 0.631254 0.902410 0.740568
O O2 0.442805 0.602041 0.666522
O O3 0.828587 0.546030 0.741095
O O4 0.697531 0.837820 0.666473
O O5 0.202539 0.493835 0.939979
O O6 0.313297 0.171871 0.900720
O O7 0.190128 0.988154 0.945503
O O8 0.493002 0.247577 0.002531
O O9 0.374435 0.783916 0.196620
O O10 0.902659 0.776213 0.199271
O O11 0.813571 0.276519 0.910422
O O12 0.724515 0.268507 0.977344
O O13 0.000000 0.500000 0.000000
O O14 0.000000 0.000000 0.000000
O O15 0.461216 0.778581 0.349617
#
# Coordination Sequence:
#
# PCOD9232922 Si02
#       8
#     4   4   2   2   4   4   4   4
#     4  10  22  41  72  96 136 179 231 293 358 428
#     4  10  21  38  70  92 131 166 220 278 331 408
#     4  10  22  44  70 104 128 184 240 296 352 434
#     4  10  22  40  60 108 132 168 224 286 354 426
#     4  12  27  46  69 100 145 190 236 290 352 425
#     4  10  22  41  61 101 126 167 224 276 334 402
#     4  10  21  39  67  97 131 179 220 281 351 421
#     4  10  23  43  70  97 134 184 243 282 354 422
#
# _framework density 22.501203
#
# number of rings (size 3 to 8) (size 9 to 14) (size 15 to 20)
#    0.000    1.714    1.429    1.714    8.000    1.143 
#    2.571    8.571    0.000    0.000    0.000    0.000 
#    0.000    0.000    0.000    0.000    0.000    0.000 
#
# Total GULP energy -156086.801023 kJ/mol
# GULP energy per Si atom -5574.528608 kJ/mol
# Density = 2.244999 g / cm^3
# Si number density = 22.501203 Si / 1000 Ang^3
#
#
#
# Elastic Constant Matrix: (Units=GPa)
#
#
# Indices 1 2 3 4 5 6 
#
# 1 57.0603 31.2053 34.1746 0.0000 -7.8216 0.0000
# 2 31.2053 167.6651 73.7247 0.0000 0.8122 0.0000
# 3 34.1746 73.7247 162.0841 0.0000 -12.1084 0.0000
# 4 0.0000 0.0000 0.0000 13.2900 0.0000 1.4656
# 5 -7.8216 0.8122 -12.1084 0.0000 37.3706 0.0000
# 6 0.0000 0.0000 0.0000 1.4656 0.0000 -2.1626
#
#
#
# Elastic Compliance Matrix: (Units=1/GPa)
#
#
# Indices 1 2 3 4 5 6 
#
# 1 0.021264 -0.002649 -0.003015 0.000000 0.003531 0.000000
# 2 -0.002649 0.007847 -0.003141 0.000000 -0.001743 0.000000
# 3 -0.003015 -0.003141 0.008395 0.000000 0.002157 0.000000
# 4 0.000000 0.000000 0.000000 0.070012 0.000000 0.047448
# 5 0.003531 -0.001743 0.002157 0.000000 0.028235 0.000000
# 6 0.000000 0.000000 0.000000 0.047448 0.000000 -0.430247
#
#
# Mechanical properties :
#
#
# Convention : Reuss Voigt Hill
#
# Bulk Modulus (GPa) = 50.26001 73.89096 62.07548
# Shear Modulus (GPa) = -18.50111 26.21327 3.85608
#
# Velocity S-wave (km/s) = -2.87056 3.41687 1.31051
# Velocity P-wave (km/s) = 3.37613 6.96252 5.47151
#
# Compressibility (1/GPa) = 0.01989654
#
# Stress axis : x y z
#
# Youngs Moduli (GPa) = 47.02871 127.44051 119.11836
#
# Poissons Ratio (x) = 0.33760 0.35909
# Poissons Ratio (y) = 0.12458 0.37413
# Poissons Ratio (z) = 0.14177 0.40026
#
# Static dielectric constant tensor:
#      x y z
#    x 1.870150 0.000000 -0.007240 
#    y 0.000000 1.991080 0.000000 
#    z -0.007240 0.000000 1.857380 
# 
# From -- ./inp_files/95568.got.cif
#   From: 2010.05.17/outbox.cif.g08.bks.cpg/sg13_48_cif.got.tgz:95568.got - 2010.06.03 16:44:36.
