data_PCOD9232299
_publ_section_title
;
Structure prediction by ZEFSAII (Michael W. Deem and Ramdas Pophale) SiO2 
 PCOD9232299
Probable space group: P 2/C
;
_chemical_formula_sum "Si O2"
_cell_formula_units_Z 30
_cell_length_a 15.237252
_cell_length_b 5.755285
_cell_length_c 16.820593
_cell_angle_alpha 90.000000
_cell_angle_beta 54.823821
_cell_angle_gamma 90.000000
_cell_volume 1205.705316
_symmetry_space_group_name_H-M "P 2/C"
_symmetry_group_IT_number 13
_symmetry_cell_setting 'monoclinic'
loop_
_space_group_symop_operation_xyz
x,y,z
-x,y,1/2-z
-x,-y,-z
x,-y,1/2+z
loop_
_atom_site_type_symbol
_atom_site_label
_atom_site_fract_x
_atom_site_fract_y
_atom_site_fract_z
Si Si1 0.711831 0.942870 0.518841
Si Si2 0.468236 0.922413 0.673861
Si Si3 0.985766 0.208035 0.109704
Si Si4 0.300316 0.554272 0.532803
Si Si5 0.532157 0.423423 0.827827
Si Si6 0.174376 0.588894 0.242519
Si Si7 0.000000 0.903555 0.250000
Si Si8 0.166563 0.855847 0.403101
O O1 0.584298 0.920567 0.570915
O O2 0.742234 0.181164 0.456257
O O3 0.742086 0.024426 0.592108
O O4 0.749228 0.674744 0.486745
O O5 0.500000 0.924908 0.750000
O O6 0.418429 0.170959 0.679125
O O7 0.412809 0.674696 0.688724
O O8 0.913087 0.394134 0.191144
O O9 0.905770 0.057635 0.097311
O O10 0.031769 0.047390 0.155549
O O11 0.084806 0.285500 0.003208
O O12 0.421999 0.567889 0.436853
O O13 0.273078 0.490595 0.637326
O O14 0.500000 0.418102 0.750000
O O15 0.103393 0.764501 0.226452
O O16 0.203376 0.696390 0.312208
#
# Coordination Sequence:
#
# PCOD9232299 Si02
#       8
#     4   4   4   4   4   4   2   4
#     4  10  21  36  57  85 113 146 185 239 279 334
#     4   8  14  27  49  79 109 134 174 223 276 320
#     4  10  22  39  54  75 107 150 195 234 285 334
#     4  10  22  34  57  86 112 141 191 235 278 327
#     4   8  14  28  48  77 109 135 170 223 276 318
#     4  11  23  36  56  79 110 151 187 239 285 336
#     4  10  22  36  56  80 102 148 192 244 280 332
#     4  10  23  37  54  75 113 151 192 228 287 343
#
# _framework density 24.881703000000002
#
# number of rings (size 3 to 8) (size 9 to 14) (size 15 to 20)
#    0.000    2.400    0.000    1.600    9.333    0.000 
#    0.000    0.000    0.000    0.000    0.000   29.867 
#    0.000    0.000    0.000    0.000    0.000    0.000 
#
# Total GULP energy -167388.006193 kJ/mol
# GULP energy per Si atom -5579.600206 kJ/mol
# Density = 2.482507 g / cm^3
# Si number density = 24.881703 Si / 1000 Ang^3
#
#
#
# Elastic Constant Matrix: (Units=GPa)
#
#
# Indices 1 2 3 4 5 6 
#
# 1 200.9444 3.4655 -59.1846 0.0000 -2.9873 0.0000
# 2 3.4655 202.3614 28.3285 0.0000 8.6407 0.0000
# 3 -59.1846 28.3285 185.0201 0.0000 -5.3146 0.0000
# 4 0.0000 0.0000 0.0000 14.6938 0.0000 -3.9987
# 5 -2.9873 8.6407 -5.3146 0.0000 34.6625 0.0000
# 6 0.0000 0.0000 0.0000 -3.9987 0.0000 2.1098
#
#
#
# Elastic Compliance Matrix: (Units=1/GPa)
#
#
# Indices 1 2 3 4 5 6 
#
# 1 0.005543 -0.000392 0.001858 0.000000 0.000860 0.000000
# 2 -0.000392 0.005145 -0.000955 0.000000 -0.001463 0.000000
# 3 0.001858 -0.000955 0.006184 0.000000 0.001346 0.000000
# 4 0.000000 0.000000 0.000000 0.140550 0.000000 0.266386
# 5 0.000860 -0.001463 0.001346 0.000000 0.029495 0.000000
# 6 0.000000 0.000000 0.000000 0.266386 0.000000 0.978863
#
#
# Mechanical properties :
#
#
# Convention : Reuss Voigt Hill
#
# Bulk Modulus (GPa) = 55.88458 59.28275 57.58366
# Shear Modulus (GPa) = 4.27087 51.34099 27.80593
#
# Velocity S-wave (km/s) = 1.31156 4.54740 3.34657
# Velocity P-wave (km/s) = 4.98021 7.17282 6.17462
#
# Compressibility (1/GPa) = 0.01789402
#
# Stress axis : x y z
#
# Youngs Moduli (GPa) = 180.39961 194.38219 161.70731
#
# Poissons Ratio (x) = 0.07615 -0.30043
# Poissons Ratio (y) = 0.07067 0.15443
# Poissons Ratio (z) = -0.33516 0.18564
#
# Static dielectric constant tensor:
#      x y z
#    x 1.916740 0.000000 -0.005370 
#    y 0.000000 2.016860 0.000000 
#    z -0.005370 0.000000 1.976020 
# 
# From -- ./inp_files/54477.got.cif
#   From: 2010.05.17/outbox.cif.g08.bks.cpg/sg13_28_cif.got.tgz:54477.got - 2010.06.03 16:44:36.
