data_PCOD9232549
_publ_section_title
;
Structure prediction by ZEFSAII (Michael W. Deem and Ramdas Pophale) SiO2 
 PCOD9232549
Probable space group: P 2/C
;
_chemical_formula_sum "Si O2"
_cell_formula_units_Z 30
_cell_length_a 15.069198
_cell_length_b 5.514667
_cell_length_c 22.758701
_cell_angle_alpha 90.000000
_cell_angle_beta 49.586050
_cell_angle_gamma 90.000000
_cell_volume 1439.987239
_symmetry_space_group_name_H-M "P 2/C"
_symmetry_group_IT_number 13
_symmetry_cell_setting 'monoclinic'
loop_
_space_group_symop_operation_xyz
x,y,z
-x,y,1/2-z
-x,-y,-z
x,-y,1/2+z
loop_
_atom_site_type_symbol
_atom_site_label
_atom_site_fract_x
_atom_site_fract_y
_atom_site_fract_z
Si Si1 0.637310 0.785032 0.421480
Si Si2 0.500000 0.053754 0.250000
Si Si3 0.873245 0.959571 0.480314
Si Si4 0.866161 0.024396 0.124467
Si Si5 0.703177 0.410103 0.175758
Si Si6 0.368545 0.708857 0.529840
Si Si7 0.256894 0.557473 0.468113
Si Si8 0.640304 0.788623 0.282512
O O1 0.500706 0.746079 0.495445
O O2 0.690835 0.519702 0.411796
O O3 0.641826 0.832795 0.350255
O O4 0.682764 0.022291 0.436279
O O5 0.615693 0.207150 0.188803
O O6 0.533348 0.906869 0.293659
O O7 0.802434 0.709236 0.498201
O O8 0.009123 0.945493 0.405099
O O9 0.870178 0.999563 0.552268
O O10 0.824112 0.215916 0.478715
O O11 0.760825 0.886381 0.201730
O O12 0.826403 0.306024 0.144652
O O13 0.639634 0.513923 0.260141
O O14 0.717157 0.576386 0.112532
O O15 0.366072 0.610663 0.463814
#
# Coordination Sequence:
#
# PCOD9232549 Si02
#       8
#     4   2   4   4   4   4   4   4
#     4  10  24  40  63  82 121 160 208 242 299 352
#     4  10  24  34  52  92 128 156 192 234 316 366
#     4  10  21  37  61  91 122 161 190 258 298 370
#     4   9  21  36  57  89 127 153 204 230 318 367
#     4  10  22  35  56  92 122 164 190 250 306 376
#     4  10  23  42  59  88 112 166 207 251 287 359
#     4  11  22  38  64  86 124 153 210 252 303 350
#     4  11  22  38  59  89 123 162 194 251 303 375
#
# _framework density 20.833517000000001
#
# number of rings (size 3 to 8) (size 9 to 14) (size 15 to 20)
#    0.000    1.867    1.333    1.200    9.333    3.733 
#    0.000    0.000    0.000    4.800    0.000    0.000 
#    0.000    0.000    0.000    0.000    0.000    0.000 
#
# Total GULP energy -167019.830913 kJ/mol
# GULP energy per Si atom -5567.327697 kJ/mol
# Density = 2.078610 g / cm^3
# Si number density = 20.833517 Si / 1000 Ang^3
#
#
#
# Elastic Constant Matrix: (Units=GPa)
#
#
# Indices 1 2 3 4 5 6 
#
# 1 39.0089 32.2541 9.5926 0.0000 6.2770 0.0000
# 2 32.2541 117.6528 22.0219 0.0000 5.6906 0.0000
# 3 9.5926 22.0219 51.5039 0.0000 9.0731 0.0000
# 4 0.0000 0.0000 0.0000 -1.2303 0.0000 1.1761
# 5 6.2770 5.6906 9.0731 0.0000 32.0459 0.0000
# 6 0.0000 0.0000 0.0000 1.1761 0.0000 22.3586
#
#
#
# Elastic Compliance Matrix: (Units=1/GPa)
#
#
# Indices 1 2 3 4 5 6 
#
# 1 0.034080 -0.008787 -0.001778 0.000000 -0.004612 0.000000
# 2 -0.008787 0.011514 -0.003399 0.000000 0.000639 0.000000
# 3 -0.001778 -0.003399 0.022137 0.000000 -0.005316 0.000000
# 4 0.000000 0.000000 0.000000 -0.773916 0.000000 0.040708
# 5 -0.004612 0.000639 -0.005316 0.000000 0.033500 0.000000
# 6 0.000000 0.000000 0.000000 0.040708 0.000000 0.042584
#
#
# Mechanical properties :
#
#
# Convention : Reuss Voigt Hill
#
# Bulk Modulus (GPa) = 25.12384 37.32254 31.22319
# Shear Modulus (GPa) = -8.49033 20.25464 5.88215
#
# Velocity S-wave (km/s) = -2.02093 3.12142 1.68212
# Velocity P-wave (km/s) = 2.57681 5.56278 4.33500
#
# Compressibility (1/GPa) = 0.03980283
#
# Stress axis : x y z
#
# Youngs Moduli (GPa) = 29.34278 86.85192 45.17334
#
# Poissons Ratio (x) = 0.76317 0.08031
# Poissons Ratio (y) = 0.25784 0.15355
# Poissons Ratio (z) = 0.05217 0.29521
#
# Static dielectric constant tensor:
#      x y z
#    x 1.787950 0.000000 -0.017930 
#    y 0.000000 1.930710 0.000000 
#    z -0.017930 0.000000 1.753900 
# 
# From -- ./inp_files/86983.got.cif
#   From: 2010.05.17/outbox.cif.g08.bks.cpg/sg13_44_cif.got.tgz:86983.got - 2010.06.03 16:44:36.
