data_PCOD9232118
_publ_section_title
;
Structure prediction by ZEFSAII (Michael W. Deem and Ramdas Pophale) SiO2 
 PCOD9232118
Probable space group: P 2/C
;
_chemical_formula_sum "Si O2"
_cell_formula_units_Z 20
_cell_length_a 9.144062
_cell_length_b 5.095374
_cell_length_c 17.664020
_cell_angle_alpha 90.000000
_cell_angle_beta 113.255498
_cell_angle_gamma 90.000000
_cell_volume 756.142591
_symmetry_space_group_name_H-M "P 2/C"
_symmetry_group_IT_number 13
_symmetry_cell_setting 'monoclinic'
loop_
_space_group_symop_operation_xyz
x,y,z
-x,y,1/2-z
-x,-y,-z
x,-y,1/2+z
loop_
_atom_site_type_symbol
_atom_site_label
_atom_site_fract_x
_atom_site_fract_y
_atom_site_fract_z
Si Si1 0.664354 0.278735 0.442193
Si Si2 0.120474 0.433837 0.133551
Si Si3 0.236009 0.465855 0.879443
Si Si4 0.394599 0.227695 0.656392
Si Si5 0.808847 0.045913 0.220318
O O1 0.843561 0.316324 0.442527
O O2 0.668820 0.357214 0.529613
O O3 0.565643 0.494250 0.374165
O O4 0.610421 0.992276 0.408008
O O5 0.217519 0.705516 0.150106
O O6 0.206671 0.224269 0.207043
O O7 0.946600 0.497926 0.127802
O O8 0.268689 0.759124 0.857829
O O9 0.242381 0.246401 0.814965
O O10 0.500000 0.157588 0.750000
O O11 0.000000 0.037488 0.250000
#
# Coordination Sequence:
#
# PCOD9232118 Si02
#       5
#     4   4   4   4   4
#     4  10  22  36  61  86 116 147 194 247 291 324
#     4   9  23  36  62  86 118 155 195 225 293 346
#     4  11  21  35  57  90 124 142 183 238 299 351
#     4  10  22  38  61  83 112 153 205 243 274 333
#     4  10  21  34  54  83 124 155 178 222 291 364
#
# _framework density 26.450036999999998
#
# number of rings (size 3 to 8) (size 9 to 14) (size 15 to 20)
#    1.200    0.800    0.000    4.200    8.400    0.800 
#    0.000    0.000    0.000    7.200    0.000    0.000 
#    0.000    0.000    0.000    0.000    0.000    0.000 
#
# Total GULP energy -111855.235699 kJ/mol
# GULP energy per Si atom -5592.761785 kJ/mol
# Density = 2.638984 g / cm^3
# Si number density = 26.450037 Si / 1000 Ang^3
#
#
#
# Elastic Constant Matrix: (Units=GPa)
#
#
# Indices 1 2 3 4 5 6 
#
# 1 96.9497 23.9449 0.5865 0.0000 4.7884 0.0000
# 2 23.9449 150.6711 -4.5605 0.0000 4.1427 0.0000
# 3 0.5865 -4.5605 87.7375 0.0000 -21.5528 0.0000
# 4 0.0000 0.0000 0.0000 34.1600 0.0000 10.0007
# 5 4.7884 4.1427 -21.5528 0.0000 32.0009 0.0000
# 6 0.0000 0.0000 0.0000 10.0007 0.0000 19.5614
#
#
#
# Elastic Compliance Matrix: (Units=1/GPa)
#
#
# Indices 1 2 3 4 5 6 
#
# 1 0.010825 -0.001689 -0.000604 0.000000 -0.001808 0.000000
# 2 -0.001689 0.006926 0.000255 0.000000 -0.000472 0.000000
# 3 -0.000604 0.000255 0.013695 0.000000 0.009281 0.000000
# 4 0.000000 0.000000 0.000000 0.034427 0.000000 -0.017600
# 5 -0.001808 -0.000472 0.009281 0.000000 0.037832 0.000000
# 6 0.000000 0.000000 0.000000 -0.017600 0.000000 0.060119
#
#
# Mechanical properties :
#
#
# Convention : Reuss Voigt Hill
#
# Bulk Modulus (GPa) = 36.53632 41.70000 39.11816
# Shear Modulus (GPa) = 28.24509 38.17028 33.20769
#
# Velocity S-wave (km/s) = 3.27137 3.80295 3.54713
# Velocity P-wave (km/s) = 5.30212 5.92309 5.62119
#
# Compressibility (1/GPa) = 0.02737002
#
# Stress axis : x y z
#
# Youngs Moduli (GPa) = 92.38127 144.38198 73.02029
#
# Poissons Ratio (x) = 0.24384 0.04413
# Poissons Ratio (y) = 0.15602 -0.01865
# Poissons Ratio (z) = 0.05583 -0.03687
#
# Static dielectric constant tensor:
#      x y z
#    x 2.312030 0.000000 -0.059800 
#    y 0.000000 1.989610 0.000000 
#    z -0.059800 0.000000 2.057320 
# 
# From -- ./inp_files/65158.got.cif
#   From: 2010.05.17/outbox.cif.g08.bks.cpg/sg13_33_cif.got.tgz:65158.got - 2010.06.03 16:44:36.
