data_PCOD9232277
_publ_section_title
;
Structure prediction by ZEFSAII (Michael W. Deem and Ramdas Pophale) SiO2 
 PCOD9232277
Probable space group: P 2/C
;
_chemical_formula_sum "Si O2"
_cell_formula_units_Z 16
_cell_length_a 5.099524
_cell_length_b 5.108706
_cell_length_c 21.844903
_cell_angle_alpha 90.000000
_cell_angle_beta 81.335905
_cell_angle_gamma 90.000000
_cell_volume 562.608406
_symmetry_space_group_name_H-M "P 2/C"
_symmetry_group_IT_number 13
_symmetry_cell_setting 'monoclinic'
loop_
_space_group_symop_operation_xyz
x,y,z
-x,y,1/2-z
-x,-y,-z
x,-y,1/2+z
loop_
_atom_site_type_symbol
_atom_site_label
_atom_site_fract_x
_atom_site_fract_y
_atom_site_fract_z
Si Si1 0.305883 0.250590 0.342939
Si Si2 0.832351 0.872253 0.952258
Si Si3 0.675292 0.380563 0.914280
Si Si4 0.850329 0.745604 0.196059
O O1 0.488251 0.432329 0.379956
O O2 0.251520 0.451236 0.289524
O O3 0.038330 0.184883 0.389795
O O4 0.369508 0.957208 0.317673
O O5 0.742148 0.576332 0.967922
O O6 0.610745 0.087113 0.939634
O O7 0.000000 0.000000 0.000000
O O8 0.933329 0.311283 0.864425
O O9 0.000000 0.850497 0.250000
#
# Coordination Sequence:
#
# PCOD9232277 Si02
#       4
#     4   4   4   4
#     4  10  21  37  57  82 114 149 191 242 292 351
#     4  10  21  36  56  83 114 149 190 237 290 350
#     4  10  21  37  56  82 113 147 191 238 289 350
#     4  10  21  38  57  81 113 149 192 242 294 352
#
# _framework density 28.438963999999999
#
# number of rings (size 3 to 8) (size 9 to 14) (size 15 to 20)
#    0.000    2.000    0.000    3.000    0.000    3.000 
#    0.000    2.500    0.000    0.000    0.000    0.000 
#    0.000    0.000    0.000    0.000    0.000    0.000 
#
# Total GULP energy -89399.280855 kJ/mol
# GULP energy per Si atom -5587.455053 kJ/mol
# Density = 2.837424 g / cm^3
# Si number density = 28.438964 Si / 1000 Ang^3
#
#
#
# Elastic Constant Matrix: (Units=GPa)
#
#
# Indices 1 2 3 4 5 6 
#
# 1 99.3147 74.4639 23.7774 0.0000 2.6320 0.0000
# 2 74.4639 295.4718 59.9852 0.0000 17.5806 0.0000
# 3 23.7774 59.9852 74.9357 0.0000 18.9502 0.0000
# 4 0.0000 0.0000 0.0000 28.9074 0.0000 22.3735
# 5 2.6320 17.5806 18.9502 0.0000 65.7817 0.0000
# 6 0.0000 0.0000 0.0000 22.3735 0.0000 45.8114
#
#
#
# Elastic Compliance Matrix: (Units=1/GPa)
#
#
# Indices 1 2 3 4 5 6 
#
# 1 0.012642 -0.002840 -0.001944 0.000000 0.000813 0.000000
# 2 -0.002840 0.004681 -0.002759 0.000000 -0.000342 0.000000
# 3 -0.001944 -0.002759 0.017218 0.000000 -0.004145 0.000000
# 4 0.000000 0.000000 0.000000 0.055616 0.000000 -0.027162
# 5 0.000813 -0.000342 -0.004145 0.000000 0.016455 0.000000
# 6 0.000000 0.000000 0.000000 -0.027162 0.000000 0.035094
#
#
# Mechanical properties :
#
#
# Convention : Reuss Voigt Hill
#
# Bulk Modulus (GPa) = 51.39869 87.35279 69.37574
# Shear Modulus (GPa) = 30.62297 48.86647 39.74472
#
# Velocity S-wave (km/s) = 3.28502 4.14973 3.74243
# Velocity P-wave (km/s) = 5.70097 7.33095 6.56673
#
# Compressibility (1/GPa) = 0.01945575
#
# Stress axis : x y z
#
# Youngs Moduli (GPa) = 79.10127 213.64772 58.07736
#
# Poissons Ratio (x) = 0.60671 0.11289
# Poissons Ratio (y) = 0.22463 0.16024
# Poissons Ratio (z) = 0.15376 0.58947
#
# Static dielectric constant tensor:
#      x y z
#    x 2.344660 0.000000 0.037890 
#    y 0.000000 2.235430 0.000000 
#    z 0.037890 0.000000 2.360900 
# 
# From -- ./inp_files/82896.got.cif
#   From: 2010.05.17/outbox.cif.g08.bks.cpg/sg13_42_cif.got.tgz:82896.got - 2010.06.03 16:44:36.
