data_PCOD9232873
_publ_section_title
;
Structure prediction by ZEFSAII (Michael W. Deem and Ramdas Pophale) SiO2 
 PCOD9232873
Probable space group: P 2/C
;
_chemical_formula_sum "Si O2"
_cell_formula_units_Z 26
_cell_length_a 8.455294
_cell_length_b 8.449354
_cell_length_c 21.084664
_cell_angle_alpha 90.000000
_cell_angle_beta 131.903718
_cell_angle_gamma 90.000000
_cell_volume 1121.110376
_symmetry_space_group_name_H-M "P 2/C"
_symmetry_group_IT_number 13
_symmetry_cell_setting 'monoclinic'
loop_
_space_group_symop_operation_xyz
x,y,z
-x,y,1/2-z
-x,-y,-z
x,-y,1/2+z
loop_
_atom_site_type_symbol
_atom_site_label
_atom_site_fract_x
_atom_site_fract_y
_atom_site_fract_z
Si Si1 0.889134 0.703594 0.053839
Si Si2 0.620878 0.528301 0.216492
Si Si3 0.845750 0.855983 0.266935
Si Si4 0.030259 0.639446 0.863173
Si Si5 0.500000 0.057466 0.250000
Si Si6 0.083995 0.148648 0.063412
Si Si7 0.533828 0.386839 0.069437
O O1 0.929047 0.527088 0.089753
O O2 0.013749 0.820464 0.133165
O O3 0.950349 0.715104 0.997578
O O4 0.639581 0.747091 0.988074
O O5 0.500000 0.563502 0.250000
O O6 0.744773 0.683362 0.224690
O O7 0.477215 0.472551 0.119980
O O8 0.790953 0.389603 0.275861
O O9 0.652406 0.962126 0.241321
O O10 0.000000 0.906321 0.250000
O O11 0.218591 0.653069 0.863267
O O12 0.046905 0.793292 0.911162
O O13 0.324212 0.136126 0.155727
O O14 0.000000 0.000000 0.000000
O O15 0.500000 0.500000 0.000000
#
# Coordination Sequence:
#
# PCOD9232873 Si02
#       7
#     4   4   4   4   2   4   4
#     4  10  22  44  70 101 134 183 236 293 359 421
#     4  11  21  38  70 105 139 184 238 303 360 428
#     4  11  23  46  71 100 141 187 242 289 357 434
#     4  10  23  41  68 103 138 181 237 295 360 424
#     4  12  28  48  66 102 144 196 234 294 360 436
#     4  12  26  46  69  98 146 183 243 290 361 436
#     4  10  21  38  65 106 141 175 235 302 362 422
#
# _framework density 23.191293999999999
#
# number of rings (size 3 to 8) (size 9 to 14) (size 15 to 20)
#    0.000    1.231    2.308    4.615    3.231    7.385 
#    2.769    1.538    0.000    0.000    0.000    0.000 
#    0.000    0.000    0.000    0.000    0.000    0.000 
#
# Total GULP energy -144998.085870 kJ/mol
# GULP energy per Si atom -5576.849457 kJ/mol
# Density = 2.313851 g / cm^3
# Si number density = 23.191294 Si / 1000 Ang^3
#
#
#
# Elastic Constant Matrix: (Units=GPa)
#
#
# Indices 1 2 3 4 5 6 
#
# 1 114.7203 14.1405 28.3537 0.0000 -14.5348 0.0000
# 2 14.1405 48.5279 20.6469 0.0000 -10.5200 0.0000
# 3 28.3537 20.6469 123.9720 0.0000 -12.7932 0.0000
# 4 0.0000 0.0000 0.0000 21.1947 0.0000 4.9666
# 5 -14.5348 -10.5200 -12.7932 0.0000 31.8997 0.0000
# 6 0.0000 0.0000 0.0000 4.9666 0.0000 14.9569
#
#
#
# Elastic Compliance Matrix: (Units=1/GPa)
#
#
# Indices 1 2 3 4 5 6 
#
# 1 0.009716 -0.001416 -0.001646 0.000000 0.003300 0.000000
# 2 -0.001416 0.023577 -0.002991 0.000000 0.005931 0.000000
# 3 -0.001646 -0.002991 0.009140 0.000000 0.001929 0.000000
# 4 0.000000 0.000000 0.000000 0.051163 0.000000 -0.016989
# 5 0.003300 0.005931 0.001929 0.000000 0.035582 0.000000
# 6 0.000000 0.000000 0.000000 -0.016989 0.000000 0.072500
#
#
# Mechanical properties :
#
#
# Convention : Reuss Voigt Hill
#
# Bulk Modulus (GPa) = 32.97174 45.94473 39.45823
# Shear Modulus (GPa) = 22.33211 28.54885 25.44048
#
# Velocity S-wave (km/s) = 3.10651 3.51239 3.31567
# Velocity P-wave (km/s) = 5.20724 6.02523 5.63111
#
# Compressibility (1/GPa) = 0.03032901
#
# Stress axis : x y z
#
# Youngs Moduli (GPa) = 102.92026 42.41345 109.40943
#
# Poissons Ratio (x) = 0.06004 0.18008
# Poissons Ratio (y) = 0.14568 0.32723
# Poissons Ratio (z) = 0.16940 0.12686
#
# Static dielectric constant tensor:
#      x y z
#    x 2.021960 0.000000 -0.015630 
#    y 0.000000 1.900250 0.000000 
#    z -0.015630 0.000000 1.942290 
# 
# From -- ./inp_files/75973.got.cif
#   From: 2010.05.17/outbox.cif.g08.bks.cpg/sg13_38_cif.got.tgz:75973.got - 2010.06.03 16:44:36.
