data_PCOD9232842
_publ_section_title
;
Structure prediction by ZEFSAII (Michael W. Deem and Ramdas Pophale) SiO2 
 PCOD9232842
Probable space group: P 2/C
;
_chemical_formula_sum "Si O2"
_cell_formula_units_Z 20
_cell_length_a 15.070795
_cell_length_b 7.772123
_cell_length_c 8.680515
_cell_angle_alpha 90.000000
_cell_angle_beta 53.842598
_cell_angle_gamma 90.000000
_cell_volume 820.936619
_symmetry_space_group_name_H-M "P 2/C"
_symmetry_group_IT_number 13
_symmetry_cell_setting 'monoclinic'
loop_
_space_group_symop_operation_xyz
x,y,z
-x,y,1/2-z
-x,-y,-z
x,-y,1/2+z
loop_
_atom_site_type_symbol
_atom_site_label
_atom_site_fract_x
_atom_site_fract_y
_atom_site_fract_z
Si Si1 0.155803 0.742138 0.042413
Si Si2 0.018851 0.734100 0.497436
Si Si3 0.394978 0.608235 0.757781
Si Si4 0.151044 0.873962 0.608752
Si Si5 0.609131 0.250544 0.582180
O O1 0.093156 0.734881 0.269111
O O2 0.155060 0.947337 0.014189
O O3 0.279526 0.683706 0.931195
O O4 0.088193 0.643463 0.975140
O O5 0.108770 0.719360 0.542010
O O6 0.942903 0.877293 0.664284
O O7 0.500000 0.666068 0.750000
O O8 0.384061 0.404816 0.800595
O O9 0.407254 0.663591 0.568326
O O10 0.273904 0.842546 0.541632
O O11 0.500000 0.148690 0.750000
#
# Coordination Sequence:
#
# PCOD9232842 Si02
#       5
#     4   4   4   4   4
#     4  11  21  39  66  95 125 162 206 251 304 368
#     4  10  21  38  63  94 131 166 197 246 311 368
#     4  11  25  45  65  89 122 165 209 257 314 367
#     4  11  21  39  66  95 125 162 206 251 304 368
#     4  11  25  45  65  89 122 165 209 257 314 367
#
# _framework density 24.362416
#
# number of rings (size 3 to 8) (size 9 to 14) (size 15 to 20)
#    0.000    1.200    2.000    7.200    5.600    0.800 
#    0.000    8.000    0.000    0.000    0.000    0.000 
#    0.000    0.000    0.000    0.000    0.000    0.000 
#
# Total GULP energy -111345.062718 kJ/mol
# GULP energy per Si atom -5567.253136 kJ/mol
# Density = 2.430697 g / cm^3
# Si number density = 24.362416 Si / 1000 Ang^3
#
#
#
# Elastic Constant Matrix: (Units=GPa)
#
#
# Indices 1 2 3 4 5 6 
#
# 1 150.4107 1.3628 59.5914 0.0000 -24.9775 0.0000
# 2 1.3628 36.6418 6.9089 0.0000 -8.8911 0.0000
# 3 59.5914 6.9089 130.7602 0.0000 -35.3960 0.0000
# 4 0.0000 0.0000 0.0000 19.8377 0.0000 -2.4693
# 5 -24.9775 -8.8911 -35.3960 0.0000 62.0251 0.0000
# 6 0.0000 0.0000 0.0000 -2.4693 0.0000 32.4967
#
#
#
# Elastic Compliance Matrix: (Units=1/GPa)
#
#
# Indices 1 2 3 4 5 6 
#
# 1 0.008230 0.000692 -0.003386 0.000000 0.001481 0.000000
# 2 0.000692 0.028357 -0.000754 0.000000 0.003913 0.000000
# 3 -0.003386 -0.000754 0.010446 0.000000 0.004489 0.000000
# 4 0.000000 0.000000 0.000000 0.050891 0.000000 0.003867
# 5 0.001481 0.003913 0.004489 0.000000 0.019842 0.000000
# 6 0.000000 0.000000 0.000000 0.003867 0.000000 0.031066
#
#
# Mechanical properties :
#
#
# Convention : Reuss Voigt Hill
#
# Bulk Modulus (GPa) = 24.91580 50.39323 37.65452
# Shear Modulus (GPa) = 29.56704 39.53521 34.55112
#
# Velocity S-wave (km/s) = 3.48750 4.03276 3.77000
# Velocity P-wave (km/s) = 5.14454 6.51260 5.86857
#
# Compressibility (1/GPa) = 0.04013517
#
# Stress axis : x y z
#
# Youngs Moduli (GPa) = 121.51119 35.26441 95.73126
#
# Poissons Ratio (x) = -0.02439 0.32417
# Poissons Ratio (y) = -0.08405 0.07221
# Poissons Ratio (z) = 0.41146 0.02660
#
# Static dielectric constant tensor:
#      x y z
#    x 2.006960 0.000000 -0.006310 
#    y 0.000000 2.031390 0.000000 
#    z -0.006310 0.000000 1.909600 
# 
# From -- ./inp_files/18260.got.cif
#   From: 2010.05.17/outbox.cif.g08.bks.cpg/sg13_10_cif.got.tgz:18260.got - 2010.06.03 16:44:36.
