data_PCOD9232766
_publ_section_title
;
Structure prediction by ZEFSAII (Michael W. Deem and Ramdas Pophale) SiO2 
 PCOD9232766
Probable space group: P 2/C
;
_chemical_formula_sum "Si O2"
_cell_formula_units_Z 20
_cell_length_a 9.575537
_cell_length_b 21.141001
_cell_length_c 5.244255
_cell_angle_alpha 90.000000
_cell_angle_beta 82.586576
_cell_angle_gamma 90.000000
_cell_volume 1052.754104
_symmetry_space_group_name_H-M "P 2/C"
_symmetry_group_IT_number 13
_symmetry_cell_setting 'monoclinic'
loop_
_space_group_symop_operation_xyz
x,y,z
-x,y,1/2-z
-x,-y,-z
x,-y,1/2+z
loop_
_atom_site_type_symbol
_atom_site_label
_atom_site_fract_x
_atom_site_fract_y
_atom_site_fract_z
Si Si1 0.500000 0.257471 0.750000
Si Si2 0.500000 0.956699 0.250000
Si Si3 0.164891 0.790577 0.750264
Si Si4 0.701216 0.842627 0.307017
Si Si5 0.834972 0.542563 0.786438
Si Si6 0.342807 0.330470 0.167931
O O1 0.425683 0.206177 0.584061
O O2 0.620211 0.303530 0.620100
O O3 0.632398 0.909566 0.257715
O O4 0.500000 0.000000 0.500000
O O5 0.230872 0.816582 0.470474
O O6 0.238638 0.723417 0.798552
O O7 0.000000 0.781351 0.750000
O O8 0.195657 0.838148 0.977137
O O9 0.811335 0.500080 0.541840
O O10 0.733826 0.602860 0.809337
O O11 0.000000 0.562316 0.750000
O O12 0.500000 0.332830 0.250000
#
# Coordination Sequence:
#
# PCOD9232766 Si02
#       6
#     2   2   4   4   4   4
#     4   9  20  36  56  90 120 149 184 254 314 345
#     4  11  22  38  66  96 124 163 210 246 288 347
#     4  11  22  38  62  91 122 161 197 243 309 365
#     4  10  21  38  61  88 128 155 198 249 294 348
#     4  10  24  43  59  79 113 158 202 244 295 363
#     4  11  22  37  61  87 120 149 198 252 306 357
#
# _framework density 18.997788
#
# number of rings (size 3 to 8) (size 9 to 14) (size 15 to 20)
#    0.000    1.600    2.000    2.400    2.800    0.800 
#    0.000    4.000    0.000   12.000    0.000    0.000 
#    0.000    0.000    0.000    0.000    0.000    0.000 
#
# Total GULP energy -111476.288187 kJ/mol
# GULP energy per Si atom -5573.814409 kJ/mol
# Density = 1.895455 g / cm^3
# Si number density = 18.997788 Si / 1000 Ang^3
#
#
#
# Elastic Constant Matrix: (Units=GPa)
#
#
# Indices 1 2 3 4 5 6 
#
# 1 139.3922 93.7607 49.9595 0.0000 13.8425 0.0000
# 2 93.7607 150.1336 66.9833 0.0000 -2.6402 0.0000
# 3 49.9595 66.9833 120.8959 0.0000 13.0177 0.0000
# 4 0.0000 0.0000 0.0000 22.3364 0.0000 0.6948
# 5 13.8425 -2.6402 13.0177 0.0000 19.2433 0.0000
# 6 0.0000 0.0000 0.0000 0.6948 0.0000 21.5869
#
#
#
# Elastic Compliance Matrix: (Units=1/GPa)
#
#
# Indices 1 2 3 4 5 6 
#
# 1 0.014663 -0.009644 0.000606 0.000000 -0.012281 0.000000
# 2 -0.009644 0.015638 -0.006102 0.000000 0.013210 0.000000
# 3 0.000606 -0.006102 0.012445 0.000000 -0.009692 0.000000
# 4 0.000000 0.000000 0.000000 0.044815 0.000000 -0.001442
# 5 -0.012281 0.013210 -0.009692 0.000000 0.069169 0.000000
# 6 0.000000 0.000000 0.000000 -0.001442 0.000000 0.046371
#
#
# Mechanical properties :
#
#
# Convention : Reuss Voigt Hill
#
# Bulk Modulus (GPa) = 80.20493 92.42541 86.31517
# Shear Modulus (GPa) = 21.04950 25.94788 23.49869
#
# Velocity S-wave (km/s) = 3.33227 3.69973 3.52080
# Velocity P-wave (km/s) = 7.55745 8.18578 7.87788
#
# Compressibility (1/GPa) = 0.01246806
#
# Stress axis : x y z
#
# Youngs Moduli (GPa) = 68.19864 63.94714 80.35133
#
# Poissons Ratio (x) = 0.61669 -0.04870
# Poissons Ratio (y) = 0.65769 0.49027
# Poissons Ratio (z) = -0.04134 0.39018
#
# Static dielectric constant tensor:
#      x y z
#    x 1.688280 0.000000 0.002870 
#    y 0.000000 1.624310 0.000000 
#    z 0.002870 0.000000 1.738160 
# 
# From -- ./inp_files/1615.got.cif
#   From: 2010.05.17/outbox.cif.g08.bks.cpg/sg13_1_cif.got.tgz:1615.got - 2010.06.03 16:44:36.
