data_PCOD9232462
_publ_section_title
;
Structure prediction by ZEFSAII (Michael W. Deem and Ramdas Pophale) SiO2 
 PCOD9232462
Probable space group: P 2/C
;
_chemical_formula_sum "Si O2"
_cell_formula_units_Z 20
_cell_length_a 11.791925
_cell_length_b 9.222881
_cell_length_c 14.134220
_cell_angle_alpha 90.000000
_cell_angle_beta 29.804744
_cell_angle_gamma 90.000000
_cell_volume 764.046123
_symmetry_space_group_name_H-M "P 2/C"
_symmetry_group_IT_number 13
_symmetry_cell_setting 'monoclinic'
loop_
_space_group_symop_operation_xyz
x,y,z
-x,y,1/2-z
-x,-y,-z
x,-y,1/2+z
loop_
_atom_site_type_symbol
_atom_site_label
_atom_site_fract_x
_atom_site_fract_y
_atom_site_fract_z
Si Si1 0.500000 0.593746 0.750000
Si Si2 0.500000 0.923332 0.250000
Si Si3 0.530894 0.163871 0.385684
Si Si4 0.740674 0.326611 0.784758
Si Si5 0.021573 0.844609 0.538198
Si Si6 0.247498 0.583754 0.571121
O O1 0.451530 0.699050 0.697435
O O2 0.707157 0.497164 0.561835
O O3 0.256699 0.844440 0.425970
O O4 0.504285 0.024779 0.339518
O O5 0.313567 0.189880 0.608071
O O6 0.772839 0.167924 0.264128
O O7 0.934727 0.279648 0.572097
O O8 0.777334 0.463294 0.826333
O O9 0.496425 0.347787 0.909820
O O10 0.000000 0.000000 0.500000
O O11 0.000000 0.657098 0.750000
#
# Coordination Sequence:
#
# PCOD9232462 Si02
#       6
#     2   2   4   4   4   4
#     4   9  18  35  60  84 114 151 192 231 286 364
#     4   9  20  35  54  80 106 143 196 237 286 344
#     4   9  19  38  57  78 111 152 189 236 291 345
#     4  10  22  37  57  85 115 148 195 236 285 357
#     4  10  21  38  57  80 111 148 189 241 290 337
#     4  10  21  37  58  87 117 151 189 238 295 348
#
# _framework density 26.176427
#
# number of rings (size 3 to 8) (size 9 to 14) (size 15 to 20)
#    0.000    2.400    0.000    1.200    0.000    8.800 
#    0.000   10.000    0.000    0.000    0.000    0.000 
#    0.000    0.000    0.000    0.000    0.000    0.000 
#
# Total GULP energy -111862.355197 kJ/mol
# GULP energy per Si atom -5593.117760 kJ/mol
# Density = 2.611685 g / cm^3
# Si number density = 26.176427 Si / 1000 Ang^3
#
#
#
# Elastic Constant Matrix: (Units=GPa)
#
#
# Indices 1 2 3 4 5 6 
#
# 1 80.5219 14.9012 16.4535 0.0000 -15.1903 0.0000
# 2 14.9012 55.1533 10.3677 0.0000 4.0807 0.0000
# 3 16.4535 10.3677 99.7859 0.0000 -16.5292 0.0000
# 4 0.0000 0.0000 0.0000 41.6861 0.0000 8.8154
# 5 -15.1903 4.0807 -16.5292 0.0000 31.8743 0.0000
# 6 0.0000 0.0000 0.0000 8.8154 0.0000 22.9290
#
#
#
# Elastic Compliance Matrix: (Units=1/GPa)
#
#
# Indices 1 2 3 4 5 6 
#
# 1 0.014742 -0.004366 -0.000789 0.000000 0.007175 0.000000
# 2 -0.004366 0.020188 -0.002353 0.000000 -0.005885 0.000000
# 3 -0.000789 -0.002353 0.011359 0.000000 0.005816 0.000000
# 4 0.000000 0.000000 0.000000 0.026112 0.000000 -0.010039
# 5 0.007175 -0.005885 0.005816 0.000000 0.038562 0.000000
# 6 0.000000 0.000000 0.000000 -0.010039 0.000000 0.047473
#
#
# Mechanical properties :
#
#
# Convention : Reuss Voigt Hill
#
# Bulk Modulus (GPa) = 31.97340 35.43400 33.70370
# Shear Modulus (GPa) = 27.19245 32.21380 29.70313
#
# Velocity S-wave (km/s) = 3.22656 3.51186 3.37223
# Velocity P-wave (km/s) = 5.11097 5.47815 5.29774
#
# Compressibility (1/GPa) = 0.03127600
#
# Stress axis : x y z
#
# Youngs Moduli (GPa) = 67.83527 49.53339 88.03345
#
# Poissons Ratio (x) = 0.21624 0.06942
# Poissons Ratio (y) = 0.29613 0.20711
# Poissons Ratio (z) = 0.05349 0.11653
#
# Static dielectric constant tensor:
#      x y z
#    x 2.120540 0.000000 -0.038320 
#    y 0.000000 2.097690 0.000000 
#    z -0.038320 0.000000 2.139530 
# 
# From -- ./inp_files/50762.got.cif
#   From: 2010.05.17/outbox.cif.g08.bks.cpg/sg13_26_cif.got.tgz:50762.got - 2010.06.03 16:44:36.
