data_PCOD9232380
_publ_section_title
;
Structure prediction by ZEFSAII (Michael W. Deem and Ramdas Pophale) SiO2 
 PCOD9232380
Probable space group: P 2/C
;
_chemical_formula_sum "Si O2"
_cell_formula_units_Z 32
_cell_length_a 30.613125
_cell_length_b 5.466613
_cell_length_c 17.639759
_cell_angle_alpha 90.000000
_cell_angle_beta 29.475948
_cell_angle_gamma 90.000000
_cell_volume 1452.563323
_symmetry_space_group_name_H-M "P 2/C"
_symmetry_group_IT_number 13
_symmetry_cell_setting 'monoclinic'
loop_
_space_group_symop_operation_xyz
x,y,z
-x,y,1/2-z
-x,-y,-z
x,-y,1/2+z
loop_
_atom_site_type_symbol
_atom_site_label
_atom_site_fract_x
_atom_site_fract_y
_atom_site_fract_z
Si Si1 0.439903 0.105350 0.281580
Si Si2 0.593385 0.766460 0.306391
Si Si3 0.971781 0.292901 0.206201
Si Si4 0.708853 0.397197 0.905602
Si Si5 0.017157 0.775442 0.056840
Si Si6 0.772802 0.286881 0.451666
Si Si7 0.569353 0.555112 0.500150
Si Si8 0.849917 0.925119 0.228110
O O1 0.500000 0.945121 0.250000
O O2 0.359147 0.212976 0.450165
O O3 0.411057 0.992737 0.245069
O O4 0.504874 0.319545 0.157857
O O5 0.595715 0.747536 0.393930
O O6 0.496500 0.645693 0.435566
O O7 0.688942 0.663387 0.133604
O O8 0.021647 0.527540 0.096072
O O9 0.866870 0.346525 0.349121
O O10 0.000000 0.279802 0.250000
O O11 0.996711 0.028370 0.133059
O O12 0.744448 0.571290 0.918042
O O13 0.656451 0.522056 0.915614
O O14 0.789730 0.222167 0.760754
O O15 0.932109 0.759198 0.130234
O O16 0.104355 0.838032 0.877473
O O17 0.794210 0.014510 0.385749
#
# Coordination Sequence:
#
# PCOD9232380 Si02
#       8
#     4   4   4   4   4   4   4   4
#     4  10  21  36  63  87 119 168 215 265 316 388
#     4  11  22  40  58  90 125 169 210 266 332 381
#     4  11  24  44  68  97 136 178 217 268 341 404
#     4  11  21  39  61  93 123 165 220 267 315 395
#     4  10  23  41  68  99 130 171 216 276 336 392
#     4  11  23  38  65  90 126 168 216 272 321 400
#     4  10  24  38  59  88 131 164 211 271 328 380
#     4  10  22  39  64  94 124 161 219 275 325 385
#
# _framework density 22.030018999999999
#
# number of rings (size 3 to 8) (size 9 to 14) (size 15 to 20)
#    0.000    1.500    3.750    0.750    3.500    2.500 
#    0.000    1.250    0.000    0.000    0.000    0.000 
#    0.000    0.000    0.000    0.000    0.000    0.000 
#
# Total GULP energy -178256.050298 kJ/mol
# GULP energy per Si atom -5570.501572 kJ/mol
# Density = 2.197988 g / cm^3
# Si number density = 22.030019 Si / 1000 Ang^3
#
#
#
# Elastic Constant Matrix: (Units=GPa)
#
#
# Indices 1 2 3 4 5 6 
#
# 1 131.8621 15.3959 38.6333 0.0000 -11.6689 0.0000
# 2 15.3959 45.4553 16.2149 0.0000 0.9789 0.0000
# 3 38.6333 16.2149 92.6095 0.0000 -12.5472 0.0000
# 4 0.0000 0.0000 0.0000 28.0591 0.0000 1.4747
# 5 -11.6689 0.9789 -12.5472 0.0000 21.8732 0.0000
# 6 0.0000 0.0000 0.0000 1.4747 0.0000 25.5634
#
#
#
# Elastic Compliance Matrix: (Units=1/GPa)
#
#
# Indices 1 2 3 4 5 6 
#
# 1 0.008970 -0.002054 -0.002951 0.000000 0.003185 0.000000
# 2 -0.002054 0.024214 -0.003988 0.000000 -0.004467 0.000000
# 3 -0.002951 -0.003988 0.013595 0.000000 0.006403 0.000000
# 4 0.000000 0.000000 0.000000 0.035747 0.000000 -0.002062
# 5 0.003185 -0.004467 0.006403 0.000000 0.051290 0.000000
# 6 0.000000 0.000000 0.000000 -0.002062 0.000000 0.039237
#
#
# Mechanical properties :
#
#
# Convention : Reuss Voigt Hill
#
# Bulk Modulus (GPa) = 34.73063 45.60168 40.16615
# Shear Modulus (GPa) = 24.92069 28.41133 26.66601
#
# Velocity S-wave (km/s) = 3.36700 3.59509 3.48291
# Velocity P-wave (km/s) = 5.56012 6.16260 5.86910
#
# Compressibility (1/GPa) = 0.02879303
#
# Stress axis : x y z
#
# Youngs Moduli (GPa) = 111.48455 41.29813 73.55814
#
# Poissons Ratio (x) = 0.08483 0.21706
# Poissons Ratio (y) = 0.22900 0.29335
# Poissons Ratio (z) = 0.32897 0.16469
#
# Static dielectric constant tensor:
#      x y z
#    x 1.921380 0.000000 -0.020850 
#    y 0.000000 1.896200 0.000000 
#    z -0.020850 0.000000 1.860910 
# 
# From -- ./inp_files/72206.got.cif
#   From: 2010.05.17/outbox.cif.g08.bks.cpg/sg13_37_cif.got.tgz:72206.got - 2010.06.03 16:44:36.
