data_PCOD9232398
_publ_section_title
;
Structure prediction by ZEFSAII (Michael W. Deem and Ramdas Pophale) SiO2 
 PCOD9232398
Probable space group: P 2/C
;
_chemical_formula_sum "Si O2"
_cell_formula_units_Z 32
_cell_length_a 28.165949
_cell_length_b 7.518540
_cell_length_c 11.756460
_cell_angle_alpha 90.000000
_cell_angle_beta 32.345258
_cell_angle_gamma 90.000000
_cell_volume 1332.000457
_symmetry_space_group_name_H-M "P 2/C"
_symmetry_group_IT_number 13
_symmetry_cell_setting 'monoclinic'
loop_
_space_group_symop_operation_xyz
x,y,z
-x,y,1/2-z
-x,-y,-z
x,-y,1/2+z
loop_
_atom_site_type_symbol
_atom_site_label
_atom_site_fract_x
_atom_site_fract_y
_atom_site_fract_z
Si Si1 0.641291 0.331229 0.153663
Si Si2 0.817880 0.210300 0.860206
Si Si3 0.594215 0.179468 0.032892
Si Si4 0.577857 0.783740 0.011017
Si Si5 0.239707 0.183187 0.955482
Si Si6 0.897253 0.132253 0.455724
Si Si7 0.903886 0.706043 0.404543
Si Si8 0.724114 0.352714 0.373835
O O1 0.634042 0.166371 0.080226
O O2 0.575728 0.307075 0.391613
O O3 0.736569 0.343579 0.020780
O O4 0.651131 0.496847 0.050130
O O5 0.852399 0.184961 0.664084
O O6 0.893390 0.281303 0.790352
O O7 0.773384 0.028323 0.996201
O O8 0.500000 0.275108 0.250000
O O9 0.566800 0.996610 0.026213
O O10 0.673762 0.244404 0.791472
O O11 0.500000 0.719480 0.250000
O O12 0.671091 0.763301 0.888757
O O13 0.154572 0.215329 0.046868
O O14 0.250378 0.261186 0.059093
O O15 0.000000 0.181979 0.250000
O O16 0.893413 0.915190 0.460918
O O17 0.819471 0.601732 0.625848
O O18 0.000000 0.643558 0.250000
#
# Coordination Sequence:
#
# PCOD9232398 Si02
#       8
#     4   4   4   4   4   4   4   4
#     4  12  26  44  68  95 137 178 221 271 332 401
#     4  11  20  41  66  91 131 172 227 278 322 386
#     4  11  25  43  71 101 131 169 228 274 330 389
#     4  11  26  46  70 100 132 174 224 275 330 393
#     4  11  22  39  66  93 132 174 218 273 333 381
#     4  10  21  36  66 103 128 168 230 281 323 383
#     4  10  22  39  66  97 133 174 220 276 335 388
#     4  12  26  43  65  96 140 178 219 267 335 395
#
# _framework density 24.024018000000002
#
# number of rings (size 3 to 8) (size 9 to 14) (size 15 to 20)
#    0.000    1.000    5.000    1.500    5.250    3.500 
#    0.000    1.250    0.000    0.000    0.000    0.000 
#    0.000    0.000    0.000    0.000    0.000    0.000 
#
# Total GULP energy -178680.375204 kJ/mol
# GULP energy per Si atom -5583.761725 kJ/mol
# Density = 2.396934 g / cm^3
# Si number density = 24.024018 Si / 1000 Ang^3
#
#
#
# Elastic Constant Matrix: (Units=GPa)
#
#
# Indices 1 2 3 4 5 6 
#
# 1 107.2084 6.1438 32.5078 0.0000 1.2136 0.0000
# 2 6.1438 52.8666 3.5413 0.0000 1.4627 0.0000
# 3 32.5078 3.5413 121.1343 0.0000 2.6087 0.0000
# 4 0.0000 0.0000 0.0000 6.7107 0.0000 1.5937
# 5 1.2136 1.4627 2.6087 0.0000 52.7929 0.0000
# 6 0.0000 0.0000 0.0000 1.5937 0.0000 18.5791
#
#
#
# Elastic Compliance Matrix: (Units=1/GPa)
#
#
# Indices 1 2 3 4 5 6 
#
# 1 0.010207 -0.001003 -0.002708 0.000000 -0.000073 0.000000
# 2 -0.001003 0.019064 -0.000278 0.000000 -0.000491 0.000000
# 3 -0.002708 -0.000278 0.008998 0.000000 -0.000375 0.000000
# 4 0.000000 0.000000 0.000000 0.152115 0.000000 -0.013048
# 5 -0.000073 -0.000491 -0.000375 0.000000 0.018976 0.000000
# 6 0.000000 0.000000 0.000000 -0.013048 0.000000 0.054943
#
#
# Mechanical properties :
#
#
# Convention : Reuss Voigt Hill
#
# Bulk Modulus (GPa) = 33.01177 40.62170 36.81673
# Shear Modulus (GPa) = 17.70671 31.55095 24.62883
#
# Velocity S-wave (km/s) = 2.71780 3.62789 3.20531
# Velocity P-wave (km/s) = 4.85999 5.87318 5.39045
#
# Compressibility (1/GPa) = 0.03029223
#
# Stress axis : x y z
#
# Youngs Moduli (GPa) = 97.97062 52.45411 111.13221
#
# Poissons Ratio (x) = 0.05260 0.30098
# Poissons Ratio (y) = 0.09824 0.03086
# Poissons Ratio (z) = 0.26534 0.01456
#
# Static dielectric constant tensor:
#      x y z
#    x 1.926800 0.000000 0.001210 
#    y 0.000000 2.039970 0.000000 
#    z 0.001210 0.000000 1.925740 
# 
# From -- ./inp_files/42753.got.cif
#   From: 2010.05.17/outbox.cif.g08.bks.cpg/sg13_22_cif.got.tgz:42753.got - 2010.06.03 16:44:36.
