data_PCOD9232718
_publ_section_title
;
Structure prediction by ZEFSAII (Michael W. Deem and Ramdas Pophale) SiO2 
 PCOD9232718
Probable space group: P 2/C
;
_chemical_formula_sum "Si O2"
_cell_formula_units_Z 22
_cell_length_a 19.736793
_cell_length_b 9.358050
_cell_length_c 5.244800
_cell_angle_alpha 90.000000
_cell_angle_beta 105.434013
_cell_angle_gamma 90.000000
_cell_volume 933.769740
_symmetry_space_group_name_H-M "P 2/C"
_symmetry_group_IT_number 13
_symmetry_cell_setting 'monoclinic'
loop_
_space_group_symop_operation_xyz
x,y,z
-x,y,1/2-z
-x,-y,-z
x,-y,1/2+z
loop_
_atom_site_type_symbol
_atom_site_label
_atom_site_fract_x
_atom_site_fract_y
_atom_site_fract_z
Si Si1 0.369650 0.300572 0.983648
Si Si2 0.857106 0.909408 0.590755
Si Si3 0.711895 0.447642 0.237218
Si Si4 0.915095 0.588988 0.667767
Si Si5 0.500000 0.104271 0.250000
Si Si6 0.688658 0.913159 0.433111
O O1 0.305861 0.302187 0.131424
O O2 0.361636 0.468814 0.908134
O O3 0.350117 0.228265 0.696730
O O4 0.435173 0.215937 0.157738
O O5 0.887292 0.750397 0.625629
O O6 0.772293 0.896441 0.507975
O O7 0.877412 0.998147 0.359119
O O8 0.748000 0.458450 0.998923
O O9 0.894538 0.491758 0.406339
O O10 0.000000 0.598256 0.750000
O O11 0.500000 0.000000 0.500000
O O12 0.668342 0.984623 0.675510
#
# Coordination Sequence:
#
# PCOD9232718 Si02
#       6
#     4   4   4   4   2   4
#     4  10  22  40  56  81 112 132 190 218 283 330
#     4  10  21  39  58  88 117 159 207 238 294 352
#     4   8  20  35  56  78 100 138 165 220 264 330
#     4  10  21  38  59  89 124 160 196 245 304 343
#     4  12  28  36  58  82 104 142 180 224 272 342
#     4  10  22  36  59  78 113 152 177 234 279 328
#
# _framework density 23.560411999999999
#
# number of rings (size 3 to 8) (size 9 to 14) (size 15 to 20)
#    1.091    1.091    0.000    2.182    5.091    1.455 
#    3.273    0.000    0.000    0.000    0.000    0.000 
#    0.000    0.000    0.000    0.000    0.000    0.000 
#
# Total GULP energy -122666.933772 kJ/mol
# GULP energy per Si atom -5575.769717 kJ/mol
# Density = 2.350679 g / cm^3
# Si number density = 23.560412 Si / 1000 Ang^3
#
#
#
# Elastic Constant Matrix: (Units=GPa)
#
#
# Indices 1 2 3 4 5 6 
#
# 1 55.6905 31.6457 37.1650 0.0000 2.7685 0.0000
# 2 31.6457 155.0308 68.8481 0.0000 0.9813 0.0000
# 3 37.1650 68.8481 188.5607 0.0000 -22.0850 0.0000
# 4 0.0000 0.0000 0.0000 47.7937 0.0000 2.6895
# 5 2.7685 0.9813 -22.0850 0.0000 25.8843 0.0000
# 6 0.0000 0.0000 0.0000 2.6895 0.0000 35.6124
#
#
#
# Elastic Compliance Matrix: (Units=1/GPa)
#
#
# Indices 1 2 3 4 5 6 
#
# 1 0.022556 -0.002733 -0.004131 0.000000 -0.005834 0.000000
# 2 -0.002733 0.008244 -0.002748 0.000000 -0.002365 0.000000
# 3 -0.004131 -0.002748 0.007983 0.000000 0.007357 0.000000
# 4 0.000000 0.000000 0.000000 0.021013 0.000000 -0.001587
# 5 -0.005834 -0.002365 0.007357 0.000000 0.045624 0.000000
# 6 0.000000 0.000000 0.000000 -0.001587 0.000000 0.028200
#
#
# Mechanical properties :
#
#
# Convention : Reuss Voigt Hill
#
# Bulk Modulus (GPa) = 51.13009 74.95549 63.04279
# Shear Modulus (GPa) = 31.37483 39.29966 35.33725
#
# Velocity S-wave (km/s) = 3.65317 4.08859 3.87700
# Velocity P-wave (km/s) = 6.28833 7.36016 6.84526
#
# Compressibility (1/GPa) = 0.01955796
#
# Stress axis : x y z
#
# Youngs Moduli (GPa) = 44.33367 121.30565 125.26937
#
# Poissons Ratio (x) = 0.33149 0.51753
# Poissons Ratio (y) = 0.12115 0.34429
# Poissons Ratio (z) = 0.18316 0.33339
#
# Static dielectric constant tensor:
#      x y z
#    x 1.959070 0.000000 -0.089230 
#    y 0.000000 1.981450 0.000000 
#    z -0.089230 0.000000 2.029830 
# 
# From -- ./inp_files/7357.got.cif
#   From: 2010.05.17/outbox.cif.g08.bks.cpg/sg13_4_cif.got.tgz:7357.got - 2010.06.03 16:44:36.
