data_PCOD9232152
_publ_section_title
;
Structure prediction by ZEFSAII (Michael W. Deem and Ramdas Pophale) SiO2 
 PCOD9232152
Probable space group: P 2/C
;
_chemical_formula_sum "Si O2"
_cell_formula_units_Z 26
_cell_length_a 11.559187
_cell_length_b 10.926976
_cell_length_c 12.353081
_cell_angle_alpha 90.000000
_cell_angle_beta 118.399216
_cell_angle_gamma 90.000000
_cell_volume 1372.508313
_symmetry_space_group_name_H-M "P 2/C"
_symmetry_group_IT_number 13
_symmetry_cell_setting 'monoclinic'
loop_
_space_group_symop_operation_xyz
x,y,z
-x,y,1/2-z
-x,-y,-z
x,-y,1/2+z
loop_
_atom_site_type_symbol
_atom_site_label
_atom_site_fract_x
_atom_site_fract_y
_atom_site_fract_z
Si Si1 0.503164 0.287737 0.468678
Si Si2 0.882881 0.173006 0.917180
Si Si3 0.834427 0.885997 0.941735
Si Si4 0.500000 0.445365 0.250000
Si Si5 0.600453 0.939707 0.698306
Si Si6 0.746084 0.164919 0.645047
Si Si7 0.371766 0.323716 0.631942
O O1 0.495871 0.366868 0.356988
O O2 0.469235 0.149338 0.417474
O O3 0.648315 0.279032 0.585069
O O4 0.407645 0.329734 0.521561
O O5 0.864777 0.188810 0.780270
O O6 0.763432 0.252314 0.911833
O O7 0.858643 0.030650 0.934841
O O8 0.033305 0.191246 0.019736
O O9 0.714794 0.860103 0.807633
O O10 0.792795 0.870740 0.047063
O O11 0.622321 0.539831 0.316000
O O12 0.500000 0.974207 0.750000
O O13 0.665189 0.054933 0.667313
O O14 0.500000 0.263644 0.750000
#
# Coordination Sequence:
#
# PCOD9232152 Si02
#       7
#     4   4   4   2   4   4   4
#     4  12  20  37  59  88 120 151 199 259 310 353
#     4  10  21  36  53  79 119 155 205 238 298 361
#     4  10  21  35  51  81 121 160 191 242 293 374
#     4  10  22  38  58  92 122 150 204 268 322 338
#     4  11  22  32  55  89 123 160 195 246 301 374
#     4  11  20  32  57  83 117 158 196 237 303 366
#     4  10  22  36  59  86 111 159 202 260 294 358
#
# _framework density 18.94342
#
# number of rings (size 3 to 8) (size 9 to 14) (size 15 to 20)
#    0.462    0.923    3.846    2.308    4.308    0.000 
#    0.000    2.308    0.000    3.692    0.000    4.308 
#    0.000    0.000    0.000    0.000    0.000    0.000 
#
# Total GULP energy -144965.423909 kJ/mol
# GULP energy per Si atom -5575.593227 kJ/mol
# Density = 1.890030 g / cm^3
# Si number density = 18.943420 Si / 1000 Ang^3
#
#
#
# Elastic Constant Matrix: (Units=GPa)
#
#
# Indices 1 2 3 4 5 6 
#
# 1 103.5100 23.8166 49.9345 0.0000 10.6204 0.0000
# 2 23.8166 53.6971 18.8669 0.0000 1.5868 0.0000
# 3 49.9345 18.8669 103.6314 0.0000 -1.0131 0.0000
# 4 0.0000 0.0000 0.0000 16.9358 0.0000 8.5484
# 5 10.6204 1.5868 -1.0131 0.0000 33.0025 0.0000
# 6 0.0000 0.0000 0.0000 8.5484 0.0000 10.8143
#
#
#
# Elastic Compliance Matrix: (Units=1/GPa)
#
#
# Indices 1 2 3 4 5 6 
#
# 1 0.013941 -0.003926 -0.006047 0.000000 -0.004483 0.000000
# 2 -0.003926 0.021039 -0.001936 0.000000 0.000193 0.000000
# 3 -0.006047 -0.001936 0.012939 0.000000 0.002436 0.000000
# 4 0.000000 0.000000 0.000000 0.098247 0.000000 -0.077662
# 5 -0.004483 0.000193 0.002436 0.000000 0.031809 0.000000
# 6 0.000000 0.000000 0.000000 -0.077662 0.000000 0.153861
#
#
# Mechanical properties :
#
#
# Convention : Reuss Voigt Hill
#
# Bulk Modulus (GPa) = 41.49222 49.56383 45.52802
# Shear Modulus (GPa) = 13.74802 23.36523 18.55662
#
# Velocity S-wave (km/s) = 2.69688 3.51582 3.13322
# Velocity P-wave (km/s) = 5.62569 6.53470 6.09716
#
# Compressibility (1/GPa) = 0.02410090
#
# Stress axis : x y z
#
# Youngs Moduli (GPa) = 71.72956 47.53027 77.28302
#
# Poissons Ratio (x) = 0.18663 0.46729
# Poissons Ratio (y) = 0.28164 0.14966
# Poissons Ratio (z) = 0.43372 0.09204
#
# Static dielectric constant tensor:
#      x y z
#    x 1.699110 0.000000 0.035600 
#    y 0.000000 1.665080 0.000000 
#    z 0.035600 0.000000 1.683320 
# 
# From -- ./inp_files/33327.got.cif
#   From: 2010.05.17/outbox.cif.g08.bks.cpg/sg13_17_cif.got.tgz:33327.got - 2010.06.03 16:44:36.
