data_PCOD9232120
_publ_section_title
;
Structure prediction by ZEFSAII (Michael W. Deem and Ramdas Pophale) SiO2 
 PCOD9232120
Probable space group: P 2/C
;
_chemical_formula_sum "Si O2"
_cell_formula_units_Z 30
_cell_length_a 26.210101
_cell_length_b 7.159310
_cell_length_c 8.696221
_cell_angle_alpha 90.000000
_cell_angle_beta 138.090669
_cell_angle_gamma 90.000000
_cell_volume 1089.975738
_symmetry_space_group_name_H-M "P 2/C"
_symmetry_group_IT_number 13
_symmetry_cell_setting 'monoclinic'
loop_
_space_group_symop_operation_xyz
x,y,z
-x,y,1/2-z
-x,-y,-z
x,-y,1/2+z
loop_
_atom_site_type_symbol
_atom_site_label
_atom_site_fract_x
_atom_site_fract_y
_atom_site_fract_z
Si Si1 0.045580 0.240096 0.656065
Si Si2 0.304724 0.724573 0.722587
Si Si3 0.866844 0.280501 0.264363
Si Si4 0.556822 0.764362 0.634761
Si Si5 0.000000 0.097012 0.250000
Si Si6 0.594102 0.175125 0.579622
Si Si7 0.265588 0.949870 0.930577
Si Si8 0.177324 0.488430 0.581559
O O1 0.108408 0.376215 0.863810
O O2 0.957234 0.296503 0.487096
O O3 0.047564 0.216519 0.477810
O O4 0.048565 0.039759 0.747274
O O5 0.385501 0.648029 0.843066
O O6 0.296753 0.889460 0.833897
O O7 0.256632 0.564814 0.696038
O O8 0.273565 0.836534 0.502736
O O9 0.821386 0.112561 0.239414
O O10 0.843635 0.290855 0.034968
O O11 0.828005 0.463063 0.253125
O O12 0.468290 0.713568 0.456810
O O13 0.567071 0.962253 0.565236
O O14 0.583889 0.787410 0.874690
O O15 0.679421 0.177386 0.836768
#
# Coordination Sequence:
#
# PCOD9232120 Si02
#       8
#     4   4   4   4   2   4   4   4
#     4  11  23  42  61  90 117 149 188 231 283 334
#     4  10  21  34  54  84 112 145 187 232 280 333
#     4  11  25  41  59  82 115 152 193 233 279 338
#     4   9  16  28  48  77 110 144 180 223 278 334
#     4  10  24  38  66  92 116 142 182 246 280 328
#     4   9  16  28  48  77 110 144 180 223 278 334
#     4  10  21  34  54  84 112 145 187 232 280 333
#     4  11  25  41  59  82 115 152 193 233 279 338
#
# _framework density 27.523548999999999
#
# number of rings (size 3 to 8) (size 9 to 14) (size 15 to 20)
#    0.000    1.867    1.333    3.600    5.600    3.733 
#    0.000    0.000    0.000    0.800    0.000    0.000 
#    0.000    0.000    0.000    0.000    0.000    0.000 
#
# Total GULP energy -167727.685682 kJ/mol
# GULP energy per Si atom -5590.922856 kJ/mol
# Density = 2.746090 g / cm^3
# Si number density = 27.523549 Si / 1000 Ang^3
#
#
#
# Elastic Constant Matrix: (Units=GPa)
#
#
# Indices 1 2 3 4 5 6 
#
# 1 221.7262 28.9659 29.0694 0.0000 3.0254 0.0000
# 2 28.9659 42.4116 -11.0678 0.0000 4.0127 0.0000
# 3 29.0694 -11.0678 72.6013 0.0000 -10.1730 0.0000
# 4 0.0000 0.0000 0.0000 30.0175 0.0000 -0.3852
# 5 3.0254 4.0127 -10.1730 0.0000 56.3724 0.0000
# 6 0.0000 0.0000 0.0000 -0.3852 0.0000 39.7036
#
#
#
# Elastic Compliance Matrix: (Units=1/GPa)
#
#
# Indices 1 2 3 4 5 6 
#
# 1 0.005488 -0.004470 -0.002950 0.000000 -0.000509 0.000000
# 2 -0.004470 0.028262 0.006002 0.000000 -0.000689 0.000000
# 3 -0.002950 0.006002 0.016243 0.000000 0.002662 0.000000
# 4 0.000000 0.000000 0.000000 0.033318 0.000000 0.000323
# 5 -0.000509 -0.000689 0.002662 0.000000 0.018296 0.000000
# 6 0.000000 0.000000 0.000000 0.000323 0.000000 0.025190
#
#
# Mechanical properties :
#
#
# Convention : Reuss Voigt Hill
#
# Bulk Modulus (GPa) = 21.20564 47.85267 34.52915
# Shear Modulus (GPa) = 34.39934 44.53682 39.46808
#
# Velocity S-wave (km/s) = 3.53911 4.02697 3.79089
# Velocity P-wave (km/s) = 4.94183 6.24866 5.63327
#
# Compressibility (1/GPa) = 0.04715727
#
# Stress axis : x y z
#
# Youngs Moduli (GPa) = 182.22732 35.38270 61.56507
#
# Poissons Ratio (x) = 0.15815 0.18161
# Poissons Ratio (y) = 0.81448 -0.36949
# Poissons Ratio (z) = 0.53755 -0.21235
#
# Static dielectric constant tensor:
#      x y z
#    x 2.177880 0.000000 0.020880 
#    y 0.000000 2.209030 0.000000 
#    z 0.020880 0.000000 2.204760 
# 
# From -- ./inp_files/24452.got.cif
#   From: 2010.05.17/outbox.cif.g08.bks.cpg/sg13_13_cif.got.tgz:24452.got - 2010.06.03 16:44:36.
