data_PCOD9232515
_publ_section_title
;
Structure prediction by ZEFSAII (Michael W. Deem and Ramdas Pophale) SiO2 
 PCOD9232515
Probable space group: P 2/C
;
_chemical_formula_sum "Si O2"
_cell_formula_units_Z 20
_cell_length_a 10.023367
_cell_length_b 6.253146
_cell_length_c 24.950595
_cell_angle_alpha 90.000000
_cell_angle_beta 146.350937
_cell_angle_gamma 90.000000
_cell_volume 866.532492
_symmetry_space_group_name_H-M "P 2/C"
_symmetry_group_IT_number 13
_symmetry_cell_setting 'monoclinic'
loop_
_space_group_symop_operation_xyz
x,y,z
-x,y,1/2-z
-x,-y,-z
x,-y,1/2+z
loop_
_atom_site_type_symbol
_atom_site_label
_atom_site_fract_x
_atom_site_fract_y
_atom_site_fract_z
Si Si1 0.138228 0.231435 0.349073
Si Si2 0.972371 0.848334 0.939040
Si Si3 0.400452 0.905467 0.559180
Si Si4 0.254978 0.055100 0.732616
Si Si5 0.996605 0.560161 0.104259
O O1 0.398675 0.151703 0.417324
O O2 0.112633 0.418143 0.384141
O O3 0.000000 0.314367 0.250000
O O4 0.985412 0.024591 0.316715
O O5 0.925595 0.597232 0.918015
O O6 0.769201 0.946853 0.833186
O O7 0.234364 0.885426 0.998441
O O8 0.000000 0.000000 0.000000
O O9 0.204024 0.717175 0.487697
O O10 0.537993 0.955634 0.661061
O O11 0.213937 0.303328 0.704091
#
# Coordination Sequence:
#
# PCOD9232515 Si02
#       5
#     4   4   4   4   4
#     4   9  19  35  57  90 127 161 201 249 303 371
#     4  10  23  40  59  86 120 158 208 261 307 368
#     4  10  21  37  60  89 124 163 205 253 307 367
#     4   9  21  38  57  88 124 157 201 255 308 371
#     4  10  21  37  62  89 121 164 206 252 312 366
#
# _framework density 23.080496
#
# number of rings (size 3 to 8) (size 9 to 14) (size 15 to 20)
#    0.000    2.400    0.000    0.600    0.000   20.000 
#    0.000    0.000    0.000   19.200    0.000    0.000 
#    0.000    0.000    0.000    0.000    0.000    0.000 
#
# Total GULP energy -111375.708970 kJ/mol
# GULP energy per Si atom -5568.785449 kJ/mol
# Density = 2.302796 g / cm^3
# Si number density = 23.080496 Si / 1000 Ang^3
#
#
#
# Elastic Constant Matrix: (Units=GPa)
#
#
# Indices 1 2 3 4 5 6 
#
# 1 62.1229 21.7025 22.6480 0.0000 -19.7502 0.0000
# 2 21.7025 118.1263 39.4492 0.0000 -32.7618 0.0000
# 3 22.6480 39.4492 132.9088 0.0000 -38.0571 0.0000
# 4 0.0000 0.0000 0.0000 30.0998 0.0000 -20.6750
# 5 -19.7502 -32.7618 -38.0571 0.0000 45.2422 0.0000
# 6 0.0000 0.0000 0.0000 -20.6750 0.0000 30.6304
#
#
#
# Elastic Compliance Matrix: (Units=1/GPa)
#
#
# Indices 1 2 3 4 5 6 
#
# 1 0.018990 -0.001366 -0.000975 0.000000 0.006481 0.000000
# 2 -0.001366 0.010851 -0.001197 0.000000 0.006254 0.000000
# 3 -0.000975 -0.001197 0.010111 0.000000 0.007212 0.000000
# 4 0.000000 0.000000 0.000000 0.061941 0.000000 0.041809
# 5 0.006481 0.006254 0.007212 0.000000 0.035529 0.000000
# 6 0.000000 0.000000 0.000000 0.041809 0.000000 0.060867
#
#
# Mechanical properties :
#
#
# Convention : Reuss Voigt Hill
#
# Bulk Modulus (GPa) = 30.41737 53.41750 41.91743
# Shear Modulus (GPa) = 23.11366 36.48504 29.79935
#
# Velocity S-wave (km/s) = 3.16798 3.98021 3.59709
# Velocity P-wave (km/s) = 5.15644 6.65710 5.95424
#
# Compressibility (1/GPa) = 0.03287596
#
# Stress axis : x y z
#
# Youngs Moduli (GPa) = 52.65902 92.15875 98.90618
#
# Poissons Ratio (x) = 0.12588 0.09641
# Poissons Ratio (y) = 0.07193 0.11840
# Poissons Ratio (z) = 0.05133 0.11032
#
# Static dielectric constant tensor:
#      x y z
#    x 1.997890 0.000000 -0.029890 
#    y 0.000000 1.893070 0.000000 
#    z -0.029890 0.000000 1.917330 
# 
# From -- ./inp_files/48590.got.cif
#   From: 2010.05.17/outbox.cif.g08.bks.cpg/sg13_25_cif.got.tgz:48590.got - 2010.06.03 16:44:36.
