data_PCOD9232925
_publ_section_title
;
Structure prediction by ZEFSAII (Michael W. Deem and Ramdas Pophale) SiO2 
 PCOD9232925
Probable space group: P 2/C
;
_chemical_formula_sum "Si O2"
_cell_formula_units_Z 28
_cell_length_a 29.400172
_cell_length_b 8.791158
_cell_length_c 8.920547
_cell_angle_alpha 90.000000
_cell_angle_beta 31.339725
_cell_angle_gamma 90.000000
_cell_volume 1199.178475
_symmetry_space_group_name_H-M "P 2/C"
_symmetry_group_IT_number 13
_symmetry_cell_setting 'monoclinic'
loop_
_space_group_symop_operation_xyz
x,y,z
-x,y,1/2-z
-x,-y,-z
x,-y,1/2+z
loop_
_atom_site_type_symbol
_atom_site_label
_atom_site_fract_x
_atom_site_fract_y
_atom_site_fract_z
Si Si1 0.500000 0.523161 0.750000
Si Si2 0.794684 0.065956 0.597087
Si Si3 0.500000 0.055615 0.750000
Si Si4 0.865658 0.476330 0.129590
Si Si5 0.050851 0.705124 0.835908
Si Si6 0.318817 0.912223 0.355217
Si Si7 0.841092 0.281221 0.927227
Si Si8 0.428780 0.294156 0.734620
O O1 0.427256 0.415298 0.874953
O O2 0.534739 0.623074 0.515380
O O3 0.812110 0.891935 0.500561
O O4 0.886075 0.150523 0.369195
O O5 0.742652 0.143385 0.606776
O O6 0.731759 0.049071 0.917848
O O7 0.489830 0.162392 0.632399
O O8 0.589179 0.963206 0.476762
O O9 0.918251 0.369439 0.095416
O O10 0.813634 0.600648 0.374657
O O11 0.924715 0.581486 0.857102
O O12 0.818460 0.365707 0.146117
O O13 0.947753 0.730920 0.123357
O O14 0.344491 0.793187 0.412361
#
# Coordination Sequence:
#
# PCOD9232925 Si02
#       8
#     2   4   2   4   4   4   4   4
#     4   9  21  40  74 104 129 159 226 270 328 421
#     4  12  27  41  64  99 144 174 227 286 339 405
#     4  11  23  44  76  92 121 173 224 270 330 397
#     4  10  21  38  70  94 125 178 238 276 331 410
#     4  11  21  41  66  96 130 182 224 282 337 400
#     4  12  25  44  65  99 130 175 220 276 337 407
#     4  11  21  41  66  97 132 178 230 279 338 403
#     4  10  21  42  70 100 126 165 213 269 334 402
#
# _framework density 23.349316999999999
#
# number of rings (size 3 to 8) (size 9 to 14) (size 15 to 20)
#    0.000    1.143    1.429    6.429    2.000    0.000 
#    0.000   10.000    0.000    0.000    0.000    0.000 
#    0.000    0.000    0.000    0.000    0.000    0.000 
#
# Total GULP energy -156524.163033 kJ/mol
# GULP energy per Si atom -5590.148680 kJ/mol
# Density = 2.329617 g / cm^3
# Si number density = 23.349317 Si / 1000 Ang^3
#
#
#
# Elastic Constant Matrix: (Units=GPa)
#
#
# Indices 1 2 3 4 5 6 
#
# 1 115.0696 33.6659 35.4554 0.0000 15.8299 0.0000
# 2 33.6659 100.8267 47.3414 0.0000 -8.9062 0.0000
# 3 35.4554 47.3414 94.5366 0.0000 4.4919 0.0000
# 4 0.0000 0.0000 0.0000 29.7058 0.0000 4.8432
# 5 15.8299 -8.9062 4.4919 0.0000 34.2537 0.0000
# 6 0.0000 0.0000 0.0000 4.8432 0.0000 25.2390
#
#
#
# Elastic Compliance Matrix: (Units=1/GPa)
#
#
# Indices 1 2 3 4 5 6 
#
# 1 0.011093 -0.003102 -0.002339 0.000000 -0.005626 0.000000
# 2 -0.003102 0.014480 -0.006374 0.000000 0.006035 0.000000
# 3 -0.002339 -0.006374 0.014767 0.000000 -0.002513 0.000000
# 4 0.000000 0.000000 0.000000 0.034751 0.000000 -0.006668
# 5 -0.005626 0.006035 -0.002513 0.000000 0.033693 0.000000
# 6 0.000000 0.000000 0.000000 -0.006668 0.000000 0.040901
#
#
# Mechanical properties :
#
#
# Convention : Reuss Voigt Hill
#
# Bulk Modulus (GPa) = 59.85422 60.37314 60.11368
# Shear Modulus (GPa) = 27.95093 30.77106 29.36099
#
# Velocity S-wave (km/s) = 3.46363 3.63417 3.54993
# Velocity P-wave (km/s) = 6.45644 6.59714 6.52717
#
# Compressibility (1/GPa) = 0.01670726
#
# Stress axis : x y z
#
# Youngs Moduli (GPa) = 90.14789 69.06120 67.71968
#
# Poissons Ratio (x) = 0.21426 0.15842
# Poissons Ratio (y) = 0.27968 0.43167
# Poissons Ratio (z) = 0.21089 0.44022
#
# Static dielectric constant tensor:
#      x y z
#    x 1.886620 0.000000 0.018530 
#    y 0.000000 1.903710 0.000000 
#    z 0.018530 0.000000 1.918020 
# 
# From -- ./inp_files/24425.got.cif
#   From: 2010.05.17/outbox.cif.g08.bks.cpg/sg13_13_cif.got.tgz:24425.got - 2010.06.03 16:44:36.
