data_PCOD9232412
_publ_section_title
;
Structure prediction by ZEFSAII (Michael W. Deem and Ramdas Pophale) SiO2 
 PCOD9232412
Probable space group: P 2/C
;
_chemical_formula_sum "Si O2"
_cell_formula_units_Z 32
_cell_length_a 20.660305
_cell_length_b 10.600501
_cell_length_c 8.192446
_cell_angle_alpha 90.000000
_cell_angle_beta 125.259565
_cell_angle_gamma 90.000000
_cell_volume 1465.065140
_symmetry_space_group_name_H-M "P 2/C"
_symmetry_group_IT_number 13
_symmetry_cell_setting 'monoclinic'
loop_
_space_group_symop_operation_xyz
x,y,z
-x,y,1/2-z
-x,-y,-z
x,-y,1/2+z
loop_
_atom_site_type_symbol
_atom_site_label
_atom_site_fract_x
_atom_site_fract_y
_atom_site_fract_z
Si Si1 0.192362 0.002290 0.136143
Si Si2 0.761302 0.408530 0.348830
Si Si3 0.553880 0.407263 0.467162
Si Si4 0.659933 0.401319 0.898993
Si Si5 0.087419 0.428868 0.438697
Si Si6 0.955373 0.758784 0.354943
Si Si7 0.776765 0.824841 0.075450
Si Si8 0.104534 0.168574 0.275239
O O1 0.241377 0.884882 0.279951
O O2 0.160949 0.107895 0.217538
O O3 0.119465 0.930517 0.941967
O O4 0.248484 0.075081 0.094788
O O5 0.718823 0.350999 0.126887
O O6 0.716890 0.529253 0.353799
O O7 0.851221 0.456289 0.454950
O O8 0.753846 0.311573 0.487120
O O9 0.500000 0.339132 0.250000
O O10 0.500000 0.500000 0.500000
O O11 0.608378 0.498773 0.432165
O O12 0.601776 0.334040 0.681574
O O13 0.073219 0.367762 0.595601
O O14 0.117159 0.310095 0.368607
O O15 0.000000 0.462740 0.250000
O O16 0.873156 0.830152 0.206487
O O17 0.000000 0.743633 0.250000
O O18 0.017931 0.823096 0.568763
#
# Coordination Sequence:
#
# PCOD9232412 Si02
#       8
#     4   4   4   4   4   4   4   4
#     4  10  22  38  57  73  99 126 189 241 329 350
#     4  11  23  38  57  78 118 151 202 233 288 353
#     4   8  14  30  55  85 124 159 187 209 252 324
#     4   9  19  32  54  88 116 162 185 220 271 327
#     4  10  23  41  55  73 107 146 200 255 299 345
#     4  11  21  37  56  74  93 123 175 242 323 364
#     4  11  23  38  54  76  95 142 178 241 302 350
#     4  10  21  37  55  76  95 126 181 248 311 365
#
# _framework density 21.842032
#
# number of rings (size 3 to 8) (size 9 to 14) (size 15 to 20)
#    0.000    2.000    2.500    0.750    1.750    3.500 
#    0.000    2.500    0.000    0.000    0.000    0.000 
#    0.000    0.000    0.000  209.250    1.250    0.000 
#
# Total GULP energy -178252.757236 kJ/mol
# GULP energy per Si atom -5570.398664 kJ/mol
# Density = 2.179232 g / cm^3
# Si number density = 21.842032 Si / 1000 Ang^3
#
#
#
# Elastic Constant Matrix: (Units=GPa)
#
#
# Indices 1 2 3 4 5 6 
#
# 1 43.7868 -10.9688 17.9822 0.0000 -5.4900 0.0000
# 2 -10.9688 53.2469 23.9688 0.0000 7.4301 0.0000
# 3 17.9822 23.9688 130.5152 0.0000 -8.6888 0.0000
# 4 0.0000 0.0000 0.0000 16.9861 0.0000 -11.5781
# 5 -5.4900 7.4301 -8.6888 0.0000 25.7168 0.0000
# 6 0.0000 0.0000 0.0000 -11.5781 0.0000 9.0372
#
#
#
# Elastic Compliance Matrix: (Units=1/GPa)
#
#
# Indices 1 2 3 4 5 6 
#
# 1 0.027010 0.007540 -0.004979 0.000000 0.001905 0.000000
# 2 0.007540 0.024032 -0.005941 0.000000 -0.007341 0.000000
# 3 -0.004979 -0.005941 0.009701 0.000000 0.003931 0.000000
# 4 0.000000 0.000000 0.000000 0.464512 0.000000 0.595111
# 5 0.001905 -0.007341 0.003931 0.000000 0.042741 0.000000
# 6 0.000000 0.000000 0.000000 0.595111 0.000000 0.873082
#
#
# Mechanical properties :
#
#
# Convention : Reuss Voigt Hill
#
# Bulk Modulus (GPa) = 18.52464 32.16815 25.34640
# Shear Modulus (GPa) = 3.41103 23.45249 13.43176
#
# Velocity S-wave (km/s) = 1.25103 3.28034 2.48251
# Velocity P-wave (km/s) = 3.25367 5.39510 4.45497
#
# Compressibility (1/GPa) = 0.05398215
#
# Stress axis : x y z
#
# Youngs Moduli (GPa) = 37.02280 41.61073 103.08504
#
# Poissons Ratio (x) = -0.31373 0.51328
# Poissons Ratio (y) = -0.27914 0.61243
# Poissons Ratio (z) = 0.18435 0.24721
#
# Static dielectric constant tensor:
#      x y z
#    x 1.846820 0.000000 -0.020630 
#    y 0.000000 1.857460 0.000000 
#    z -0.020630 0.000000 1.962230 
# 
# From -- ./inp_files/24078.got.cif
#   From: 2010.05.17/outbox.cif.g08.bks.cpg/sg13_13_cif.got.tgz:24078.got - 2010.06.03 16:44:36.
