data_PCOD9232980
_publ_section_title
;
Structure prediction by ZEFSAII (Michael W. Deem and Ramdas Pophale) SiO2 
 PCOD9232980
Probable space group: P 2/C
;
_chemical_formula_sum "Si O2"
_cell_formula_units_Z 20
_cell_length_a 20.140502
_cell_length_b 6.237885
_cell_length_c 9.774025
_cell_angle_alpha 90.000000
_cell_angle_beta 135.628264
_cell_angle_gamma 90.000000
_cell_volume 858.719529
_symmetry_space_group_name_H-M "P 2/C"
_symmetry_group_IT_number 13
_symmetry_cell_setting 'monoclinic'
loop_
_space_group_symop_operation_xyz
x,y,z
-x,y,1/2-z
-x,-y,-z
x,-y,1/2+z
loop_
_atom_site_type_symbol
_atom_site_label
_atom_site_fract_x
_atom_site_fract_y
_atom_site_fract_z
Si Si1 0.262303 0.063333 0.103367
Si Si2 0.866508 0.572898 0.219740
Si Si3 0.397113 0.423602 0.396968
Si Si4 0.689817 0.333802 0.969874
Si Si5 0.090172 0.777325 0.943984
O O1 0.194148 0.239944 0.938152
O O2 0.305316 0.917395 0.045834
O O3 0.188110 0.913294 0.079165
O O4 0.351745 0.186879 0.302375
O O5 0.789443 0.415130 0.177569
O O6 0.925767 0.685464 0.427137
O O7 0.904130 0.421946 0.154176
O O8 0.500000 0.500000 0.500000
O O9 0.387441 0.436353 0.545170
O O10 0.327982 0.575899 0.208017
O O11 0.000000 0.907063 0.750000
#
# Coordination Sequence:
#
# PCOD9232980 Si02
#       5
#     4   4   4   4   4
#     4  10  22  39  65  91 124 167 211 263 320 376
#     4  10  21  39  61  87 127 169 207 259 317 372
#     4  11  23  41  65  93 126 163 209 264 323 387
#     4  10  21  40  63  90 125 165 208 258 319 382
#     4  11  23  39  63  95 128 168 218 265 313 374
#
# _framework density 23.290492
#
# number of rings (size 3 to 8) (size 9 to 14) (size 15 to 20)
#    0.000    1.600    0.000    6.000    0.000    5.600 
#    0.000    4.000    0.000    0.000    0.000    0.000 
#    0.000    0.000    0.000    0.000    0.000    0.000 
#
# Total GULP energy -111493.628737 kJ/mol
# GULP energy per Si atom -5574.681437 kJ/mol
# Density = 2.323748 g / cm^3
# Si number density = 23.290492 Si / 1000 Ang^3
#
#
#
# Elastic Constant Matrix: (Units=GPa)
#
#
# Indices 1 2 3 4 5 6 
#
# 1 99.5615 27.5641 9.2321 0.0000 1.2103 0.0000
# 2 27.5641 85.0110 25.1406 0.0000 0.4953 0.0000
# 3 9.2321 25.1406 94.0289 0.0000 -1.3398 0.0000
# 4 0.0000 0.0000 0.0000 10.6317 0.0000 11.0400
# 5 1.2103 0.4953 -1.3398 0.0000 33.0187 0.0000
# 6 0.0000 0.0000 0.0000 11.0400 0.0000 22.1856
#
#
#
# Elastic Compliance Matrix: (Units=1/GPa)
#
#
# Indices 1 2 3 4 5 6 
#
# 1 0.011040 -0.003535 -0.000144 0.000000 -0.000358 0.000000
# 2 -0.003535 0.013909 -0.003375 0.000000 -0.000216 0.000000
# 3 -0.000144 -0.003375 0.011559 0.000000 0.000525 0.000000
# 4 0.000000 0.000000 0.000000 0.194629 0.000000 -0.096851
# 5 -0.000358 -0.000216 0.000525 0.000000 0.030324 0.000000
# 6 0.000000 0.000000 0.000000 -0.096851 0.000000 0.093269
#
#
# Mechanical properties :
#
#
# Convention : Reuss Voigt Hill
#
# Bulk Modulus (GPa) = 44.64183 44.71944 44.68064
# Shear Modulus (GPa) = 13.28713 27.61151 20.44932
#
# Velocity S-wave (km/s) = 2.39110 3.44688 2.96634
# Velocity P-wave (km/s) = 5.17997 5.92315 5.56399
#
# Compressibility (1/GPa) = 0.02240051
#
# Stress axis : x y z
#
# Youngs Moduli (GPa) = 90.57606 71.89737 86.51306
#
# Poissons Ratio (x) = 0.25417 0.01245
# Poissons Ratio (y) = 0.32020 0.29196
# Poissons Ratio (z) = 0.01303 0.24264
#
# Static dielectric constant tensor:
#      x y z
#    x 1.995180 0.000000 0.045330 
#    y 0.000000 1.902390 0.000000 
#    z 0.045330 0.000000 1.938770 
# 
# From -- ./inp_files/41323.got.cif
#   From: 2010.05.17/outbox.cif.g08.bks.cpg/sg13_21_cif.got.tgz:41323.got - 2010.06.03 16:44:36.
