data_PCOD9232733
_publ_section_title
;
Structure prediction by ZEFSAII (Michael W. Deem and Ramdas Pophale) SiO2 
 PCOD9232733
Probable space group: P 2/C
;
_chemical_formula_sum "Si O2"
_cell_formula_units_Z 28
_cell_length_a 9.030824
_cell_length_b 20.071373
_cell_length_c 15.282259
_cell_angle_alpha 90.000000
_cell_angle_beta 147.791756
_cell_angle_gamma 90.000000
_cell_volume 1476.446164
_symmetry_space_group_name_H-M "P 2/C"
_symmetry_group_IT_number 13
_symmetry_cell_setting 'monoclinic'
loop_
_space_group_symop_operation_xyz
x,y,z
-x,y,1/2-z
-x,-y,-z
x,-y,1/2+z
loop_
_atom_site_type_symbol
_atom_site_label
_atom_site_fract_x
_atom_site_fract_y
_atom_site_fract_z
Si Si1 0.830493 0.839128 0.080632
Si Si2 0.180825 0.436359 0.483290
Si Si3 0.169505 0.160872 0.250137
Si Si4 0.179198 0.310301 0.983616
Si Si5 0.168724 0.068036 0.084362
Si Si6 0.819176 0.563641 0.302465
Si Si7 0.820805 0.689699 0.804419
O O1 0.896267 0.762361 0.089808
O O2 0.000000 0.859523 0.250000
O O3 0.499999 0.842289 0.930815
O O4 0.895247 0.886913 0.031984
O O5 0.183199 0.436646 0.591600
O O6 0.500001 0.439916 0.613775
O O7 0.000001 0.500000 0.365407
O O8 0.027313 0.368602 0.379165
O O9 0.104751 0.113087 0.136735
O O10 0.103730 0.237638 0.193540
O O11 0.000000 0.140476 0.250000
O O12 0.972689 0.368602 0.851853
O O13 0.170894 0.306692 0.085447
O O14 0.500001 0.325579 0.120089
O O15 0.500000 0.054833 0.250000
O O16 0.000000 0.000000 0.000000
#
# Coordination Sequence:
#
# PCOD9232733 Si02
#       7
#     4   4   4   4   4   4   4
#     4  10  21  38  60  86 117 152 191 233 282 338
#     4   9  16  25  40  68 104 141 184 233 281 333
#     4  10  21  38  60  86 117 152 191 233 282 338
#     4   9  16  30  52  74 102 144 187 230 280 334
#     4  10  22  42  64  88 119 154 189 228 279 338
#     4   9  16  25  40  68 104 141 184 233 281 333
#     4   9  16  30  52  74 102 144 187 230 280 334
#
# _framework density 18.964458
#
# number of rings (size 3 to 8) (size 9 to 14) (size 15 to 20)
#    0.000    2.571    1.429    0.857    0.000    6.286 
#    0.000    2.857    0.000    0.857    0.000    6.000 
#    0.000    0.000    0.000    0.000    0.000    0.000 
#
# Total GULP energy -156369.589313 kJ/mol
# GULP energy per Si atom -5584.628190 kJ/mol
# Density = 1.892129 g / cm^3
# Si number density = 18.964458 Si / 1000 Ang^3
#
#
#
# Elastic Constant Matrix: (Units=GPa)
#
#
# Indices 1 2 3 4 5 6 
#
# 1 95.9804 78.0430 59.5757 0.0000 6.0337 0.0000
# 2 78.0430 169.4750 94.6904 0.0000 16.8073 0.0000
# 3 59.5757 94.6904 104.9112 0.0000 2.9813 0.0000
# 4 0.0000 0.0000 0.0000 25.2415 0.0000 24.2089
# 5 6.0337 16.8073 2.9813 0.0000 18.1091 0.0000
# 6 0.0000 0.0000 0.0000 24.2089 0.0000 1.2633
#
#
#
# Elastic Compliance Matrix: (Units=1/GPa)
#
#
# Indices 1 2 3 4 5 6 
#
# 1 0.018138 -0.005189 -0.005608 0.000000 -0.000304 0.000000
# 2 -0.005189 0.015192 -0.010462 0.000000 -0.010648 0.000000
# 3 -0.005608 -0.010462 0.021933 0.000000 0.007968 0.000000
# 4 0.000000 0.000000 0.000000 -0.002280 0.000000 0.043684
# 5 -0.000304 -0.010648 0.007968 0.000000 0.063893 0.000000
# 6 0.000000 0.000000 0.000000 0.043684 0.000000 -0.045547
#
#
# Mechanical properties :
#
#
# Convention : Reuss Voigt Hill
#
# Bulk Modulus (GPa) = 78.46690 92.77610 85.62150
# Shear Modulus (GPa) = 42.33823 18.12662 30.23242
#
# Velocity S-wave (km/s) = 4.73006 3.09499 3.99703
# Velocity P-wave (km/s) = 8.44375 7.86125 8.15770
#
# Compressibility (1/GPa) = 0.01274423
#
# Stress axis : x y z
#
# Youngs Moduli (GPa) = 55.13255 65.82446 45.59317
#
# Poissons Ratio (x) = 0.34158 0.25567
# Poissons Ratio (y) = 0.28610 0.47702
# Poissons Ratio (z) = 0.30917 0.68869
#
# Static dielectric constant tensor:
#      x y z
#    x 1.657640 0.000000 -0.015240 
#    y 0.000000 1.624800 0.000000 
#    z -0.015240 0.000000 1.642540 
# 
# From -- ./inp_files/48263.got.cif
#   From: 2010.05.17/outbox.cif.g08.bks.cpg/sg13_25_cif.got.tgz:48263.got - 2010.06.03 16:44:36.
