data_PCOD9232906
_publ_section_title
;
Structure prediction by ZEFSAII (Michael W. Deem and Ramdas Pophale) SiO2 
 PCOD9232906
Probable space group: P 2/C
;
_chemical_formula_sum "Si O2"
_cell_formula_units_Z 20
_cell_length_a 5.754638
_cell_length_b 8.433921
_cell_length_c 19.152374
_cell_angle_alpha 90.000000
_cell_angle_beta 72.607531
_cell_angle_gamma 90.000000
_cell_volume 887.045309
_symmetry_space_group_name_H-M "P 2/C"
_symmetry_group_IT_number 13
_symmetry_cell_setting 'monoclinic'
loop_
_space_group_symop_operation_xyz
x,y,z
-x,y,1/2-z
-x,-y,-z
x,-y,1/2+z
loop_
_atom_site_type_symbol
_atom_site_label
_atom_site_fract_x
_atom_site_fract_y
_atom_site_fract_z
Si Si1 0.162747 0.219675 0.603037
Si Si2 0.420859 0.182744 0.336426
Si Si3 0.307289 0.891301 0.559141
Si Si4 0.932877 0.673025 0.531355
Si Si5 0.605800 0.201189 0.663856
O O1 0.389187 0.264247 0.632336
O O2 0.229734 0.266640 0.518167
O O3 0.880479 0.272906 0.638029
O O4 0.142476 0.029478 0.607703
O O5 0.500000 0.213113 0.250000
O O6 0.615267 0.211185 0.380914
O O7 0.199273 0.291438 0.383579
O O8 0.379992 0.991495 0.348058
O O9 0.166907 0.786402 0.515603
O O10 0.500000 0.000000 0.500000
O O11 0.000000 0.500000 0.500000
O O12 0.500000 0.225536 0.750000
#
# Coordination Sequence:
#
# PCOD9232906 Si02
#       5
#     4   4   4   4   4
#     4  11  21  39  67  99 133 175 230 286 341 411
#     4  10  22  40  65  99 134 177 229 288 347 416
#     4  11  21  41  71  99 134 171 235 292 344 413
#     4  12  25  41  65  99 135 182 233 286 350 427
#     4  10  21  38  68 101 135 172 229 291 347 403
#
# _framework density 22.546761
#
# number of rings (size 3 to 8) (size 9 to 14) (size 15 to 20)
#    0.000    1.200    4.000    3.600    0.000    1.600 
#    0.000    1.000    4.400    1.200    0.000    0.000 
#    0.000    0.000    0.000    0.000    0.000    0.000 
#
# Total GULP energy -111415.182876 kJ/mol
# GULP energy per Si atom -5570.759144 kJ/mol
# Density = 2.249544 g / cm^3
# Si number density = 22.546761 Si / 1000 Ang^3
#
#
#
# Elastic Constant Matrix: (Units=GPa)
#
#
# Indices 1 2 3 4 5 6 
#
# 1 150.5674 20.4942 76.4761 0.0000 13.0073 0.0000
# 2 20.4942 59.8791 18.1217 0.0000 2.4187 0.0000
# 3 76.4761 18.1217 165.6309 0.0000 6.2213 0.0000
# 4 0.0000 0.0000 0.0000 13.8320 0.0000 -6.4089
# 5 13.0073 2.4187 6.2213 0.0000 41.6355 0.0000
# 6 0.0000 0.0000 0.0000 -6.4089 0.0000 3.1888
#
#
#
# Elastic Compliance Matrix: (Units=1/GPa)
#
#
# Indices 1 2 3 4 5 6 
#
# 1 0.009057 -0.001833 -0.003901 0.000000 -0.002140 0.000000
# 2 -0.001833 0.017665 -0.001075 0.000000 -0.000293 0.000000
# 3 -0.003901 -0.001075 0.007953 0.000000 0.000093 0.000000
# 4 0.000000 0.000000 0.000000 1.051326 0.000000 2.112980
# 5 -0.002140 -0.000293 0.000093 0.000000 0.024690 0.000000
# 6 0.000000 0.000000 0.000000 2.112980 0.000000 4.560317
#
#
# Mechanical properties :
#
#
# Convention : Reuss Voigt Hill
#
# Bulk Modulus (GPa) = 47.49152 67.36239 57.42696
# Shear Modulus (GPa) = 0.87848 29.13030 15.00439
#
# Velocity S-wave (km/s) = 0.62488 3.59833 2.58249
# Velocity P-wave (km/s) = 4.65080 6.87063 5.86667
#
# Compressibility (1/GPa) = 0.02105639
#
# Stress axis : x y z
#
# Youngs Moduli (GPa) = 110.40750 56.60931 125.73984
#
# Poissons Ratio (x) = 0.10376 0.49052
# Poissons Ratio (y) = 0.20237 0.13522
# Poissons Ratio (z) = 0.43071 0.06088
#
# Static dielectric constant tensor:
#      x y z
#    x 2.087020 0.000000 -0.054900 
#    y 0.000000 1.941290 0.000000 
#    z -0.054900 0.000000 1.839570 
# 
# From -- ./inp_files/60581.got.cif
#   From: 2010.05.17/outbox.cif.g08.bks.cpg/sg13_31_cif.got.tgz:60581.got - 2010.06.03 16:44:36.
