data_PCOD9232973
_publ_section_title
;
Structure prediction by ZEFSAII (Michael W. Deem and Ramdas Pophale) SiO2 
 PCOD9232973
Probable space group: P 2/C
;
_chemical_formula_sum "Si O2"
_cell_formula_units_Z 32
_cell_length_a 27.418028
_cell_length_b 9.291764
_cell_length_c 10.914361
_cell_angle_alpha 90.000000
_cell_angle_beta 146.124458
_cell_angle_gamma 90.000000
_cell_volume 1549.859953
_symmetry_space_group_name_H-M "P 2/C"
_symmetry_group_IT_number 13
_symmetry_cell_setting 'monoclinic'
loop_
_space_group_symop_operation_xyz
x,y,z
-x,y,1/2-z
-x,-y,-z
x,-y,1/2+z
loop_
_atom_site_type_symbol
_atom_site_label
_atom_site_fract_x
_atom_site_fract_y
_atom_site_fract_z
Si Si1 0.594946 0.067363 0.679544
Si Si2 0.037572 0.840543 0.554464
Si Si3 0.687744 0.338032 0.805619
Si Si4 0.313082 0.063295 0.368722
Si Si5 0.824059 0.166188 0.938569
Si Si6 0.845909 0.636574 0.829332
Si Si7 0.877233 0.672759 0.310018
Si Si8 0.733118 0.635423 0.821111
O O1 0.607494 0.238814 0.681176
O O2 0.500000 0.000000 0.500000
O O3 0.635150 0.000526 0.639535
O O4 0.648015 0.034050 0.915531
O O5 0.093968 0.778682 0.557393
O O6 0.955137 0.736155 0.393512
O O7 0.106382 0.822856 0.808318
O O8 0.000000 0.000000 0.500000
O O9 0.739894 0.260493 0.803470
O O10 0.673220 0.500581 0.731344
O O11 0.759257 0.341701 0.064458
O O12 0.312336 0.232306 0.339832
O O13 0.216465 0.992543 0.162464
O O14 0.868791 0.230320 0.912790
O O15 0.892101 0.494485 0.872143
O O16 0.811406 0.594260 0.891153
O O17 0.784019 0.685563 0.048113
#
# Coordination Sequence:
#
# PCOD9232973 Si02
#       8
#     4   4   4   4   4   4   4   4
#     4  11  23  43  69 102 138 168 209 268 337 411
#     4  11  24  39  56  85 125 167 224 286 333 373
#     4   9  20  40  64  94 121 167 214 266 321 396
#     4  11  23  40  70 100 131 176 220 266 331 409
#     4  10  21  39  62  85 123 169 221 270 326 393
#     4  10  21  39  61  85 124 173 220 268 326 390
#     4  11  22  38  57  88 125 170 222 274 334 378
#     4  11  21  38  66  93 123 170 222 268 316 396
#
# _framework density 20.647027000000001
#
# number of rings (size 3 to 8) (size 9 to 14) (size 15 to 20)
#    0.000    1.500    2.500    2.625    1.750    0.500 
#    4.500    0.625    0.000    3.000    0.000    0.000 
#    0.000    0.000    0.000    0.000    0.000    0.000 
#
# Total GULP energy -178529.616642 kJ/mol
# GULP energy per Si atom -5579.050520 kJ/mol
# Density = 2.060003 g / cm^3
# Si number density = 20.647027 Si / 1000 Ang^3
#
#
#
# Elastic Constant Matrix: (Units=GPa)
#
#
# Indices 1 2 3 4 5 6 
#
# 1 66.1261 30.0619 7.2760 0.0000 -6.9346 0.0000
# 2 30.0619 120.5597 18.5785 0.0000 16.8696 0.0000
# 3 7.2760 18.5785 23.2217 0.0000 0.4852 0.0000
# 4 0.0000 0.0000 0.0000 23.4646 0.0000 4.4373
# 5 -6.9346 16.8696 0.4852 0.0000 29.8140 0.0000
# 6 0.0000 0.0000 0.0000 4.4373 0.0000 40.8829
#
#
#
# Elastic Compliance Matrix: (Units=1/GPa)
#
#
# Indices 1 2 3 4 5 6 
#
# 1 0.018535 -0.005404 -0.001639 0.000000 0.007396 0.000000
# 2 -0.005404 0.011930 -0.007686 0.000000 -0.007882 0.000000
# 3 -0.001639 -0.007686 0.049660 0.000000 0.003160 0.000000
# 4 0.000000 0.000000 0.000000 0.043510 0.000000 -0.004723
# 5 0.007396 -0.007882 0.003160 0.000000 0.039670 0.000000
# 6 0.000000 0.000000 0.000000 -0.004723 0.000000 0.024973
#
#
# Mechanical properties :
#
#
# Convention : Reuss Voigt Hill
#
# Bulk Modulus (GPa) = 19.73677 35.74891 27.74284
# Shear Modulus (GPa) = 21.31060 29.09836 25.20448
#
# Velocity S-wave (km/s) = 3.21618 3.75817 3.49769
# Velocity P-wave (km/s) = 4.83442 6.01529 5.45689
#
# Compressibility (1/GPa) = 0.05066686
#
# Stress axis : x y z
#
# Youngs Moduli (GPa) = 53.95103 83.82534 20.13691
#
# Poissons Ratio (x) = 0.45301 0.03300
# Poissons Ratio (y) = 0.29156 0.15478
# Poissons Ratio (z) = 0.08840 0.64430
#
# Static dielectric constant tensor:
#      x y z
#    x 1.775700 0.000000 -0.013150 
#    y 0.000000 1.791890 0.000000 
#    z -0.013150 0.000000 1.717910 
# 
# From -- ./inp_files/42775.got.cif
#   From: 2010.05.17/outbox.cif.g08.bks.cpg/sg13_22_cif.got.tgz:42775.got - 2010.06.03 16:44:36.
