data_PCOD9232586
_publ_section_title
;
Structure prediction by ZEFSAII (Michael W. Deem and Ramdas Pophale) SiO2 
 PCOD9232586
Probable space group: P 2/C
;
_chemical_formula_sum "Si O2"
_cell_formula_units_Z 32
_cell_length_a 27.741256
_cell_length_b 6.783386
_cell_length_c 16.964374
_cell_angle_alpha 90.000000
_cell_angle_beta 30.829558
_cell_angle_gamma 90.000000
_cell_volume 1636.034388
_symmetry_space_group_name_H-M "P 2/C"
_symmetry_group_IT_number 13
_symmetry_cell_setting 'monoclinic'
loop_
_space_group_symop_operation_xyz
x,y,z
-x,y,1/2-z
-x,-y,-z
x,-y,1/2+z
loop_
_atom_site_type_symbol
_atom_site_label
_atom_site_fract_x
_atom_site_fract_y
_atom_site_fract_z
Si Si1 0.493292 0.008852 0.602686
Si Si2 0.324537 0.018053 0.051390
Si Si3 0.876108 0.172329 0.140092
Si Si4 0.879410 0.234856 0.875285
Si Si5 0.040543 0.542512 0.084168
Si Si6 0.677134 0.253318 0.091702
Si Si7 0.979032 0.892824 0.656950
Si Si8 0.582229 0.350577 0.689595
O O1 0.593148 0.963091 0.503533
O O2 0.412857 0.861065 0.746824
O O3 0.500000 0.000000 0.500000
O O4 0.463356 0.225583 0.675653
O O5 0.230305 0.103425 0.221857
O O6 0.303203 0.838368 0.022213
O O7 0.365979 0.190358 0.937522
O O8 0.905085 0.151542 0.190445
O O9 0.902297 0.390632 0.072892
O O10 0.942313 0.029988 0.994629
O O11 0.907072 0.345667 0.917093
O O12 0.935483 0.364329 0.731225
O O13 0.923809 0.017900 0.800596
O O14 0.769551 0.225874 0.014325
O O15 0.027019 0.311242 0.114679
O O16 0.650999 0.481049 0.121470
O O17 0.500000 0.440022 0.750000
#
# Coordination Sequence:
#
# PCOD9232586 Si02
#       8
#     4   4   4   4   4   4   4   4
#     4  10  23  40  60  89 126 158 194 257 313 366
#     4  10  21  39  62  90 119 161 207 251 302 361
#     4  10  21  37  63  91 118 160 205 257 301 368
#     4  10  23  39  59  91 121 163 208 253 308 369
#     4  10  23  38  58  88 125 163 206 256 306 372
#     4  11  21  39  64  88 119 162 210 245 305 368
#     4  10  21  42  61  86 126 160 202 259 309 355
#     4   9  20  39  62  86 115 157 204 251 293 363
#
# _framework density 19.559493
#
# number of rings (size 3 to 8) (size 9 to 14) (size 15 to 20)
#    0.000    2.000    1.250    2.250    3.500    5.500 
#    2.250    0.000    0.000    0.000    0.000    0.000 
#    0.000    0.000    0.000    0.000    0.000    0.000 
#
# Total GULP energy -178642.899838 kJ/mol
# GULP energy per Si atom -5582.590620 kJ/mol
# Density = 1.951497 g / cm^3
# Si number density = 19.559493 Si / 1000 Ang^3
#
#
#
# Elastic Constant Matrix: (Units=GPa)
#
#
# Indices 1 2 3 4 5 6 
#
# 1 114.9851 50.4532 43.9104 0.0000 -20.3532 0.0000
# 2 50.4532 98.8664 9.2777 0.0000 -0.3337 0.0000
# 3 43.9104 9.2777 66.2709 0.0000 -17.8461 0.0000
# 4 0.0000 0.0000 0.0000 14.4319 0.0000 -2.6142
# 5 -20.3532 -0.3337 -17.8461 0.0000 33.1655 0.0000
# 6 0.0000 0.0000 0.0000 -2.6142 0.0000 19.7758
#
#
#
# Elastic Compliance Matrix: (Units=1/GPa)
#
#
# Indices 1 2 3 4 5 6 
#
# 1 0.015981 -0.007376 -0.008110 0.000000 0.005369 0.000000
# 2 -0.007376 0.013671 0.002095 0.000000 -0.003262 0.000000
# 3 -0.008110 0.002095 0.022027 0.000000 0.006897 0.000000
# 4 0.000000 0.000000 0.000000 0.070991 0.000000 0.009384
# 5 0.005369 -0.003262 0.006897 0.000000 0.037125 0.000000
# 6 0.000000 0.000000 0.000000 0.009384 0.000000 0.051807
#
#
# Mechanical properties :
#
#
# Convention : Reuss Voigt Hill
#
# Bulk Modulus (GPa) = 40.16611 54.15609 47.16110
# Shear Modulus (GPa) = 20.26892 25.24007 22.75449
#
# Velocity S-wave (km/s) = 3.22261 3.59615 3.41449
# Velocity P-wave (km/s) = 5.86744 6.70753 6.30150
#
# Compressibility (1/GPa) = 0.02489661
#
# Stress axis : x y z
#
# Youngs Moduli (GPa) = 62.57554 73.14672 45.39838
#
# Poissons Ratio (x) = 0.53953 0.36819
# Poissons Ratio (y) = 0.46156 -0.09511
# Poissons Ratio (z) = 0.50750 -0.15324
#
# Static dielectric constant tensor:
#      x y z
#    x 1.724170 0.000000 0.006640 
#    y 0.000000 1.695320 0.000000 
#    z 0.006640 0.000000 1.688050 
# 
# From -- ./inp_files/72207.got.cif
#   From: 2010.05.17/outbox.cif.g08.bks.cpg/sg13_37_cif.got.tgz:72207.got - 2010.06.03 16:44:36.
