data_PCOD9232405
_publ_section_title
;
Structure prediction by ZEFSAII (Michael W. Deem and Ramdas Pophale) SiO2 
 PCOD9232405
Probable space group: P 2/C
;
_chemical_formula_sum "Si O2"
_cell_formula_units_Z 22
_cell_length_a 8.577259
_cell_length_b 24.122353
_cell_length_c 5.505940
_cell_angle_alpha 90.000000
_cell_angle_beta 84.609834
_cell_angle_gamma 90.000000
_cell_volume 1134.161767
_symmetry_space_group_name_H-M "P 2/C"
_symmetry_group_IT_number 13
_symmetry_cell_setting 'monoclinic'
loop_
_space_group_symop_operation_xyz
x,y,z
-x,y,1/2-z
-x,-y,-z
x,-y,1/2+z
loop_
_atom_site_type_symbol
_atom_site_label
_atom_site_fract_x
_atom_site_fract_y
_atom_site_fract_z
Si Si1 0.821146 0.964344 0.768807
Si Si2 0.500000 0.106171 0.250000
Si Si3 0.000000 0.303797 0.250000
Si Si4 0.211975 0.629392 0.076736
Si Si5 0.000000 0.534469 0.250000
Si Si6 0.500000 0.657633 0.750000
Si Si7 0.500000 0.825171 0.250000
Si Si8 0.289393 0.271958 0.929054
O O1 0.663405 0.927369 0.768182
O O2 0.000000 0.938966 0.750000
O O3 0.813296 0.002561 0.526660
O O4 0.480853 0.140749 0.503478
O O5 0.864086 0.266682 0.383712
O O6 0.074935 0.345593 0.431855
O O7 0.250847 0.680584 0.243153
O O8 0.150338 0.575112 0.217577
O O9 0.364435 0.621184 0.889305
O O10 0.000000 0.500000 0.500000
O O11 0.422945 0.699378 0.570043
O O12 0.648116 0.784359 0.192032
#
# Coordination Sequence:
#
# PCOD9232405 Si02
#       8
#     4   2   2   4   2   2   2   4
#     4  10  21  42  74 102 130 186 249 284 332 412
#     4  12  25  43  64 102 154 183 214 301 362 394
#     4  10  21  36  68  92 120 160 240 263 310 370
#     4  11  21  41  65  94 119 167 213 270 322 405
#     4  12  27  44  66  98 130 158 202 283 356 400
#     4  10  21  36  70  87 123 156 226 267 304 376
#     4  12  26  41  64  97 145 181 222 268 358 394
#     4  11  21  40  64  94 122 178 225 267 306 412
#
# _framework density 19.397584999999999
#
# number of rings (size 3 to 8) (size 9 to 14) (size 15 to 20)
#    0.000    1.091    3.636    2.727    5.091    0.000 
#    1.636    0.909    0.000    0.000    0.000    0.000 
#    0.000    0.000    0.000    0.000    0.000    0.000 
#
# Total GULP energy -122723.347312 kJ/mol
# GULP energy per Si atom -5578.333969 kJ/mol
# Density = 1.935344 g / cm^3
# Si number density = 19.397585 Si / 1000 Ang^3
#
#
#
# Elastic Constant Matrix: (Units=GPa)
#
#
# Indices 1 2 3 4 5 6 
#
# 1 140.9241 70.2588 56.1680 0.0000 -1.4180 0.0000
# 2 70.2588 93.6445 68.9998 0.0000 -8.9320 0.0000
# 3 56.1680 68.9998 139.0000 0.0000 14.7156 0.0000
# 4 0.0000 0.0000 0.0000 45.8800 0.0000 -11.1958
# 5 -1.4180 -8.9320 14.7156 0.0000 53.1266 0.0000
# 6 0.0000 0.0000 0.0000 -11.1958 0.0000 27.0617
#
#
#
# Elastic Compliance Matrix: (Units=1/GPa)
#
#
# Indices 1 2 3 4 5 6 
#
# 1 0.011414 -0.008423 -0.000323 0.000000 -0.001022 0.000000
# 2 -0.008423 0.024639 -0.009521 0.000000 0.006555 0.000000
# 3 -0.000323 -0.009521 0.012590 0.000000 -0.005097 0.000000
# 4 0.000000 0.000000 0.000000 0.024243 0.000000 0.010030
# 5 -0.001022 0.006555 -0.005097 0.000000 0.021309 0.000000
# 6 0.000000 0.000000 0.000000 0.010030 0.000000 0.041102
#
#
# Mechanical properties :
#
#
# Convention : Reuss Voigt Hill
#
# Bulk Modulus (GPa) = 82.58049 84.93574 83.75811
# Shear Modulus (GPa) = 28.43032 37.08981 32.76007
#
# Velocity S-wave (km/s) = 3.83255 4.37748 4.11405
# Velocity P-wave (km/s) = 7.88984 8.33256 8.11422
#
# Compressibility (1/GPa) = 0.01210940
#
# Stress axis : x y z
#
# Youngs Moduli (GPa) = 87.61339 40.58612 79.42503
#
# Poissons Ratio (x) = 0.34186 0.02563
# Poissons Ratio (y) = 0.73798 0.75621
# Poissons Ratio (z) = 0.02827 0.38642
#
# Static dielectric constant tensor:
#      x y z
#    x 1.697100 0.000000 -0.044760 
#    y 0.000000 1.668630 0.000000 
#    z -0.044760 0.000000 1.715950 
# 
# From -- ./inp_files/2121.got.cif
#   From: 2010.05.17/outbox.cif.g08.bks.cpg/sg13_2_cif.got.tgz:2121.got - 2010.06.03 16:44:36.
