data_PCOD9232328
_publ_section_title
;
Structure prediction by ZEFSAII (Michael W. Deem and Ramdas Pophale) SiO2 
 PCOD9232328
Probable space group: P 2/C
;
_chemical_formula_sum "Si O2"
_cell_formula_units_Z 32
_cell_length_a 22.707473
_cell_length_b 8.717869
_cell_length_c 15.169065
_cell_angle_alpha 90.000000
_cell_angle_beta 148.813560
_cell_angle_gamma 90.000000
_cell_volume 1554.964940
_symmetry_space_group_name_H-M "P 2/C"
_symmetry_group_IT_number 13
_symmetry_cell_setting 'monoclinic'
loop_
_space_group_symop_operation_xyz
x,y,z
-x,y,1/2-z
-x,-y,-z
x,-y,1/2+z
loop_
_atom_site_type_symbol
_atom_site_label
_atom_site_fract_x
_atom_site_fract_y
_atom_site_fract_z
Si Si1 0.505898 0.574761 0.408445
Si Si2 0.679544 0.808998 0.541521
Si Si3 0.581991 0.255776 0.461968
Si Si4 0.748493 0.201437 0.834936
Si Si5 0.374366 0.980398 0.695045
Si Si6 0.871798 0.050972 0.844402
Si Si7 0.228507 0.756079 0.434896
Si Si8 0.249173 0.411328 0.511755
O O1 0.500000 0.500000 0.500000
O O2 0.589229 0.718852 0.489979
O O3 0.541994 0.427889 0.399432
O O4 0.378799 0.598801 0.212622
O O5 0.623891 0.913241 0.391615
O O6 0.749593 0.678746 0.578622
O O7 0.771792 0.923080 0.703113
O O8 0.672814 0.266747 0.657544
O O9 0.650646 0.226987 0.461152
O O10 0.485712 0.126051 0.353702
O O11 0.655067 0.096334 0.764201
O O12 0.847267 0.115426 0.909531
O O13 0.805661 0.316442 0.978473
O O14 0.258355 0.877327 0.548209
O O15 0.855345 0.177700 0.745653
O O16 0.000000 0.000000 0.000000
O O17 0.211461 0.585465 0.447748
#
# Coordination Sequence:
#
# PCOD9232328 Si02
#       8
#     4   4   4   4   4   4   4   4
#     4  12  23  34  59  95 139 178 201 239 312 392
#     4  10  24  40  62  92 126 171 218 261 318 383
#     4  11  20  35  55  92 132 174 201 239 307 389
#     4  10  23  37  60  91 125 162 214 268 309 378
#     4  10  21  36  58  93 130 172 208 256 309 387
#     4  10  24  48  70  88 116 168 225 285 332 366
#     4  10  21  37  63  91 126 166 211 253 319 389
#     4  11  21  38  59  95 135 165 200 249 320 394
#
# _framework density 20.579243000000002
#
# number of rings (size 3 to 8) (size 9 to 14) (size 15 to 20)
#    0.000    1.500    3.750    1.125    1.750   10.000 
#    0.000    6.250    0.000    3.000    0.000    0.000 
#    0.000    0.000    0.000    0.000    0.000    0.000 
#
# Total GULP energy -178222.290485 kJ/mol
# GULP energy per Si atom -5569.446578 kJ/mol
# Density = 2.053240 g / cm^3
# Si number density = 20.579243 Si / 1000 Ang^3
#
#
#
# Elastic Constant Matrix: (Units=GPa)
#
#
# Indices 1 2 3 4 5 6 
#
# 1 87.2345 39.3262 46.0366 0.0000 -1.1402 0.0000
# 2 39.3262 117.5880 34.1957 0.0000 -0.8577 0.0000
# 3 46.0366 34.1957 50.4176 0.0000 2.7082 0.0000
# 4 0.0000 0.0000 0.0000 24.4736 0.0000 -9.7379
# 5 -1.1402 -0.8577 2.7082 0.0000 29.0525 0.0000
# 6 0.0000 0.0000 0.0000 -9.7379 0.0000 37.1940
#
#
#
# Elastic Compliance Matrix: (Units=1/GPa)
#
#
# Indices 1 2 3 4 5 6 
#
# 1 0.022673 -0.001870 -0.019577 0.000000 0.002659 0.000000
# 2 -0.001870 0.010776 -0.005643 0.000000 0.000771 0.000000
# 3 -0.019577 -0.005643 0.041797 0.000000 -0.004831 0.000000
# 4 0.000000 0.000000 0.000000 0.045612 0.000000 0.011942
# 5 0.002659 0.000771 -0.004831 0.000000 0.034998 0.000000
# 6 0.000000 0.000000 0.000000 0.011942 0.000000 0.030013
#
#
# Mechanical properties :
#
#
# Convention : Reuss Voigt Hill
#
# Bulk Modulus (GPa) = 47.46967 54.92856 51.19912
# Shear Modulus (GPa) = 20.23718 27.18945 23.71332
#
# Velocity S-wave (km/s) = 3.13929 3.63879 3.39823
# Velocity P-wave (km/s) = 6.02138 6.66360 6.35061
#
# Compressibility (1/GPa) = 0.02106608
#
# Stress axis : x y z
#
# Youngs Moduli (GPa) = 44.10621 92.79608 23.92522
#
# Poissons Ratio (x) = 0.17353 0.46838
# Poissons Ratio (y) = 0.08248 0.13501
# Poissons Ratio (z) = 0.86346 0.52364
#
# Static dielectric constant tensor:
#      x y z
#    x 1.891620 0.000000 -0.051030 
#    y 0.000000 1.894630 0.000000 
#    z -0.051030 0.000000 1.747660 
# 
# From -- ./inp_files/58817.got.cif
#   From: 2010.05.17/outbox.cif.g08.bks.cpg/sg13_30_cif.got.tgz:58817.got - 2010.06.03 16:44:36.
