data_PCOD9232389
_publ_section_title
;
Structure prediction by ZEFSAII (Michael W. Deem and Ramdas Pophale) SiO2 
 PCOD9232389
Probable space group: P 2/C
;
_chemical_formula_sum "Si O2"
_cell_formula_units_Z 24
_cell_length_a 8.036774
_cell_length_b 9.575852
_cell_length_c 18.486644
_cell_angle_alpha 90.000000
_cell_angle_beta 127.836628
_cell_angle_gamma 90.000000
_cell_volume 1123.606027
_symmetry_space_group_name_H-M "P 2/C"
_symmetry_group_IT_number 13
_symmetry_cell_setting 'monoclinic'
loop_
_space_group_symop_operation_xyz
x,y,z
-x,y,1/2-z
-x,-y,-z
x,-y,1/2+z
loop_
_atom_site_type_symbol
_atom_site_label
_atom_site_fract_x
_atom_site_fract_y
_atom_site_fract_z
Si Si1 0.286816 0.194499 0.897181
Si Si2 0.478408 0.992047 0.150112
Si Si3 0.878909 0.194980 0.005279
Si Si4 0.326796 0.279895 0.070248
Si Si5 0.937248 0.010736 0.313912
Si Si6 0.533628 0.567777 0.430699
O O1 0.416727 0.067196 0.896925
O O2 0.334315 0.331660 0.861789
O O3 0.362650 0.234096 0.996895
O O4 0.053125 0.138398 0.843726
O O5 0.436376 0.155875 0.142184
O O6 0.687652 0.979534 0.255873
O O7 0.256797 0.908242 0.082933
O O8 0.080446 0.263066 0.020942
O O9 0.961973 0.107242 0.096872
O O10 0.724684 0.322173 0.984225
O O11 0.413079 0.435566 0.105165
O O12 0.000000 0.070318 0.250000
O O13 0.500000 0.500000 0.500000
#
# Coordination Sequence:
#
# PCOD9232389 Si02
#       6
#     4   4   4   4   4   4
#     4   9  19  37  58  88 120 156 202 246 292 368
#     4  10  21  36  64  87 121 160 200 255 302 361
#     4  11  22  39  60  91 126 157 199 261 309 358
#     4  11  20  36  62  93 119 157 201 250 313 364
#     4  10  22  35  63  90 119 157 214 246 306 367
#     4   9  21  35  65  84 113 165 200 239 305 367
#
# _framework density 21.359801000000001
#
# number of rings (size 3 to 8) (size 9 to 14) (size 15 to 20)
#    0.000    2.000    1.667    1.500   11.667    0.667 
#    0.000    0.000   33.000    0.000    0.000    0.000 
#    0.000    0.000    0.000    0.000    0.000    0.000 
#
# Total GULP energy -133683.929107 kJ/mol
# GULP energy per Si atom -5570.163713 kJ/mol
# Density = 2.131119 g / cm^3
# Si number density = 21.359801 Si / 1000 Ang^3
#
#
#
# Elastic Constant Matrix: (Units=GPa)
#
#
# Indices 1 2 3 4 5 6 
#
# 1 63.0730 61.1170 16.3953 0.0000 20.4193 0.0000
# 2 61.1170 181.2580 47.6020 0.0000 25.3643 0.0000
# 3 16.3953 47.6020 62.5726 0.0000 0.0087 0.0000
# 4 0.0000 0.0000 0.0000 11.5632 0.0000 5.0986
# 5 20.4193 25.3643 0.0087 0.0000 41.7416 0.0000
# 6 0.0000 0.0000 0.0000 5.0986 0.0000 42.4909
#
#
#
# Elastic Compliance Matrix: (Units=1/GPa)
#
#
# Indices 1 2 3 4 5 6 
#
# 1 0.025867 -0.007231 -0.001275 0.000000 -0.008259 0.000000
# 2 -0.007231 0.009735 -0.005511 0.000000 -0.002377 0.000000
# 3 -0.001275 -0.005511 0.020508 0.000000 0.003968 0.000000
# 4 0.000000 0.000000 0.000000 0.091313 0.000000 -0.010957
# 5 -0.008259 -0.002377 0.003968 0.000000 0.029441 0.000000
# 6 0.000000 0.000000 0.000000 -0.010957 0.000000 0.024849
#
#
# Mechanical properties :
#
#
# Convention : Reuss Voigt Hill
#
# Bulk Modulus (GPa) = 35.61942 61.90359 48.76151
# Shear Modulus (GPa) = 20.91124 31.27842 26.09483
#
# Velocity S-wave (km/s) = 3.13229 3.83085 3.49905
# Velocity P-wave (km/s) = 5.45837 6.97219 6.26120
#
# Compressibility (1/GPa) = 0.02807457
#
# Stress axis : x y z
#
# Youngs Moduli (GPa) = 38.65925 102.72060 48.76261
#
# Poissons Ratio (x) = 0.74279 0.06219
# Poissons Ratio (y) = 0.27955 0.26873
# Poissons Ratio (z) = 0.04931 0.56609
#
# Static dielectric constant tensor:
#      x y z
#    x 1.895070 0.000000 -0.028860 
#    y 0.000000 1.781610 0.000000 
#    z -0.028860 0.000000 1.856690 
# 
# From -- ./inp_files/75748.got.cif
#   From: 2010.05.17/outbox.cif.g08.bks.cpg/sg13_38_cif.got.tgz:75748.got - 2010.06.03 16:44:36.
