data_PCOD9232935
_publ_section_title
;
Structure prediction by ZEFSAII (Michael W. Deem and Ramdas Pophale) SiO2 
 PCOD9232935
Probable space group: P 2/C
;
_chemical_formula_sum "Si O2"
_cell_formula_units_Z 20
_cell_length_a 19.079623
_cell_length_b 9.667565
_cell_length_c 8.108787
_cell_angle_alpha 90.000000
_cell_angle_beta 140.697215
_cell_angle_gamma 90.000000
_cell_volume 947.400297
_symmetry_space_group_name_H-M "P 2/C"
_symmetry_group_IT_number 13
_symmetry_cell_setting 'monoclinic'
loop_
_space_group_symop_operation_xyz
x,y,z
-x,y,1/2-z
-x,-y,-z
x,-y,1/2+z
loop_
_atom_site_type_symbol
_atom_site_label
_atom_site_fract_x
_atom_site_fract_y
_atom_site_fract_z
Si Si1 0.629651 0.185360 0.520286
Si Si2 0.796639 0.344235 0.606995
Si Si3 0.883857 0.382253 0.437152
Si Si4 0.998927 0.157266 0.052180
Si Si5 0.416465 0.911433 0.231097
O O1 0.500000 0.210022 0.250000
O O2 0.696209 0.297439 0.537907
O O3 0.646501 0.180968 0.748997
O O4 0.653397 0.029932 0.490948
O O5 0.786030 0.359685 0.391485
O O6 0.852934 0.483347 0.777376
O O7 0.884398 0.221645 0.784270
O O8 0.000000 0.405639 0.750000
O O9 0.907801 0.250807 0.365495
O O10 0.000000 0.170568 0.250000
O O11 0.000000 0.000000 0.000000
O O12 0.500000 0.843027 0.250000
O O13 0.500000 0.000000 0.500000
#
# Coordination Sequence:
#
# PCOD9232935 Si02
#       5
#     4   4   4   4   4
#     4   9  18  33  53  80 111 146 189 232 276 334
#     4  11  21  37  59  80 111 154 186 224 283 339
#     4  10  21  39  58  79 111 150 186 222 278 345
#     4  11  22  38  59  88 115 139 181 236 280 332
#     4   7  13  29  50  73 106 141 173 224 278 314
#
# _framework density 21.110403000000002
#
# number of rings (size 3 to 8) (size 9 to 14) (size 15 to 20)
#    0.000    2.800    0.000    6.000    0.000    3.200 
#    0.000   11.000    0.000    0.000    0.000    1.400 
#    0.000    0.000    0.000    0.000    0.000    0.000 
#
# Total GULP energy -111541.548567 kJ/mol
# GULP energy per Si atom -5577.077428 kJ/mol
# Density = 2.106235 g / cm^3
# Si number density = 21.110403 Si / 1000 Ang^3
#
#
#
# Elastic Constant Matrix: (Units=GPa)
#
#
# Indices 1 2 3 4 5 6 
#
# 1 198.8135 78.9798 33.2910 0.0000 -32.4153 0.0000
# 2 78.9798 140.5694 21.6905 0.0000 -4.1292 0.0000
# 3 33.2910 21.6905 22.5657 0.0000 -10.6172 0.0000
# 4 0.0000 0.0000 0.0000 14.3020 0.0000 -7.7094
# 5 -32.4153 -4.1292 -10.6172 0.0000 37.4166 0.0000
# 6 0.0000 0.0000 0.0000 -7.7094 0.0000 56.4980
#
#
#
# Elastic Compliance Matrix: (Units=1/GPa)
#
#
# Indices 1 2 3 4 5 6 
#
# 1 0.008343 -0.003526 -0.006580 0.000000 0.004972 0.000000
# 2 -0.003526 0.009923 -0.006069 0.000000 -0.003682 0.000000
# 3 -0.006580 -0.006069 0.065619 0.000000 0.012250 0.000000
# 4 0.000000 0.000000 0.000000 0.075472 0.000000 0.010298
# 5 0.004972 -0.003682 0.012250 0.000000 0.034103 0.000000
# 6 0.000000 0.000000 0.000000 0.010298 0.000000 0.019105
#
#
# Mechanical properties :
#
#
# Convention : Reuss Voigt Hill
#
# Bulk Modulus (GPa) = 19.40381 69.98568 44.69474
# Shear Modulus (GPa) = 19.07720 36.84247 27.95984
#
# Velocity S-wave (km/s) = 3.00940 4.18213 3.64326
# Velocity P-wave (km/s) = 4.61377 7.51960 6.23824
#
# Compressibility (1/GPa) = 0.05153628
#
# Stress axis : x y z
#
# Youngs Moduli (GPa) = 119.86061 100.77156 15.23949
#
# Poissons Ratio (x) = 0.35535 0.10027
# Poissons Ratio (y) = 0.42266 0.09248
# Poissons Ratio (z) = 0.78865 0.61154
#
# Static dielectric constant tensor:
#      x y z
#    x 1.885690 0.000000 -0.023380 
#    y 0.000000 1.743330 0.000000 
#    z -0.023380 0.000000 1.794370 
# 
# From -- ./inp_files/21231.got.cif
#   From: 2010.05.17/outbox.cif.g08.bks.cpg/sg13_11_cif.got.tgz:21231.got - 2010.06.03 16:44:36.
