data_PCOD9232566
_publ_section_title
;
Structure prediction by ZEFSAII (Michael W. Deem and Ramdas Pophale) SiO2 
 PCOD9232566
Probable space group: P 2/C
;
_chemical_formula_sum "Si O2"
_cell_formula_units_Z 32
_cell_length_a 8.671429
_cell_length_b 12.002120
_cell_length_c 21.863880
_cell_angle_alpha 90.000000
_cell_angle_beta 43.816197
_cell_angle_gamma 90.000000
_cell_volume 1575.432501
_symmetry_space_group_name_H-M "P 2/C"
_symmetry_group_IT_number 13
_symmetry_cell_setting 'monoclinic'
loop_
_space_group_symop_operation_xyz
x,y,z
-x,y,1/2-z
-x,-y,-z
x,-y,1/2+z
loop_
_atom_site_type_symbol
_atom_site_label
_atom_site_fract_x
_atom_site_fract_y
_atom_site_fract_z
Si Si1 0.280356 0.462934 0.269962
Si Si2 0.834515 0.295001 0.741047
Si Si3 0.373575 0.117539 0.049743
Si Si4 0.461921 0.738245 0.641613
Si Si5 0.869151 0.886258 0.683705
Si Si6 0.241310 0.873439 0.335737
Si Si7 0.653821 0.224796 0.575110
Si Si8 0.919493 0.311270 0.074114
O O1 0.500000 0.480796 0.250000
O O2 0.182596 0.576976 0.273366
O O3 0.330045 0.374783 0.200503
O O4 0.116855 0.404950 0.364870
O O5 0.890437 0.217924 0.666319
O O6 0.586930 0.261672 0.833771
O O7 0.000000 0.276855 0.750000
O O8 0.465837 0.203751 0.074127
O O9 0.113794 0.101339 0.143959
O O10 0.374867 0.177528 0.984025
O O11 0.500000 0.000000 0.000000
O O12 0.332236 0.831935 0.719758
O O13 0.712308 0.703993 0.588348
O O14 0.906217 0.802562 0.616982
O O15 0.807579 0.006225 0.676245
O O16 0.500000 0.849325 0.250000
O O17 0.229522 0.862953 0.411996
O O18 0.836682 0.322726 0.523858
#
# Coordination Sequence:
#
# PCOD9232566 Si02
#       8
#     4   4   4   4   4   4   4   4
#     4   9  19  43  67  91 116 162 216 260 303 379
#     4  11  25  41  65  90 124 166 208 256 317 383
#     4  11  26  36  55  93 135 165 197 264 315 365
#     4  10  21  39  65  92 121 163 210 259 313 369
#     4  10  21  37  62  88 122 169 207 250 307 381
#     4  10  22  39  62  86 123 170 215 246 302 391
#     4  10  24  42  58  92 126 168 206 261 313 367
#     4   9  20  38  68  93 118 155 216 263 309 361
#
# _framework density 20.311883999999999
#
# number of rings (size 3 to 8) (size 9 to 14) (size 15 to 20)
#    0.000    2.000    0.000    3.375    8.750    4.000 
#    0.000    8.125    0.000    0.000    0.000    0.000 
#    0.000    0.000    0.000    0.000    0.000    0.000 
#
# Total GULP energy -178314.625819 kJ/mol
# GULP energy per Si atom -5572.332057 kJ/mol
# Density = 2.026565 g / cm^3
# Si number density = 20.311884 Si / 1000 Ang^3
#
#
#
# Elastic Constant Matrix: (Units=GPa)
#
#
# Indices 1 2 3 4 5 6 
#
# 1 89.9203 41.6407 33.0816 0.0000 8.5718 0.0000
# 2 41.6407 93.6594 6.5273 0.0000 17.2987 0.0000
# 3 33.0816 6.5273 65.0693 0.0000 6.3103 0.0000
# 4 0.0000 0.0000 0.0000 -13.7114 0.0000 11.2512
# 5 8.5718 17.2987 6.3103 0.0000 35.2548 0.0000
# 6 0.0000 0.0000 0.0000 11.2512 0.0000 23.0669
#
#
#
# Elastic Compliance Matrix: (Units=1/GPa)
#
#
# Indices 1 2 3 4 5 6 
#
# 1 0.017470 -0.007347 -0.008226 0.000000 0.000830 0.000000
# 2 -0.007347 0.014856 0.002828 0.000000 -0.006009 0.000000
# 3 -0.008226 0.002828 0.019546 0.000000 -0.002886 0.000000
# 4 0.000000 0.000000 0.000000 -0.052085 0.000000 0.025405
# 5 0.000830 -0.006009 -0.002886 0.000000 0.031629 0.000000
# 6 0.000000 0.000000 0.000000 0.025405 0.000000 0.030960
#
#
# Mechanical properties :
#
#
# Convention : Reuss Voigt Hill
#
# Bulk Modulus (GPa) = 37.90256 45.68312 41.79284
# Shear Modulus (GPa) = 51.72712 20.08203 35.90457
#
# Velocity S-wave (km/s) = 5.05190 3.14775 4.20892
# Velocity P-wave (km/s) = 7.26153 5.97919 6.65133
#
# Compressibility (1/GPa) = 0.02638344
#
# Stress axis : x y z
#
# Youngs Moduli (GPa) = 57.23958 67.31097 51.16042
#
# Poissons Ratio (x) = 0.49455 0.42082
# Poissons Ratio (y) = 0.42056 -0.14468
# Poissons Ratio (z) = 0.47082 -0.19035
#
# Static dielectric constant tensor:
#      x y z
#    x 1.757430 0.000000 -0.015520 
#    y 0.000000 1.710960 0.000000 
#    z -0.015520 0.000000 1.784560 
# 
# From -- ./inp_files/76410.got.cif
#   From: 2010.05.17/outbox.cif.g08.bks.cpg/sg13_39_cif.got.tgz:76410.got - 2010.06.03 16:44:36.
