data_PCOD9232678
_publ_section_title
;
Structure prediction by ZEFSAII (Michael W. Deem and Ramdas Pophale) SiO2 
 PCOD9232678
Probable space group: P 2/C
;
_chemical_formula_sum "Si O2"
_cell_formula_units_Z 20
_cell_length_a 5.135945
_cell_length_b 14.354277
_cell_length_c 9.580215
_cell_angle_alpha 90.000000
_cell_angle_beta 79.803256
_cell_angle_gamma 90.000000
_cell_volume 695.124835
_symmetry_space_group_name_H-M "P 2/C"
_symmetry_group_IT_number 13
_symmetry_cell_setting 'monoclinic'
loop_
_space_group_symop_operation_xyz
x,y,z
-x,y,1/2-z
-x,-y,-z
x,-y,1/2+z
loop_
_atom_site_type_symbol
_atom_site_label
_atom_site_fract_x
_atom_site_fract_y
_atom_site_fract_z
Si Si1 0.783896 0.448471 0.146399
Si Si2 0.686706 0.044232 0.097755
Si Si3 0.784012 0.649754 0.145754
Si Si4 0.791749 0.152165 0.653995
Si Si5 0.784021 0.753331 0.647313
O O1 0.500000 0.448502 0.250000
O O2 0.790134 0.548838 0.068186
O O3 0.801067 0.347325 0.069137
O O4 0.000000 0.445144 0.250000
O O5 0.500000 0.057463 0.250000
O O6 0.786796 0.149216 0.062233
O O7 0.868108 0.954656 0.110885
O O8 0.500000 0.000000 0.000000
O O9 0.500000 0.651694 0.250000
O O10 0.779595 0.750881 0.066618
O O11 0.000000 0.641553 0.250000
O O12 0.500000 0.143348 0.750000
O O13 0.000000 0.178331 0.750000
O O14 0.500000 0.749633 0.750000
O O15 0.000000 0.761962 0.750000
#
# Coordination Sequence:
#
# PCOD9232678 Si02
#       5
#     4   4   4   4   4
#     4   8  13  22  40  67  98 132 170 213 261 314
#     4  10  21  38  58  82 112 146 186 230 278 330
#     4   8  13  22  40  67  98 132 170 213 261 314
#     4   9  17  31  50  75 106 140 179 222 270 323
#     4   9  17  31  50  75 106 140 179 222 270 323
#
# _framework density 28.771812000000001
#
# number of rings (size 3 to 8) (size 9 to 14) (size 15 to 20)
#    0.000    3.200    0.000    0.600    0.000    0.000 
#    0.000   16.000    0.000    1.200    0.000    0.000 
#    0.000   70.400    0.000    0.000    0.000   16.800 
#
# Total GULP energy -111831.440881 kJ/mol
# GULP energy per Si atom -5591.572044 kJ/mol
# Density = 2.870633 g / cm^3
# Si number density = 28.771812 Si / 1000 Ang^3
#
#
#
# Elastic Constant Matrix: (Units=GPa)
#
#
# Indices 1 2 3 4 5 6 
#
# 1 156.1252 16.6102 2.1316 0.0000 17.3187 0.0000
# 2 16.6102 425.7924 44.8421 0.0000 -37.7746 0.0000
# 3 2.1316 44.8421 90.2584 0.0000 10.2948 0.0000
# 4 0.0000 0.0000 0.0000 65.9517 0.0000 -35.5184
# 5 17.3187 -37.7746 10.2948 0.0000 36.6379 0.0000
# 6 0.0000 0.0000 0.0000 -35.5184 0.0000 54.0976
#
#
#
# Elastic Compliance Matrix: (Units=1/GPa)
#
#
# Indices 1 2 3 4 5 6 
#
# 1 0.006938 -0.000714 0.000671 0.000000 -0.004205 0.000000
# 2 -0.000714 0.002917 -0.001874 0.000000 0.003872 0.000000
# 3 0.000671 -0.001874 0.012657 0.000000 -0.005806 0.000000
# 4 0.000000 0.000000 0.000000 0.023457 0.000000 0.015401
# 5 -0.004205 0.003872 -0.005806 0.000000 0.034905 0.000000
# 6 0.000000 0.000000 0.000000 0.015401 0.000000 0.028597
#
#
# Mechanical properties :
#
#
# Convention : Reuss Voigt Hill
#
# Bulk Modulus (GPa) = 53.54253 88.81596 71.17924
# Shear Modulus (GPa) = 41.82963 71.91024 56.86994
#
# Velocity S-wave (km/s) = 3.81706 5.00475 4.45070
# Velocity P-wave (km/s) = 6.17061 8.02078 7.15574
#
# Compressibility (1/GPa) = 0.01867674
#
# Stress axis : x y z
#
# Youngs Moduli (GPa) = 144.12594 342.78012 79.00905
#
# Poissons Ratio (x) = 0.24485 -0.05298
# Poissons Ratio (y) = 0.10295 0.14808
# Poissons Ratio (z) = -0.09665 0.64242
#
# Static dielectric constant tensor:
#      x y z
#    x 2.283830 0.000000 -0.201410 
#    y 0.000000 2.592690 0.000000 
#    z -0.201410 0.000000 2.184470 
# 
# From -- ./inp_files/26029.got.cif
#   From: 2010.05.17/outbox.cif.g08.bks.cpg/sg13_14_cif.got.tgz:26029.got - 2010.06.03 16:44:36.
