data_PCOD9232581
_publ_section_title
;
Structure prediction by ZEFSAII (Michael W. Deem and Ramdas Pophale) SiO2 
 PCOD9232581
Probable space group: P 2/C
;
_chemical_formula_sum "Si O2"
_cell_formula_units_Z 22
_cell_length_a 23.274023
_cell_length_b 7.781284
_cell_length_c 13.626822
_cell_angle_alpha 90.000000
_cell_angle_beta 22.661821
_cell_angle_gamma 90.000000
_cell_volume 950.837772
_symmetry_space_group_name_H-M "P 2/C"
_symmetry_group_IT_number 13
_symmetry_cell_setting 'monoclinic'
loop_
_space_group_symop_operation_xyz
x,y,z
-x,y,1/2-z
-x,-y,-z
x,-y,1/2+z
loop_
_atom_site_type_symbol
_atom_site_label
_atom_site_fract_x
_atom_site_fract_y
_atom_site_fract_z
Si Si1 0.506904 0.401082 0.593728
Si Si2 0.210662 0.536227 0.254178
Si Si3 0.739144 0.898285 0.390461
Si Si4 0.000000 0.347888 0.250000
Si Si5 0.174470 0.252072 0.164683
Si Si6 0.551172 0.013628 0.529441
O O1 0.500000 0.500000 0.500000
O O2 0.585937 0.215482 0.484264
O O3 0.386265 0.513817 0.004598
O O4 0.339020 0.333818 0.880651
O O5 0.200937 0.706596 0.201308
O O6 0.135289 0.382366 0.313218
O O7 0.125993 0.550122 0.491244
O O8 0.694849 0.919655 0.345529
O O9 0.830407 0.060801 0.284260
O O10 0.917838 0.747891 0.790123
O O11 0.412170 0.934172 0.808953
O O12 0.500000 0.000000 0.500000
#
# Coordination Sequence:
#
# PCOD9232581 Si02
#       6
#     4   4   4   2   4   4
#     4  11  21  40  72 105 134 177 233 293 363 413
#     4  12  25  46  73 101 144 188 236 296 363 420
#     4  10  24  41  66 104 138 181 230 290 360 415
#     4  12  28  48  72 100 142 198 246 286 346 442
#     4  11  25  48  69 104 145 183 240 297 354 431
#     4  10  21  37  63 107 144 165 227 299 354 423
#
# _framework density 23.137491000000001
#
# number of rings (size 3 to 8) (size 9 to 14) (size 15 to 20)
#    0.000    1.091    3.636    2.182   10.182    0.727 
#    0.000    1.818    0.000    0.000    0.000    0.000 
#    0.000    0.000    0.000    0.000    0.000    0.000 
#
# Total GULP energy -122627.914117 kJ/mol
# GULP energy per Si atom -5573.996096 kJ/mol
# Density = 2.308483 g / cm^3
# Si number density = 23.137491 Si / 1000 Ang^3
#
#
#
# Elastic Constant Matrix: (Units=GPa)
#
#
# Indices 1 2 3 4 5 6 
#
# 1 175.6886 45.7011 30.3088 0.0000 -14.5242 0.0000
# 2 45.7011 126.3663 26.2139 0.0000 -7.0659 0.0000
# 3 30.3088 26.2139 83.0609 0.0000 -0.8637 0.0000
# 4 0.0000 0.0000 0.0000 9.0456 0.0000 7.9445
# 5 -14.5242 -7.0659 -0.8637 0.0000 37.9048 0.0000
# 6 0.0000 0.0000 0.0000 7.9445 0.0000 11.0621
#
#
#
# Elastic Compliance Matrix: (Units=1/GPa)
#
#
# Indices 1 2 3 4 5 6 
#
# 1 0.006682 -0.001920 -0.001810 0.000000 0.002161 0.000000
# 2 -0.001920 0.009108 -0.002164 0.000000 0.000913 0.000000
# 3 -0.001810 -0.002164 0.013375 0.000000 -0.000792 0.000000
# 4 0.000000 0.000000 0.000000 0.299391 0.000000 -0.215014
# 5 0.002161 0.000913 -0.000792 0.000000 0.027362 0.000000
# 6 0.000000 0.000000 0.000000 -0.215014 0.000000 0.244816
#
#
# Mechanical properties :
#
#
# Convention : Reuss Voigt Hill
#
# Bulk Modulus (GPa) = 57.55074 65.50705 61.52889
# Shear Modulus (GPa) = 8.08650 30.46199 19.27424
#
# Velocity S-wave (km/s) = 1.87151 3.63239 2.88936
# Velocity P-wave (km/s) = 5.44035 6.77981 6.14668
#
# Compressibility (1/GPa) = 0.01737597
#
# Stress axis : x y z
#
# Youngs Moduli (GPa) = 149.64831 109.79337 74.76882
#
# Poissons Ratio (x) = 0.21085 0.13532
# Poissons Ratio (y) = 0.28739 0.16182
# Poissons Ratio (z) = 0.27084 0.23762
#
# Static dielectric constant tensor:
#      x y z
#    x 1.966620 0.000000 -0.041140 
#    y 0.000000 1.827360 0.000000 
#    z -0.041140 0.000000 2.013740 
# 
# From -- ./inp_files/59376.got.cif
#   From: 2010.05.17/outbox.cif.g08.bks.cpg/sg13_30_cif.got.tgz:59376.got - 2010.06.03 16:44:36.
