data_PCOD9232696
_publ_section_title
;
Structure prediction by ZEFSAII (Michael W. Deem and Ramdas Pophale) SiO2 
 PCOD9232696
Probable space group: P 2/C
;
_chemical_formula_sum "Si O2"
_cell_formula_units_Z 20
_cell_length_a 9.246456
_cell_length_b 6.523494
_cell_length_c 16.644405
_cell_angle_alpha 90.000000
_cell_angle_beta 87.286700
_cell_angle_gamma 90.000000
_cell_volume 1002.851653
_symmetry_space_group_name_H-M "P 2/C"
_symmetry_group_IT_number 13
_symmetry_cell_setting 'monoclinic'
loop_
_space_group_symop_operation_xyz
x,y,z
-x,y,1/2-z
-x,-y,-z
x,-y,1/2+z
loop_
_atom_site_type_symbol
_atom_site_label
_atom_site_fract_x
_atom_site_fract_y
_atom_site_fract_z
Si Si1 0.365435 0.427444 0.450492
Si Si2 0.847294 0.435976 0.277081
Si Si3 0.632682 0.857468 0.697635
Si Si4 0.178913 0.233026 0.862638
Si Si5 0.901957 0.638275 0.443851
O O1 0.500000 0.500000 0.500000
O O2 0.414430 0.287011 0.374967
O O3 0.279538 0.624444 0.416969
O O4 0.243121 0.304082 0.504788
O O5 0.718389 0.287753 0.256977
O O6 0.840106 0.632077 0.217806
O O7 0.851198 0.506315 0.368458
O O8 0.000000 0.331893 0.250000
O O9 0.500000 0.952894 0.750000
O O10 0.739823 0.026808 0.660453
O O11 0.019856 0.202038 0.905916
O O12 0.000000 0.500000 0.500000
#
# Coordination Sequence:
#
# PCOD9232696 Si02
#       5
#     4   4   4   4   4
#     4  10  21  38  59  84 115 150 189 237 289 338
#     4   9  19  38  60  81 110 150 193 235 282 338
#     4  11  23  37  57  85 117 153 192 234 285 345
#     4   9  21  38  56  83 114 151 193 231 282 343
#     4   9  18  37  60  81 112 148 187 237 286 335
#
# _framework density 19.94313
#
# number of rings (size 3 to 8) (size 9 to 14) (size 15 to 20)
#    0.000    2.400    0.000    2.400    0.000    8.800 
#    0.000    4.000    0.000    0.000    0.000    0.000 
#    0.000    0.000    0.000    0.000    0.000    0.000 
#
# Total GULP energy -111579.005724 kJ/mol
# GULP energy per Si atom -5578.950286 kJ/mol
# Density = 1.989774 g / cm^3
# Si number density = 19.943130 Si / 1000 Ang^3
#
#
#
# Elastic Constant Matrix: (Units=GPa)
#
#
# Indices 1 2 3 4 5 6 
#
# 1 114.3330 35.7544 62.8463 0.0000 -8.1799 0.0000
# 2 35.7544 44.8574 18.8092 0.0000 -1.6962 0.0000
# 3 62.8463 18.8092 116.8591 0.0000 9.2502 0.0000
# 4 0.0000 0.0000 0.0000 2.3567 0.0000 -11.5761
# 5 -8.1799 -1.6962 9.2502 0.0000 46.7196 0.0000
# 6 0.0000 0.0000 0.0000 -11.5761 0.0000 22.0624
#
#
#
# Elastic Compliance Matrix: (Units=1/GPa)
#
#
# Indices 1 2 3 4 5 6 
#
# 1 0.016109 -0.009573 -0.007435 0.000000 0.003945 0.000000
# 2 -0.009573 0.029722 0.000418 0.000000 -0.000680 0.000000
# 3 -0.007435 0.000418 0.012791 0.000000 -0.003819 0.000000
# 4 0.000000 0.000000 0.000000 -0.269016 0.000000 -0.141152
# 5 0.003945 -0.000680 -0.003819 0.000000 0.022826 0.000000
# 6 0.000000 0.000000 0.000000 -0.141152 0.000000 -0.028736
#
#
# Mechanical properties :
#
#
# Convention : Reuss Voigt Hill
#
# Bulk Modulus (GPa) = 39.30429 56.76326 48.03377
# Shear Modulus (GPa) = -28.62989 24.80372 -1.91309
#
# Velocity S-wave (km/s) = -3.79301 3.53047 -0.98049
# Velocity P-wave (km/s) = 0.75392 6.71888 4.78078
#
# Compressibility (1/GPa) = 0.02544252
#
# Stress axis : x y z
#
# Youngs Moduli (GPa) = 62.07627 33.64461 78.18185
#
# Poissons Ratio (x) = 0.32210 0.58127
# Poissons Ratio (y) = 0.59429 -0.03271
# Poissons Ratio (z) = 0.46153 -0.01408
#
# Static dielectric constant tensor:
#      x y z
#    x 1.751210 0.000000 -0.017480 
#    y 0.000000 1.663320 0.000000 
#    z -0.017480 0.000000 1.713530 
# 
# From -- ./inp_files/62390.got.cif
#   From: 2010.05.17/outbox.cif.g08.bks.cpg/sg13_32_cif.got.tgz:62390.got - 2010.06.03 16:44:36.
