data_PCOD9232531
_publ_section_title
;
Structure prediction by ZEFSAII (Michael W. Deem and Ramdas Pophale) SiO2 
 PCOD9232531
Probable space group: P 2/C
;
_chemical_formula_sum "Si O2"
_cell_formula_units_Z 24
_cell_length_a 14.458908
_cell_length_b 12.633682
_cell_length_c 11.383783
_cell_angle_alpha 90.000000
_cell_angle_beta 28.310056
_cell_angle_gamma 90.000000
_cell_volume 986.172142
_symmetry_space_group_name_H-M "P 2/C"
_symmetry_group_IT_number 13
_symmetry_cell_setting 'monoclinic'
loop_
_space_group_symop_operation_xyz
x,y,z
-x,y,1/2-z
-x,-y,-z
x,-y,1/2+z
loop_
_atom_site_type_symbol
_atom_site_label
_atom_site_fract_x
_atom_site_fract_y
_atom_site_fract_z
Si Si1 0.270223 0.804729 0.824001
Si Si2 0.265446 0.284980 0.000482
Si Si3 0.196357 0.156825 0.671664
Si Si4 0.213445 0.587285 0.784679
Si Si5 0.329767 0.075289 0.036014
Si Si6 0.792104 0.644646 0.197058
O O1 0.309887 0.682269 0.749514
O O2 0.384636 0.875646 0.601312
O O3 0.285815 0.832323 0.941787
O O4 0.037704 0.826020 0.062865
O O5 0.500000 0.275706 0.750000
O O6 0.189782 0.311570 0.956220
O O7 0.225120 0.379982 0.135177
O O8 0.199205 0.170436 0.124746
O O9 0.283777 0.253489 0.648685
O O10 0.232008 0.036756 0.669153
O O11 0.295501 0.472344 0.720526
O O12 0.981405 0.605765 0.061689
O O13 0.500000 0.057652 0.750000
#
# Coordination Sequence:
#
# PCOD9232531 Si02
#       6
#     4   4   4   4   4   4
#     4   9  20  39  60  88 125 154 200 262 310 361
#     4  10  22  40  58  86 122 162 202 250 311 368
#     4  10  21  37  60  93 120 161 204 256 311 361
#     4   9  20  39  62  90 117 157 204 261 304 358
#     4  10  22  40  59  85 123 169 206 252 303 369
#     4  10  21  37  65  90 117 158 212 252 305 372
#
# _framework density 24.336521999999999
#
# number of rings (size 3 to 8) (size 9 to 14) (size 15 to 20)
#    0.000    2.333    0.000    1.000    4.667    1.333 
#   12.000    0.833    0.000    0.000    0.000    0.000 
#    0.000    0.000    0.000    0.000    0.000    0.000 
#
# Total GULP energy -133953.084868 kJ/mol
# GULP energy per Si atom -5581.378536 kJ/mol
# Density = 2.428113 g / cm^3
# Si number density = 24.336522 Si / 1000 Ang^3
#
#
#
# Elastic Constant Matrix: (Units=GPa)
#
#
# Indices 1 2 3 4 5 6 
#
# 1 70.7084 59.1254 24.5313 0.0000 8.6761 0.0000
# 2 59.1254 269.1190 44.7032 0.0000 29.6288 0.0000
# 3 24.5313 44.7032 74.6411 0.0000 19.8988 0.0000
# 4 0.0000 0.0000 0.0000 26.1991 0.0000 -1.9335
# 5 8.6761 29.6288 19.8988 0.0000 51.4575 0.0000
# 6 0.0000 0.0000 0.0000 -1.9335 0.0000 9.6212
#
#
#
# Elastic Compliance Matrix: (Units=1/GPa)
#
#
# Indices 1 2 3 4 5 6 
#
# 1 0.018358 -0.003399 -0.004119 0.000000 0.000455 0.000000
# 2 -0.003399 0.004875 -0.001346 0.000000 -0.001713 0.000000
# 3 -0.004119 -0.001346 0.016909 0.000000 -0.005069 0.000000
# 4 0.000000 0.000000 0.000000 0.038744 0.000000 0.007786
# 5 0.000455 -0.001713 -0.005069 0.000000 0.022304 0.000000
# 6 0.000000 0.000000 0.000000 0.007786 0.000000 0.105501
#
#
# Mechanical properties :
#
#
# Convention : Reuss Voigt Hill
#
# Bulk Modulus (GPa) = 44.61504 74.57649 59.59576
# Shear Modulus (GPa) = 21.56202 36.52947 29.04574
#
# Velocity S-wave (km/s) = 2.97979 3.87850 3.45846
# Velocity P-wave (km/s) = 5.49648 7.12512 6.36312
#
# Compressibility (1/GPa) = 0.02241397
#
# Stress axis : x y z
#
# Youngs Moduli (GPa) = 54.47177 205.13764 59.14177
#
# Poissons Ratio (x) = 0.69729 0.24360
# Poissons Ratio (y) = 0.18516 0.07958
# Poissons Ratio (z) = 0.22437 0.27604
#
# Static dielectric constant tensor:
#      x y z
#    x 1.950960 0.000000 -0.128470 
#    y 0.000000 1.926440 0.000000 
#    z -0.128470 0.000000 2.066880 
# 
# From -- ./inp_files/39086.got.cif
#   From: 2010.05.17/outbox.cif.g08.bks.cpg/sg13_20_cif.got.tgz:39086.got - 2010.06.03 16:44:36.
