data_PCOD9232812
_publ_section_title
;
Structure prediction by ZEFSAII (Michael W. Deem and Ramdas Pophale) SiO2 
 PCOD9232812
Probable space group: P 2/C
;
_chemical_formula_sum "Si O2"
_cell_formula_units_Z 20
_cell_length_a 7.946884
_cell_length_b 22.344664
_cell_length_c 5.405969
_cell_angle_alpha 90.000000
_cell_angle_beta 59.996996
_cell_angle_gamma 90.000000
_cell_volume 831.307575
_symmetry_space_group_name_H-M "P 2/C"
_symmetry_group_IT_number 13
_symmetry_cell_setting 'monoclinic'
loop_
_space_group_symop_operation_xyz
x,y,z
-x,y,1/2-z
-x,-y,-z
x,-y,1/2+z
loop_
_atom_site_type_symbol
_atom_site_label
_atom_site_fract_x
_atom_site_fract_y
_atom_site_fract_z
Si Si1 0.266265 0.468375 0.416551
Si Si2 0.715699 0.212689 0.323382
Si Si3 0.233372 0.972976 0.111158
Si Si4 0.122354 0.335583 0.413587
Si Si5 0.275488 0.163380 0.679078
O O1 0.500000 0.472642 0.250000
O O2 0.198449 0.491010 0.735333
O O3 0.211842 0.400056 0.405773
O O4 0.726020 0.282705 0.255128
O O5 0.496253 0.188177 0.501006
O O6 0.805964 0.196369 0.520829
O O7 0.811921 0.179200 0.022288
O O8 0.273499 0.907833 0.194918
O O9 0.000000 0.979585 0.250000
O O10 0.304308 0.018039 0.275700
O O11 0.000000 0.340574 0.250000
O O12 0.000000 0.318980 0.750000
#
# Coordination Sequence:
#
# PCOD9232812 Si02
#       5
#     4   4   4   4   4
#     4  10  23  44  69 101 134 179 223 267 330 396
#     4  10  23  41  60  93 127 169 221 268 323 387
#     4  10  21  38  62  94 129 165 209 268 332 394
#     4  12  26  43  67 101 135 176 221 279 337 387
#     4  10  21  41  65  91 124 178 212 268 329 385
#
# _framework density 24.058485999999998
#
# number of rings (size 3 to 8) (size 9 to 14) (size 15 to 20)
#    0.000    1.600    0.000    3.600    2.800    4.800 
#    7.200   12.000    0.000    0.000    0.000    0.000 
#    0.000    0.000    0.000    0.000    0.000    0.000 
#
# Total GULP energy -111916.902159 kJ/mol
# GULP energy per Si atom -5595.845108 kJ/mol
# Density = 2.400373 g / cm^3
# Si number density = 24.058486 Si / 1000 Ang^3
#
#
#
# Elastic Constant Matrix: (Units=GPa)
#
#
# Indices 1 2 3 4 5 6 
#
# 1 100.3293 6.7664 44.0059 0.0000 19.4661 0.0000
# 2 6.7664 128.2953 34.3196 0.0000 26.6055 0.0000
# 3 44.0059 34.3196 199.2604 0.0000 41.7007 0.0000
# 4 0.0000 0.0000 0.0000 29.9153 0.0000 23.9406
# 5 19.4661 26.6055 41.7007 0.0000 37.6293 0.0000
# 6 0.0000 0.0000 0.0000 23.9406 0.0000 10.8371
#
#
#
# Elastic Compliance Matrix: (Units=1/GPa)
#
#
# Indices 1 2 3 4 5 6 
#
# 1 0.011570 0.000815 -0.001722 0.000000 -0.004654 0.000000
# 2 0.000815 0.009204 -0.000410 0.000000 -0.006475 0.000000
# 3 -0.001722 -0.000410 0.006799 0.000000 -0.006354 0.000000
# 4 0.000000 0.000000 0.000000 -0.043530 0.000000 0.096164
# 5 -0.004654 -0.006475 -0.006354 0.000000 0.040602 0.000000
# 6 0.000000 0.000000 0.000000 0.096164 0.000000 -0.120163
#
#
# Mechanical properties :
#
#
# Convention : Reuss Voigt Hill
#
# Bulk Modulus (GPa) = 40.09559 66.45209 53.27384
# Shear Modulus (GPa) = -59.12199 38.52922 -10.29638
#
# Velocity S-wave (km/s) = -4.96262 4.00619 -2.07100
# Velocity P-wave (km/s) = 4.01681 7.00575 4.05868
#
# Compressibility (1/GPa) = 0.02494040
#
# Stress axis : x y z
#
# Youngs Moduli (GPa) = 86.42783 108.64868 147.07537
#
# Poissons Ratio (x) = -0.08860 0.25322
# Poissons Ratio (y) = -0.07048 0.06035
# Poissons Ratio (z) = 0.14881 0.04458
#
# Static dielectric constant tensor:
#      x y z
#    x 1.918510 0.000000 0.003140 
#    y 0.000000 1.841600 0.000000 
#    z 0.003140 0.000000 2.060630 
# 
# From -- ./inp_files/2029.got.cif
#   From: 2010.05.17/outbox.cif.g08.bks.cpg/sg13_2_cif.got.tgz:2029.got - 2010.06.03 16:44:36.
