data_PCOD9232347
_publ_section_title
;
Structure prediction by ZEFSAII (Michael W. Deem and Ramdas Pophale) SiO2 
 PCOD9232347
Probable space group: P 2/C
;
_chemical_formula_sum "Si O2"
_cell_formula_units_Z 24
_cell_length_a 14.046693
_cell_length_b 9.415075
_cell_length_c 13.547665
_cell_angle_alpha 90.000000
_cell_angle_beta 31.019451
_cell_angle_gamma 90.000000
_cell_volume 923.308726
_symmetry_space_group_name_H-M "P 2/C"
_symmetry_group_IT_number 13
_symmetry_cell_setting 'monoclinic'
loop_
_space_group_symop_operation_xyz
x,y,z
-x,y,1/2-z
-x,-y,-z
x,-y,1/2+z
loop_
_atom_site_type_symbol
_atom_site_label
_atom_site_fract_x
_atom_site_fract_y
_atom_site_fract_z
Si Si1 0.057571 0.556185 0.557165
Si Si2 0.401840 0.395684 0.241903
Si Si3 0.854990 0.142863 0.568925
Si Si4 0.536731 0.037724 0.603823
Si Si5 0.655438 0.652530 0.936984
Si Si6 0.909244 0.099673 0.731754
O O1 0.202292 0.439268 0.461840
O O2 0.172098 0.703779 0.453064
O O3 0.000000 0.500000 0.500000
O O4 0.860730 0.595562 0.777489
O O5 0.500000 0.325717 0.250000
O O6 0.374988 0.329558 0.155717
O O7 0.517892 0.536693 0.106444
O O8 0.671803 0.049343 0.751942
O O9 0.989360 0.050470 0.381693
O O10 0.940382 0.176877 0.600382
O O11 0.500000 0.019096 0.750000
O O12 0.621926 0.192519 0.509453
O O13 0.691238 0.923789 0.438787
O O14 0.000000 0.158318 0.750000
#
# Coordination Sequence:
#
# PCOD9232347 Si02
#       6
#     4   4   4   4   4   4
#     4  10  21  39  63  90 123 164 208 254 317 377
#     4  10  21  38  58  87 124 169 212 258 315 383
#     4  11  23  41  67  92 129 164 209 269 317 379
#     4  12  22  39  67  95 122 164 218 263 317 381
#     4  10  21  36  60  89 127 158 209 263 315 370
#     4  11  24  43  65  93 127 165 213 264 322 381
#
# _framework density 25.993475
#
# number of rings (size 3 to 8) (size 9 to 14) (size 15 to 20)
#    0.000    1.333    5.000    1.000    0.000    0.667 
#    0.000    3.333    0.000    0.000    0.000    0.000 
#    0.000    0.000    0.000    0.000    0.000    0.000 
#
# Total GULP energy -134200.661357 kJ/mol
# GULP energy per Si atom -5591.694223 kJ/mol
# Density = 2.593431 g / cm^3
# Si number density = 25.993475 Si / 1000 Ang^3
#
#
#
# Elastic Constant Matrix: (Units=GPa)
#
#
# Indices 1 2 3 4 5 6 
#
# 1 148.5881 -3.3509 34.3315 0.0000 13.2495 0.0000
# 2 -3.3509 53.9894 18.7046 0.0000 -1.4861 0.0000
# 3 34.3315 18.7046 125.9285 0.0000 -17.5187 0.0000
# 4 0.0000 0.0000 0.0000 20.6157 0.0000 -11.5446
# 5 13.2495 -1.4861 -17.5187 0.0000 47.3810 0.0000
# 6 0.0000 0.0000 0.0000 -11.5446 0.0000 15.1693
#
#
#
# Elastic Compliance Matrix: (Units=1/GPa)
#
#
# Indices 1 2 3 4 5 6 
#
# 1 0.007666 0.001333 -0.002720 0.000000 -0.003108 0.000000
# 2 0.001333 0.019769 -0.003442 0.000000 -0.001025 0.000000
# 3 -0.002720 -0.003442 0.009788 0.000000 0.004272 0.000000
# 4 0.000000 0.000000 0.000000 0.084532 0.000000 0.064333
# 5 -0.003108 -0.001025 0.004272 0.000000 0.023522 0.000000
# 6 0.000000 0.000000 0.000000 0.064333 0.000000 0.114883
#
#
# Mechanical properties :
#
#
# Convention : Reuss Voigt Hill
#
# Bulk Modulus (GPa) = 36.28005 47.54184 41.91095
# Shear Modulus (GPa) = 17.92065 35.22127 26.57096
#
# Velocity S-wave (km/s) = 2.62855 3.68503 3.20068
# Velocity P-wave (km/s) = 4.81664 6.03619 5.46057
#
# Compressibility (1/GPa) = 0.02756336
#
# Stress axis : x y z
#
# Youngs Moduli (GPa) = 130.45205 50.58365 102.16418
#
# Poissons Ratio (x) = -0.06741 0.27790
# Poissons Ratio (y) = -0.17384 0.35168
# Poissons Ratio (z) = 0.35484 0.17413
#
# Static dielectric constant tensor:
#      x y z
#    x 2.112070 0.000000 -0.018550 
#    y 0.000000 1.989810 0.000000 
#    z -0.018550 0.000000 2.018740 
# 
# From -- ./inp_files/53607.got.cif
#   From: 2010.05.17/outbox.cif.g08.bks.cpg/sg13_27_cif.got.tgz:53607.got - 2010.06.03 16:44:36.
