data_PCOD9232694
_publ_section_title
;
Structure prediction by ZEFSAII (Michael W. Deem and Ramdas Pophale) SiO2 
 PCOD9232694
Probable space group: P 2/C
;
_chemical_formula_sum "Si O2"
_cell_formula_units_Z 14
_cell_length_a 7.898966
_cell_length_b 15.758175
_cell_length_c 5.272319
_cell_angle_alpha 90.000000
_cell_angle_beta 119.914590
_cell_angle_gamma 90.000000
_cell_volume 568.828838
_symmetry_space_group_name_H-M "P 2/C"
_symmetry_group_IT_number 13
_symmetry_cell_setting 'monoclinic'
loop_
_space_group_symop_operation_xyz
x,y,z
-x,y,1/2-z
-x,-y,-z
x,-y,1/2+z
loop_
_atom_site_type_symbol
_atom_site_label
_atom_site_fract_x
_atom_site_fract_y
_atom_site_fract_z
Si Si1 0.761571 0.449372 0.074471
Si Si2 0.500000 0.000000 0.500000
Si Si3 0.763257 0.744364 0.563146
Si Si4 0.234107 0.848339 0.436664
O O1 0.703404 0.505326 0.271350
O O2 0.694984 0.352184 0.041093
O O3 0.000000 0.447220 0.250000
O O4 0.500000 0.061588 0.750000
O O5 0.668114 0.058770 0.474619
O O6 0.715483 0.786610 0.258626
O O7 0.000000 0.741413 0.750000
O O8 0.708803 0.801955 0.761084
O O9 0.000000 0.860889 0.250000
#
# Coordination Sequence:
#
# PCOD9232694 Si02
#       4
#     4   2   4   4
#     4   9  15  23  40  72 115 157 195 236 278 330
#     4  12  26  42  62  88 116 146 200 254 304 360
#     4   9  17  31  52  79 116 162 203 238 287 350
#     4  10  21  38  59  83 116 158 200 244 294 352
#
# _framework density 24.611972000000002
#
# number of rings (size 3 to 8) (size 9 to 14) (size 15 to 20)
#    0.000    2.286    0.000    3.429    0.000    8.000 
#    0.000    0.000    0.000    0.000    0.000    0.000 
#    0.000   80.000    0.000    0.000    0.000   28.571 
#
# Total GULP energy -78040.431414 kJ/mol
# GULP energy per Si atom -5574.316530 kJ/mol
# Density = 2.455595 g / cm^3
# Si number density = 24.611972 Si / 1000 Ang^3
#
#
#
# Elastic Constant Matrix: (Units=GPa)
#
#
# Indices 1 2 3 4 5 6 
#
# 1 76.8447 64.2759 58.9936 0.0000 -15.7207 0.0000
# 2 64.2759 233.8030 76.6183 0.0000 -25.0391 0.0000
# 3 58.9936 76.6183 155.5964 0.0000 -9.3907 0.0000
# 4 0.0000 0.0000 0.0000 31.6554 0.0000 -29.2272
# 5 -15.7207 -25.0391 -9.3907 0.0000 54.9660 0.0000
# 6 0.0000 0.0000 0.0000 -29.2272 0.0000 42.2066
#
#
#
# Elastic Compliance Matrix: (Units=1/GPa)
#
#
# Indices 1 2 3 4 5 6 
#
# 1 0.021382 -0.003480 -0.006184 0.000000 0.003474 0.000000
# 2 -0.003480 0.005874 -0.001487 0.000000 0.001426 0.000000
# 3 -0.006184 -0.001487 0.009453 0.000000 -0.000831 0.000000
# 4 0.000000 0.000000 0.000000 0.087596 0.000000 0.060658
# 5 0.003474 0.001426 -0.000831 0.000000 0.019694 0.000000
# 6 0.000000 0.000000 0.000000 0.060658 0.000000 0.065697
#
#
# Mechanical properties :
#
#
# Convention : Reuss Voigt Hill
#
# Bulk Modulus (GPa) = 69.40452 96.22442 82.81447
# Shear Modulus (GPa) = 21.11490 43.52268 32.31879
#
# Velocity S-wave (km/s) = 2.93219 4.20974 3.62765
# Velocity P-wave (km/s) = 6.30273 7.92532 7.16014
#
# Compressibility (1/GPa) = 0.01440828
#
# Stress axis : x y z
#
# Youngs Moduli (GPa) = 46.76909 170.24834 105.78174
#
# Poissons Ratio (x) = 0.59242 0.65412
# Poissons Ratio (y) = 0.16274 0.15729
# Poissons Ratio (z) = 0.28920 0.25315
#
# Static dielectric constant tensor:
#      x y z
#    x 2.059220 0.000000 -0.038350 
#    y 0.000000 1.211260 0.000000 
#    z -0.038350 0.000000 1.024610 
# 
# From -- ./inp_files/1043.got.cif
#   From: 2010.05.17/outbox.cif.g08.bks.cpg/sg13_1_cif.got.tgz:1043.got - 2010.06.03 16:44:36.
