data_PCOD9232492
_publ_section_title
;
Structure prediction by ZEFSAII (Michael W. Deem and Ramdas Pophale) SiO2 
 PCOD9232492
Probable space group: P 2/C
;
_chemical_formula_sum "Si O2"
_cell_formula_units_Z 16
_cell_length_a 14.916202
_cell_length_b 5.191087
_cell_length_c 9.256743
_cell_angle_alpha 90.000000
_cell_angle_beta 58.157774
_cell_angle_gamma 90.000000
_cell_volume 608.891977
_symmetry_space_group_name_H-M "P 2/C"
_symmetry_group_IT_number 13
_symmetry_cell_setting 'monoclinic'
loop_
_space_group_symop_operation_xyz
x,y,z
-x,y,1/2-z
-x,-y,-z
x,-y,1/2+z
loop_
_atom_site_type_symbol
_atom_site_label
_atom_site_fract_x
_atom_site_fract_y
_atom_site_fract_z
Si Si1 0.375759 0.043905 0.137005
Si Si2 0.580754 0.454070 0.801217
Si Si3 0.824959 0.182013 0.343470
Si Si4 0.893730 0.674723 0.110521
O O1 0.367825 0.268771 0.263073
O O2 0.299266 0.114441 0.071961
O O3 0.340613 0.768426 0.224456
O O4 0.500000 0.000000 0.000000
O O5 0.500000 0.369107 0.750000
O O6 0.500000 0.500000 0.000000
O O7 0.831111 0.452361 0.251537
O O8 0.864116 0.235600 0.472361
O O9 0.887057 0.940469 0.213057
O O10 0.000000 0.500000 0.000000
#
# Coordination Sequence:
#
# PCOD9232492 Si02
#       4
#     4   4   4   4
#     4  10  23  42  69 104 149 197 249 306 368 455
#     4  10  21  37  59  89 131 186 237 288 348 415
#     4  12  27  49  80 117 156 206 260 320 400 475
#     4  12  28  52  81 116 155 201 262 334 399 467
#
# _framework density 26.277235999999998
#
# number of rings (size 3 to 8) (size 9 to 14) (size 15 to 20)
#    0.000    1.000    0.000    5.250    0.000   14.000 
#    0.000    0.000    0.000    0.000    0.000    0.000 
#    0.000    0.000    0.000    0.000    0.000    0.000 
#
# Total GULP energy -89319.727831 kJ/mol
# GULP energy per Si atom -5582.482989 kJ/mol
# Density = 2.621743 g / cm^3
# Si number density = 26.277236 Si / 1000 Ang^3
#
#
#
# Elastic Constant Matrix: (Units=GPa)
#
#
# Indices 1 2 3 4 5 6 
#
# 1 170.4218 69.4228 89.4559 0.0000 30.1188 0.0000
# 2 69.4228 288.7298 77.0819 0.0000 27.7332 0.0000
# 3 89.4559 77.0819 147.9736 0.0000 35.8744 0.0000
# 4 0.0000 0.0000 0.0000 48.9163 0.0000 2.9327
# 5 30.1188 27.7332 35.8744 0.0000 45.0947 0.0000
# 6 0.0000 0.0000 0.0000 2.9327 0.0000 55.3185
#
#
#
# Elastic Compliance Matrix: (Units=1/GPa)
#
#
# Indices 1 2 3 4 5 6 
#
# 1 0.008877 -0.000747 -0.004524 0.000000 -0.001871 0.000000
# 2 -0.000747 0.004122 -0.001489 0.000000 -0.000851 0.000000
# 3 -0.004524 -0.001489 0.011540 0.000000 -0.005243 0.000000
# 4 0.000000 0.000000 0.000000 0.020508 0.000000 -0.001087
# 5 -0.001871 -0.000851 -0.005243 0.000000 0.028119 0.000000
# 6 0.000000 0.000000 0.000000 -0.001087 0.000000 0.018135
#
#
# Mechanical properties :
#
#
# Convention : Reuss Voigt Hill
#
# Bulk Modulus (GPa) = 90.75484 119.89405 105.32444
# Shear Modulus (GPa) = 46.08453 54.61021 50.34737
#
# Velocity S-wave (km/s) = 4.19236 4.56371 4.38197
# Velocity P-wave (km/s) = 7.61885 8.57296 8.10995
#
# Compressibility (1/GPa) = 0.01101870
#
# Stress axis : x y z
#
# Youngs Moduli (GPa) = 112.64485 242.57230 86.65622
#
# Poissons Ratio (x) = 0.18121 0.39204
# Poissons Ratio (y) = 0.08415 0.12907
# Poissons Ratio (z) = 0.50962 0.36129
#
# Static dielectric constant tensor:
#      x y z
#    x 2.105990 0.000000 -0.099360 
#    y 0.000000 1.539860 0.000000 
#    z -0.099360 0.000000 2.106560 
# 
# From -- ./inp_files/31250.got.cif
#   From: 2010.05.17/outbox.cif.g08.bks.cpg/sg13_16_cif.got.tgz:31250.got - 2010.06.03 16:44:36.
