data_PCOD9232449
_publ_section_title
;
Structure prediction by ZEFSAII (Michael W. Deem and Ramdas Pophale) SiO2 
 PCOD9232449
Probable space group: P 2/C
;
_chemical_formula_sum "Si O2"
_cell_formula_units_Z 20
_cell_length_a 10.399238
_cell_length_b 19.342678
_cell_length_c 9.898503
_cell_angle_alpha 90.000000
_cell_angle_beta 151.688599
_cell_angle_gamma 90.000000
_cell_volume 944.294044
_symmetry_space_group_name_H-M "P 2/C"
_symmetry_group_IT_number 13
_symmetry_cell_setting 'monoclinic'
loop_
_space_group_symop_operation_xyz
x,y,z
-x,y,1/2-z
-x,-y,-z
x,-y,1/2+z
loop_
_atom_site_type_symbol
_atom_site_label
_atom_site_fract_x
_atom_site_fract_y
_atom_site_fract_z
Si Si1 0.375345 0.902759 0.985369
Si Si2 0.733688 0.753785 0.578537
Si Si3 0.977029 0.564498 0.076305
Si Si4 0.515764 0.338923 0.416926
Si Si5 0.265883 0.945020 0.420590
O O1 0.500000 0.903827 0.250000
O O2 0.613817 0.903941 0.094801
O O3 0.207766 0.832369 0.818405
O O4 0.219124 0.975657 0.826928
O O5 0.611785 0.711203 0.589961
O O6 0.000000 0.725113 0.750000
O O7 0.500000 0.756639 0.250000
O O8 0.195076 0.628059 0.272730
O O9 0.000000 0.538194 0.250000
O O10 0.000000 0.500000 0.000000
O O11 0.684384 0.596386 0.780167
O O12 0.500000 0.307564 0.250000
O O13 0.000000 0.918504 0.250000
O O14 0.500000 0.946659 0.750000
#
# Coordination Sequence:
#
# PCOD9232449 Si02
#       5
#     4   4   4   4   4
#     4   9  21  38  58  83 117 152 191 245 296 343
#     4  11  23  39  59  85 116 154 196 238 288 343
#     4  10  21  38  61  88 117 150 187 232 282 332
#     4  10  22  40  59  85 120 153 189 234 282 335
#     4  10  21  37  58  84 113 149 195 242 294 352
#
# _framework density 21.179843000000002
#
# number of rings (size 3 to 8) (size 9 to 14) (size 15 to 20)
#    0.000    2.000    0.000    2.400    0.000   13.600 
#    0.000    3.000    0.000    0.000    0.000    0.000 
#    0.000    0.000    0.000    0.000    0.000    0.000 
#
# Total GULP energy -111681.334640 kJ/mol
# GULP energy per Si atom -5584.066732 kJ/mol
# Density = 2.113164 g / cm^3
# Si number density = 21.179843 Si / 1000 Ang^3
#
#
#
# Elastic Constant Matrix: (Units=GPa)
#
#
# Indices 1 2 3 4 5 6 
#
# 1 189.2205 46.2641 22.6172 0.0000 -8.3942 0.0000
# 2 46.2641 42.6763 1.0541 0.0000 -23.8994 0.0000
# 3 22.6172 1.0541 57.9941 0.0000 7.2031 0.0000
# 4 0.0000 0.0000 0.0000 7.2334 0.0000 -19.9056
# 5 -8.3942 -23.8994 7.2031 0.0000 36.4349 0.0000
# 6 0.0000 0.0000 0.0000 -19.9056 0.0000 71.4094
#
#
#
# Elastic Compliance Matrix: (Units=1/GPa)
#
#
# Indices 1 2 3 4 5 6 
#
# 1 0.008238 -0.011940 -0.002316 0.000000 -0.005477 0.000000
# 2 -0.011940 0.055172 -0.000512 0.000000 0.033541 0.000000
# 3 -0.002316 -0.000512 0.018723 0.000000 -0.004571 0.000000
# 4 0.000000 0.000000 0.000000 0.593596 0.000000 0.165467
# 5 -0.005477 0.033541 -0.004571 0.000000 0.049089 0.000000
# 6 0.000000 0.000000 0.000000 0.165467 0.000000 0.060128
#
#
# Mechanical properties :
#
#
# Convention : Reuss Voigt Hill
#
# Bulk Modulus (GPa) = 19.01226 47.75131 33.38179
# Shear Modulus (GPa) = 6.00950 37.67924 21.84437
#
# Velocity S-wave (km/s) = 1.68628 4.22241 3.21499
# Velocity P-wave (km/s) = 3.57595 6.80928 5.43846
#
# Compressibility (1/GPa) = 0.05259763
#
# Stress axis : x y z
#
# Youngs Moduli (GPa) = 121.38760 18.12502 53.40969
#
# Poissons Ratio (x) = 0.21642 0.12367
# Poissons Ratio (y) = 1.44942 0.02735
# Poissons Ratio (z) = 0.28108 0.00928
#
# Static dielectric constant tensor:
#      x y z
#    x 1.808840 0.000000 -0.031160 
#    y 0.000000 1.760900 0.000000 
#    z -0.031160 0.000000 1.719340 
# 
# From -- ./inp_files/9953.got.cif
#   From: 2010.05.17/outbox.cif.g08.bks.cpg/sg13_5_cif.got.tgz:9953.got - 2010.06.03 16:44:36.
