data_PCOD9232080
_publ_section_title
;
Structure prediction by ZEFSAII (Michael W. Deem and Ramdas Pophale) SiO2 
 PCOD9232080
Probable space group: P 2/C
;
_chemical_formula_sum "Si O2"
_cell_formula_units_Z 30
_cell_length_a 12.471409
_cell_length_b 5.362316
_cell_length_c 25.173051
_cell_angle_alpha 90.000000
_cell_angle_beta 84.736068
_cell_angle_gamma 90.000000
_cell_volume 1676.364038
_symmetry_space_group_name_H-M "P 2/C"
_symmetry_group_IT_number 13
_symmetry_cell_setting 'monoclinic'
loop_
_space_group_symop_operation_xyz
x,y,z
-x,y,1/2-z
-x,-y,-z
x,-y,1/2+z
loop_
_atom_site_type_symbol
_atom_site_label
_atom_site_fract_x
_atom_site_fract_y
_atom_site_fract_z
Si Si1 0.728440 0.849571 0.652009
Si Si2 0.941349 0.261761 0.939661
Si Si3 0.850156 0.127546 0.835920
Si Si4 0.080994 0.756148 0.938110
Si Si5 0.362103 0.364282 0.705911
Si Si6 0.000000 0.605672 0.250000
Si Si7 0.398011 0.329123 0.826674
Si Si8 0.196387 0.743194 0.740485
O O1 0.817184 0.785272 0.604291
O O2 0.656916 0.597975 0.661123
O O3 0.785925 0.900059 0.706759
O O4 0.659462 0.096719 0.642073
O O5 0.006803 0.517998 0.925957
O O6 0.858991 0.196996 0.896503
O O7 0.018203 0.018851 0.937138
O O8 0.892033 0.285018 0.000843
O O9 0.737915 0.228287 0.817130
O O10 0.954095 0.240671 0.801466
O O11 0.850685 0.850119 0.812362
O O12 0.383676 0.270146 0.764538
O O13 0.473995 0.350035 0.669967
O O14 0.312895 0.637685 0.718928
O O15 0.105697 0.453609 0.262249
#
# Coordination Sequence:
#
# PCOD9232080 Si02
#       8
#     4   4   4   4   4   2   4   4
#     4  11  21  35  58  80 110 145 189 232 273 327
#     4  10  23  38  60  82 113 150 186 229 273 336
#     4  11  21  34  55  81 113 149 182 229 282 338
#     4  10  22  41  58  83 111 150 192 225 275 332
#     4   9  21  35  52  79 114 144 188 221 284 340
#     4  10  22  32  48  84 116 148 176 224 286 344
#     4  10  21  36  56  81 110 147 185 233 277 332
#     4  10  21  33  50  83 112 150 178 224 281 342
#
# _framework density 17.895873999999999
#
# number of rings (size 3 to 8) (size 9 to 14) (size 15 to 20)
#    0.000    1.867    1.333    2.000    9.333    1.067 
#    0.000    0.000    0.000    1.600    0.000    0.000 
#    0.000    0.000    0.000    0.000    0.000    0.000 
#
# Total GULP energy -167069.728703 kJ/mol
# GULP energy per Si atom -5568.990957 kJ/mol
# Density = 1.785514 g / cm^3
# Si number density = 17.895874 Si / 1000 Ang^3
#
#
#
# Elastic Constant Matrix: (Units=GPa)
#
#
# Indices 1 2 3 4 5 6 
#
# 1 81.0515 22.8788 36.0542 0.0000 -4.1189 0.0000
# 2 22.8788 73.5890 10.0838 0.0000 -7.6950 0.0000
# 3 36.0542 10.0838 65.5182 0.0000 -0.2162 0.0000
# 4 0.0000 0.0000 0.0000 11.2263 0.0000 -6.0568
# 5 -4.1189 -7.6950 -0.2162 0.0000 16.6800 0.0000
# 6 0.0000 0.0000 0.0000 -6.0568 0.0000 4.6504
#
#
#
# Elastic Compliance Matrix: (Units=1/GPa)
#
#
# Indices 1 2 3 4 5 6 
#
# 1 0.017622 -0.003984 -0.009076 0.000000 0.002396 0.000000
# 2 -0.003984 0.015496 -0.000172 0.000000 0.006163 0.000000
# 3 -0.009076 -0.000172 0.020277 0.000000 -0.002058 0.000000
# 4 0.000000 0.000000 0.000000 0.299604 0.000000 0.390215
# 5 0.002396 0.006163 -0.002058 0.000000 0.063360 0.000000
# 6 0.000000 0.000000 0.000000 0.390215 0.000000 0.723266
#
#
# Mechanical properties :
#
#
# Convention : Reuss Voigt Hill
#
# Bulk Modulus (GPa) = 37.13369 39.79915 38.46642
# Shear Modulus (GPa) = 4.25508 16.58746 10.42127
#
# Velocity S-wave (km/s) = 1.54365 3.04779 2.41577
# Velocity P-wave (km/s) = 4.89612 5.88837 5.41502
#
# Compressibility (1/GPa) = 0.02692973
#
# Stress axis : x y z
#
# Youngs Moduli (GPa) = 56.74885 64.53395 49.31697
#
# Poissons Ratio (x) = 0.25713 0.44759
# Poissons Ratio (y) = 0.22611 0.00848
# Poissons Ratio (z) = 0.51504 0.01110
#
# Static dielectric constant tensor:
#      x y z
#    x 1.597030 0.000000 0.023000 
#    y 0.000000 1.732010 0.000000 
#    z 0.023000 0.000000 1.627340 
# 
# From -- ./inp_files/85858.got.cif
#   From: 2010.05.17/outbox.cif.g08.bks.cpg/sg13_43_cif.got.tgz:85858.got - 2010.06.03 16:44:36.
