data_PCOD9232857
_publ_section_title
;
Structure prediction by ZEFSAII (Michael W. Deem and Ramdas Pophale) SiO2 
 PCOD9232857
Probable space group: P 2/C
;
_chemical_formula_sum "Si O2"
_cell_formula_units_Z 26
_cell_length_a 18.643470
_cell_length_b 5.320218
_cell_length_c 15.462988
_cell_angle_alpha 90.000000
_cell_angle_beta 53.460284
_cell_angle_gamma 90.000000
_cell_volume 1232.268642
_symmetry_space_group_name_H-M "P 2/C"
_symmetry_group_IT_number 13
_symmetry_cell_setting 'monoclinic'
loop_
_space_group_symop_operation_xyz
x,y,z
-x,y,1/2-z
-x,-y,-z
x,-y,1/2+z
loop_
_atom_site_type_symbol
_atom_site_label
_atom_site_fract_x
_atom_site_fract_y
_atom_site_fract_z
Si Si1 0.615712 0.252654 0.894954
Si Si2 0.661601 0.964243 0.547963
Si Si3 0.500000 0.289655 0.250000
Si Si4 0.986422 0.250758 0.567598
Si Si5 0.823802 0.762362 0.526329
Si Si6 0.203256 0.261599 0.839600
Si Si7 0.448489 0.348414 0.933837
O O1 0.702987 0.263647 0.774992
O O2 0.529021 0.163908 0.903724
O O3 0.635279 0.101971 0.968489
O O4 0.590520 0.525153 0.952357
O O5 0.590121 0.865496 0.669317
O O6 0.755837 0.839097 0.499728
O O7 0.636360 0.258138 0.562115
O O8 0.498712 0.458957 0.165576
O O9 0.881763 0.267255 0.665099
O O10 0.000000 0.500000 0.500000
O O11 0.070446 0.245921 0.572247
O O12 0.000000 0.000000 0.500000
O O13 0.802875 0.499902 0.590435
O O14 0.807656 0.998513 0.602193
#
# Coordination Sequence:
#
# PCOD9232857 Si02
#       7
#     4   4   2   4   4   4   4
#     4  10  23  37  55  81 119 160 195 241 301 355
#     4  11  23  36  57  84 116 157 194 251 295 355
#     4  10  22  36  56  82 110 152 208 240 286 342
#     4   8  16  35  57  88 115 145 189 245 290 344
#     4  10  22  36  63  90 117 150 199 248 293 348
#     4  10  21  38  64  88 116 155 201 240 296 356
#     4  10  22  39  54  78 122 155 202 244 294 353
#
# _framework density 21.099297
#
# number of rings (size 3 to 8) (size 9 to 14) (size 15 to 20)
#    0.000    2.154    0.000    1.846   10.769    0.000 
#    0.000    0.769    0.000    0.000    0.000    0.000 
#    0.000    0.000    0.000    0.000    0.000    0.000 
#
# Total GULP energy -144742.441547 kJ/mol
# GULP energy per Si atom -5567.016983 kJ/mol
# Density = 2.105127 g / cm^3
# Si number density = 21.099297 Si / 1000 Ang^3
#
#
#
# Elastic Constant Matrix: (Units=GPa)
#
#
# Indices 1 2 3 4 5 6 
#
# 1 140.4759 7.2556 19.6509 0.0000 -24.9226 0.0000
# 2 7.2556 67.7651 5.9024 0.0000 -2.4771 0.0000
# 3 19.6509 5.9024 41.2367 0.0000 -11.1764 0.0000
# 4 0.0000 0.0000 0.0000 18.8255 0.0000 -2.8309
# 5 -24.9226 -2.4771 -11.1764 0.0000 28.5175 0.0000
# 6 0.0000 0.0000 0.0000 -2.8309 0.0000 26.3706
#
#
#
# Elastic Compliance Matrix: (Units=1/GPa)
#
#
# Indices 1 2 3 4 5 6 
#
# 1 0.008633 -0.000486 -0.002250 0.000000 0.006621 0.000000
# 2 -0.000486 0.014977 -0.001874 0.000000 0.000142 0.000000
# 3 -0.002250 -0.001874 0.027986 0.000000 0.008839 0.000000
# 4 0.000000 0.000000 0.000000 0.053991 0.000000 0.005796
# 5 0.006621 0.000142 0.008839 0.000000 0.044329 0.000000
# 6 0.000000 0.000000 0.000000 0.005796 0.000000 0.038543
#
#
# Mechanical properties :
#
#
# Convention : Reuss Voigt Hill
#
# Bulk Modulus (GPa) = 23.59777 35.01061 29.30419
# Shear Modulus (GPa) = 23.60658 29.18731 26.39694
#
# Velocity S-wave (km/s) = 3.34852 3.72335 3.54090
# Velocity P-wave (km/s) = 5.11455 5.92568 5.53499
#
# Compressibility (1/GPa) = 0.04237689
#
# Stress axis : x y z
#
# Youngs Moduli (GPa) = 115.83243 66.76771 35.73171
#
# Poissons Ratio (x) = 0.03247 0.08040
# Poissons Ratio (y) = 0.05634 0.06695
# Poissons Ratio (z) = 0.26062 0.12510
#
# Static dielectric constant tensor:
#      x y z
#    x 1.891130 0.000000 -0.001710 
#    y 0.000000 1.936490 0.000000 
#    z -0.001710 0.000000 1.689300 
# 
# From -- ./inp_files/52209.got.cif
#   From: 2010.05.17/outbox.cif.g08.bks.cpg/sg13_27_cif.got.tgz:52209.got - 2010.06.03 16:44:36.
