data_PCOD9232267
_publ_section_title
;
Structure prediction by ZEFSAII (Michael W. Deem and Ramdas Pophale) SiO2 
 PCOD9232267
Probable space group: P 2/C
;
_chemical_formula_sum "Si O2"
_cell_formula_units_Z 18
_cell_length_a 10.448719
_cell_length_b 9.054064
_cell_length_c 8.495048
_cell_angle_alpha 90.000000
_cell_angle_beta 85.930967
_cell_angle_gamma 90.000000
_cell_volume 801.634371
_symmetry_space_group_name_H-M "P 2/C"
_symmetry_group_IT_number 13
_symmetry_cell_setting 'monoclinic'
loop_
_space_group_symop_operation_xyz
x,y,z
-x,y,1/2-z
-x,-y,-z
x,-y,1/2+z
loop_
_atom_site_type_symbol
_atom_site_label
_atom_site_fract_x
_atom_site_fract_y
_atom_site_fract_z
Si Si1 0.209249 0.228291 0.525386
Si Si2 0.500000 0.489752 0.750000
Si Si3 0.685126 0.454382 0.489219
Si Si4 0.859801 0.040255 0.678605
Si Si5 0.943525 0.719219 0.931901
O O1 0.303575 0.366684 0.501664
O O2 0.218210 0.135734 0.686471
O O3 0.067159 0.303146 0.531862
O O4 0.203095 0.111675 0.379781
O O5 0.608080 0.399964 0.647505
O O6 0.412037 0.583017 0.641287
O O7 0.825120 0.390847 0.454912
O O8 0.885103 0.132412 0.516081
O O9 0.000000 0.020286 0.750000
O O10 0.000000 0.713770 0.750000
#
# Coordination Sequence:
#
# PCOD9232267 Si02
#       5
#     4   2   4   4   4
#     4  11  21  37  61  91 124 155 192 241 300 361
#     4  10  24  42  60  84 118 162 204 250 298 332
#     4  11  23  41  64  86 117 158 206 249 289 350
#     4  10  21  36  55  88 132 161 180 226 306 375
#     4  11  21  36  61  95 124 150 188 243 307 361
#
# _framework density 22.454125999999999
#
# number of rings (size 3 to 8) (size 9 to 14) (size 15 to 20)
#    0.000    1.333    0.000    8.000    0.000    2.667 
#    0.000    3.333    0.000   22.667    0.000    0.000 
#    0.000    0.000    0.000    0.000    0.000    0.000 
#
# Total GULP energy -100353.466422 kJ/mol
# GULP energy per Si atom -5575.192579 kJ/mol
# Density = 2.240302 g / cm^3
# Si number density = 22.454126 Si / 1000 Ang^3
#
#
#
# Elastic Constant Matrix: (Units=GPa)
#
#
# Indices 1 2 3 4 5 6 
#
# 1 87.1842 54.7830 41.9720 0.0000 -12.5593 0.0000
# 2 54.7830 125.6053 53.3392 0.0000 1.1284 0.0000
# 3 41.9720 53.3392 143.4513 0.0000 -21.6777 0.0000
# 4 0.0000 0.0000 0.0000 -27.2886 0.0000 -24.3119
# 5 -12.5593 1.1284 -21.6777 0.0000 30.0965 0.0000
# 6 0.0000 0.0000 0.0000 -24.3119 0.0000 -10.2117
#
#
#
# Elastic Compliance Matrix: (Units=1/GPa)
#
#
# Indices 1 2 3 4 5 6 
#
# 1 0.017594 -0.007082 -0.001532 0.000000 0.006504 0.000000
# 2 -0.007082 0.012595 -0.003511 0.000000 -0.005956 0.000000
# 3 -0.001532 -0.003511 0.009704 0.000000 0.006482 0.000000
# 4 0.000000 0.000000 0.000000 0.032687 0.000000 -0.077821
# 5 0.006504 -0.005956 0.006482 0.000000 0.040833 0.000000
# 6 0.000000 0.000000 0.000000 -0.077821 0.000000 0.087350
#
#
# Mechanical properties :
#
#
# Convention : Reuss Voigt Hill
#
# Bulk Modulus (GPa) = 63.92246 72.93658 68.42952
# Shear Modulus (GPa) = 21.71773 12.26235 16.99004
#
# Velocity S-wave (km/s) = 3.11336 2.33943 2.75372
# Velocity P-wave (km/s) = 6.43847 6.31270 6.37590
#
# Compressibility (1/GPa) = 0.01564395
#
# Stress axis : x y z
#
# Youngs Moduli (GPa) = 56.83683 79.39840 103.04732
#
# Poissons Ratio (x) = 0.56228 0.15784
# Poissons Ratio (y) = 0.40250 0.36181
# Poissons Ratio (z) = 0.08706 0.27878
#
# Static dielectric constant tensor:
#      x y z
#    x 1.773860 0.000000 -0.031560 
#    y 0.000000 1.918080 0.000000 
#    z -0.031560 0.000000 1.988290 
# 
# From -- ./inp_files/14563.got.cif
#   From: 2010.05.17/outbox.cif.g08.bks.cpg/sg13_8_cif.got.tgz:14563.got - 2010.06.03 16:44:36.
