data_PCOD9232910
_publ_section_title
;
Structure prediction by ZEFSAII (Michael W. Deem and Ramdas Pophale) SiO2 
 PCOD9232910
Probable space group: P 2/C
;
_chemical_formula_sum "Si O2"
_cell_formula_units_Z 20
_cell_length_a 8.029989
_cell_length_b 4.975924
_cell_length_c 22.425305
_cell_angle_alpha 90.000000
_cell_angle_beta 66.742542
_cell_angle_gamma 90.000000
_cell_volume 823.226965
_symmetry_space_group_name_H-M "P 2/C"
_symmetry_group_IT_number 13
_symmetry_cell_setting 'monoclinic'
loop_
_space_group_symop_operation_xyz
x,y,z
-x,y,1/2-z
-x,-y,-z
x,-y,1/2+z
loop_
_atom_site_type_symbol
_atom_site_label
_atom_site_fract_x
_atom_site_fract_y
_atom_site_fract_z
Si Si1 0.345854 0.105454 0.841182
Si Si2 0.038194 0.652902 0.314226
Si Si3 0.844771 0.163635 0.387288
Si Si4 0.503271 0.400287 0.367542
Si Si5 0.188636 0.655867 0.476380
O O1 0.506300 0.310959 0.835870
O O2 0.209365 0.142944 0.917364
O O3 0.230536 0.214428 0.802825
O O4 0.421238 0.809155 0.832117
O O5 0.012444 0.364237 0.349060
O O6 0.000000 0.626359 0.250000
O O7 0.894013 0.862363 0.362537
O O8 0.683863 0.281382 0.369493
O O9 0.795018 0.196645 0.463214
O O10 0.355201 0.451197 0.440913
O O11 0.000000 0.500000 0.500000
#
# Coordination Sequence:
#
# PCOD9232910 Si02
#       5
#     4   4   4   4   4
#     4  10  22  41  64  90 132 160 213 245 321 374
#     4  12  26  45  65  89 123 174 222 258 300 376
#     4  12  24  41  67  96 129 160 212 263 321 363
#     4  10  23  39  63 102 129 160 198 263 326 378
#     4  10  21  38  68  97 129 165 202 255 320 391
#
# _framework density 24.294635
#
# number of rings (size 3 to 8) (size 9 to 14) (size 15 to 20)
#    1.200    0.000    2.000    4.800    2.800    2.400 
#    0.000    6.000    0.000    0.000    0.000    0.000 
#    0.000    0.000    0.000    0.000    0.000    0.000 
#
# Total GULP energy -111952.801511 kJ/mol
# GULP energy per Si atom -5597.640076 kJ/mol
# Density = 2.423934 g / cm^3
# Si number density = 24.294635 Si / 1000 Ang^3
#
#
#
# Elastic Constant Matrix: (Units=GPa)
#
#
# Indices 1 2 3 4 5 6 
#
# 1 79.8854 -18.1040 9.5620 0.0000 4.0741 0.0000
# 2 -18.1040 82.2302 10.7018 0.0000 -6.2403 0.0000
# 3 9.5620 10.7018 132.0090 0.0000 15.4249 0.0000
# 4 0.0000 0.0000 0.0000 -27.3278 0.0000 30.8011
# 5 4.0741 -6.2403 15.4249 0.0000 32.7939 0.0000
# 6 0.0000 0.0000 0.0000 30.8011 0.0000 17.1619
#
#
#
# Elastic Compliance Matrix: (Units=1/GPa)
#
#
# Indices 1 2 3 4 5 6 
#
# 1 0.013376 0.003054 -0.001154 0.000000 -0.000538 0.000000
# 2 0.003054 0.013268 -0.001637 0.000000 0.002915 0.000000
# 3 -0.001154 -0.001637 0.008265 0.000000 -0.004056 0.000000
# 4 0.000000 0.000000 0.000000 -0.012105 0.000000 0.021726
# 5 -0.000538 0.002915 -0.004056 0.000000 0.033023 0.000000
# 6 0.000000 0.000000 0.000000 0.021726 0.000000 0.019276
#
#
# Mechanical properties :
#
#
# Convention : Reuss Voigt Hill
#
# Bulk Modulus (GPa) = 28.22078 33.16046 30.69062
# Shear Modulus (GPa) = 57.87846 23.98991 40.93419
#
# Velocity S-wave (km/s) = 4.88623 3.14579 4.10921
# Velocity P-wave (km/s) = 6.59356 5.18398 5.93079
#
# Compressibility (1/GPa) = 0.03543488
#
# Stress axis : x y z
#
# Youngs Moduli (GPa) = 74.76309 75.37085 120.98510
#
# Poissons Ratio (x) = -0.23019 0.13957
# Poissons Ratio (y) = -0.22833 0.19811
# Poissons Ratio (z) = 0.08625 0.12342
#
# Static dielectric constant tensor:
#      x y z
#    x 1.945270 0.000000 -0.058370 
#    y 0.000000 1.872080 0.000000 
#    z -0.058370 0.000000 1.879870 
# 
# From -- ./inp_files/74449.got.cif
#   From: 2010.05.17/outbox.cif.g08.bks.cpg/sg13_38_cif.got.tgz:74449.got - 2010.06.03 16:44:36.
