data_PCOD9232814
_publ_section_title
;
Structure prediction by ZEFSAII (Michael W. Deem and Ramdas Pophale) SiO2 
 PCOD9232814
Probable space group: P 2/C
;
_chemical_formula_sum "Si O2"
_cell_formula_units_Z 26
_cell_length_a 22.859689
_cell_length_b 5.591565
_cell_length_c 24.965305
_cell_angle_alpha 90.000000
_cell_angle_beta 18.053064
_cell_angle_gamma 90.000000
_cell_volume 988.914829
_symmetry_space_group_name_H-M "P 2/C"
_symmetry_group_IT_number 13
_symmetry_cell_setting 'monoclinic'
loop_
_space_group_symop_operation_xyz
x,y,z
-x,y,1/2-z
-x,-y,-z
x,-y,1/2+z
loop_
_atom_site_type_symbol
_atom_site_label
_atom_site_fract_x
_atom_site_fract_y
_atom_site_fract_z
Si Si1 0.800184 0.502843 0.005314
Si Si2 0.000000 0.858927 0.250000
Si Si3 0.832337 0.295515 0.681461
Si Si4 0.172929 0.326502 0.219030
Si Si5 0.503963 0.007946 0.919981
Si Si6 0.333794 0.237373 0.977679
Si Si7 0.232973 0.653260 0.851327
O O1 0.916746 0.305271 0.870070
O O2 0.671837 0.636000 0.073977
O O3 0.953686 0.688152 0.895898
O O4 0.713248 0.386951 0.134070
O O5 0.172652 0.032967 0.115362
O O6 0.800150 0.494013 0.755586
O O7 0.837895 0.418747 0.618015
O O8 0.040024 0.187587 0.514159
O O9 0.646677 0.138338 0.835499
O O10 0.265498 0.422694 0.082963
O O11 0.291974 0.082168 0.120855
O O12 0.592027 0.750451 0.834869
O O13 0.512085 0.118290 0.851635
#
# Coordination Sequence:
#
# PCOD9232814 Si02
#       7
#     4   2   4   4   4   4   4
#     4  11  21  42  63  93 123 171 214 271 334 401
#     4  12  18  38  66  88 120 158 222 270 326 388
#     4  10  21  42  63  86 128 177 209 266 327 402
#     4   9  19  40  65  90 126 159 223 275 324 383
#     4  10  21  40  59  95 124 159 217 271 326 392
#     4  10  21  38  62  95 122 156 219 276 321 384
#     4  10  24  40  61  90 128 170 214 259 336 403
#
# _framework density 26.291443000000001
#
# number of rings (size 3 to 8) (size 9 to 14) (size 15 to 20)
#    0.923    0.923    3.077    0.923    0.000    4.308 
#    8.308    4.615    0.000    0.000    0.000    0.000 
#    0.000    0.000    0.000    0.000    0.000    0.000 
#
# Total GULP energy -145170.186657 kJ/mol
# GULP energy per Si atom -5583.468718 kJ/mol
# Density = 2.623160 g / cm^3
# Si number density = 26.291443 Si / 1000 Ang^3
#
#
#
# Elastic Constant Matrix: (Units=GPa)
#
#
# Indices 1 2 3 4 5 6 
#
# 1 216.4859 50.8901 29.6845 0.0000 -9.2202 0.0000
# 2 50.8901 58.3657 40.6601 0.0000 -1.4935 0.0000
# 3 29.6845 40.6601 97.2665 0.0000 -9.4321 0.0000
# 4 0.0000 0.0000 0.0000 17.2097 0.0000 3.0929
# 5 -9.2202 -1.4935 -9.4321 0.0000 50.9960 0.0000
# 6 0.0000 0.0000 0.0000 3.0929 0.0000 50.7305
#
#
#
# Elastic Compliance Matrix: (Units=1/GPa)
#
#
# Indices 1 2 3 4 5 6 
#
# 1 0.005877 -0.005527 0.000615 0.000000 0.001015 0.000000
# 2 -0.005527 0.029441 -0.010828 0.000000 -0.002140 0.000000
# 3 0.000615 -0.010828 0.014866 0.000000 0.002544 0.000000
# 4 0.000000 0.000000 0.000000 0.058750 0.000000 -0.003582
# 5 0.001015 -0.002140 0.002544 0.000000 0.020201 0.000000
# 6 0.000000 0.000000 0.000000 -0.003582 0.000000 0.019930
#
#
# Mechanical properties :
#
#
# Convention : Reuss Voigt Hill
#
# Bulk Modulus (GPa) = 53.46158 68.28748 60.87453
# Shear Modulus (GPa) = 26.76933 40.51279 33.64106
#
# Velocity S-wave (km/s) = 3.19435 3.92970 3.58095
# Velocity P-wave (km/s) = 5.82954 6.82787 6.34836
#
# Compressibility (1/GPa) = 0.01870502
#
# Stress axis : x y z
#
# Youngs Moduli (GPa) = 170.14342 33.96622 67.26631
#
# Poissons Ratio (x) = 0.18774 -0.04138
# Poissons Ratio (y) = 0.94042 0.72835
# Poissons Ratio (z) = -0.10467 0.36778
#
# Static dielectric constant tensor:
#      x y z
#    x 2.059560 0.000000 0.057370 
#    y 0.000000 2.171370 0.000000 
#    z 0.057370 0.000000 2.152370 
# 
# From -- ./inp_files/93726.got.cif
#   From: 2010.05.17/outbox.cif.g08.bks.cpg/sg13_47_cif.got.tgz:93726.got - 2010.06.03 16:44:36.
