data_PCOD9232571
_publ_section_title
;
Structure prediction by ZEFSAII (Michael W. Deem and Ramdas Pophale) SiO2 
 PCOD9232571
Probable space group: P 2/C
;
_chemical_formula_sum "Si O2"
_cell_formula_units_Z 24
_cell_length_a 9.710347
_cell_length_b 15.809766
_cell_length_c 9.849658
_cell_angle_alpha 90.000000
_cell_angle_beta 45.796589
_cell_angle_gamma 90.000000
_cell_volume 1083.979839
_symmetry_space_group_name_H-M "P 2/C"
_symmetry_group_IT_number 13
_symmetry_cell_setting 'monoclinic'
loop_
_space_group_symop_operation_xyz
x,y,z
-x,y,1/2-z
-x,-y,-z
x,-y,1/2+z
loop_
_atom_site_type_symbol
_atom_site_label
_atom_site_fract_x
_atom_site_fract_y
_atom_site_fract_z
Si Si1 0.110167 0.684655 0.858758
Si Si2 0.421721 0.126777 0.452451
Si Si3 0.809755 0.714448 0.284071
Si Si4 0.688788 0.411250 0.061290
Si Si5 0.000000 0.829308 0.750000
Si Si6 0.669934 0.943782 0.023514
Si Si7 0.000000 0.463842 0.250000
O O1 0.264614 0.666046 0.868136
O O2 0.114734 0.600011 0.766840
O O3 0.128071 0.766409 0.753490
O O4 0.902765 0.697781 0.073716
O O5 0.500000 0.152428 0.250000
O O6 0.310667 0.201400 0.605759
O O7 0.588643 0.090539 0.435734
O O8 0.290202 0.043667 0.517419
O O9 0.684213 0.634106 0.418559
O O10 0.000000 0.717495 0.250000
O O11 0.500000 0.453102 0.250000
O O12 0.863457 0.476185 0.931805
O O13 0.143185 0.889594 0.568994
O O14 0.500000 0.934077 0.250000
#
# Coordination Sequence:
#
# PCOD9232571 Si02
#       7
#     4   4   4   4   2   4   2
#     4  10  23  43  61  91 128 161 205 263 317 374
#     4  10  22  40  64  94 130 168 217 274 307 366
#     4  10  21  37  62  92 123 160 205 258 315 367
#     4  11  23  39  66  92 118 162 205 257 317 376
#     4  11  24  40  65  88 126 178 209 250 326 391
#     4  10  23  43  61  93 134 171 215 265 317 373
#     4  11  22  46  63  86 132 156 199 268 308 391
#
# _framework density 22.140635
#
# number of rings (size 3 to 8) (size 9 to 14) (size 15 to 20)
#    0.000    1.667    2.500    2.000    8.167    0.667 
#    0.000    5.000    0.000    0.000    0.000    0.000 
#    0.000    0.000    0.000    0.000    0.000    0.000 
#
# Total GULP energy -133988.376500 kJ/mol
# GULP energy per Si atom -5582.849021 kJ/mol
# Density = 2.209024 g / cm^3
# Si number density = 22.140635 Si / 1000 Ang^3
#
#
#
# Elastic Constant Matrix: (Units=GPa)
#
#
# Indices 1 2 3 4 5 6 
#
# 1 17.3660 -1.9233 -5.4056 0.0000 8.5419 0.0000
# 2 -1.9233 99.9984 7.2727 0.0000 -13.0330 0.0000
# 3 -5.4056 7.2727 59.7997 0.0000 -7.6808 0.0000
# 4 0.0000 0.0000 0.0000 21.0437 0.0000 3.0295
# 5 8.5419 -13.0330 -7.6808 0.0000 30.3612 0.0000
# 6 0.0000 0.0000 0.0000 3.0295 0.0000 4.7233
#
#
#
# Elastic Compliance Matrix: (Units=1/GPa)
#
#
# Indices 1 2 3 4 5 6 
#
# 1 0.067844 -0.001417 0.003902 0.000000 -0.018709 0.000000
# 2 -0.001417 0.010653 -0.000812 0.000000 0.004766 0.000000
# 3 0.003902 -0.000812 0.017559 0.000000 0.002996 0.000000
# 4 0.000000 0.000000 0.000000 0.052355 0.000000 -0.033580
# 5 -0.018709 0.004766 0.002996 0.000000 0.041004 0.000000
# 6 0.000000 0.000000 0.000000 -0.033580 0.000000 0.233255
#
#
# Mechanical properties :
#
#
# Convention : Reuss Voigt Hill
#
# Bulk Modulus (GPa) = 10.06014 19.67243 14.86629
# Shear Modulus (GPa) = 11.05079 23.04034 17.04557
#
# Velocity S-wave (km/s) = 2.23652 3.22939 2.77768
# Velocity P-wave (km/s) = 3.35007 4.77596 4.12509
#
# Compressibility (1/GPa) = 0.09940218
#
# Stress axis : x y z
#
# Youngs Moduli (GPa) = 14.73977 93.86906 56.95185
#
# Poissons Ratio (x) = 0.13304 -0.22223
# Poissons Ratio (y) = 0.02089 0.04622
# Poissons Ratio (z) = -0.05752 0.07618
#
# Static dielectric constant tensor:
#      x y z
#    x 1.854350 0.000000 0.024440 
#    y 0.000000 1.791900 0.000000 
#    z 0.024440 0.000000 1.858470 
# 
# From -- ./inp_files/34349.got.cif
#   From: 2010.05.17/outbox.cif.g08.bks.cpg/sg13_18_cif.got.tgz:34349.got - 2010.06.03 16:44:36.
