data_PCOD9232583
_publ_section_title
;
Structure prediction by ZEFSAII (Michael W. Deem and Ramdas Pophale) SiO2 
 PCOD9232583
Probable space group: P 2/C
;
_chemical_formula_sum "Si O2"
_cell_formula_units_Z 24
_cell_length_a 12.788772
_cell_length_b 11.647508
_cell_length_c 17.969588
_cell_angle_alpha 90.000000
_cell_angle_beta 23.606571
_cell_angle_gamma 90.000000
_cell_volume 1071.896251
_symmetry_space_group_name_H-M "P 2/C"
_symmetry_group_IT_number 13
_symmetry_cell_setting 'monoclinic'
loop_
_space_group_symop_operation_xyz
x,y,z
-x,y,1/2-z
-x,-y,-z
x,-y,1/2+z
loop_
_atom_site_type_symbol
_atom_site_label
_atom_site_fract_x
_atom_site_fract_y
_atom_site_fract_z
Si Si1 0.201778 0.705832 0.472470
Si Si2 0.370079 0.785023 0.946361
Si Si3 0.548290 0.343214 0.543262
Si Si4 0.131566 0.071988 0.349422
Si Si5 0.177878 0.154091 0.737900
Si Si6 0.297080 0.585292 0.725238
O O1 0.500000 0.705748 0.250000
O O2 0.230270 0.670290 0.539853
O O3 0.060432 0.828406 0.554205
O O4 0.001520 0.617696 0.563698
O O5 0.610204 0.871629 0.784471
O O6 0.496618 0.658814 0.860780
O O7 0.262199 0.811391 0.099778
O O8 0.122183 0.806380 0.056048
O O9 0.373204 0.228535 0.660314
O O10 0.370060 0.453025 0.678175
O O11 0.651322 0.366946 0.392741
O O12 0.197300 0.980424 0.242075
O O13 0.000000 0.000000 0.500000
#
# Coordination Sequence:
#
# PCOD9232583 Si02
#       6
#     4   4   4   4   4   4
#     4  11  24  40  60  91 125 164 206 252 305 367
#     4   9  21  40  58  91 119 155 202 249 310 360
#     4  10  21  39  68  94 121 155 206 255 312 365
#     4  11  24  40  61  84 124 165 205 249 300 365
#     4  10  21  37  63  89 120 156 199 255 305 367
#     4   9  21  41  65  93 122 158 199 258 308 367
#
# _framework density 22.390226999999999
#
# number of rings (size 3 to 8) (size 9 to 14) (size 15 to 20)
#    0.000    2.000    0.000    2.000    7.000    0.667 
#    6.000    0.000    0.000    0.000    0.000    0.000 
#    0.000    0.000    0.000    0.000    0.000    0.000 
#
# Total GULP energy -134151.599822 kJ/mol
# GULP energy per Si atom -5589.649993 kJ/mol
# Density = 2.233927 g / cm^3
# Si number density = 22.390227 Si / 1000 Ang^3
#
#
#
# Elastic Constant Matrix: (Units=GPa)
#
#
# Indices 1 2 3 4 5 6 
#
# 1 41.2498 -1.6652 10.6611 0.0000 -4.6372 0.0000
# 2 -1.6652 81.2845 36.6919 0.0000 -8.7726 0.0000
# 3 10.6611 36.6919 123.4514 0.0000 -21.6171 0.0000
# 4 0.0000 0.0000 0.0000 7.1808 0.0000 0.6566
# 5 -4.6372 -8.7726 -21.6171 0.0000 25.5285 0.0000
# 6 0.0000 0.0000 0.0000 0.6566 0.0000 17.0885
#
#
#
# Elastic Compliance Matrix: (Units=1/GPa)
#
#
# Indices 1 2 3 4 5 6 
#
# 1 0.025252 0.001848 -0.002132 0.000000 0.003417 0.000000
# 2 0.001848 0.014395 -0.004125 0.000000 0.001790 0.000000
# 3 -0.002132 -0.004125 0.010795 0.000000 0.007336 0.000000
# 4 0.000000 0.000000 0.000000 0.139751 0.000000 -0.005370
# 5 0.003417 0.001790 0.007336 0.000000 0.046620 0.000000
# 6 0.000000 0.000000 0.000000 -0.005370 0.000000 0.058725
#
#
# Mechanical properties :
#
#
# Convention : Reuss Voigt Hill
#
# Bulk Modulus (GPa) = 24.02323 37.48461 30.75392
# Shear Modulus (GPa) = 15.71186 23.31275 19.51231
#
# Velocity S-wave (km/s) = 2.65189 3.23027 2.95526
# Velocity P-wave (km/s) = 4.48657 5.53992 5.04083
#
# Compressibility (1/GPa) = 0.04162638
#
# Stress axis : x y z
#
# Youngs Moduli (GPa) = 39.60044 69.46644 92.63501
#
# Poissons Ratio (x) = -0.12840 0.19748
# Poissons Ratio (y) = -0.07320 0.38210
# Poissons Ratio (z) = 0.08442 0.28653
#
# Static dielectric constant tensor:
#      x y z
#    x 1.863680 0.000000 0.073810 
#    y 0.000000 1.789620 0.000000 
#    z 0.073810 0.000000 1.877670 
# 
# From -- ./inp_files/36992.got.cif
#   From: 2010.05.17/outbox.cif.g08.bks.cpg/sg13_19_cif.got.tgz:36992.got - 2010.06.03 16:44:36.
