data_PCOD9232840
_publ_section_title
;
Structure prediction by ZEFSAII (Michael W. Deem and Ramdas Pophale) SiO2 
 PCOD9232840
Probable space group: P 2/C
;
_chemical_formula_sum "Si O2"
_cell_formula_units_Z 22
_cell_length_a 12.667686
_cell_length_b 12.218951
_cell_length_c 15.649258
_cell_angle_alpha 90.000000
_cell_angle_beta 152.588007
_cell_angle_gamma 90.000000
_cell_volume 1115.184448
_symmetry_space_group_name_H-M "P 2/C"
_symmetry_group_IT_number 13
_symmetry_cell_setting 'monoclinic'
loop_
_space_group_symop_operation_xyz
x,y,z
-x,y,1/2-z
-x,-y,-z
x,-y,1/2+z
loop_
_atom_site_type_symbol
_atom_site_label
_atom_site_fract_x
_atom_site_fract_y
_atom_site_fract_z
Si Si1 0.500000 0.932793 0.750000
Si Si2 0.499436 0.376298 0.966029
Si Si3 0.728709 0.697477 0.471154
Si Si4 0.067289 0.072209 0.388581
Si Si5 0.306158 0.800355 0.762662
Si Si6 0.957505 0.371246 0.969886
O O1 0.471828 0.864276 0.817196
O O2 0.264217 0.002764 0.576757
O O3 0.684601 0.371135 0.023097
O O4 0.257909 0.350278 0.746355
O O5 0.500000 0.500000 0.000000
O O6 0.561837 0.282055 0.078436
O O7 0.500000 0.702923 0.250000
O O8 0.802277 0.818233 0.548322
O O9 0.908946 0.650769 0.534795
O O10 0.000000 0.016758 0.250000
O O11 0.861341 0.116378 0.302945
O O12 0.153939 0.717721 0.594349
O O13 0.000000 0.500000 0.000000
#
# Coordination Sequence:
#
# PCOD9232840 Si02
#       6
#     2   4   4   4   4   4
#     4  12  28  44  62  98 136 168 216 284 330 366
#     4  11  21  39  65  96 128 169 213 261 321 391
#     4   9  19  37  62  87 122 164 215 261 302 385
#     4  11  22  42  70  91 121 175 226 263 323 387
#     4  11  25  43  64  95 133 168 219 266 325 393
#     4  10  21  38  63  94 128 167 212 259 326 386
#
# _framework density 19.727678000000001
#
# number of rings (size 3 to 8) (size 9 to 14) (size 15 to 20)
#    0.000    1.455    4.545    0.545    0.000    3.636 
#    0.000    1.818    0.000    0.000    0.000    0.000 
#    0.000    0.000    0.000    0.000    0.000    0.000 
#
# Total GULP energy -122626.098187 kJ/mol
# GULP energy per Si atom -5573.913554 kJ/mol
# Density = 1.968278 g / cm^3
# Si number density = 19.727678 Si / 1000 Ang^3
#
#
#
# Elastic Constant Matrix: (Units=GPa)
#
#
# Indices 1 2 3 4 5 6 
#
# 1 84.7342 42.1060 31.4434 0.0000 -5.8699 0.0000
# 2 42.1060 76.1871 42.6133 0.0000 -2.7643 0.0000
# 3 31.4434 42.6133 100.9214 0.0000 -21.6665 0.0000
# 4 0.0000 0.0000 0.0000 26.7654 0.0000 -3.6517
# 5 -5.8699 -2.7643 -21.6665 0.0000 27.3101 0.0000
# 6 0.0000 0.0000 0.0000 -3.6517 0.0000 27.5066
#
#
#
# Elastic Compliance Matrix: (Units=1/GPa)
#
#
# Indices 1 2 3 4 5 6 
#
# 1 0.016551 -0.008388 -0.001246 0.000000 0.001720 0.000000
# 2 -0.008388 0.021983 -0.007929 0.000000 -0.005868 0.000000
# 3 -0.001246 -0.007929 0.016169 0.000000 0.011757 0.000000
# 4 0.000000 0.000000 0.000000 0.038051 0.000000 0.005051
# 5 0.001720 -0.005868 0.011757 0.000000 0.045720 0.000000
# 6 0.000000 0.000000 0.000000 0.005051 0.000000 0.037026
#
#
# Mechanical properties :
#
#
# Convention : Reuss Voigt Hill
#
# Bulk Modulus (GPa) = 51.07670 54.90755 52.99213
# Shear Modulus (GPa) = 23.02557 26.02843 24.52700
#
# Velocity S-wave (km/s) = 3.42009 3.63628 3.52984
# Velocity P-wave (km/s) = 6.44540 6.74709 6.59797
#
# Compressibility (1/GPa) = 0.01957840
#
# Stress axis : x y z
#
# Youngs Moduli (GPa) = 60.41844 45.48940 61.84815
#
# Poissons Ratio (x) = 0.38157 0.07704
# Poissons Ratio (y) = 0.50680 0.49036
# Poissons Ratio (z) = 0.07526 0.36066
#
# Static dielectric constant tensor:
#      x y z
#    x 1.789670 0.000000 0.039990 
#    y 0.000000 1.722700 0.000000 
#    z 0.039990 0.000000 1.816910 
# 
# From -- ./inp_files/51271.got.cif
#   From: 2010.05.17/outbox.cif.g08.bks.cpg/sg13_26_cif.got.tgz:51271.got - 2010.06.03 16:44:36.
