data_PCOD9232108
_publ_section_title
;
Structure prediction by ZEFSAII (Michael W. Deem and Ramdas Pophale) SiO2 
 PCOD9232108
Probable space group: P 2/C
;
_chemical_formula_sum "Si O2"
_cell_formula_units_Z 30
_cell_length_a 14.366390
_cell_length_b 17.038243
_cell_length_c 5.399295
_cell_angle_alpha 90.000000
_cell_angle_beta 78.492894
_cell_angle_gamma 90.000000
_cell_volume 1295.064090
_symmetry_space_group_name_H-M "P 2/C"
_symmetry_group_IT_number 13
_symmetry_cell_setting 'monoclinic'
loop_
_space_group_symop_operation_xyz
x,y,z
-x,y,1/2-z
-x,-y,-z
x,-y,1/2+z
loop_
_atom_site_type_symbol
_atom_site_label
_atom_site_fract_x
_atom_site_fract_y
_atom_site_fract_z
Si Si1 0.106602 0.026151 0.150668
Si Si2 0.364944 0.803371 0.401977
Si Si3 0.608573 0.468041 0.182407
Si Si4 0.135255 0.709327 0.028981
Si Si5 0.865141 0.203601 0.471223
Si Si6 0.108394 0.529165 0.155949
Si Si7 0.364352 0.714724 0.904226
Si Si8 0.500000 0.052350 0.750000
O O1 0.098542 0.115744 0.076697
O O2 0.000000 0.992944 0.250000
O O3 0.154170 0.018281 0.394803
O O4 0.250079 0.804377 0.464531
O O5 0.394413 0.767389 0.652591
O O6 0.410588 0.888095 0.325432
O O7 0.394423 0.748839 0.153914
O O8 0.500000 0.498946 0.250000
O O9 0.653337 0.491900 0.418799
O O10 0.606417 0.375086 0.148323
O O11 0.104210 0.756632 0.289234
O O12 0.107574 0.619116 0.073250
O O13 0.105465 0.746715 0.784789
O O14 0.249820 0.713260 0.966566
O O15 0.151486 0.519647 0.406124
O O16 0.000000 0.500498 0.250000
O O17 0.500000 0.000000 0.500000
#
# Coordination Sequence:
#
# PCOD9232108 Si02
#       8
#     4   4   4   4   4   4   4   2
#     4  10  21  36  56  83 111 143 180 215 267 335
#     4  10  23  39  59  84 110 147 186 225 279 340
#     4  10  21  34  51  80 110 138 179 224 263 315
#     4  10  21  36  56  82 109 143 191 232 269 330
#     4  10  21  38  57  83 114 143 184 231 277 327
#     4  10  21  36  54  80 114 153 194 236 286 334
#     4  10  21  38  58  81 111 148 186 224 277 334
#     4  12  26  42  62  90 114 140 188 234 276 342
#
# _framework density 23.164874999999999
#
# number of rings (size 3 to 8) (size 9 to 14) (size 15 to 20)
#    0.000    1.867    0.000    3.200    1.867    3.200 
#    0.000    0.000    0.000    0.000    0.000    0.000 
#    0.000    0.000    0.000    0.000    0.000    0.000 
#
# Total GULP energy -167767.633104 kJ/mol
# GULP energy per Si atom -5592.254437 kJ/mol
# Density = 2.311215 g / cm^3
# Si number density = 23.164875 Si / 1000 Ang^3
#
#
#
# Elastic Constant Matrix: (Units=GPa)
#
#
# Indices 1 2 3 4 5 6 
#
# 1 58.7838 1.9637 42.4301 0.0000 2.7938 0.0000
# 2 1.9637 143.1159 88.1537 0.0000 9.3362 0.0000
# 3 42.4301 88.1537 241.9777 0.0000 22.3900 0.0000
# 4 0.0000 0.0000 0.0000 58.8100 0.0000 -1.4102
# 5 2.7938 9.3362 22.3900 0.0000 23.3403 0.0000
# 6 0.0000 0.0000 0.0000 -1.4102 0.0000 35.9022
#
#
#
# Elastic Compliance Matrix: (Units=1/GPa)
#
#
# Indices 1 2 3 4 5 6 
#
# 1 0.020138 0.002438 -0.004506 0.000000 0.000937 0.000000
# 2 0.002438 0.009309 -0.003783 0.000000 -0.000386 0.000000
# 3 -0.004506 -0.003783 0.006706 0.000000 -0.004381 0.000000
# 4 0.000000 0.000000 0.000000 0.017020 0.000000 0.000669
# 5 0.000937 -0.000386 -0.004381 0.000000 0.047089 0.000000
# 6 0.000000 0.000000 0.000000 0.000669 0.000000 0.027880
#
#
# Mechanical properties :
#
#
# Convention : Reuss Voigt Hill
#
# Bulk Modulus (GPa) = 40.89743 78.77472 59.83607
# Shear Modulus (GPa) = 33.78486 44.36581 39.07534
#
# Velocity S-wave (km/s) = 3.82311 4.38107 4.11157
# Velocity P-wave (km/s) = 6.09766 7.72474 6.95892
#
# Compressibility (1/GPa) = 0.02445141
#
# Stress axis : x y z
#
# Youngs Moduli (GPa) = 49.65738 107.41804 149.11305
#
# Poissons Ratio (x) = -0.26190 0.67191
# Poissons Ratio (y) = -0.12107 0.56413
# Poissons Ratio (z) = 0.22376 0.40639
#
# Static dielectric constant tensor:
#      x y z
#    x 1.975300 0.000000 0.066450 
#    y 0.000000 1.780380 0.000000 
#    z 0.066450 0.000000 1.994150 
# 
# From -- ./inp_files/6265.got.cif
#   From: 2010.05.17/outbox.cif.g08.bks.cpg/sg13_4_cif.got.tgz:6265.got - 2010.06.03 16:44:36.
