data_PCOD9232298
_publ_section_title
;
Structure prediction by ZEFSAII (Michael W. Deem and Ramdas Pophale) SiO2 
 PCOD9232298
Probable space group: P 2/C
;
_chemical_formula_sum "Si O2"
_cell_formula_units_Z 30
_cell_length_a 16.980886
_cell_length_b 5.580396
_cell_length_c 16.118668
_cell_angle_alpha 90.000000
_cell_angle_beta 127.759983
_cell_angle_gamma 90.000000
_cell_volume 1207.541116
_symmetry_space_group_name_H-M "P 2/C"
_symmetry_group_IT_number 13
_symmetry_cell_setting 'monoclinic'
loop_
_space_group_symop_operation_xyz
x,y,z
-x,y,1/2-z
-x,-y,-z
x,-y,1/2+z
loop_
_atom_site_type_symbol
_atom_site_label
_atom_site_fract_x
_atom_site_fract_y
_atom_site_fract_z
Si Si1 0.500000 0.804903 0.750000
Si Si2 0.364949 0.234350 0.424046
Si Si3 0.667690 0.525285 0.768892
Si Si4 0.041166 0.255338 0.602783
Si Si5 0.455746 0.856747 0.364955
Si Si6 0.985761 0.245026 0.374941
Si Si7 0.802099 0.229691 0.055639
Si Si8 0.194528 0.732423 0.526960
O O1 0.593828 0.645155 0.787427
O O2 0.487752 0.962515 0.660035
O O3 0.355945 0.408306 0.340559
O O4 0.454421 0.309154 0.543971
O O5 0.260624 0.203515 0.401824
O O6 0.403020 0.987410 0.407511
O O7 0.634858 0.250705 0.747872
O O8 0.770388 0.645861 0.860106
O O9 0.073722 0.504419 0.665502
O O10 0.924227 0.252103 0.549498
O O11 0.043174 0.255974 0.503406
O O12 0.077194 0.000230 0.660712
O O13 0.076839 0.230411 0.368210
O O14 0.775361 0.496631 0.006018
O O15 0.772126 0.994675 0.981830
#
# Coordination Sequence:
#
# PCOD9232298 Si02
#       8
#     2   4   4   4   4   4   4   4
#     4  10  22  36  56  80 100 140 186 240 268 326
#     4  10  23  37  54  74 112 143 190 222 286 331
#     4  11  23  36  56  78 107 147 181 234 280 335
#     4   8  14  28  47  78 109 138 169 224 262 325
#     4  10  22  39  54  75 104 149 186 232 281 331
#     4   8  14  27  50  76 109 137 175 214 276 307
#     4  10  21  36  57  85 110 146 182 236 267 334
#     4  10  22  34  57  84 113 141 187 226 280 317
#
# _framework density 24.843872999999999
#
# number of rings (size 3 to 8) (size 9 to 14) (size 15 to 20)
#    0.000    2.400    0.000    1.600    9.333    0.000 
#    0.000    0.000    0.000    0.800    0.000    0.000 
#    0.000    0.000    0.000    0.000    0.000    0.000 
#
# Total GULP energy -167408.461747 kJ/mol
# GULP energy per Si atom -5580.282058 kJ/mol
# Density = 2.478733 g / cm^3
# Si number density = 24.843873 Si / 1000 Ang^3
#
#
#
# Elastic Constant Matrix: (Units=GPa)
#
#
# Indices 1 2 3 4 5 6 
#
# 1 116.9929 38.1241 31.8715 0.0000 -38.1323 0.0000
# 2 38.1241 146.1552 28.2845 0.0000 -1.0837 0.0000
# 3 31.8715 28.2845 59.4626 0.0000 -0.5352 0.0000
# 4 0.0000 0.0000 0.0000 -6.2034 0.0000 17.1237
# 5 -38.1323 -1.0837 -0.5352 0.0000 26.5730 0.0000
# 6 0.0000 0.0000 0.0000 17.1237 0.0000 9.5410
#
#
#
# Elastic Compliance Matrix: (Units=1/GPa)
#
#
# Indices 1 2 3 4 5 6 
#
# 1 0.023571 -0.003870 -0.010492 0.000000 0.033456 0.000000
# 2 -0.003870 0.008173 -0.001860 0.000000 -0.005258 0.000000
# 3 -0.010492 -0.001860 0.023194 0.000000 -0.014665 0.000000
# 4 0.000000 0.000000 0.000000 -0.027074 0.000000 0.048591
# 5 0.033456 -0.005258 -0.014665 0.000000 0.085132 0.000000
# 6 0.000000 0.000000 0.000000 0.048591 0.000000 0.017603
#
#
# Mechanical properties :
#
#
# Convention : Reuss Voigt Hill
#
# Bulk Modulus (GPa) = 44.45876 57.68564 51.07220
# Shear Modulus (GPa) = 29.31834 20.93751 25.12793
#
# Velocity S-wave (km/s) = 3.43899 2.90619 3.18375
# Velocity P-wave (km/s) = 5.80543 5.87630 5.84097
#
# Compressibility (1/GPa) = 0.02249276
#
# Stress axis : x y z
#
# Youngs Moduli (GPa) = 42.42417 122.36044 43.11462
#
# Poissons Ratio (x) = 0.47353 0.45237
# Poissons Ratio (y) = 0.16418 0.08021
# Poissons Ratio (z) = 0.44512 0.22765
#
# Static dielectric constant tensor:
#      x y z
#    x 2.066670 0.000000 0.204150 
#    y 0.000000 2.216190 0.000000 
#    z 0.204150 0.000000 2.219360 
# 
# From -- ./inp_files/54681.got.cif
#   From: 2010.05.17/outbox.cif.g08.bks.cpg/sg13_28_cif.got.tgz:54681.got - 2010.06.03 16:44:36.
