data_PCOD9232532
_publ_section_title
;
Structure prediction by ZEFSAII (Michael W. Deem and Ramdas Pophale) SiO2 
 PCOD9232532
Probable space group: P 2/C
;
_chemical_formula_sum "Si O2"
_cell_formula_units_Z 32
_cell_length_a 26.819395
_cell_length_b 5.209484
_cell_length_c 10.933200
_cell_angle_alpha 90.000000
_cell_angle_beta 123.774919
_cell_angle_gamma 90.000000
_cell_volume 1269.729158
_symmetry_space_group_name_H-M "P 2/C"
_symmetry_group_IT_number 13
_symmetry_cell_setting 'monoclinic'
loop_
_space_group_symop_operation_xyz
x,y,z
-x,y,1/2-z
-x,-y,-z
x,-y,1/2+z
loop_
_atom_site_type_symbol
_atom_site_label
_atom_site_fract_x
_atom_site_fract_y
_atom_site_fract_z
Si Si1 0.092076 0.344703 0.066315
Si Si2 0.410300 0.642359 0.311788
Si Si3 0.191269 0.116510 0.469951
Si Si4 0.702553 0.384229 0.024233
Si Si5 0.449033 0.861003 0.775473
Si Si6 0.659965 0.880547 0.058896
Si Si7 0.167720 0.158663 0.699117
Si Si8 0.940186 0.368750 0.212412
O O1 0.064912 0.403287 0.895572
O O2 0.147728 0.547041 0.153203
O O3 0.054819 0.421797 0.136578
O O4 0.112847 0.050402 0.110007
O O5 0.438587 0.361101 0.360403
O O6 0.378807 0.775149 0.383040
O O7 0.459093 0.851945 0.336250
O O8 0.356178 0.608297 0.141458
O O9 0.241029 0.301330 0.479295
O O10 0.205969 0.071660 0.631949
O O11 0.124099 0.230046 0.382660
O O12 0.187944 0.888474 0.366451
O O13 0.707598 0.658750 0.093703
O O14 0.687942 0.162110 0.102778
O O15 0.500000 0.779073 0.750000
O O16 0.386972 0.889343 0.616912
O O17 0.000000 0.222471 0.250000
#
# Coordination Sequence:
#
# PCOD9232532 Si02
#       8
#     4   4   4   4   4   4   4   4
#     4  10  21  40  62  88 121 159 197 249 312 381
#     4  10  21  39  59  87 123 163 203 251 305 358
#     4  10  23  42  63  94 121 164 207 263 311 383
#     4  10  23  39  59  87 117 160 205 258 304 367
#     4  10  21  37  60  93 125 159 204 249 297 364
#     4  10  22  40  61  86 124 160 206 249 307 356
#     4  10  22  40  63  90 123 153 205 254 311 369
#     4  10  21  41  64  91 125 162 205 259 320 380
#
# _framework density 25.202224999999999
#
# number of rings (size 3 to 8) (size 9 to 14) (size 15 to 20)
#    0.000    2.000    0.000    2.250    1.750    5.000 
#    4.500   20.625    0.000    0.000    0.000    0.000 
#    0.000    0.000    0.000    0.000    0.000    0.000 
#
# Total GULP energy -178754.987924 kJ/mol
# GULP energy per Si atom -5586.093373 kJ/mol
# Density = 2.514486 g / cm^3
# Si number density = 25.202225 Si / 1000 Ang^3
#
#
#
# Elastic Constant Matrix: (Units=GPa)
#
#
# Indices 1 2 3 4 5 6 
#
# 1 115.2333 15.8024 8.2945 0.0000 -14.0482 0.0000
# 2 15.8024 75.0389 17.3877 0.0000 17.0868 0.0000
# 3 8.2945 17.3877 96.7562 0.0000 -6.9872 0.0000
# 4 0.0000 0.0000 0.0000 25.4744 0.0000 -1.2877
# 5 -14.0482 17.0868 -6.9872 0.0000 47.5284 0.0000
# 6 0.0000 0.0000 0.0000 -1.2877 0.0000 20.0955
#
#
#
# Elastic Compliance Matrix: (Units=1/GPa)
#
#
# Indices 1 2 3 4 5 6 
#
# 1 0.009545 -0.002883 -0.000022 0.000000 0.003854 0.000000
# 2 -0.002883 0.016312 -0.003203 0.000000 -0.007187 0.000000
# 3 -0.000022 -0.003203 0.011113 0.000000 0.002779 0.000000
# 4 0.000000 0.000000 0.000000 0.039383 0.000000 0.002524
# 5 0.003854 -0.007187 0.002779 0.000000 0.025172 0.000000
# 6 0.000000 0.000000 0.000000 0.002524 0.000000 0.049924
#
#
# Mechanical properties :
#
#
# Convention : Reuss Voigt Hill
#
# Bulk Modulus (GPa) = 40.39598 41.11086 40.75342
# Shear Modulus (GPa) = 29.08390 34.98925 32.03658
#
# Velocity S-wave (km/s) = 3.40077 3.73009 3.56923
# Velocity P-wave (km/s) = 5.61105 5.90755 5.76121
#
# Compressibility (1/GPa) = 0.02475494
#
# Stress axis : x y z
#
# Youngs Moduli (GPa) = 104.76899 61.30334 89.98088
#
# Poissons Ratio (x) = 0.17671 0.00197
# Poissons Ratio (y) = 0.30201 0.28824
# Poissons Ratio (z) = 0.00229 0.19638
#
# Static dielectric constant tensor:
#      x y z
#    x 1.982530 0.000000 0.011830 
#    y 0.000000 2.098180 0.000000 
#    z 0.011830 0.000000 2.063000 
# 
# From -- ./inp_files/41399.got.cif
#   From: 2010.05.17/outbox.cif.g08.bks.cpg/sg13_21_cif.got.tgz:41399.got - 2010.06.03 16:44:36.
