data_PCOD9232902
_publ_section_title
;
Structure prediction by ZEFSAII (Michael W. Deem and Ramdas Pophale) SiO2 
 PCOD9232902
Probable space group: P 2/C
;
_chemical_formula_sum "Si O2"
_cell_formula_units_Z 28
_cell_length_a 5.682054
_cell_length_b 15.036634
_cell_length_c 19.209332
_cell_angle_alpha 90.000000
_cell_angle_beta 53.714030
_cell_angle_gamma 90.000000
_cell_volume 1322.947907
_symmetry_space_group_name_H-M "P 2/C"
_symmetry_group_IT_number 13
_symmetry_cell_setting 'monoclinic'
loop_
_space_group_symop_operation_xyz
x,y,z
-x,y,1/2-z
-x,-y,-z
x,-y,1/2+z
loop_
_atom_site_type_symbol
_atom_site_label
_atom_site_fract_x
_atom_site_fract_y
_atom_site_fract_z
Si Si1 0.253277 0.123330 0.579583
Si Si2 0.627083 0.510335 0.126371
Si Si3 0.500000 0.659608 0.250000
Si Si4 0.698068 0.345596 0.333252
Si Si5 0.000000 0.764266 0.250000
Si Si6 0.801315 0.386593 0.475075
Si Si7 0.090027 0.947929 0.553780
Si Si8 0.840900 0.778947 0.551759
O O1 0.166885 0.178005 0.662382
O O2 0.589516 0.093828 0.513400
O O3 0.185033 0.181024 0.521755
O O4 0.090180 0.027384 0.609021
O O5 0.670890 0.591841 0.169919
O O6 0.376011 0.440273 0.189694
O O7 0.911322 0.448357 0.074140
O O8 0.573712 0.558993 0.061722
O O9 0.743275 0.711704 0.252815
O O10 0.712313 0.367772 0.412396
O O11 0.440679 0.274759 0.373299
O O12 0.000000 0.311574 0.250000
O O13 0.895087 0.291979 0.491399
O O14 0.889110 0.862009 0.594617
O O15 0.000000 0.000000 0.500000
#
# Coordination Sequence:
#
# PCOD9232902 Si02
#       8
#     4   4   2   4   2   4   4   4
#     4  10  22  44  70 100 133 174 218 284 357 423
#     4  10  23  39  60  91 131 182 231 280 350 400
#     4  12  28  44  66 106 142 188 226 294 348 416
#     4  11  23  38  63  90 135 182 233 290 341 405
#     4  12  30  42  74 108 146 178 228 292 350 422
#     4  10  21  39  63  87 127 175 236 285 333 415
#     4   9  20  40  74  91 126 171 218 272 345 424
#     4  10  21  38  67  97 126 177 228 284 346 419
#
# _framework density 21.164857000000001
#
# number of rings (size 3 to 8) (size 9 to 14) (size 15 to 20)
#    0.000    1.714    0.000    3.000   11.000    1.714 
#    0.000    0.000   37.714    0.000    0.000    0.000 
#    0.000    0.000    0.000    0.000    0.000    0.000 
#
# Total GULP energy -156276.956016 kJ/mol
# GULP energy per Si atom -5581.319858 kJ/mol
# Density = 2.111668 g / cm^3
# Si number density = 21.164857 Si / 1000 Ang^3
#
#
#
# Elastic Constant Matrix: (Units=GPa)
#
#
# Indices 1 2 3 4 5 6 
#
# 1 82.0463 70.7060 10.5178 0.0000 15.2385 0.0000
# 2 70.7060 178.6481 51.4926 0.0000 7.3410 0.0000
# 3 10.5178 51.4926 51.7175 0.0000 9.8389 0.0000
# 4 0.0000 0.0000 0.0000 6.0583 0.0000 19.3619
# 5 15.2385 7.3410 9.8389 0.0000 23.4760 0.0000
# 6 0.0000 0.0000 0.0000 19.3619 0.0000 33.1256
#
#
#
# Elastic Compliance Matrix: (Units=1/GPa)
#
#
# Indices 1 2 3 4 5 6 
#
# 1 0.023919 -0.011619 0.009743 0.000000 -0.015976 0.000000
# 2 -0.011619 0.013512 -0.012736 0.000000 0.008655 0.000000
# 3 0.009743 -0.012736 0.033122 0.000000 -0.016223 0.000000
# 4 0.000000 0.000000 0.000000 -0.190161 0.000000 0.111149
# 5 -0.015976 0.008655 -0.016223 0.000000 0.057060 0.000000
# 6 0.000000 0.000000 0.000000 0.111149 0.000000 -0.034778
#
#
# Mechanical properties :
#
#
# Convention : Reuss Voigt Hill
#
# Bulk Modulus (GPa) = 24.19628 64.20496 44.20062
# Shear Modulus (GPa) = -92.03553 24.51167 -33.76193
#
# Velocity S-wave (km/s) = -6.60148 3.40682 -3.99831
# Velocity P-wave (km/s) = 6.83000 6.77324 0.62132
#
# Compressibility (1/GPa) = 0.04132866
#
# Stress axis : x y z
#
# Youngs Moduli (GPa) = 41.80714 74.01088 30.19173
#
# Poissons Ratio (x) = 0.85991 -0.29416
# Poissons Ratio (y) = 0.48574 0.38453
# Poissons Ratio (z) = -0.40733 0.94263
#
# Static dielectric constant tensor:
#      x y z
#    x 1.825220 0.000000 0.024060 
#    y 0.000000 1.775700 0.000000 
#    z 0.024060 0.000000 1.773230 
# 
# From -- ./inp_files/61333.got.cif
#   From: 2010.05.17/outbox.cif.g08.bks.cpg/sg13_31_cif.got.tgz:61333.got - 2010.06.03 16:44:36.
