data_PCOD9232232
_publ_section_title
;
Structure prediction by ZEFSAII (Michael W. Deem and Ramdas Pophale) SiO2 
 PCOD9232232
Probable space group: P 2/C
;
_chemical_formula_sum "Si O2"
_cell_formula_units_Z 32
_cell_length_a 15.698219
_cell_length_b 17.487852
_cell_length_c 5.389821
_cell_angle_alpha 90.000000
_cell_angle_beta 85.707185
_cell_angle_gamma 90.000000
_cell_volume 1475.506346
_symmetry_space_group_name_H-M "P 2/C"
_symmetry_group_IT_number 13
_symmetry_cell_setting 'monoclinic'
loop_
_space_group_symop_operation_xyz
x,y,z
-x,y,1/2-z
-x,-y,-z
x,-y,1/2+z
loop_
_atom_site_type_symbol
_atom_site_label
_atom_site_fract_x
_atom_site_fract_y
_atom_site_fract_z
Si Si1 0.102759 0.040938 0.693204
Si Si2 0.627154 0.206921 0.983180
Si Si3 0.166337 0.210887 0.564475
Si Si4 0.596343 0.531064 0.987916
Si Si5 0.403046 0.969027 0.012867
Si Si6 0.623826 0.294061 0.482559
Si Si7 0.036931 0.587386 0.494415
Si Si8 0.828794 0.696817 0.940061
O O1 0.128106 0.126054 0.599507
O O2 0.000000 0.037774 0.750000
O O3 0.133043 0.984909 0.462226
O O4 0.730490 0.203239 0.963441
O O5 0.593654 0.121351 0.001012
O O6 0.599742 0.252776 0.233005
O O7 0.601284 0.246860 0.732648
O O8 0.143895 0.259713 0.320886
O O9 0.143872 0.255215 0.823356
O O10 0.639223 0.496428 0.223770
O O11 0.500000 0.500000 0.000000
O O12 0.588321 0.621250 0.003419
O O13 0.360599 0.003408 0.776629
O O14 0.500000 0.000000 0.000000
O O15 0.726537 0.304096 0.456949
O O16 0.135137 0.610975 0.512716
O O17 0.000000 0.620626 0.250000
O O18 0.000000 0.500000 0.500000
O O19 0.000000 0.624063 0.750000
#
# Coordination Sequence:
#
# PCOD9232232 Si02
#       8
#     4   4   4   4   4   4   4   4
#     4  10  21  36  53  80 115 147 192 238 289 345
#     4  10  21  38  61  85 118 156 199 247 292 355
#     4  10  21  36  59  85 111 153 199 239 297 340
#     4  10  21  40  60  88 119 146 190 246 299 361
#     4  10  21  38  56  84 123 154 199 242 293 357
#     4  10  21  40  61  87 117 155 203 246 299 352
#     4  10  21  38  56  82 120 150 191 236 289 350
#     4  10  21  38  58  85 116 152 198 244 286 356
#
# _framework density 21.687470999999999
#
# number of rings (size 3 to 8) (size 9 to 14) (size 15 to 20)
#    0.000    2.000    0.000    3.000    0.000    2.500 
#    4.500   15.000    0.000    0.000    0.000    0.000 
#    0.000    0.000    0.000    0.000    0.000    0.000 
#
# Total GULP energy -178540.546885 kJ/mol
# GULP energy per Si atom -5579.392090 kJ/mol
# Density = 2.163811 g / cm^3
# Si number density = 21.687471 Si / 1000 Ang^3
#
#
#
# Elastic Constant Matrix: (Units=GPa)
#
#
# Indices 1 2 3 4 5 6 
#
# 1 49.5475 43.2151 37.8948 0.0000 11.3837 0.0000
# 2 43.2151 163.2706 57.4808 0.0000 39.5463 0.0000
# 3 37.8948 57.4808 206.4408 0.0000 33.4110 0.0000
# 4 0.0000 0.0000 0.0000 55.3886 0.0000 -24.8090
# 5 11.3837 39.5463 33.4110 0.0000 25.4601 0.0000
# 6 0.0000 0.0000 0.0000 -24.8090 0.0000 109.7042
#
#
#
# Elastic Compliance Matrix: (Units=1/GPa)
#
#
# Indices 1 2 3 4 5 6 
#
# 1 0.028415 -0.006917 -0.003774 0.000000 0.002992 0.000000
# 2 -0.006917 0.011521 0.000581 0.000000 -0.015565 0.000000
# 3 -0.003774 0.000581 0.006663 0.000000 -0.007959 0.000000
# 4 0.000000 0.000000 0.000000 0.020089 0.000000 0.004543
# 5 0.002992 -0.015565 -0.007959 0.000000 0.072560 0.000000
# 6 0.000000 0.000000 0.000000 0.004543 0.000000 0.010143
#
#
# Mechanical properties :
#
#
# Convention : Reuss Voigt Hill
#
# Bulk Modulus (GPa) = 37.90945 77.38228 57.64586
# Shear Modulus (GPa) = 28.02627 56.82179 42.42403
#
# Velocity S-wave (km/s) = 3.59873 5.12417 4.42764
# Velocity P-wave (km/s) = 5.89793 8.41235 7.26475
#
# Compressibility (1/GPa) = 0.02637865
#
# Stress axis : x y z
#
# Youngs Moduli (GPa) = 35.19314 86.79715 150.07978
#
# Poissons Ratio (x) = 0.60036 0.56642
# Poissons Ratio (y) = 0.24342 -0.08717
# Poissons Ratio (z) = 0.13282 -0.05042
#
# Static dielectric constant tensor:
#      x y z
#    x 2.077810 0.000000 -0.182090 
#    y 0.000000 1.775900 0.000000 
#    z -0.182090 0.000000 1.942360 
# 
# From -- ./inp_files/6271.got.cif
#   From: 2010.05.17/outbox.cif.g08.bks.cpg/sg13_4_cif.got.tgz:6271.got - 2010.06.03 16:44:36.
