data_PCOD9232887
_publ_section_title
;
Structure prediction by ZEFSAII (Michael W. Deem and Ramdas Pophale) SiO2 
 PCOD9232887
Probable space group: P 2/C
;
_chemical_formula_sum "Si O2"
_cell_formula_units_Z 32
_cell_length_a 11.999803
_cell_length_b 8.010502
_cell_length_c 29.181574
_cell_angle_alpha 90.000000
_cell_angle_beta 149.105407
_cell_angle_gamma 90.000000
_cell_volume 1440.288228
_symmetry_space_group_name_H-M "P 2/C"
_symmetry_group_IT_number 13
_symmetry_cell_setting 'monoclinic'
loop_
_space_group_symop_operation_xyz
x,y,z
-x,y,1/2-z
-x,-y,-z
x,-y,1/2+z
loop_
_atom_site_type_symbol
_atom_site_label
_atom_site_fract_x
_atom_site_fract_y
_atom_site_fract_z
Si Si1 0.160887 0.254290 0.440923
Si Si2 0.528522 0.131011 0.874517
Si Si3 0.465729 0.777507 0.502317
Si Si4 0.280362 0.757061 0.688162
Si Si5 0.374674 0.616018 0.250802
Si Si6 0.113161 0.365508 0.940641
Si Si7 0.757197 0.994408 0.154497
Si Si8 0.182611 0.856374 0.556319
O O1 0.288416 0.144462 0.522171
O O2 0.328310 0.269206 0.457379
O O3 0.118802 0.435175 0.448128
O O4 0.918027 0.178421 0.350181
O O5 0.507090 0.299929 0.838292
O O6 0.307848 0.114197 0.824869
O O7 0.596750 0.964906 0.871901
O O8 0.295544 0.657502 0.466108
O O9 0.309107 0.894185 0.415371
O O10 0.586259 0.857390 0.588615
O O11 0.500000 0.850660 0.750000
O O12 0.358373 0.585227 0.740211
O O13 0.180474 0.743760 0.601333
O O14 0.500000 0.673962 0.250000
O O15 0.126872 0.678063 0.162521
O O16 0.149285 0.257990 0.999488
O O17 0.000000 0.049559 0.250000
O O18 0.000000 0.000000 0.500000
#
# Coordination Sequence:
#
# PCOD9232887 Si02
#       8
#     4   4   4   4   4   4   4   4
#     4  10  23  41  69  90 135 178 219 271 330 409
#     4  11  22  42  63  97 125 172 219 267 331 398
#     4  10  21  41  63  98 132 170 229 272 335 401
#     4  10  24  42  63  96 132 173 217 277 334 396
#     4  10  23  40  64  94 130 172 220 268 334 401
#     4  11  23  41  66  95 130 178 218 274 331 400
#     4  10  21  38  65  95 131 171 214 281 334 389
#     4  12  24  39  67  96 131 165 223 273 332 396
#
# _framework density 22.217775
#
# number of rings (size 3 to 8) (size 9 to 14) (size 15 to 20)
#    0.000    1.500    2.500    1.875    3.500    3.500 
#    0.000    0.000    0.000    1.500    0.000    0.000 
#    0.000    0.000    0.000    0.000    0.000    0.000 
#
# Total GULP energy -178149.240204 kJ/mol
# GULP energy per Si atom -5567.163756 kJ/mol
# Density = 2.216721 g / cm^3
# Si number density = 22.217775 Si / 1000 Ang^3
#
#
#
# Elastic Constant Matrix: (Units=GPa)
#
#
# Indices 1 2 3 4 5 6 
#
# 1 109.6864 10.5246 31.7149 0.0000 18.9327 0.0000
# 2 10.5246 47.1073 6.5962 0.0000 -1.7921 0.0000
# 3 31.7149 6.5962 82.1035 0.0000 25.1959 0.0000
# 4 0.0000 0.0000 0.0000 27.8129 0.0000 0.5757
# 5 18.9327 -1.7921 25.1959 0.0000 36.6648 0.0000
# 6 0.0000 0.0000 0.0000 0.5757 0.0000 37.0863
#
#
#
# Elastic Compliance Matrix: (Units=1/GPa)
#
#
# Indices 1 2 3 4 5 6 
#
# 1 0.010790 -0.002152 -0.002855 0.000000 -0.003715 0.000000
# 2 -0.002152 0.022134 -0.002053 0.000000 0.003604 0.000000
# 3 -0.002855 -0.002053 0.016507 0.000000 -0.009970 0.000000
# 4 0.000000 0.000000 0.000000 0.035966 0.000000 -0.000558
# 5 -0.003715 0.003604 -0.009970 0.000000 0.036220 0.000000
# 6 0.000000 0.000000 0.000000 -0.000558 0.000000 0.026973
#
#
# Mechanical properties :
#
#
# Convention : Reuss Voigt Hill
#
# Bulk Modulus (GPa) = 28.32024 37.39653 32.85839
# Shear Modulus (GPa) = 28.65666 32.98358 30.82012
#
# Velocity S-wave (km/s) = 3.59529 3.85718 3.72853
# Velocity P-wave (km/s) = 5.47806 6.05850 5.77557
#
# Compressibility (1/GPa) = 0.03531043
#
# Stress axis : x y z
#
# Youngs Moduli (GPa) = 92.67708 45.18030 60.58042
#
# Poissons Ratio (x) = 0.09724 0.17296
# Poissons Ratio (y) = 0.19946 0.12436
# Poissons Ratio (z) = 0.26460 0.09275
#
# Static dielectric constant tensor:
#      x y z
#    x 1.880610 0.000000 0.046580 
#    y 0.000000 1.875350 0.000000 
#    z 0.046580 0.000000 1.881350 
# 
# From -- ./inp_files/96707.got.cif
#   From: 2010.05.17/outbox.cif.g08.bks.cpg/sg13_49_cif.got.tgz:96707.got - 2010.06.03 16:44:36.
