data_PCOD9232622
_publ_section_title
;
Structure prediction by ZEFSAII (Michael W. Deem and Ramdas Pophale) SiO2 
 PCOD9232622
Probable space group: P 2/C
;
_chemical_formula_sum "Si O2"
_cell_formula_units_Z 30
_cell_length_a 10.516944
_cell_length_b 5.624305
_cell_length_c 28.076276
_cell_angle_alpha 90.000000
_cell_angle_beta 68.730504
_cell_angle_gamma 90.000000
_cell_volume 1547.604598
_symmetry_space_group_name_H-M "P 2/C"
_symmetry_group_IT_number 13
_symmetry_cell_setting 'monoclinic'
loop_
_space_group_symop_operation_xyz
x,y,z
-x,y,1/2-z
-x,-y,-z
x,-y,1/2+z
loop_
_atom_site_type_symbol
_atom_site_label
_atom_site_fract_x
_atom_site_fract_y
_atom_site_fract_z
Si Si1 0.274994 0.081454 0.293226
Si Si2 0.812445 0.425383 0.568542
Si Si3 0.731867 0.223224 0.310821
Si Si4 0.972690 0.887791 0.122858
Si Si5 0.500000 0.696298 0.250000
Si Si6 0.557699 0.631897 0.652833
Si Si7 0.948645 0.811063 0.968374
Si Si8 0.886271 0.283447 0.807490
O O1 0.275979 0.234830 0.245676
O O2 0.354192 0.188582 0.327134
O O3 0.121299 0.043172 0.329861
O O4 0.361888 0.850224 0.267494
O O5 0.867226 0.239843 0.600897
O O6 0.662295 0.512425 0.602033
O O7 0.829085 0.324073 0.512748
O O8 0.924858 0.633928 0.556920
O O9 0.575401 0.240235 0.349797
O O10 0.805992 0.467653 0.314950
O O11 0.803003 0.969073 0.313757
O O12 0.048308 0.715704 0.148686
O O13 0.073586 0.046519 0.077209
O O14 0.490957 0.555018 0.300544
O O15 0.000000 0.000000 0.000000
O O16 0.000000 0.279788 0.750000
#
# Coordination Sequence:
#
# PCOD9232622 Si02
#       8
#     4   4   4   4   2   4   4   4
#     4  12  22  35  59  91 126 171 205 266 317 375
#     4  10  21  37  65  96 121 156 206 280 340 375
#     4  12  26  43  57  91 136 173 223 248 304 387
#     4  11  23  38  64  89 128 169 215 264 321 385
#     4  12  20  36  52  94 128 166 202 246 330 390
#     4  12  23  34  63  90 128 167 206 266 330 381
#     4   9  20  39  61  97 121 151 210 274 344 378
#     4  12  28  41  62  87 132 183 219 255 297 380
#
# _framework density 19.384798
#
# number of rings (size 3 to 8) (size 9 to 14) (size 15 to 20)
#    0.000    0.800    6.667    1.200    3.733    0.000 
#    0.000    0.000    0.000    1.600    0.000    0.000 
#    0.000    0.000    0.000    0.000    0.000    0.000 
#
# Total GULP energy -167405.485524 kJ/mol
# GULP energy per Si atom -5580.182851 kJ/mol
# Density = 1.934068 g / cm^3
# Si number density = 19.384798 Si / 1000 Ang^3
#
#
#
# Elastic Constant Matrix: (Units=GPa)
#
#
# Indices 1 2 3 4 5 6 
#
# 1 39.4689 5.0491 -0.7718 0.0000 -1.0449 0.0000
# 2 5.0491 63.5286 4.6718 0.0000 -4.2293 0.0000
# 3 -0.7718 4.6718 79.7645 0.0000 -17.9035 0.0000
# 4 0.0000 0.0000 0.0000 -68.0189 0.0000 16.7459
# 5 -1.0449 -4.2293 -17.9035 0.0000 18.8930 0.0000
# 6 0.0000 0.0000 0.0000 16.7459 0.0000 37.8472
#
#
#
# Elastic Compliance Matrix: (Units=1/GPa)
#
#
# Indices 1 2 3 4 5 6 
#
# 1 0.025649 -0.001981 0.000741 0.000000 0.001677 0.000000
# 2 -0.001981 0.016134 -0.000226 0.000000 0.003288 0.000000
# 3 0.000741 -0.000226 0.015947 0.000000 0.015102 0.000000
# 4 0.000000 0.000000 0.000000 -0.013258 0.000000 0.005866
# 5 0.001677 0.003288 0.015102 0.000000 0.068070 0.000000
# 6 0.000000 0.000000 0.000000 0.005866 0.000000 0.023827
#
#
# Mechanical properties :
#
#
# Convention : Reuss Voigt Hill
#
# Bulk Modulus (GPa) = 18.24954 22.29557 20.27256
# Shear Modulus (GPa) = 31.73247 9.33180 20.53213
#
# Velocity S-wave (km/s) = 4.05035 2.19646 3.25805
# Velocity P-wave (km/s) = 5.59540 4.23782 4.96325
#
# Compressibility (1/GPa) = 0.05479589
#
# Stress axis : x y z
#
# Youngs Moduli (GPa) = 38.98829 61.98117 62.70746
#
# Poissons Ratio (x) = 0.12281 -0.04644
# Poissons Ratio (y) = 0.07725 0.01418
# Poissons Ratio (z) = -0.02887 0.01402
#
# Static dielectric constant tensor:
#      x y z
#    x 1.695370 0.000000 0.003130 
#    y 0.000000 1.789120 0.000000 
#    z 0.003130 0.000000 1.518280 
# 
# From -- ./inp_files/95629.got.cif
#   From: 2010.05.17/outbox.cif.g08.bks.cpg/sg13_48_cif.got.tgz:95629.got - 2010.06.03 16:44:36.
