data_PCOD9232102
_publ_section_title
;
Structure prediction by ZEFSAII (Michael W. Deem and Ramdas Pophale) SiO2 
 PCOD9232102
Probable space group: P 2/C
;
_chemical_formula_sum "Si O2"
_cell_formula_units_Z 20
_cell_length_a 19.915607
_cell_length_b 8.529621
_cell_length_c 8.940635
_cell_angle_alpha 90.000000
_cell_angle_beta 144.146696
_cell_angle_gamma 90.000000
_cell_volume 889.561039
_symmetry_space_group_name_H-M "P 2/C"
_symmetry_group_IT_number 13
_symmetry_cell_setting 'monoclinic'
loop_
_space_group_symop_operation_xyz
x,y,z
-x,y,1/2-z
-x,-y,-z
x,-y,1/2+z
loop_
_atom_site_type_symbol
_atom_site_label
_atom_site_fract_x
_atom_site_fract_y
_atom_site_fract_z
Si Si1 0.435036 0.793622 0.905196
Si Si2 0.708987 0.779169 0.403895
Si Si3 0.918746 0.579195 0.478190
Si Si4 0.229507 0.428249 0.041118
Si Si5 0.323657 0.965692 0.429100
O O1 0.352236 0.648662 0.796169
O O2 0.393663 0.857049 0.669824
O O3 0.403329 0.930197 0.963826
O O4 0.569777 0.763297 0.154344
O O5 0.754032 0.604438 0.489373
O O6 0.743297 0.857746 0.308597
O O7 0.741354 0.902866 0.590725
O O8 0.849298 0.453451 0.455564
O O9 0.000000 0.500000 0.500000
O O10 0.830550 0.663839 0.205065
O O11 0.000000 0.660594 0.750000
#
# Coordination Sequence:
#
# PCOD9232102 Si02
#       5
#     4   4   4   4   4
#     4  11  20  34  52  82 118 150 179 213 255 319
#     4  11  20  34  52  82 118 150 179 213 255 319
#     4   9  20  38  56  80 106 134 176 233 286 330
#     4  11  21  34  59  88 105 134 183 235 274 302
#     4  10  21  34  50  72 118 166 184 196 248 324
#
# _framework density 22.482997999999998
#
# number of rings (size 3 to 8) (size 9 to 14) (size 15 to 20)
#    0.000    1.600    0.000    7.800    0.000    0.000 
#    0.000    6.000    0.000    0.000    0.000  352.800 
#    0.000    0.000    0.000    0.000    0.000    0.000 
#
# Total GULP energy -111607.906157 kJ/mol
# GULP energy per Si atom -5580.395308 kJ/mol
# Density = 2.243183 g / cm^3
# Si number density = 22.482998 Si / 1000 Ang^3
#
#
#
# Elastic Constant Matrix: (Units=GPa)
#
#
# Indices 1 2 3 4 5 6 
#
# 1 129.6159 22.3209 28.9520 0.0000 -16.6023 0.0000
# 2 22.3209 52.8265 10.1192 0.0000 12.3494 0.0000
# 3 28.9520 10.1192 79.1267 0.0000 -17.2951 0.0000
# 4 0.0000 0.0000 0.0000 15.0240 0.0000 -11.0002
# 5 -16.6023 12.3494 -17.2951 0.0000 35.8766 0.0000
# 6 0.0000 0.0000 0.0000 -11.0002 0.0000 26.6373
#
#
#
# Elastic Compliance Matrix: (Units=1/GPa)
#
#
# Indices 1 2 3 4 5 6 
#
# 1 0.009646 -0.004998 -0.001720 0.000000 0.005355 0.000000
# 2 -0.004998 0.024849 -0.004163 0.000000 -0.012873 0.000000
# 3 -0.001720 -0.004163 0.015580 0.000000 0.008148 0.000000
# 4 0.000000 0.000000 0.000000 0.095407 0.000000 0.039400
# 5 0.005355 -0.012873 0.008148 0.000000 0.038711 0.000000
# 6 0.000000 0.000000 0.000000 0.039400 0.000000 0.053812
#
#
# Mechanical properties :
#
#
# Convention : Reuss Voigt Hill
#
# Bulk Modulus (GPa) = 35.31847 42.70594 39.01221
# Shear Modulus (GPa) = 18.57329 28.85273 23.71301
#
# Velocity S-wave (km/s) = 2.87732 3.58622 3.25115
# Velocity P-wave (km/s) = 5.17510 6.01531 5.61096
#
# Compressibility (1/GPa) = 0.02831380
#
# Stress axis : x y z
#
# Youngs Moduli (GPa) = 103.67111 40.24384 64.18295
#
# Poissons Ratio (x) = 0.20115 0.11037
# Poissons Ratio (y) = 0.51817 0.26717
# Poissons Ratio (z) = 0.17828 0.16752
#
# Static dielectric constant tensor:
#      x y z
#    x 1.872450 0.000000 -0.001680 
#    y 0.000000 1.827380 0.000000 
#    z -0.001680 0.000000 1.942060 
# 
# From -- ./inp_files/14849.got.cif
#   From: 2010.05.17/outbox.cif.g08.bks.cpg/sg13_8_cif.got.tgz:14849.got - 2010.06.03 16:44:36.
