data_PCOD9232503
_publ_section_title
;
Structure prediction by ZEFSAII (Michael W. Deem and Ramdas Pophale) SiO2 
 PCOD9232503
Probable space group: P 2/C
;
_chemical_formula_sum "Si O2"
_cell_formula_units_Z 28
_cell_length_a 9.489288
_cell_length_b 11.027165
_cell_length_c 13.010497
_cell_angle_alpha 90.000000
_cell_angle_beta 125.111803
_cell_angle_gamma 90.000000
_cell_volume 1113.682208
_symmetry_space_group_name_H-M "P 2/C"
_symmetry_group_IT_number 13
_symmetry_cell_setting 'monoclinic'
loop_
_space_group_symop_operation_xyz
x,y,z
-x,y,1/2-z
-x,-y,-z
x,-y,1/2+z
loop_
_atom_site_type_symbol
_atom_site_label
_atom_site_fract_x
_atom_site_fract_y
_atom_site_fract_z
Si Si1 0.758750 0.598482 0.187120
Si Si2 0.817358 0.981205 0.136791
Si Si3 0.319251 0.343314 0.231293
Si Si4 0.443170 0.726258 0.116877
Si Si5 0.481288 0.984580 0.630998
Si Si6 0.057093 0.612166 0.452544
Si Si7 0.828850 0.745696 0.636541
O O1 0.712106 0.472529 0.223748
O O2 0.591453 0.680853 0.104260
O O3 0.835616 0.579417 0.105918
O O4 0.887602 0.663814 0.323186
O O5 0.872950 0.116577 0.123922
O O6 0.000000 0.923510 0.250000
O O7 0.671759 0.004394 0.162151
O O8 0.684720 0.927321 0.996425
O O9 0.500000 0.347935 0.250000
O O10 0.300141 0.254591 0.320734
O O11 0.174368 0.316056 0.083682
O O12 0.500000 0.677483 0.250000
O O13 0.434792 0.871467 0.118078
O O14 0.261895 0.683791 0.997227
O O15 0.500000 0.929573 0.750000
O O16 0.000000 0.500000 0.500000
O O17 0.000000 0.684124 0.750000
#
# Coordination Sequence:
#
# PCOD9232503 Si02
#       7
#     4   4   4   4   4   4   4
#     4  10  21  38  56  81 116 153 189 239 285 340
#     4   9  19  39  59  85 116 152 191 237 289 344
#     4  11  23  36  57  85 113 152 194 237 285 339
#     4  10  21  37  60  85 115 152 196 232 290 347
#     4   9  19  37  61  86 117 151 190 239 287 343
#     4   9  21  37  55  78 112 148 197 235 285 337
#     4  10  23  37  59  84 116 153 193 238 287 342
#
# _framework density 25.141821
#
# number of rings (size 3 to 8) (size 9 to 14) (size 15 to 20)
#    0.000    2.286    0.000    1.286    6.000    4.571 
#    2.571    1.429    0.000    0.000    0.000    0.000 
#    0.000    0.000    0.000    0.000    0.000    0.000 
#
# Total GULP energy -156219.003343 kJ/mol
# GULP energy per Si atom -5579.250119 kJ/mol
# Density = 2.508460 g / cm^3
# Si number density = 25.141821 Si / 1000 Ang^3
#
#
#
# Elastic Constant Matrix: (Units=GPa)
#
#
# Indices 1 2 3 4 5 6 
#
# 1 107.2436 -6.8333 80.2695 0.0000 12.8074 0.0000
# 2 -6.8333 43.6110 9.3052 0.0000 -2.6628 0.0000
# 3 80.2695 9.3052 196.3036 0.0000 20.5086 0.0000
# 4 0.0000 0.0000 0.0000 -12.1552 0.0000 -14.0898
# 5 12.8074 -2.6628 20.5086 0.0000 53.8885 0.0000
# 6 0.0000 0.0000 0.0000 -14.0898 0.0000 20.2139
#
#
#
# Elastic Compliance Matrix: (Units=1/GPa)
#
#
# Indices 1 2 3 4 5 6 
#
# 1 0.013975 0.003363 -0.005774 0.000000 -0.000958 0.000000
# 2 0.003363 0.024111 -0.002665 0.000000 0.001406 0.000000
# 3 -0.005774 -0.002665 0.007760 0.000000 -0.001713 0.000000
# 4 0.000000 0.000000 0.000000 -0.045504 0.000000 -0.031718
# 5 -0.000958 0.001406 -0.001713 0.000000 0.019506 0.000000
# 6 0.000000 0.000000 0.000000 -0.031718 0.000000 0.027363
#
#
# Mechanical properties :
#
#
# Convention : Reuss Voigt Hill
#
# Bulk Modulus (GPa) = 28.01497 56.96011 42.48754
# Shear Modulus (GPa) = 72.19086 30.01724 51.10405
#
# Velocity S-wave (km/s) = 5.36431 3.45906 4.51336
# Velocity P-wave (km/s) = 7.03809 6.21757 6.64051
#
# Compressibility (1/GPa) = 0.03569521
#
# Stress axis : x y z
#
# Youngs Moduli (GPa) = 71.55785 41.47410 128.86077
#
# Poissons Ratio (x) = -0.13948 0.74400
# Poissons Ratio (y) = -0.24066 0.34342
# Poissons Ratio (z) = 0.41315 0.11053
#
# Static dielectric constant tensor:
#      x y z
#    x 2.118300 0.000000 0.050140 
#    y 0.000000 2.016500 0.000000 
#    z 0.050140 0.000000 2.048760 
# 
# From -- ./inp_files/30507.got.cif
#   From: 2010.05.17/outbox.cif.g08.bks.cpg/sg13_16_cif.got.tgz:30507.got - 2010.06.03 16:44:36.
