data_PCOD9232409
_publ_section_title
;
Structure prediction by ZEFSAII (Michael W. Deem and Ramdas Pophale) SiO2 
 PCOD9232409
Probable space group: P 2/C
;
_chemical_formula_sum "Si O2"
_cell_formula_units_Z 26
_cell_length_a 8.464186
_cell_length_b 16.747797
_cell_length_c 10.039274
_cell_angle_alpha 90.000000
_cell_angle_beta 114.535840
_cell_angle_gamma 90.000000
_cell_volume 1294.625617
_symmetry_space_group_name_H-M "P 2/C"
_symmetry_group_IT_number 13
_symmetry_cell_setting 'monoclinic'
loop_
_space_group_symop_operation_xyz
x,y,z
-x,y,1/2-z
-x,-y,-z
x,-y,1/2+z
loop_
_atom_site_type_symbol
_atom_site_label
_atom_site_fract_x
_atom_site_fract_y
_atom_site_fract_z
Si Si1 0.606125 0.369390 0.508258
Si Si2 0.714326 0.937061 0.667435
Si Si3 0.158340 0.252970 0.037437
Si Si4 0.352357 0.546122 0.080738
Si Si5 0.884311 0.369937 0.817023
Si Si6 0.697203 0.917324 0.970969
Si Si7 0.000000 0.189552 0.250000
O O1 0.670459 0.309137 0.417422
O O2 0.661728 0.458908 0.486493
O O3 0.413771 0.387649 0.494176
O O4 0.714592 0.342250 0.676567
O O5 0.738990 0.947194 0.835176
O O6 0.512267 0.910719 0.585616
O O7 0.842539 0.869787 0.655043
O O8 0.748844 0.018013 0.599004
O O9 0.211036 0.168419 0.991793
O O10 0.084346 0.238666 0.159006
O O11 0.004323 0.298293 0.907396
O O12 0.500000 0.540655 0.250000
O O13 0.177713 0.575243 0.086373
O O14 0.000000 0.416335 0.750000
#
# Coordination Sequence:
#
# PCOD9232409 Si02
#       7
#     4   4   4   4   4   4   2
#     4   9  19  38  56  85 113 152 199 242 294 353
#     4   9  19  38  62  84 116 156 199 251 291 367
#     4  10  21  37  54  86 119 152 192 247 305 348
#     4   9  18  37  61  82 113 154 201 240 292 361
#     4   9  19  36  56  82 116 147 189 247 293 351
#     4   9  19  39  61  85 117 157 200 245 300 362
#     4  10  22  40  54  90 122 152 198 248 294 360
#
# _framework density 20.083024000000002
#
# number of rings (size 3 to 8) (size 9 to 14) (size 15 to 20)
#    0.000    2.769    0.000    0.000    0.000    6.154 
#   27.692    0.000   10.154    0.000    0.000    0.000 
#    0.000    0.000    0.000    0.000    0.000    0.000 
#
# Total GULP energy -144810.222470 kJ/mol
# GULP energy per Si atom -5569.623941 kJ/mol
# Density = 2.003731 g / cm^3
# Si number density = 20.083024 Si / 1000 Ang^3
#
#
#
# Elastic Constant Matrix: (Units=GPa)
#
#
# Indices 1 2 3 4 5 6 
#
# 1 106.1356 63.4824 41.2265 0.0000 -39.7842 0.0000
# 2 63.4824 94.6839 48.3461 0.0000 -17.2166 0.0000
# 3 41.2265 48.3461 48.2620 0.0000 -11.2325 0.0000
# 4 0.0000 0.0000 0.0000 25.5946 0.0000 1.3307
# 5 -39.7842 -17.2166 -11.2325 0.0000 33.7425 0.0000
# 6 0.0000 0.0000 0.0000 1.3307 0.0000 37.5713
#
#
#
# Elastic Compliance Matrix: (Units=1/GPa)
#
#
# Indices 1 2 3 4 5 6 
#
# 1 0.028028 -0.010189 -0.007863 0.000000 0.025230 0.000000
# 2 -0.010189 0.025872 -0.018359 0.000000 -0.004925 0.000000
# 3 -0.007863 -0.018359 0.044975 0.000000 -0.003667 0.000000
# 4 0.000000 0.000000 0.000000 0.039143 0.000000 -0.001386
# 5 0.025230 -0.004925 -0.003667 0.000000 0.055650 0.000000
# 6 0.000000 0.000000 0.000000 -0.001386 0.000000 0.026665
#
#
# Mechanical properties :
#
#
# Convention : Reuss Voigt Hill
#
# Bulk Modulus (GPa) = 38.38542 61.68797 50.03670
# Shear Modulus (GPa) = 16.56508 25.78345 21.17426
#
# Velocity S-wave (km/s) = 2.87510 3.58696 3.25058
# Velocity P-wave (km/s) = 5.49331 6.92374 6.24959
#
# Compressibility (1/GPa) = 0.02605156
#
# Stress axis : x y z
#
# Youngs Moduli (GPa) = 35.67867 38.65207 22.23470
#
# Poissons Ratio (x) = 0.39384 0.17483
# Poissons Ratio (y) = 0.36354 0.40821
# Poissons Ratio (z) = 0.28055 0.70962
#
# Static dielectric constant tensor:
#      x y z
#    x 1.751130 0.000000 -0.002880 
#    y 0.000000 1.687260 0.000000 
#    z -0.002880 0.000000 1.764380 
# 
# From -- ./inp_files/29934.got.cif
#   From: 2010.05.17/outbox.cif.g08.bks.cpg/sg13_15_cif.got.tgz:29934.got - 2010.06.03 16:44:36.
