data_PCOD9232644
_publ_section_title
;
Structure prediction by ZEFSAII (Michael W. Deem and Ramdas Pophale) SiO2 
 PCOD9232644
Probable space group: P 2/C
;
_chemical_formula_sum "Si O2"
_cell_formula_units_Z 32
_cell_length_a 14.934656
_cell_length_b 17.294671
_cell_length_c 5.451476
_cell_angle_alpha 90.000000
_cell_angle_beta 98.644151
_cell_angle_gamma 90.000000
_cell_volume 1392.067159
_symmetry_space_group_name_H-M "P 2/C"
_symmetry_group_IT_number 13
_symmetry_cell_setting 'monoclinic'
loop_
_space_group_symop_operation_xyz
x,y,z
-x,y,1/2-z
-x,-y,-z
x,-y,1/2+z
loop_
_atom_site_type_symbol
_atom_site_label
_atom_site_fract_x
_atom_site_fract_y
_atom_site_fract_z
Si Si1 0.103587 0.032466 0.529808
Si Si2 0.624647 0.207931 0.939406
Si Si3 0.154888 0.209095 0.478612
Si Si4 0.602345 0.531428 0.022404
Si Si5 0.397173 0.969673 0.970482
Si Si6 0.618271 0.289021 0.435509
Si Si7 0.037794 0.587891 0.515007
Si Si8 0.834613 0.706121 0.014137
O O1 0.112727 0.124129 0.495848
O O2 0.145077 0.008376 0.807657
O O3 0.000000 0.000000 0.500000
O O4 0.597642 0.120919 0.984395
O O5 0.591208 0.260740 0.152934
O O6 0.734901 0.206024 0.981289
O O7 0.592941 0.236905 0.659722
O O8 0.133279 0.260425 0.710396
O O9 0.128889 0.244935 0.203463
O O10 0.646192 0.508694 0.301247
O O11 0.594986 0.622462 0.978986
O O12 0.500000 0.500000 0.000000
O O13 0.353846 0.990781 0.691672
O O14 0.500000 0.000000 0.000000
O O15 0.727286 0.286414 0.473065
O O16 0.140648 0.616004 0.532250
O O17 0.000000 0.622146 0.250000
O O18 0.000000 0.500000 0.500000
O O19 0.000000 0.621090 0.750000
#
# Coordination Sequence:
#
# PCOD9232644 Si02
#       8
#     4   4   4   4   4   4   4   4
#     4  10  21  38  53  80 115 149 192 236 291 352
#     4  10  21  38  63  87 118 156 200 248 296 351
#     4  10  21  38  61  85 117 152 199 246 295 348
#     4  10  21  40  60  90 126 157 198 243 298 358
#     4  10  21  38  56  86 126 155 198 240 295 356
#     4  10  21  40  63  89 119 156 203 248 298 353
#     4  10  21  40  58  85 124 151 195 237 293 356
#     4  10  21  40  60  90 117 154 199 246 294 348
#
# _framework density 22.987394999999999
#
# number of rings (size 3 to 8) (size 9 to 14) (size 15 to 20)
#    0.000    2.000    0.000    3.000    0.000    1.000 
#   18.000   15.000    0.000    0.000    0.000    0.000 
#    0.000    0.000    0.000    0.000    0.000    0.000 
#
# Total GULP energy -178631.020821 kJ/mol
# GULP energy per Si atom -5582.219401 kJ/mol
# Density = 2.293508 g / cm^3
# Si number density = 22.987395 Si / 1000 Ang^3
#
#
#
# Elastic Constant Matrix: (Units=GPa)
#
#
# Indices 1 2 3 4 5 6 
#
# 1 41.5914 27.7032 35.6800 0.0000 -17.2796 0.0000
# 2 27.7032 172.1402 67.6669 0.0000 -28.6980 0.0000
# 3 35.6800 67.6669 233.1721 0.0000 -29.0756 0.0000
# 4 0.0000 0.0000 0.0000 69.6451 0.0000 -54.2393
# 5 -17.2796 -28.6980 -29.0756 0.0000 17.4989 0.0000
# 6 0.0000 0.0000 0.0000 -54.2393 0.0000 67.9940
#
#
#
# Elastic Compliance Matrix: (Units=1/GPa)
#
#
# Indices 1 2 3 4 5 6 
#
# 1 0.041237 0.000466 -0.001605 0.000000 0.038818 0.000000
# 2 0.000466 0.008141 -0.000898 0.000000 0.012320 0.000000
# 3 -0.001605 -0.000898 0.005567 0.000000 0.006193 0.000000
# 4 0.000000 0.000000 0.000000 0.037910 0.000000 0.030241
# 5 0.038818 0.012320 0.006193 0.000000 0.125973 0.000000
# 6 0.000000 0.000000 0.000000 0.030241 0.000000 0.038831
#
#
# Mechanical properties :
#
#
# Convention : Reuss Voigt Hill
#
# Bulk Modulus (GPa) = 19.65717 78.77820 49.21768
# Shear Modulus (GPa) = 17.94109 52.08449 35.01279
#
# Velocity S-wave (km/s) = 2.79673 4.76519 3.90696
# Velocity P-wave (km/s) = 4.35876 8.03869 6.46604
#
# Compressibility (1/GPa) = 0.05087203
#
# Stress axis : x y z
#
# Youngs Moduli (GPa) = 24.24987 122.83624 179.62988
#
# Poissons Ratio (x) = -0.05722 0.28828
# Poissons Ratio (y) = -0.01130 0.16123
# Poissons Ratio (z) = 0.03892 0.11026
#
# Static dielectric constant tensor:
#      x y z
#    x 1.840550 0.000000 -0.034120 
#    y 0.000000 1.815140 0.000000 
#    z -0.034120 0.000000 1.860870 
# 
# From -- ./inp_files/6272.got.cif
#   From: 2010.05.17/outbox.cif.g08.bks.cpg/sg13_4_cif.got.tgz:6272.got - 2010.06.03 16:44:36.
