data_PCOD9232494
_publ_section_title
;
Structure prediction by ZEFSAII (Michael W. Deem and Ramdas Pophale) SiO2 
 PCOD9232494
Probable space group: P 2/C
;
_chemical_formula_sum "Si O2"
_cell_formula_units_Z 30
_cell_length_a 12.072851
_cell_length_b 5.909694
_cell_length_c 19.601515
_cell_angle_alpha 90.000000
_cell_angle_beta 93.715828
_cell_angle_gamma 90.000000
_cell_volume 1395.566445
_symmetry_space_group_name_H-M "P 2/C"
_symmetry_group_IT_number 13
_symmetry_cell_setting 'monoclinic'
loop_
_space_group_symop_operation_xyz
x,y,z
-x,y,1/2-z
-x,-y,-z
x,-y,1/2+z
loop_
_atom_site_type_symbol
_atom_site_label
_atom_site_fract_x
_atom_site_fract_y
_atom_site_fract_z
Si Si1 0.893721 0.465803 0.406270
Si Si2 0.414866 0.995825 0.682211
Si Si3 0.082890 0.827272 0.868871
Si Si4 0.785288 0.727495 0.296872
Si Si5 0.735543 0.542678 0.145151
Si Si6 0.000000 0.886097 0.250000
Si Si7 0.106767 0.227528 0.954647
Si Si8 0.512580 0.499362 0.834016
O O1 0.788261 0.572879 0.364369
O O2 0.859159 0.319615 0.470662
O O3 0.965657 0.301210 0.361035
O O4 0.990788 0.642736 0.433301
O O5 0.500000 0.990588 0.750000
O O6 0.287109 0.046178 0.697823
O O7 0.442203 0.242945 0.648828
O O8 0.429824 0.745832 0.649991
O O9 0.188927 0.672712 0.866909
O O10 0.084925 0.964668 0.939540
O O11 0.080396 0.981353 0.802715
O O12 0.748095 0.613212 0.224984
O O13 0.917079 0.754025 0.294262
O O14 0.794950 0.717406 0.095910
O O15 0.606150 0.495447 0.133294
O O16 0.500000 0.496526 0.750000
#
# Coordination Sequence:
#
# PCOD9232494 Si02
#       8
#     4   4   4   4   4   2   4   4
#     4  10  22  39  56  85 127 168 211 248 319 394
#     4  10  22  38  61  89 124 166 206 262 321 386
#     4  11  21  34  58  89 124 165 204 261 319 382
#     4  12  21  40  59  91 128 162 206 266 326 381
#     4  11  22  36  63  88 121 160 212 269 319 376
#     4  12  22  32  58  96 126 154 198 270 314 376
#     4  10  21  39  58  84 125 169 208 255 313 397
#     4  10  21  37  59  93 119 162 210 267 319 381
#
# _framework density 21.496648
#
# number of rings (size 3 to 8) (size 9 to 14) (size 15 to 20)
#    0.000    1.333    5.333    2.000    5.600    1.067 
#    0.000    0.000    0.000    1.600    0.000    0.000 
#    0.000    0.000    0.000    0.000    0.000    0.000 
#
# Total GULP energy -167107.708931 kJ/mol
# GULP energy per Si atom -5570.256964 kJ/mol
# Density = 2.144772 g / cm^3
# Si number density = 21.496648 Si / 1000 Ang^3
#
#
#
# Elastic Constant Matrix: (Units=GPa)
#
#
# Indices 1 2 3 4 5 6 
#
# 1 95.7647 29.3434 3.4554 0.0000 -21.8402 0.0000
# 2 29.3434 101.2028 2.8924 0.0000 -7.8675 0.0000
# 3 3.4554 2.8924 46.1445 0.0000 -8.8337 0.0000
# 4 0.0000 0.0000 0.0000 11.4016 0.0000 -6.4646
# 5 -21.8402 -7.8675 -8.8337 0.0000 12.9429 0.0000
# 6 0.0000 0.0000 0.0000 -6.4646 0.0000 9.4116
#
#
#
# Elastic Compliance Matrix: (Units=1/GPa)
#
#
# Indices 1 2 3 4 5 6 
#
# 1 0.018800 -0.003000 0.005181 0.000000 0.033436 0.000000
# 2 -0.003000 0.010866 -0.000185 0.000000 0.001417 0.000000
# 3 0.005181 -0.000185 0.026396 0.000000 0.026645 0.000000
# 4 0.000000 0.000000 0.000000 0.143653 0.000000 0.098672
# 5 0.033436 0.001417 0.026645 0.000000 0.152730 0.000000
# 6 0.000000 0.000000 0.000000 0.098672 0.000000 0.174027
#
#
# Mechanical properties :
#
#
# Convention : Reuss Voigt Hill
#
# Bulk Modulus (GPa) = 16.65163 34.94382 25.79772
# Shear Modulus (GPa) = 9.21663 20.57929 14.89796
#
# Velocity S-wave (km/s) = 2.07287 3.09742 2.63541
# Velocity P-wave (km/s) = 3.67315 5.39285 4.61383
#
# Compressibility (1/GPa) = 0.06005419
#
# Stress axis : x y z
#
# Youngs Moduli (GPa) = 53.19150 92.02710 37.88516
#
# Poissons Ratio (x) = 0.27606 -0.19629
# Poissons Ratio (y) = 0.15956 0.00702
# Poissons Ratio (z) = -0.27559 0.01705
#
# Static dielectric constant tensor:
#      x y z
#    x 1.856750 0.000000 -0.011530 
#    y 0.000000 1.891090 0.000000 
#    z -0.011530 0.000000 1.809930 
# 
# From -- ./inp_files/77252.got.cif
#   From: 2010.05.17/outbox.cif.g08.bks.cpg/sg13_39_cif.got.tgz:77252.got - 2010.06.03 16:44:36.
