data_PCOD9232997
_publ_section_title
;
Structure prediction by ZEFSAII (Michael W. Deem and Ramdas Pophale) SiO2 
 PCOD9232997
Probable space group: P 2/C
;
_chemical_formula_sum "Si O2"
_cell_formula_units_Z 28
_cell_length_a 8.472725
_cell_length_b 12.462290
_cell_length_c 11.371748
_cell_angle_alpha 90.000000
_cell_angle_beta 117.875500
_cell_angle_gamma 90.000000
_cell_volume 1061.410976
_symmetry_space_group_name_H-M "P 2/C"
_symmetry_group_IT_number 13
_symmetry_cell_setting 'monoclinic'
loop_
_space_group_symop_operation_xyz
x,y,z
-x,y,1/2-z
-x,-y,-z
x,-y,1/2+z
loop_
_atom_site_type_symbol
_atom_site_label
_atom_site_fract_x
_atom_site_fract_y
_atom_site_fract_z
Si Si1 0.100178 0.383108 0.633631
Si Si2 0.202648 0.249587 0.048294
Si Si3 0.914189 0.119827 0.099240
Si Si4 0.335714 0.571155 0.759802
Si Si5 0.693292 0.327837 0.016980
Si Si6 0.340702 0.786225 0.346548
Si Si7 0.553652 0.017024 0.882332
O O1 0.163837 0.494986 0.706468
O O2 0.178643 0.384391 0.529765
O O3 0.188452 0.282031 0.731185
O O4 0.897846 0.349631 0.551175
O O5 0.304106 0.316091 0.183012
O O6 0.064656 0.167199 0.062334
O O7 0.305632 0.197839 0.974261
O O8 0.805563 0.226111 0.103611
O O9 0.000000 0.071720 0.250000
O O10 0.762192 0.052204 0.975756
O O11 0.500000 0.516089 0.750000
O O12 0.380038 0.598247 0.907380
O O13 0.521274 0.280430 0.895442
O O14 0.391898 0.895916 0.301699
O O15 0.500000 0.941849 0.750000
O O16 0.500000 0.000000 0.000000
#
# Coordination Sequence:
#
# PCOD9232997 Si02
#       7
#     4   4   4   4   4   4   4
#     4  11  25  38  59  89 134 186 232 286 339 393
#     4  11  23  40  62  98 129 184 229 282 338 400
#     4  10  21  43  71 101 139 181 225 281 356 412
#     4  12  23  37  59  93 134 177 242 286 324 391
#     4  10  21  39  62  85 126 180 227 274 335 401
#     4  11  22  44  69  94 132 179 224 275 348 418
#     4  11  26  50  79 110 142 179 230 288 358 446
#
# _framework density 26.37998
#
# number of rings (size 3 to 8) (size 9 to 14) (size 15 to 20)
#    0.000    1.143    2.857    4.714    2.000    2.286 
#    5.143    4.286    0.000    0.000    0.000    0.000 
#    0.000    0.000    0.000    0.000    0.000    0.000 
#
# Total GULP energy -156476.503813 kJ/mol
# GULP energy per Si atom -5588.446565 kJ/mol
# Density = 2.631994 g / cm^3
# Si number density = 26.379980 Si / 1000 Ang^3
#
#
#
# Elastic Constant Matrix: (Units=GPa)
#
#
# Indices 1 2 3 4 5 6 
#
# 1 97.6821 12.4133 17.3439 0.0000 -12.4489 0.0000
# 2 12.4133 41.6147 6.6131 0.0000 5.4223 0.0000
# 3 17.3439 6.6131 135.0200 0.0000 2.8309 0.0000
# 4 0.0000 0.0000 0.0000 14.3511 0.0000 3.6384
# 5 -12.4489 5.4223 2.8309 0.0000 40.1321 0.0000
# 6 0.0000 0.0000 0.0000 3.6384 0.0000 8.5419
#
#
#
# Elastic Compliance Matrix: (Units=1/GPa)
#
#
# Indices 1 2 3 4 5 6 
#
# 1 0.011490 -0.003751 -0.001380 0.000000 0.004168 0.000000
# 2 -0.003751 0.025859 -0.000688 0.000000 -0.004609 0.000000
# 3 -0.001380 -0.000688 0.007636 0.000000 -0.000874 0.000000
# 4 0.000000 0.000000 0.000000 0.078117 0.000000 -0.033274
# 5 0.004168 -0.004609 -0.000874 0.000000 0.026895 0.000000
# 6 0.000000 0.000000 0.000000 -0.033274 0.000000 0.131243
#
#
# Mechanical properties :
#
#
# Convention : Reuss Voigt Hill
#
# Bulk Modulus (GPa) = 29.98805 38.56193 34.27499
# Shear Modulus (GPa) = 16.44773 28.46813 22.45793
#
# Velocity S-wave (km/s) = 2.49969 3.28862 2.92091
# Velocity P-wave (km/s) = 4.44114 5.39162 4.93930
#
# Compressibility (1/GPa) = 0.03334662
#
# Stress axis : x y z
#
# Youngs Moduli (GPa) = 87.03074 38.67157 130.96643
#
# Poissons Ratio (x) = 0.14507 0.18069
# Poissons Ratio (y) = 0.32648 0.09011
# Poissons Ratio (z) = 0.12007 0.02661
#
# Static dielectric constant tensor:
#      x y z
#    x 2.152130 0.000000 -0.004530 
#    y 0.000000 2.234520 0.000000 
#    z -0.004530 0.000000 2.176550 
# 
# From -- ./inp_files/30506.got.cif
#   From: 2010.05.17/outbox.cif.g08.bks.cpg/sg13_16_cif.got.tgz:30506.got - 2010.06.03 16:44:36.
