data_PCOD9232002
_publ_section_title
;
Structure prediction by ZEFSAII (Michael W. Deem and Ramdas Pophale) SiO2 
 PCOD9232002
Probable space group: P 2/C
;
_chemical_formula_sum "Si O2"
_cell_formula_units_Z 10
_cell_length_a 10.318944
_cell_length_b 8.234556
_cell_length_c 9.080123
_cell_angle_alpha 90.000000
_cell_angle_beta 29.082439
_cell_angle_gamma 90.000000
_cell_volume 375.028093
_symmetry_space_group_name_H-M "P 2/C"
_symmetry_group_IT_number 13
_symmetry_cell_setting 'monoclinic'
loop_
_space_group_symop_operation_xyz
x,y,z
-x,y,1/2-z
-x,-y,-z
x,-y,1/2+z
loop_
_atom_site_type_symbol
_atom_site_label
_atom_site_fract_x
_atom_site_fract_y
_atom_site_fract_z
Si Si1 0.141301 0.226325 0.358147
Si Si2 0.000000 0.013456 0.250000
Si Si3 0.254862 0.552421 0.387829
O O1 0.143461 0.102040 0.490282
O O2 0.293566 0.387954 0.255905
O O3 0.153587 0.300502 0.885639
O O4 0.192778 0.125534 0.158308
O O5 0.500000 0.581696 0.250000
O O6 0.000000 0.522241 0.750000
#
# Coordination Sequence:
#
# PCOD9232002 Si02
#       3
#     4   2   4
#     4  10  22  42  72  98 142 174 236 272 350 396
#     4  10  20  44  66 104 138 184 216 292 336 414
#     4  11  24  46  73 101 135 182 232 282 335 407
#
# _framework density 26.664667999999999
#
# number of rings (size 3 to 8) (size 9 to 14) (size 15 to 20)
#    0.000    1.600    4.000    0.000    0.000    6.400 
#    0.000   12.000    0.000    0.000    0.000    0.000 
#    0.000    0.000    0.000    0.000    0.000    0.000 
#
# Total GULP energy -56013.832405 kJ/mol
# GULP energy per Si atom -5601.383240 kJ/mol
# Density = 2.660398 g / cm^3
# Si number density = 26.664668 Si / 1000 Ang^3
#
#
#
# Elastic Constant Matrix: (Units=GPa)
#
#
# Indices 1 2 3 4 5 6 
#
# 1 187.9473 98.0626 61.1932 0.0000 13.2380 0.0000
# 2 98.0626 212.3110 44.2962 0.0000 22.6375 0.0000
# 3 61.1932 44.2962 81.3719 0.0000 12.5039 0.0000
# 4 0.0000 0.0000 0.0000 32.0181 0.0000 23.5594
# 5 13.2380 22.6375 12.5039 0.0000 61.8098 0.0000
# 6 0.0000 0.0000 0.0000 23.5594 0.0000 71.2559
#
#
#
# Elastic Compliance Matrix: (Units=1/GPa)
#
#
# Indices 1 2 3 4 5 6 
#
# 1 0.008361 -0.002896 -0.004746 0.000000 0.000230 0.000000
# 2 -0.002896 0.006437 -0.001094 0.000000 -0.001516 0.000000
# 3 -0.004746 -0.001094 0.016757 0.000000 -0.001973 0.000000
# 4 0.000000 0.000000 0.000000 0.041273 0.000000 -0.013646
# 5 0.000230 -0.001516 -0.001973 0.000000 0.017084 0.000000
# 6 0.000000 0.000000 0.000000 -0.013646 0.000000 0.018546
#
#
# Mechanical properties :
#
#
# Convention : Reuss Voigt Hill
#
# Bulk Modulus (GPa) = 71.00471 98.74825 84.87648
# Shear Modulus (GPa) = 38.27765 51.55531 44.91648
#
# Velocity S-wave (km/s) = 3.79294 4.40189 4.10871
# Velocity P-wave (km/s) = 6.77262 7.93406 7.37624
#
# Compressibility (1/GPa) = 0.01408357
#
# Stress axis : x y z
#
# Youngs Moduli (GPa) = 119.60637 155.34027 59.67639
#
# Poissons Ratio (x) = 0.44986 0.28325
# Poissons Ratio (y) = 0.34637 0.06526
# Poissons Ratio (z) = 0.56769 0.16987
#
# Static dielectric constant tensor:
#      x y z
#    x 2.005120 0.000000 0.020340 
#    y 0.000000 2.078610 0.000000 
#    z 0.020340 0.000000 2.224560 
# 
# From -- ./inp_files/8292.got.cif
#   From: 2010.05.17/outbox.cif.g08.bks.cpg/sg13_5_cif.got.tgz:8292.got - 2010.06.03 16:44:36.
