data_PCOD9232734
_publ_section_title
;
Structure prediction by ZEFSAII (Michael W. Deem and Ramdas Pophale) SiO2 
 PCOD9232734
Probable space group: P 2/C
;
_chemical_formula_sum "Si O2"
_cell_formula_units_Z 24
_cell_length_a 8.641020
_cell_length_b 14.014059
_cell_length_c 18.852194
_cell_angle_alpha 90.000000
_cell_angle_beta 147.599097
_cell_angle_gamma 90.000000
_cell_volume 1223.280534
_symmetry_space_group_name_H-M "P 2/C"
_symmetry_group_IT_number 13
_symmetry_cell_setting 'monoclinic'
loop_
_space_group_symop_operation_xyz
x,y,z
-x,y,1/2-z
-x,-y,-z
x,-y,1/2+z
loop_
_atom_site_type_symbol
_atom_site_label
_atom_site_fract_x
_atom_site_fract_y
_atom_site_fract_z
Si Si1 0.652848 0.386937 0.383528
Si Si2 0.344077 0.786775 0.027840
Si Si3 0.439855 0.787554 0.548464
Si Si4 0.109236 0.098006 0.712286
Si Si5 0.242026 0.895575 0.706310
Si Si6 0.667923 0.395214 0.886214
O O1 0.500000 0.360403 0.250000
O O2 0.576403 0.311796 0.414972
O O3 0.575229 0.497093 0.370276
O O4 0.994029 0.389933 0.501362
O O5 0.578405 0.854460 0.156538
O O6 0.385631 0.681445 0.074225
O O7 0.409535 0.783220 0.969607
O O8 0.024669 0.827632 0.917320
O O9 0.621113 0.859482 0.667228
O O10 0.119614 0.829162 0.410664
O O11 0.000000 0.075397 0.750000
O O12 0.126938 0.002296 0.673551
O O13 0.500000 0.892696 0.750000
O O14 0.500000 0.368449 0.750000
#
# Coordination Sequence:
#
# PCOD9232734 Si02
#       6
#     4   4   4   4   4   4
#     4  10  21  38  60  86 118 155 193 238 289 343
#     4  11  23  39  62  88 117 156 195 241 294 344
#     4  11  22  39  62  87 119 155 195 242 290 346
#     4  10  23  41  59  84 118 154 194 241 293 345
#     4  12  25  39  59  87 118 155 198 242 290 347
#     4  10  21  38  60  86 118 154 192 238 291 344
#
# _framework density 19.619375000000002
#
# number of rings (size 3 to 8) (size 9 to 14) (size 15 to 20)
#    0.000    1.333    0.000    6.000    0.000    8.000 
#    0.000    0.000    0.000   10.000    0.000    0.000 
#    0.000    0.000    0.000    0.000    0.000    0.000 
#
# Total GULP energy -134230.591531 kJ/mol
# GULP energy per Si atom -5592.941314 kJ/mol
# Density = 1.957472 g / cm^3
# Si number density = 19.619375 Si / 1000 Ang^3
#
#
#
# Elastic Constant Matrix: (Units=GPa)
#
#
# Indices 1 2 3 4 5 6 
#
# 1 64.6111 62.9711 42.1329 0.0000 2.1196 0.0000
# 2 62.9711 110.5848 28.4273 0.0000 -16.3321 0.0000
# 3 42.1329 28.4273 123.2281 0.0000 4.1557 0.0000
# 4 0.0000 0.0000 0.0000 114.0497 0.0000 104.9348
# 5 2.1196 -16.3321 4.1557 0.0000 26.7745 0.0000
# 6 0.0000 0.0000 0.0000 104.9348 0.0000 190.7722
#
#
#
# Elastic Compliance Matrix: (Units=1/GPa)
#
#
# Indices 1 2 3 4 5 6 
#
# 1 0.052335 -0.030287 -0.010198 0.000000 -0.021035 0.000000
# 2 -0.030287 0.028303 0.003180 0.000000 0.019168 0.000000
# 3 -0.010198 0.003180 0.010832 0.000000 0.001066 0.000000
# 4 0.000000 0.000000 0.000000 0.017753 0.000000 -0.009765
# 5 -0.021035 0.019168 0.001066 0.000000 0.050541 0.000000
# 6 0.000000 0.000000 0.000000 -0.009765 0.000000 0.010613
#
#
# Mechanical properties :
#
#
# Convention : Reuss Voigt Hill
#
# Bulk Modulus (GPa) = 59.30904 62.83184 61.07044
# Shear Modulus (GPa) = 19.95162 77.31214 48.63188
#
# Velocity S-wave (km/s) = 3.19240 6.28423 4.98412
# Velocity P-wave (km/s) = 6.62450 9.20600 8.01980
#
# Compressibility (1/GPa) = 0.01686084
#
# Stress axis : x y z
#
# Youngs Moduli (GPa) = 19.10765 35.33230 92.31691
#
# Poissons Ratio (x) = 1.07010 0.94142
# Poissons Ratio (y) = 0.57871 -0.29354
# Poissons Ratio (z) = 0.19485 -0.11235
#
# Static dielectric constant tensor:
#      x y z
#    x 1.654270 0.000000 0.005830 
#    y 0.000000 1.690340 0.000000 
#    z 0.005830 0.000000 1.664090 
# 
# From -- ./inp_files/64689.got.cif
#   From: 2010.05.17/outbox.cif.g08.bks.cpg/sg13_33_cif.got.tgz:64689.got - 2010.06.03 16:44:36.
