data_PCOD9232577
_publ_section_title
;
Structure prediction by ZEFSAII (Michael W. Deem and Ramdas Pophale) SiO2 
 PCOD9232577
Probable space group: P 2/C
;
_chemical_formula_sum "Si O2"
_cell_formula_units_Z 28
_cell_length_a 9.752778
_cell_length_b 14.893995
_cell_length_c 22.200758
_cell_angle_alpha 90.000000
_cell_angle_beta 25.493924
_cell_angle_gamma 90.000000
_cell_volume 1388.018087
_symmetry_space_group_name_H-M "P 2/C"
_symmetry_group_IT_number 13
_symmetry_cell_setting 'monoclinic'
loop_
_space_group_symop_operation_xyz
x,y,z
-x,y,1/2-z
-x,-y,-z
x,-y,1/2+z
loop_
_atom_site_type_symbol
_atom_site_label
_atom_site_fract_x
_atom_site_fract_y
_atom_site_fract_z
Si Si1 0.870196 0.969641 0.115740
Si Si2 0.017901 0.318801 0.170025
Si Si3 0.333144 0.595585 0.081564
Si Si4 0.864033 0.215437 0.587762
Si Si5 0.434452 0.466702 0.209390
Si Si6 0.159089 0.836949 0.849288
Si Si7 0.947154 0.607220 0.431853
O O1 0.500000 0.954526 0.250000
O O2 0.997401 0.868784 0.074750
O O3 0.897615 0.058141 0.145814
O O4 0.000000 0.000000 0.000000
O O5 0.000000 0.312094 0.250000
O O6 0.805647 0.402877 0.231714
O O7 0.882577 0.231676 0.188958
O O8 0.382860 0.342138 0.006193
O O9 0.231097 0.634609 0.057747
O O10 0.000000 0.585083 0.250000
O O11 0.500000 0.500000 0.000000
O O12 0.500000 0.231480 0.750000
O O13 0.907441 0.189595 0.501037
O O14 0.039750 0.307710 0.530811
O O15 0.500000 0.429092 0.250000
O O16 0.278709 0.563503 0.280924
O O17 0.752467 0.469516 0.044060
O O18 0.500000 0.832151 0.750000
#
# Coordination Sequence:
#
# PCOD9232577 Si02
#       7
#     4   4   4   4   4   4   4
#     4   8  16  34  60  92 121 153 192 245 307 370
#     4  12  24  41  62  88 124 165 213 252 304 365
#     4  12  25  43  62  82 117 171 218 254 304 372
#     4  10  21  37  62  95 124 157 201 257 314 371
#     4  12  25  40  60  89 123 161 203 259 312 361
#     4  10  21  39  66  96 125 157 203 257 309 367
#     4  12  24  40  60  86 123 162 208 257 306 361
#
# _framework density 20.172646
#
# number of rings (size 3 to 8) (size 9 to 14) (size 15 to 20)
#    0.000    1.143    2.857    4.286    2.000    0.000 
#    0.000    0.000    0.000    1.714    0.000    0.000 
#    0.000    0.000    0.000    0.000    0.000    0.000 
#
# Total GULP energy -156219.857260 kJ/mol
# GULP energy per Si atom -5579.280616 kJ/mol
# Density = 2.012673 g / cm^3
# Si number density = 20.172646 Si / 1000 Ang^3
#
#
#
# Elastic Constant Matrix: (Units=GPa)
#
#
# Indices 1 2 3 4 5 6 
#
# 1 86.3848 25.8165 5.1127 0.0000 3.4044 0.0000
# 2 25.8165 121.5852 -2.0350 0.0000 -3.2385 0.0000
# 3 5.1127 -2.0350 98.7675 0.0000 0.3030 0.0000
# 4 0.0000 0.0000 0.0000 11.6200 0.0000 13.3650
# 5 3.4044 -3.2385 0.3030 0.0000 21.4314 0.0000
# 6 0.0000 0.0000 0.0000 13.3650 0.0000 -13.8797
#
#
#
# Elastic Compliance Matrix: (Units=1/GPa)
#
#
# Indices 1 2 3 4 5 6 
#
# 1 0.012529 -0.002736 -0.000698 0.000000 -0.002394 0.000000
# 2 -0.002736 0.008858 0.000319 0.000000 0.001769 0.000000
# 3 -0.000698 0.000319 0.010167 0.000000 0.000015 0.000000
# 4 0.000000 0.000000 0.000000 0.040834 0.000000 0.039320
# 5 -0.002394 0.001769 0.000015 0.000000 0.047308 0.000000
# 6 0.000000 0.000000 0.000000 0.039320 0.000000 -0.034186
#
#
# Mechanical properties :
#
#
# Convention : Reuss Voigt Hill
#
# Bulk Modulus (GPa) = 39.48616 40.50290 39.99453
# Shear Modulus (GPa) = 49.90929 22.35724 36.13326
#
# Velocity S-wave (km/s) = 4.97944 3.33272 4.23685
# Velocity P-wave (km/s) = 7.25785 5.91025 6.61844
#
# Compressibility (1/GPa) = 0.02532533
#
# Stress axis : x y z
#
# Youngs Moduli (GPa) = 79.81259 112.89190 98.35340
#
# Poissons Ratio (x) = 0.30885 0.06861
# Poissons Ratio (y) = 0.21835 -0.03135
# Poissons Ratio (z) = 0.05568 -0.03598
#
# Static dielectric constant tensor:
#      x y z
#    x 1.720250 0.000000 -0.021680 
#    y 0.000000 1.768870 0.000000 
#    z -0.021680 0.000000 1.751440 
# 
# From -- ./inp_files/76720.got.cif
#   From: 2010.05.17/outbox.cif.g08.bks.cpg/sg13_39_cif.got.tgz:76720.got - 2010.06.03 16:44:36.
