data_PCOD9232153
_publ_section_title
;
Structure prediction by ZEFSAII (Michael W. Deem and Ramdas Pophale) SiO2 
 PCOD9232153
Probable space group: P 2/C
;
_chemical_formula_sum "Si O2"
_cell_formula_units_Z 20
_cell_length_a 7.131077
_cell_length_b 17.746083
_cell_length_c 11.619008
_cell_angle_alpha 90.000000
_cell_angle_beta 139.836616
_cell_angle_gamma 90.000000
_cell_volume 948.343824
_symmetry_space_group_name_H-M "P 2/C"
_symmetry_group_IT_number 13
_symmetry_cell_setting 'monoclinic'
loop_
_space_group_symop_operation_xyz
x,y,z
-x,y,1/2-z
-x,-y,-z
x,-y,1/2+z
loop_
_atom_site_type_symbol
_atom_site_label
_atom_site_fract_x
_atom_site_fract_y
_atom_site_fract_z
Si Si1 0.428575 0.741882 0.081809
Si Si2 0.414478 0.910569 0.076324
Si Si3 0.000000 0.019632 0.750000
Si Si4 0.259790 0.581200 0.952662
Si Si5 0.000000 0.324912 0.750000
Si Si6 0.697844 0.573173 0.948992
O O1 0.500000 0.743629 0.250000
O O2 0.320719 0.825173 0.002034
O O3 0.717031 0.725555 0.141586
O O4 0.229208 0.667823 0.973203
O O5 0.500000 0.915818 0.250000
O O6 0.721246 0.932045 0.159525
O O7 0.152454 0.965834 0.917040
O O8 0.528934 0.577344 0.991939
O O9 0.000000 0.557152 0.750000
O O10 0.259563 0.516480 0.048320
O O11 0.963498 0.374675 0.614735
O O12 0.500000 0.601032 0.750000
#
# Coordination Sequence:
#
# PCOD9232153 Si02
#       6
#     4   4   2   4   2   4
#     4  10  22  37  58  82 114 151 182 231 288 327
#     4  10  21  39  61  90 118 152 190 229 286 346
#     4  10  21  38  65  88 118 152 184 238 277 340
#     4  10  21  35  52  81 108 140 195 236 275 337
#     4  10  21  40  53  82 114 146 196 234 273 344
#     4  10  21  36  55  76 105 150 190 237 284 323
#
# _framework density 21.089399
#
# number of rings (size 3 to 8) (size 9 to 14) (size 15 to 20)
#    0.000    2.000    1.000    1.800    4.200    0.800 
#    0.000    0.000    0.000    6.000    0.000    0.000 
#    0.000    0.000    0.000    0.000    0.000    0.000 
#
# Total GULP energy -111400.549143 kJ/mol
# GULP energy per Si atom -5570.027457 kJ/mol
# Density = 2.104140 g / cm^3
# Si number density = 21.089399 Si / 1000 Ang^3
#
#
#
# Elastic Constant Matrix: (Units=GPa)
#
#
# Indices 1 2 3 4 5 6 
#
# 1 46.1478 4.3845 -12.3523 0.0000 -6.5381 0.0000
# 2 4.3845 106.1135 22.3697 0.0000 -17.2430 0.0000
# 3 -12.3523 22.3697 101.7713 0.0000 -7.9672 0.0000
# 4 0.0000 0.0000 0.0000 15.5187 0.0000 -2.7544
# 5 -6.5381 -17.2430 -7.9672 0.0000 24.1432 0.0000
# 6 0.0000 0.0000 0.0000 -2.7544 0.0000 17.8185
#
#
#
# Elastic Compliance Matrix: (Units=1/GPa)
#
#
# Indices 1 2 3 4 5 6 
#
# 1 0.023695 -0.000561 0.003562 0.000000 0.007191 0.000000
# 2 -0.000561 0.011003 -0.001933 0.000000 0.007068 0.000000
# 3 0.003562 -0.001933 0.010933 0.000000 0.003192 0.000000
# 4 0.000000 0.000000 0.000000 0.066256 0.000000 0.010242
# 5 0.007191 0.007068 0.003192 0.000000 0.049469 0.000000
# 6 0.000000 0.000000 0.000000 0.010242 0.000000 0.057705
#
#
# Mechanical properties :
#
#
# Convention : Reuss Voigt Hill
#
# Bulk Modulus (GPa) = 20.93508 31.42627 26.18068
# Shear Modulus (GPa) = 21.47321 27.47146 24.47234
#
# Velocity S-wave (km/s) = 3.19439 3.61310 3.41017
# Velocity P-wave (km/s) = 4.85323 5.68681 5.28647
#
# Compressibility (1/GPa) = 0.04776671
#
# Stress axis : x y z
#
# Youngs Moduli (GPa) = 42.20256 90.88247 91.46492
#
# Poissons Ratio (x) = 0.05103 -0.32583
# Poissons Ratio (y) = 0.02370 0.17683
# Poissons Ratio (z) = -0.15034 0.17571
#
# Static dielectric constant tensor:
#      x y z
#    x 1.673930 0.000000 0.021910 
#    y 0.000000 1.823010 0.000000 
#    z 0.021910 0.000000 1.747790 
# 
# From -- ./inp_files/29698.got.cif
#   From: 2010.05.17/outbox.cif.g08.bks.cpg/sg13_15_cif.got.tgz:29698.got - 2010.06.03 16:44:36.
