data_PCOD9232338
_publ_section_title
;
Structure prediction by ZEFSAII (Michael W. Deem and Ramdas Pophale) SiO2 
 PCOD9232338
Probable space group: P 2/C
;
_chemical_formula_sum "Si O2"
_cell_formula_units_Z 30
_cell_length_a 15.963449
_cell_length_b 10.214621
_cell_length_c 21.522205
_cell_angle_alpha 90.000000
_cell_angle_beta 154.726203
_cell_angle_gamma 90.000000
_cell_volume 1498.328453
_symmetry_space_group_name_H-M "P 2/C"
_symmetry_group_IT_number 13
_symmetry_cell_setting 'monoclinic'
loop_
_space_group_symop_operation_xyz
x,y,z
-x,y,1/2-z
-x,-y,-z
x,-y,1/2+z
loop_
_atom_site_type_symbol
_atom_site_label
_atom_site_fract_x
_atom_site_fract_y
_atom_site_fract_z
Si Si1 0.863819 0.556026 0.852840
Si Si2 0.500000 0.122911 0.750000
Si Si3 0.473883 0.388728 0.162877
Si Si4 0.010677 0.425364 0.824395
Si Si5 0.823544 0.859159 0.171361
Si Si6 0.898291 0.191673 0.972558
Si Si7 0.498806 0.906592 0.648023
Si Si8 0.867901 0.043873 0.835922
O O1 0.637761 0.553734 0.725139
O O2 0.912237 0.488446 0.819396
O O3 0.000000 0.500000 0.000000
O O4 0.944829 0.703645 0.900586
O O5 0.676089 0.213956 0.844126
O O6 0.433590 0.023018 0.650492
O O7 0.500000 0.442284 0.250000
O O8 0.519269 0.233074 0.194580
O O9 0.243716 0.403909 0.992027
O O10 0.000000 0.497613 0.750000
O O11 0.894707 0.288672 0.734622
O O12 0.803618 0.926448 0.223928
O O13 0.000000 0.920416 0.250000
O O14 0.638938 0.874868 0.003068
O O15 0.906194 0.172151 0.903344
O O16 0.946690 0.050152 0.034355
O O17 0.701374 0.961649 0.758425
#
# Coordination Sequence:
#
# PCOD9232338 Si02
#       8
#     4   2   4   4   4   4   4   4
#     4  12  25  43  67  95 129 176 226 275 323 384
#     4  10  22  36  62  94 128 166 206 268 334 388
#     4  12  23  41  70  97 124 170 225 273 319 399
#     4  11  25  44  66  98 134 176 225 275 326 388
#     4  11  21  37  62  90 128 161 210 255 321 387
#     4  10  22  37  60  89 125 160 209 264 322 382
#     4  11  20  37  62  93 126 161 209 258 325 395
#     4  10  21  36  59  92 124 159 203 266 323 385
#
# _framework density 20.022311999999999
#
# number of rings (size 3 to 8) (size 9 to 14) (size 15 to 20)
#    0.000    1.067    6.000    2.000    0.000    1.600 
#    0.000    2.000    0.000    0.000    0.000    0.000 
#    0.000    0.000    0.000    0.000    0.000    0.000 
#
# Total GULP energy -167327.469569 kJ/mol
# GULP energy per Si atom -5577.582319 kJ/mol
# Density = 1.997674 g / cm^3
# Si number density = 20.022312 Si / 1000 Ang^3
#
#
#
# Elastic Constant Matrix: (Units=GPa)
#
#
# Indices 1 2 3 4 5 6 
#
# 1 150.0638 38.8509 49.3769 0.0000 -7.4622 0.0000
# 2 38.8509 39.4607 20.2174 0.0000 -1.0647 0.0000
# 3 49.3769 20.2174 104.8270 0.0000 -4.1969 0.0000
# 4 0.0000 0.0000 0.0000 -110.0356 0.0000 210.4205
# 5 -7.4622 -1.0647 -4.1969 0.0000 43.0998 0.0000
# 6 0.0000 0.0000 0.0000 210.4205 0.0000 -340.0436
#
#
#
# Elastic Compliance Matrix: (Units=1/GPa)
#
#
# Indices 1 2 3 4 5 6 
#
# 1 0.009807 -0.008079 -0.003013 0.000000 0.001205 0.000000
# 2 -0.008079 0.034777 -0.002935 0.000000 -0.000825 0.000000
# 3 -0.003013 -0.002935 0.011546 0.000000 0.000530 0.000000
# 4 0.000000 0.000000 0.000000 0.049570 0.000000 0.030674
# 5 0.001205 -0.000825 0.000530 0.000000 0.023442 0.000000
# 6 0.000000 0.000000 0.000000 0.030674 0.000000 0.016040
#
#
# Mechanical properties :
#
#
# Convention : Reuss Voigt Hill
#
# Bulk Modulus (GPa) = 35.61715 56.80467 46.21091
# Shear Modulus (GPa) = 27.38309 -69.00213 -20.80952
#
# Velocity S-wave (km/s) = 3.70216 -5.87686 -3.22734
# Velocity P-wave (km/s) = 6.00849 4.19734 3.04009
#
# Compressibility (1/GPa) = 0.02807636
#
# Stress axis : x y z
#
# Youngs Moduli (GPa) = 101.97066 28.75442 86.61049
#
# Poissons Ratio (x) = 0.23231 0.26095
# Poissons Ratio (y) = 0.82383 0.25419
# Poissons Ratio (z) = 0.30723 0.08439
#
# Static dielectric constant tensor:
#      x y z
#    x 1.765060 0.000000 -0.152350 
#    y 0.000000 1.747550 0.000000 
#    z -0.152350 0.000000 3.126540 
# 
# From -- ./inp_files/80115.got.cif
#   From: 2010.05.17/outbox.cif.g08.bks.cpg/sg13_41_cif.got.tgz:80115.got - 2010.06.03 16:44:36.
