data_PCOD9232527
_publ_section_title
;
Structure prediction by ZEFSAII (Michael W. Deem and Ramdas Pophale) SiO2 
 PCOD9232527
Probable space group: P 2/C
;
_chemical_formula_sum "Si O2"
_cell_formula_units_Z 26
_cell_length_a 15.668548
_cell_length_b 6.164827
_cell_length_c 12.671420
_cell_angle_alpha 90.000000
_cell_angle_beta 76.376072
_cell_angle_gamma 90.000000
_cell_volume 1189.542199
_symmetry_space_group_name_H-M "P 2/C"
_symmetry_group_IT_number 13
_symmetry_cell_setting 'monoclinic'
loop_
_space_group_symop_operation_xyz
x,y,z
-x,y,1/2-z
-x,-y,-z
x,-y,1/2+z
loop_
_atom_site_type_symbol
_atom_site_label
_atom_site_fract_x
_atom_site_fract_y
_atom_site_fract_z
Si Si1 0.053246 0.088832 0.834327
Si Si2 0.577720 0.983824 0.891987
Si Si3 0.275359 0.975580 0.981329
Si Si4 0.637716 0.647945 0.708614
Si Si5 0.899243 0.263735 0.004392
Si Si6 0.204468 0.357746 0.858792
Si Si7 0.500000 0.681721 0.250000
O O1 0.145264 0.214659 0.797739
O O2 0.000000 0.005998 0.750000
O O3 0.073855 0.888406 0.904913
O O4 0.983992 0.257622 0.906318
O O5 0.589064 0.766408 0.819278
O O6 0.553667 0.170868 0.815564
O O7 0.667965 0.005744 0.930014
O O8 0.500000 0.000000 0.000000
O O9 0.253821 0.198285 0.926217
O O10 0.330591 0.827440 0.883506
O O11 0.182226 0.859934 0.026225
O O12 0.724562 0.514435 0.715831
O O13 0.571465 0.475787 0.676509
O O14 0.861122 0.490237 0.054899
#
# Coordination Sequence:
#
# PCOD9232527 Si02
#       7
#     4   4   4   4   4   4   2
#     4  10  21  37  60  91 127 165 208 259 314 373
#     4  12  25  42  64  92 126 163 209 262 316 376
#     4  10  23  42  64  91 124 165 211 261 313 374
#     4  11  24  42  64  92 124 161 208 260 313 378
#     4   9  21  39  59  89 127 163 208 261 310 371
#     4  10  21  40  63  89 126 164 207 259 313 373
#     4  12  26  44  64  90 126 160 202 258 312 374
#
# _framework density 21.857147999999999
#
# number of rings (size 3 to 8) (size 9 to 14) (size 15 to 20)
#    0.000    1.538    0.000    4.615    0.000   11.692 
#    0.000    0.000    0.000    0.000    0.000    0.000 
#    0.000    0.000    0.000    0.000    0.000    0.000 
#
# Total GULP energy -145300.029568 kJ/mol
# GULP energy per Si atom -5588.462676 kJ/mol
# Density = 2.180740 g / cm^3
# Si number density = 21.857148 Si / 1000 Ang^3
#
#
#
# Elastic Constant Matrix: (Units=GPa)
#
#
# Indices 1 2 3 4 5 6 
#
# 1 136.9314 47.9240 49.3775 0.0000 31.3534 0.0000
# 2 47.9240 80.2722 32.7693 0.0000 9.1762 0.0000
# 3 49.3775 32.7693 61.3959 0.0000 19.2291 0.0000
# 4 0.0000 0.0000 0.0000 -6.4207 0.0000 -3.5576
# 5 31.3534 9.1762 19.2291 0.0000 48.9076 0.0000
# 6 0.0000 0.0000 0.0000 -3.5576 0.0000 48.3224
#
#
#
# Elastic Compliance Matrix: (Units=1/GPa)
#
#
# Indices 1 2 3 4 5 6 
#
# 1 0.011956 -0.004186 -0.005961 0.000000 -0.004536 0.000000
# 2 -0.004186 0.017401 -0.006545 0.000000 0.001992 0.000000
# 3 -0.005961 -0.006545 0.026222 0.000000 -0.005261 0.000000
# 4 0.000000 0.000000 0.000000 -0.149642 0.000000 -0.011017
# 5 -0.004536 0.001992 -0.005261 0.000000 0.025049 0.000000
# 6 0.000000 0.000000 0.000000 -0.011017 0.000000 0.019883
#
#
# Mechanical properties :
#
#
# Convention : Reuss Voigt Hill
#
# Bulk Modulus (GPa) = 45.05278 59.86011 52.45644
# Shear Modulus (GPa) = -598.92112 28.06377 -285.42867
#
# Velocity S-wave (km/s) = -16.57139 3.58713 -11.43992
# Velocity P-wave (km/s) = 18.58738 6.67856 12.26556
#
# Compressibility (1/GPa) = 0.02219619
#
# Stress axis : x y z
#
# Youngs Moduli (GPa) = 83.64014 57.46860 38.13530
#
# Poissons Ratio (x) = 0.24057 0.22731
# Poissons Ratio (y) = 0.35013 0.24958
# Poissons Ratio (z) = 0.49855 0.37611
#
# Static dielectric constant tensor:
#      x y z
#    x 1.828550 0.000000 0.003270 
#    y 0.000000 1.795670 0.000000 
#    z 0.003270 0.000000 1.835920 
# 
# From -- ./inp_files/52260.got.cif
#   From: 2010.05.17/outbox.cif.g08.bks.cpg/sg13_27_cif.got.tgz:52260.got - 2010.06.03 16:44:36.
