data_PCOD9232597
_publ_section_title
;
Structure prediction by ZEFSAII (Michael W. Deem and Ramdas Pophale) SiO2 
 PCOD9232597
Probable space group: P 2/C
;
_chemical_formula_sum "Si O2"
_cell_formula_units_Z 30
_cell_length_a 10.526538
_cell_length_b 16.232404
_cell_length_c 9.814561
_cell_angle_alpha 90.000000
_cell_angle_beta 121.304235
_cell_angle_gamma 90.000000
_cell_volume 1432.883584
_symmetry_space_group_name_H-M "P 2/C"
_symmetry_group_IT_number 13
_symmetry_cell_setting 'monoclinic'
loop_
_space_group_symop_operation_xyz
x,y,z
-x,y,1/2-z
-x,-y,-z
x,-y,1/2+z
loop_
_atom_site_type_symbol
_atom_site_label
_atom_site_fract_x
_atom_site_fract_y
_atom_site_fract_z
Si Si1 0.180879 0.128511 0.844021
Si Si2 0.819716 0.058666 0.147842
Si Si3 0.833870 0.191864 0.947609
Si Si4 0.000000 0.516985 0.250000
Si Si5 0.637525 0.634143 0.723159
Si Si6 0.808564 0.804044 0.859810
Si Si7 0.623735 0.328791 0.909909
Si Si8 0.805825 0.465682 0.883940
O O1 0.216825 0.185679 0.736214
O O2 0.000000 0.124958 0.750000
O O3 0.234183 0.034109 0.862696
O O4 0.233350 0.166824 0.013203
O O5 0.767613 0.122713 0.233349
O O6 0.000000 0.054574 0.250000
O O7 0.789499 0.104387 0.989097
O O8 0.760737 0.265489 0.990526
O O9 0.011965 0.202805 0.050942
O O10 0.892190 0.564480 0.295577
O O11 0.095465 0.469004 0.420673
O O12 0.500000 0.631123 0.750000
O O13 0.731617 0.717315 0.793005
O O14 0.583599 0.638382 0.536440
O O15 0.743619 0.555914 0.812050
O O16 0.500000 0.284609 0.750000
O O17 0.673454 0.405607 0.846124
#
# Coordination Sequence:
#
# PCOD9232597 Si02
#       8
#     4   4   4   2   4   4   4   4
#     4   9  18  33  57  98 128 160 207 260 322 385
#     4   9  16  33  61  90 128 164 205 260 324 385
#     4  10  21  37  63  95 127 164 210 269 321 378
#     4  10  24  42  70 110 124 158 200 280 314 374
#     4  12  28  46  66  91 131 176 219 264 319 382
#     4  10  21  37  63  95 127 164 210 269 321 378
#     4  12  28  46  66  91 131 176 219 264 319 382
#     4  11  25  46  72  98 134 168 212 260 322 384
#
# _framework density 20.936800999999999
#
# number of rings (size 3 to 8) (size 9 to 14) (size 15 to 20)
#    0.000    1.600    2.667    1.200    7.467    4.267 
#    2.400    0.000    0.000    4.800    0.000    0.000 
#    0.000    0.000    0.000    0.000    0.000    0.000 
#
# Total GULP energy -167391.733175 kJ/mol
# GULP energy per Si atom -5579.724439 kJ/mol
# Density = 2.088915 g / cm^3
# Si number density = 20.936801 Si / 1000 Ang^3
#
#
#
# Elastic Constant Matrix: (Units=GPa)
#
#
# Indices 1 2 3 4 5 6 
#
# 1 73.2483 16.1775 40.5739 0.0000 -29.4251 0.0000
# 2 16.1775 83.9648 18.2921 0.0000 -6.4921 0.0000
# 3 40.5739 18.2921 113.6348 0.0000 -31.1834 0.0000
# 4 0.0000 0.0000 0.0000 18.8079 0.0000 -3.4363
# 5 -29.4251 -6.4921 -31.1834 0.0000 35.3317 0.0000
# 6 0.0000 0.0000 0.0000 -3.4363 0.0000 30.0624
#
#
#
# Elastic Compliance Matrix: (Units=1/GPa)
#
#
# Indices 1 2 3 4 5 6 
#
# 1 0.022054 -0.002354 -0.003397 0.000000 0.014937 0.000000
# 2 -0.002354 0.012606 -0.001440 0.000000 -0.000915 0.000000
# 3 -0.003397 -0.001440 0.012399 0.000000 0.007850 0.000000
# 4 0.000000 0.000000 0.000000 0.054303 0.000000 0.006207
# 5 0.014937 -0.000915 0.007850 0.000000 0.047503 0.000000
# 6 0.000000 0.000000 0.000000 0.006207 0.000000 0.033974
#
#
# Mechanical properties :
#
#
# Convention : Reuss Voigt Hill
#
# Bulk Modulus (GPa) = 30.60196 46.77053 38.68625
# Shear Modulus (GPa) = 24.02546 29.89401 26.95973
#
# Velocity S-wave (km/s) = 3.39119 3.78275 3.59231
# Velocity P-wave (km/s) = 5.47555 6.43944 5.97695
#
# Compressibility (1/GPa) = 0.03267764
#
# Stress axis : x y z
#
# Youngs Moduli (GPa) = 45.34343 79.32572 80.65316
#
# Poissons Ratio (x) = 0.18675 0.27395
# Poissons Ratio (y) = 0.10675 0.11612
# Poissons Ratio (z) = 0.15401 0.11421
#
# Static dielectric constant tensor:
#      x y z
#    x 1.778960 0.000000 0.017830 
#    y 0.000000 1.710020 0.000000 
#    z 0.017830 0.000000 1.777860 
# 
# From -- ./inp_files/16804.got.cif
#   From: 2010.05.17/outbox.cif.g08.bks.cpg/sg13_9_cif.got.tgz:16804.got - 2010.06.03 16:44:36.
