data_PCOD9232420
_publ_section_title
;
Structure prediction by ZEFSAII (Michael W. Deem and Ramdas Pophale) SiO2 
 PCOD9232420
Probable space group: P 2/C
;
_chemical_formula_sum "Si O2"
_cell_formula_units_Z 24
_cell_length_a 14.459569
_cell_length_b 16.395148
_cell_length_c 17.507117
_cell_angle_alpha 90.000000
_cell_angle_beta 164.907728
_cell_angle_gamma 90.000000
_cell_volume 1080.645907
_symmetry_space_group_name_H-M "P 2/C"
_symmetry_group_IT_number 13
_symmetry_cell_setting 'monoclinic'
loop_
_space_group_symop_operation_xyz
x,y,z
-x,y,1/2-z
-x,-y,-z
x,-y,1/2+z
loop_
_atom_site_type_symbol
_atom_site_label
_atom_site_fract_x
_atom_site_fract_y
_atom_site_fract_z
Si Si1 0.760732 0.943437 0.256782
Si Si2 0.580456 0.188613 0.903401
Si Si3 0.425179 0.369598 0.600733
Si Si4 0.339649 0.289308 0.963341
Si Si5 0.425087 0.455645 0.099020
Si Si6 0.170158 0.793607 0.544167
O O1 0.568148 0.880024 0.159629
O O2 0.010646 0.883372 0.406846
O O3 0.000000 0.000000 0.500000
O O4 0.500000 0.000000 0.000000
O O5 0.500000 0.173030 0.750000
O O6 0.441529 0.279536 0.813131
O O7 0.000000 0.189904 0.250000
O O8 0.500000 0.376646 0.750000
O O9 0.568075 0.456566 0.684038
O O10 0.000000 0.368131 0.250000
O O11 0.000000 0.284170 0.750000
O O12 0.141321 0.269411 0.726922
O O13 0.518200 0.376673 0.122696
O O14 0.640480 0.223142 0.223850
O O15 0.500000 0.442225 0.250000
O O16 0.000000 0.461176 0.750000
O O17 0.500000 0.781763 0.750000
#
# Coordination Sequence:
#
# PCOD9232420 Si02
#       6
#     4   4   4   4   4   4
#     4  12  26  42  62  87 112 147 192 242 300 352
#     4  10  21  40  63  86 115 150 190 237 290 344
#     4   8  15  27  48  78 109 144 184 227 273 322
#     4   9  16  29  51  78 110 148 184 221 269 324
#     4   9  14  23  44  77 111 142 186 228 261 320
#     4  10  21  37  56  80 113 149 184 226 280 340
#
# _framework density 22.208939999999998
#
# number of rings (size 3 to 8) (size 9 to 14) (size 15 to 20)
#    0.000    2.333    0.000    4.500    0.000    2.000 
#    0.000    0.000    0.000    2.000    0.000    0.000 
#    0.000   12.000    0.000    0.000    0.000    0.000 
#
# Total GULP energy -133803.322821 kJ/mol
# GULP energy per Si atom -5575.138451 kJ/mol
# Density = 2.215839 g / cm^3
# Si number density = 22.208940 Si / 1000 Ang^3
#
#
#
# Elastic Constant Matrix: (Units=GPa)
#
#
# Indices 1 2 3 4 5 6 
#
# 1 53.1117 18.9427 42.2027 0.0000 -22.9147 0.0000
# 2 18.9427 177.6617 59.5991 0.0000 -18.3176 0.0000
# 3 42.2027 59.5991 140.1786 0.0000 -46.3184 0.0000
# 4 0.0000 0.0000 0.0000 80.5430 0.0000 79.4832
# 5 -22.9147 -18.3176 -46.3184 0.0000 26.9687 0.0000
# 6 0.0000 0.0000 0.0000 79.4832 0.0000 194.5997
#
#
#
# Elastic Compliance Matrix: (Units=1/GPa)
#
#
# Indices 1 2 3 4 5 6 
#
# 1 0.029868 -0.000404 -0.001215 0.000000 0.023017 0.000000
# 2 -0.000404 0.006577 -0.003034 0.000000 -0.001086 0.000000
# 3 -0.001215 -0.003034 0.017959 0.000000 0.027752 0.000000
# 4 0.000000 0.000000 0.000000 0.020799 0.000000 -0.008495
# 5 0.023017 -0.001086 0.027752 0.000000 0.103563 0.000000
# 6 0.000000 0.000000 0.000000 -0.008495 0.000000 0.008609
#
#
# Mechanical properties :
#
#
# Convention : Reuss Voigt Hill
#
# Bulk Modulus (GPa) = 22.17312 68.04901 45.11107
# Shear Modulus (GPa) = 23.61665 77.10277 50.35971
#
# Velocity S-wave (km/s) = 3.26450 5.89851 4.76704
# Velocity P-wave (km/s) = 4.92085 8.78047 7.11729
#
# Compressibility (1/GPa) = 0.04509964
#
# Stress axis : x y z
#
# Youngs Moduli (GPa) = 33.48015 152.03365 55.68129
#
# Poissons Ratio (x) = 0.06140 0.06766
# Poissons Ratio (y) = 0.01352 0.16893
# Poissons Ratio (z) = 0.04068 0.46124
#
# Static dielectric constant tensor:
#      x y z
#    x 1.835570 0.000000 0.024310 
#    y 0.000000 1.864970 0.000000 
#    z 0.024310 0.000000 1.809500 
# 
# From -- ./inp_files/81154.got.cif
#   From: 2010.05.17/outbox.cif.g08.bks.cpg/sg13_41_cif.got.tgz:81154.got - 2010.06.03 16:44:36.
