data_PCOD9232757
_publ_section_title
;
Structure prediction by ZEFSAII (Michael W. Deem and Ramdas Pophale) SiO2 
 PCOD9232757
Probable space group: P 2/C
;
_chemical_formula_sum "Si O2"
_cell_formula_units_Z 26
_cell_length_a 14.603826
_cell_length_b 5.663214
_cell_length_c 13.000765
_cell_angle_alpha 90.000000
_cell_angle_beta 92.899357
_cell_angle_gamma 90.000000
_cell_volume 1073.846597
_symmetry_space_group_name_H-M "P 2/C"
_symmetry_group_IT_number 13
_symmetry_cell_setting 'monoclinic'
loop_
_space_group_symop_operation_xyz
x,y,z
-x,y,1/2-z
-x,-y,-z
x,-y,1/2+z
loop_
_atom_site_type_symbol
_atom_site_label
_atom_site_fract_x
_atom_site_fract_y
_atom_site_fract_z
Si Si1 0.185111 0.917903 0.764725
Si Si2 0.584340 0.000937 0.427876
Si Si3 0.341170 0.380499 0.212539
Si Si4 0.771290 0.764513 0.419079
Si Si5 0.500000 0.328448 0.750000
Si Si6 0.075846 0.353730 0.407125
Si Si7 0.958385 0.863333 0.134019
O O1 0.287303 0.819750 0.771386
O O2 0.120248 0.697374 0.795271
O O3 0.179719 0.044183 0.653469
O O4 0.151482 0.103330 0.849434
O O5 0.682671 0.890476 0.464989
O O6 0.548547 0.833375 0.335210
O O7 0.500000 0.000000 0.500000
O O8 0.606645 0.254227 0.379032
O O9 0.268378 0.560525 0.157989
O O10 0.416909 0.509670 0.284960
O O11 0.841673 0.665630 0.506507
O O12 0.027573 0.604930 0.408694
O O13 0.015976 0.115585 0.413252
O O14 0.000000 0.863548 0.250000
#
# Coordination Sequence:
#
# PCOD9232757 Si02
#       7
#     4   4   4   4   2   4   4
#     4   9  22  40  64  92 125 169 203 271 308 388
#     4  10  23  39  57  86 125 166 215 270 314 373
#     4  10  21  38  61  84 128 165 218 262 316 377
#     4  10  22  39  61  93 126 165 220 262 316 382
#     4  10  22  38  56  86 122 170 210 268 318 370
#     4  10  23  39  69  94 129 171 207 258 323 377
#     4  10  22  44  68  96 130 167 210 260 319 387
#
# _framework density 24.212025000000001
#
# number of rings (size 3 to 8) (size 9 to 14) (size 15 to 20)
#    0.923    1.231    0.000    1.846    4.308    8.615 
#    0.000    1.538    0.000    0.000    0.000    0.000 
#    0.000    0.000    0.000    0.000    0.000    0.000 
#
# Total GULP energy -145084.616147 kJ/mol
# GULP energy per Si atom -5580.177544 kJ/mol
# Density = 2.415692 g / cm^3
# Si number density = 24.212025 Si / 1000 Ang^3
#
#
#
# Elastic Constant Matrix: (Units=GPa)
#
#
# Indices 1 2 3 4 5 6 
#
# 1 94.3911 45.7979 28.1617 0.0000 2.0882 0.0000
# 2 45.7979 157.2116 44.9259 0.0000 13.4581 0.0000
# 3 28.1617 44.9259 42.1544 0.0000 1.1041 0.0000
# 4 0.0000 0.0000 0.0000 30.1974 0.0000 -5.0955
# 5 2.0882 13.4581 1.1041 0.0000 60.8462 0.0000
# 6 0.0000 0.0000 0.0000 -5.0955 0.0000 50.1489
#
#
#
# Elastic Compliance Matrix: (Units=1/GPa)
#
#
# Indices 1 2 3 4 5 6 
#
# 1 0.013643 -0.001981 -0.007006 0.000000 0.000097 0.000000
# 2 -0.001981 0.009646 -0.008907 0.000000 -0.001904 0.000000
# 3 -0.007006 -0.008907 0.037856 0.000000 0.001524 0.000000
# 4 0.000000 0.000000 0.000000 0.033693 0.000000 0.003423
# 5 0.000097 -0.001904 0.001524 0.000000 0.016825 0.000000
# 6 0.000000 0.000000 0.000000 0.003423 0.000000 0.020288
#
#
# Mechanical properties :
#
#
# Convention : Reuss Voigt Hill
#
# Bulk Modulus (GPa) = 39.43680 59.05868 49.24774
# Shear Modulus (GPa) = 28.37791 39.89659 34.13725
#
# Velocity S-wave (km/s) = 3.42725 4.06372 3.75898
# Velocity P-wave (km/s) = 5.65551 6.81642 6.26292
#
# Compressibility (1/GPa) = 0.02535702
#
# Stress axis : x y z
#
# Youngs Moduli (GPa) = 73.29546 103.66690 26.41588
#
# Poissons Ratio (x) = 0.20533 0.18508
# Poissons Ratio (y) = 0.14517 0.23530
# Poissons Ratio (z) = 0.51353 0.92340
#
# Static dielectric constant tensor:
#      x y z
#    x 1.965470 0.000000 -0.067520 
#    y 0.000000 1.965870 0.000000 
#    z -0.067520 0.000000 1.985880 
# 
# From -- ./inp_files/54296.got.cif
#   From: 2010.05.17/outbox.cif.g08.bks.cpg/sg13_28_cif.got.tgz:54296.got - 2010.06.03 16:44:36.
