data_PCOD9232773
_publ_section_title
;
Structure prediction by ZEFSAII (Michael W. Deem and Ramdas Pophale) SiO2 
 PCOD9232773
Probable space group: P 2/C
;
_chemical_formula_sum "Si O2"
_cell_formula_units_Z 24
_cell_length_a 20.379648
_cell_length_b 7.363051
_cell_length_c 8.176574
_cell_angle_alpha 90.000000
_cell_angle_beta 118.532011
_cell_angle_gamma 90.000000
_cell_volume 1077.934901
_symmetry_space_group_name_H-M "P 2/C"
_symmetry_group_IT_number 13
_symmetry_cell_setting 'monoclinic'
loop_
_space_group_symop_operation_xyz
x,y,z
-x,y,1/2-z
-x,-y,-z
x,-y,1/2+z
loop_
_atom_site_type_symbol
_atom_site_label
_atom_site_fract_x
_atom_site_fract_y
_atom_site_fract_z
Si Si1 0.587246 0.165317 0.999820
Si Si2 0.724064 0.639136 0.186091
Si Si3 0.056559 0.911347 0.193669
Si Si4 0.836432 0.895799 0.441909
Si Si5 0.432327 0.240872 0.906613
Si Si6 0.746401 0.255932 0.336323
O O1 0.521032 0.279254 0.009659
O O2 0.586196 0.210560 0.807082
O O3 0.666409 0.194686 0.175337
O O4 0.572244 0.950568 0.003181
O O5 0.762276 0.774908 0.363807
O O6 0.634290 0.634617 0.104653
O O7 0.760563 0.445143 0.262953
O O8 0.738891 0.710443 0.021419
O O9 0.104311 0.066567 0.344672
O O10 0.000000 0.811469 0.250000
O O11 0.117283 0.812077 0.154781
O O12 0.000000 0.000000 0.000000
O O13 0.805904 0.099015 0.371730
#
# Coordination Sequence:
#
# PCOD9232773 Si02
#       6
#     4   4   4   4   4   4
#     4  10  21  38  61  89 127 173 222 273 322 378
#     4  12  26  40  64  97 131 175 220 268 323 380
#     4   9  20  40  72 102 122 167 211 248 316 392
#     4  11  22  42  69  96 133 167 208 264 317 376
#     4  10  21  38  61  89 127 173 222 272 325 373
#     4  12  26  40  64  97 131 174 222 266 323 382
#
# _framework density 22.264797000000002
#
# number of rings (size 3 to 8) (size 9 to 14) (size 15 to 20)
#    0.000    1.333    3.333    2.000    4.667    2.667 
#    0.000    0.000    0.000   20.000    0.000    0.000 
#    0.000    0.000    0.000    0.000    0.000    0.000 
#
# Total GULP energy -133943.057983 kJ/mol
# GULP energy per Si atom -5580.960749 kJ/mol
# Density = 2.221412 g / cm^3
# Si number density = 22.264797 Si / 1000 Ang^3
#
#
#
# Elastic Constant Matrix: (Units=GPa)
#
#
# Indices 1 2 3 4 5 6 
#
# 1 108.9946 13.7403 32.3775 0.0000 9.1771 0.0000
# 2 13.7403 60.2057 -4.4633 0.0000 5.6584 0.0000
# 3 32.3775 -4.4633 108.8315 0.0000 27.4560 0.0000
# 4 0.0000 0.0000 0.0000 16.1091 0.0000 -4.5071
# 5 9.1771 5.6584 27.4560 0.0000 30.1881 0.0000
# 6 0.0000 0.0000 0.0000 -4.5071 0.0000 11.9234
#
#
#
# Elastic Compliance Matrix: (Units=1/GPa)
#
#
# Indices 1 2 3 4 5 6 
#
# 1 0.010465 -0.002664 -0.003304 0.000000 0.000323 0.000000
# 2 -0.002664 0.017906 0.002815 0.000000 -0.005107 0.000000
# 3 -0.003304 0.002815 0.013194 0.000000 -0.011523 0.000000
# 4 0.000000 0.000000 0.000000 0.069419 0.000000 0.026241
# 5 0.000323 -0.005107 -0.011523 0.000000 0.044465 0.000000
# 6 0.000000 0.000000 0.000000 0.026241 0.000000 0.093788
#
#
# Mechanical properties :
#
#
# Convention : Reuss Voigt Hill
#
# Bulk Modulus (GPa) = 28.36058 40.14897 34.25478
# Shear Modulus (GPa) = 18.70592 27.40260 23.05426
#
# Velocity S-wave (km/s) = 2.90169 3.51202 3.22134
# Velocity P-wave (km/s) = 4.89815 5.87515 5.40876
#
# Compressibility (1/GPa) = 0.03526021
#
# Stress axis : x y z
#
# Youngs Moduli (GPa) = 95.55814 55.84630 75.79211
#
# Poissons Ratio (x) = 0.14875 0.25042
# Poissons Ratio (y) = 0.25453 -0.21337
# Poissons Ratio (z) = 0.31573 -0.15722
#
# Static dielectric constant tensor:
#      x y z
#    x 1.879410 0.000000 -0.038580 
#    y 0.000000 1.799300 0.000000 
#    z -0.038580 0.000000 1.819240 
# 
# From -- ./inp_files/22576.got.cif
#   From: 2010.05.17/outbox.cif.g08.bks.cpg/sg13_12_cif.got.tgz:22576.got - 2010.06.03 16:44:36.
