data_PCOD9232369
_publ_section_title
;
Structure prediction by ZEFSAII (Michael W. Deem and Ramdas Pophale) SiO2 
 PCOD9232369
Probable space group: P 2/C
;
_chemical_formula_sum "Si O2"
_cell_formula_units_Z 24
_cell_length_a 17.194549
_cell_length_b 6.216258
_cell_length_c 22.500178
_cell_angle_alpha 90.000000
_cell_angle_beta 30.423511
_cell_angle_gamma 90.000000
_cell_volume 1217.836199
_symmetry_space_group_name_H-M "P 2/C"
_symmetry_group_IT_number 13
_symmetry_cell_setting 'monoclinic'
loop_
_space_group_symop_operation_xyz
x,y,z
-x,y,1/2-z
-x,-y,-z
x,-y,1/2+z
loop_
_atom_site_type_symbol
_atom_site_label
_atom_site_fract_x
_atom_site_fract_y
_atom_site_fract_z
Si Si1 0.451879 0.312455 0.577074
Si Si2 0.290334 0.238806 0.918302
Si Si3 0.011953 0.658818 0.811621
Si Si4 0.000000 0.753464 0.250000
Si Si5 0.262964 0.030232 0.126432
Si Si6 0.500000 0.145200 0.250000
Si Si7 0.410955 0.471504 0.730483
O O1 0.500000 0.500000 0.500000
O O2 0.602695 0.168649 0.492870
O O3 0.383185 0.426294 0.680286
O O4 0.339170 0.144808 0.619442
O O5 0.294858 0.339112 0.848997
O O6 0.418875 0.378353 0.867763
O O7 0.365180 0.004157 0.864655
O O8 0.129133 0.263761 0.056332
O O9 0.006964 0.401111 0.804069
O O10 0.163637 0.791826 0.728192
O O11 0.000000 0.721338 0.750000
O O12 0.845826 0.893684 0.346185
O O13 0.574243 0.289764 0.253101
#
# Coordination Sequence:
#
# PCOD9232369 Si02
#       7
#     4   4   4   2   4   2   4
#     4  11  25  40  61  90 133 164 207 255 312 380
#     4   9  19  37  59  89 120 152 213 255 307 364
#     4  10  21  36  61  94 119 150 207 265 307 361
#     4  10  22  40  62  92 126 156 208 256 310 366
#     4  11  23  40  60  94 120 168 202 253 319 364
#     4   8  18  36  62  84 118 168 200 258 308 362
#     4   9  20  37  55  88 122 162 206 247 309 367
#
# _framework density 19.707084999999999
#
# number of rings (size 3 to 8) (size 9 to 14) (size 15 to 20)
#    0.500    2.000    0.833    2.000    2.333    9.333 
#    3.000    0.833    0.000    5.000    0.000    0.000 
#    0.000    0.000    0.000    0.000    0.000    0.000 
#
# Total GULP energy -133654.982527 kJ/mol
# GULP energy per Si atom -5568.957605 kJ/mol
# Density = 1.966223 g / cm^3
# Si number density = 19.707085 Si / 1000 Ang^3
#
#
#
# Elastic Constant Matrix: (Units=GPa)
#
#
# Indices 1 2 3 4 5 6 
#
# 1 49.5849 31.5124 31.9470 0.0000 12.0953 0.0000
# 2 31.5124 112.6526 29.9480 0.0000 -8.2816 0.0000
# 3 31.9470 29.9480 113.9136 0.0000 3.1252 0.0000
# 4 0.0000 0.0000 0.0000 13.9022 0.0000 -8.4588
# 5 12.0953 -8.2816 3.1252 0.0000 36.5412 0.0000
# 6 0.0000 0.0000 0.0000 -8.4588 0.0000 18.5471
#
#
#
# Elastic Compliance Matrix: (Units=1/GPa)
#
#
# Indices 1 2 3 4 5 6 
#
# 1 0.032657 -0.008256 -0.006656 0.000000 -0.012112 0.000000
# 2 -0.008256 0.011843 -0.000949 0.000000 0.005498 0.000000
# 3 -0.006656 -0.000949 0.010866 0.000000 0.001059 0.000000
# 4 0.000000 0.000000 0.000000 0.099558 0.000000 0.045405
# 5 -0.012112 0.005498 0.001059 0.000000 0.032531 0.000000
# 6 0.000000 0.000000 0.000000 0.045405 0.000000 0.074625
#
#
# Mechanical properties :
#
#
# Convention : Reuss Voigt Hill
#
# Bulk Modulus (GPa) = 42.29448 51.44067 46.86758
# Shear Modulus (GPa) = 16.57373 25.98102 21.27737
#
# Velocity S-wave (km/s) = 2.90315 3.63486 3.28942
# Velocity P-wave (km/s) = 5.72240 6.61631 6.18553
#
# Compressibility (1/GPa) = 0.02364374
#
# Stress axis : x y z
#
# Youngs Moduli (GPa) = 30.62120 84.43957 92.03343
#
# Poissons Ratio (x) = 0.69715 0.61256
# Poissons Ratio (y) = 0.25281 0.08733
# Poissons Ratio (z) = 0.20381 0.08012
#
# Static dielectric constant tensor:
#      x y z
#    x 1.755260 0.000000 -0.018960 
#    y 0.000000 1.764810 0.000000 
#    z -0.018960 0.000000 1.686940 
# 
# From -- ./inp_files/87699.got.cif
#   From: 2010.05.17/outbox.cif.g08.bks.cpg/sg13_44_cif.got.tgz:87699.got - 2010.06.03 16:44:36.
