data_PCOD9232792
_publ_section_title
;
Structure prediction by ZEFSAII (Michael W. Deem and Ramdas Pophale) SiO2 
 PCOD9232792
Probable space group: P 2/C
;
_chemical_formula_sum "Si O2"
_cell_formula_units_Z 16
_cell_length_a 7.398679
_cell_length_b 22.050239
_cell_length_c 8.174787
_cell_angle_alpha 90.000000
_cell_angle_beta 141.924045
_cell_angle_gamma 90.000000
_cell_volume 822.473293
_symmetry_space_group_name_H-M "P 2/C"
_symmetry_group_IT_number 13
_symmetry_cell_setting 'monoclinic'
loop_
_space_group_symop_operation_xyz
x,y,z
-x,y,1/2-z
-x,-y,-z
x,-y,1/2+z
loop_
_atom_site_type_symbol
_atom_site_label
_atom_site_fract_x
_atom_site_fract_y
_atom_site_fract_z
Si Si1 0.000000 0.854119 0.750000
Si Si2 0.657618 0.305676 0.541800
Si Si3 0.714229 0.041725 0.256898
Si Si4 0.500000 0.772351 0.250000
Si Si5 0.340567 0.443152 0.966064
O O1 0.183524 0.899208 0.766165
O O2 0.783626 0.813571 0.487322
O O3 0.545446 0.265312 0.613527
O O4 0.634739 0.375652 0.589874
O O5 0.000000 0.293910 0.750000
O O6 0.500000 0.298564 0.250000
O O7 0.500000 0.060746 0.250000
O O8 0.000000 0.000000 0.500000
O O9 0.500000 0.000000 0.000000
O O10 0.000000 0.457118 0.750000
O O11 0.500000 0.435564 0.250000
O O12 0.500000 0.500000 0.000000
#
# Coordination Sequence:
#
# PCOD9232792 Si02
#       5
#     2   4   4   2   4
#     4  12  26  42  68 106 132 170 234 258 328 412
#     4  10  23  44  66  92 135 178 224 280 337 391
#     4  12  23  43  70  98 135 169 206 271 330 381
#     4  12  26  44  68  96 136 184 226 270 326 414
#     4  10  21  38  61  96 128 165 220 280 338 400
#
# _framework density 19.453517999999999
#
# number of rings (size 3 to 8) (size 9 to 14) (size 15 to 20)
#    0.000    1.000    2.500    3.750    1.750    3.000 
#    2.250    0.000    0.000    0.000    0.000    0.000 
#    0.000    0.000    0.000    0.000    0.000    0.000 
#
# Total GULP energy -89266.480019 kJ/mol
# GULP energy per Si atom -5579.155001 kJ/mol
# Density = 1.940924 g / cm^3
# Si number density = 19.453518 Si / 1000 Ang^3
#
#
#
# Elastic Constant Matrix: (Units=GPa)
#
#
# Indices 1 2 3 4 5 6 
#
# 1 154.0213 93.6802 51.8526 0.0000 -0.9974 0.0000
# 2 93.6802 145.3279 58.7141 0.0000 3.0456 0.0000
# 3 51.8526 58.7141 155.9664 0.0000 24.1813 0.0000
# 4 0.0000 0.0000 0.0000 34.1944 0.0000 7.2973
# 5 -0.9974 3.0456 24.1813 0.0000 30.2784 0.0000
# 6 0.0000 0.0000 0.0000 7.2973 0.0000 14.7588
#
#
#
# Elastic Compliance Matrix: (Units=1/GPa)
#
#
# Indices 1 2 3 4 5 6 
#
# 1 0.010984 -0.006499 -0.001555 0.000000 0.002257 0.000000
# 2 -0.006499 0.012053 -0.002460 0.000000 0.000538 0.000000
# 3 -0.001555 -0.002460 0.008930 0.000000 -0.006936 0.000000
# 4 0.000000 0.000000 0.000000 0.032694 0.000000 -0.016165
# 5 0.002257 0.000538 -0.006936 0.000000 0.038586 0.000000
# 6 0.000000 0.000000 0.000000 -0.016165 0.000000 0.075749
#
#
# Mechanical properties :
#
#
# Convention : Reuss Voigt Hill
#
# Bulk Modulus (GPa) = 91.42359 95.97884 93.70121
# Shear Modulus (GPa) = 24.54934 32.58423 28.56679
#
# Velocity S-wave (km/s) = 3.55625 4.09709 3.83621
# Velocity P-wave (km/s) = 7.99753 8.47503 8.23974
#
# Compressibility (1/GPa) = 0.01093810
#
# Stress axis : x y z
#
# Youngs Moduli (GPa) = 91.04273 82.96519 111.98161
#
# Poissons Ratio (x) = 0.53923 0.17413
# Poissons Ratio (y) = 0.59173 0.27549
# Poissons Ratio (z) = 0.14157 0.20411
#
# Static dielectric constant tensor:
#      x y z
#    x 1.545030 0.000000 0.001260 
#    y 0.000000 1.785540 0.000000 
#    z 0.001260 0.000000 1.665930 
# 
# From -- ./inp_files/13246.got.cif
#   From: 2010.05.17/outbox.cif.g08.bks.cpg/sg13_7_cif.got.tgz:13246.got - 2010.06.03 16:44:36.
