data_PCOD9232878
_publ_section_title
;
Structure prediction by ZEFSAII (Michael W. Deem and Ramdas Pophale) SiO2 
 PCOD9232878
Probable space group: P 2/C
;
_chemical_formula_sum "Si O2"
_cell_formula_units_Z 24
_cell_length_a 14.156113
_cell_length_b 5.301922
_cell_length_c 26.867635
_cell_angle_alpha 90.000000
_cell_angle_beta 30.832243
_cell_angle_gamma 90.000000
_cell_volume 1033.529393
_symmetry_space_group_name_H-M "P 2/C"
_symmetry_group_IT_number 13
_symmetry_cell_setting 'monoclinic'
loop_
_space_group_symop_operation_xyz
x,y,z
-x,y,1/2-z
-x,-y,-z
x,-y,1/2+z
loop_
_atom_site_type_symbol
_atom_site_label
_atom_site_fract_x
_atom_site_fract_y
_atom_site_fract_z
Si Si1 0.844310 0.540213 0.683607
Si Si2 0.537969 0.494011 0.396039
Si Si3 0.287041 0.024622 0.644349
Si Si4 0.925714 0.917667 0.859252
Si Si5 0.797981 0.258817 0.996800
Si Si6 0.878637 0.751527 0.563783
O O1 0.654376 0.451876 0.793161
O O2 0.812639 0.725087 0.650626
O O3 0.986704 0.331989 0.600511
O O4 0.963124 0.672212 0.673800
O O5 0.593225 0.719243 0.408377
O O6 0.326863 0.456490 0.476540
O O7 0.603395 0.215791 0.383944
O O8 0.208313 0.932059 0.627135
O O9 0.102892 0.082231 0.760444
O O10 0.807968 0.008896 0.959576
O O11 0.736149 0.240733 0.081972
O O12 0.000000 0.500000 0.500000
O O13 0.000000 0.000000 0.500000
#
# Coordination Sequence:
#
# PCOD9232878 Si02
#       6
#     4   4   4   4   4   4
#     4  10  22  43  64  90 131 163 208 266 318 370
#     4  11  25  40  62  94 127 162 213 257 309 374
#     4  10  24  41  60  92 125 165 210 257 310 375
#     4  10  21  39  67  84 126 169 206 254 321 369
#     4  11  23  39  66  91 124 167 210 255 315 377
#     4  10  21  38  65  92 119 161 207 251 312 373
#
# _framework density 23.221401
#
# number of rings (size 3 to 8) (size 9 to 14) (size 15 to 20)
#    0.000    1.667    3.333    0.000    4.667    3.333 
#    0.000    0.000    0.000    4.000    0.000    0.000 
#    0.000    0.000    0.000    0.000    0.000    0.000 
#
# Total GULP energy -133822.435906 kJ/mol
# GULP energy per Si atom -5575.934829 kJ/mol
# Density = 2.316855 g / cm^3
# Si number density = 23.221401 Si / 1000 Ang^3
#
#
#
# Elastic Constant Matrix: (Units=GPa)
#
#
# Indices 1 2 3 4 5 6 
#
# 1 95.6985 12.2075 9.7694 0.0000 14.0326 0.0000
# 2 12.2075 86.5127 2.3534 0.0000 -0.0421 0.0000
# 3 9.7694 2.3534 67.9406 0.0000 -7.6534 0.0000
# 4 0.0000 0.0000 0.0000 -20.2984 0.0000 13.3889
# 5 14.0326 -0.0421 -7.6534 0.0000 27.6631 0.0000
# 6 0.0000 0.0000 0.0000 13.3889 0.0000 24.7274
#
#
#
# Elastic Compliance Matrix: (Units=1/GPa)
#
#
# Indices 1 2 3 4 5 6 
#
# 1 0.011883 -0.001615 -0.002407 0.000000 -0.006696 0.000000
# 2 -0.001615 0.011790 -0.000085 0.000000 0.000814 0.000000
# 3 -0.002407 -0.000085 0.015694 0.000000 0.005563 0.000000
# 4 0.000000 0.000000 0.000000 -0.036300 0.000000 0.019655
# 5 -0.006696 0.000814 0.005563 0.000000 0.041086 0.000000
# 6 0.000000 0.000000 0.000000 0.019655 0.000000 0.029799
#
#
# Mechanical properties :
#
#
# Convention : Reuss Voigt Hill
#
# Bulk Modulus (GPa) = 32.09800 33.20137 32.64969
# Shear Modulus (GPa) = 54.02551 21.47318 37.74935
#
# Velocity S-wave (km/s) = 4.82865 3.04421 4.03628
# Velocity P-wave (km/s) = 6.70377 5.16576 5.98438
#
# Compressibility (1/GPa) = 0.03115459
#
# Stress axis : x y z
#
# Youngs Moduli (GPa) = 84.15324 84.82107 63.71675
#
# Poissons Ratio (x) = 0.13695 0.15337
# Poissons Ratio (y) = 0.13587 0.00539
# Poissons Ratio (z) = 0.20257 0.00717
#
# Static dielectric constant tensor:
#      x y z
#    x 1.974130 0.000000 0.076300 
#    y 0.000000 1.892440 0.000000 
#    z 0.076300 0.000000 1.932550 
# 
# From -- ./inp_files/51847.got.cif
#   From: 2010.05.17/outbox.cif.g08.bks.cpg/sg13_26_cif.got.tgz:51847.got - 2010.06.03 16:44:36.
