data_PCOD9232038
_publ_section_title
;
Structure prediction by ZEFSAII (Michael W. Deem and Ramdas Pophale) SiO2 
 PCOD9232038
Probable space group: P 2/C
;
_chemical_formula_sum "Si O2"
_cell_formula_units_Z 18
_cell_length_a 8.050383
_cell_length_b 5.116779
_cell_length_c 20.306861
_cell_angle_alpha 90.000000
_cell_angle_beta 57.000666
_cell_angle_gamma 90.000000
_cell_volume 701.537158
_symmetry_space_group_name_H-M "P 2/C"
_symmetry_group_IT_number 13
_symmetry_cell_setting 'monoclinic'
loop_
_space_group_symop_operation_xyz
x,y,z
-x,y,1/2-z
-x,-y,-z
x,-y,1/2+z
loop_
_atom_site_type_symbol
_atom_site_label
_atom_site_fract_x
_atom_site_fract_y
_atom_site_fract_z
Si Si1 0.000000 0.244867 0.750000
Si Si2 0.500000 0.431134 0.250000
Si Si3 0.555700 0.162973 0.857419
Si Si4 0.202949 0.134442 0.382374
Si Si5 0.037047 0.612454 0.092981
Si Si6 0.500000 0.500000 0.500000
O O1 0.789508 0.094287 0.801943
O O2 0.002515 0.403034 0.818628
O O3 0.489090 0.626191 0.190577
O O4 0.316944 0.232744 0.292323
O O5 0.515221 0.298191 0.934886
O O6 0.392372 0.936609 0.885829
O O7 0.075037 0.387681 0.422947
O O8 0.058949 0.889974 0.405366
O O9 0.266821 0.570076 0.032858
#
# Coordination Sequence:
#
# PCOD9232038 Si02
#       6
#     2   2   4   4   4   2
#     4  10  20  46  68 112 146 198 244 328 368 448
#     4  12  22  46  76 114 142 206 256 320 356 482
#     4  11  23  48  77 111 155 197 262 313 388 457
#     4  12  24  46  76 108 146 204 256 309 376 462
#     4  11  25  47  74 108 153 200 255 314 384 462
#     4  10  28  52  72 120 152 204 244 332 394 448
#
# _framework density 25.657943
#
# number of rings (size 3 to 8) (size 9 to 14) (size 15 to 20)
#    0.000    0.889    4.444    2.000    0.000    3.556 
#   20.000    0.000    0.000    0.000    0.000    0.000 
#    0.000    0.000    0.000    0.000    0.000    0.000 
#
# Total GULP energy -100214.358676 kJ/mol
# GULP energy per Si atom -5567.464371 kJ/mol
# Density = 2.559954 g / cm^3
# Si number density = 25.657943 Si / 1000 Ang^3
#
#
#
# Elastic Constant Matrix: (Units=GPa)
#
#
# Indices 1 2 3 4 5 6 
#
# 1 180.9812 69.1797 62.2924 0.0000 -37.8011 0.0000
# 2 69.1797 138.3511 50.2502 0.0000 -13.1592 0.0000
# 3 62.2924 50.2502 103.2592 0.0000 -16.9843 0.0000
# 4 0.0000 0.0000 0.0000 11.3741 0.0000 -22.1706
# 5 -37.8011 -13.1592 -16.9843 0.0000 57.8315 0.0000
# 6 0.0000 0.0000 0.0000 -22.1706 0.0000 -29.2002
#
#
#
# Elastic Compliance Matrix: (Units=1/GPa)
#
#
# Indices 1 2 3 4 5 6 
#
# 1 0.008480 -0.002722 -0.003133 0.000000 0.004004 0.000000
# 2 -0.002722 0.009687 -0.003155 0.000000 -0.000501 0.000000
# 3 -0.003133 -0.003155 0.013297 0.000000 0.001140 0.000000
# 4 0.000000 0.000000 0.000000 0.035452 0.000000 -0.026917
# 5 0.004004 -0.000501 0.001140 0.000000 0.020129 0.000000
# 6 0.000000 0.000000 0.000000 -0.026917 0.000000 -0.013809
#
#
# Mechanical properties :
#
#
# Convention : Reuss Voigt Hill
#
# Bulk Modulus (GPa) = 74.37230 87.33737 80.85484
# Shear Modulus (GPa) = 52.22670 24.05902 38.14286
#
# Velocity S-wave (km/s) = 4.51654 3.06548 3.85982
# Velocity P-wave (km/s) = 7.49986 6.82954 7.17253
#
# Compressibility (1/GPa) = 0.01344587
#
# Stress axis : x y z
#
# Youngs Moduli (GPa) = 117.91947 103.23054 75.20548
#
# Poissons Ratio (x) = 0.28097 0.23561
# Poissons Ratio (y) = 0.32095 0.23725
# Poissons Ratio (z) = 0.36942 0.32566
#
# Static dielectric constant tensor:
#      x y z
#    x 2.029570 0.000000 -0.028840 
#    y 0.000000 1.999860 0.000000 
#    z -0.028840 0.000000 2.127810 
# 
# From -- ./inp_files/74079.got.cif
#   From: 2010.05.17/outbox.cif.g08.bks.cpg/sg13_38_cif.got.tgz:74079.got - 2010.06.03 16:44:36.
