data_PCOD9232343
_publ_section_title
;
Structure prediction by ZEFSAII (Michael W. Deem and Ramdas Pophale) SiO2 
 PCOD9232343
Probable space group: P 2/C
;
_chemical_formula_sum "Si O2"
_cell_formula_units_Z 14
_cell_length_a 9.635575
_cell_length_b 15.729663
_cell_length_c 5.552383
_cell_angle_alpha 90.000000
_cell_angle_beta 137.354795
_cell_angle_gamma 90.000000
_cell_volume 570.109002
_symmetry_space_group_name_H-M "P 2/C"
_symmetry_group_IT_number 13
_symmetry_cell_setting 'monoclinic'
loop_
_space_group_symop_operation_xyz
x,y,z
-x,y,1/2-z
-x,-y,-z
x,-y,1/2+z
loop_
_atom_site_type_symbol
_atom_site_label
_atom_site_fract_x
_atom_site_fract_y
_atom_site_fract_z
Si Si1 0.271951 0.277648 0.201106
Si Si2 0.261829 0.210435 0.683754
Si Si3 0.237035 0.471086 0.261034
Si Si4 0.000000 0.947632 0.750000
O O1 0.184075 0.260597 0.352265
O O2 0.498866 0.235922 0.500207
O O3 0.263721 0.378954 0.173219
O O4 0.183582 0.236250 0.847208
O O5 0.196479 0.114670 0.533902
O O6 0.316710 0.469766 0.641146
O O7 0.000000 0.500000 0.000000
O O8 0.000000 0.000000 0.500000
#
# Coordination Sequence:
#
# PCOD9232343 Si02
#       4
#     4   4   4   2
#     4  10  21  43  65  94 130 175 224 261 315 397
#     4  10  23  43  68  93 126 172 213 264 329 398
#     4  10  21  36  59  95 132 174 220 275 318 352
#     4  12  26  46  70 102 130 158 208 274 338 404
#
# _framework density 24.556708
#
# number of rings (size 3 to 8) (size 9 to 14) (size 15 to 20)
#    0.000    1.714    0.000    3.429    0.000    6.857 
#    0.000   34.286    0.000    0.000    0.000    0.000 
#    0.000    0.000    0.000    0.000    0.000    0.000 
#
# Total GULP energy -78107.513067 kJ/mol
# GULP energy per Si atom -5579.108076 kJ/mol
# Density = 2.450082 g / cm^3
# Si number density = 24.556708 Si / 1000 Ang^3
#
#
#
# Elastic Constant Matrix: (Units=GPa)
#
#
# Indices 1 2 3 4 5 6 
#
# 1 187.1971 26.1699 63.3946 0.0000 -35.3215 0.0000
# 2 26.1699 140.7943 36.9352 0.0000 -3.9085 0.0000
# 3 63.3946 36.9352 201.8438 0.0000 -33.4903 0.0000
# 4 0.0000 0.0000 0.0000 53.8367 0.0000 1.4688
# 5 -35.3215 -3.9085 -33.4903 0.0000 72.9366 0.0000
# 6 0.0000 0.0000 0.0000 1.4688 0.0000 94.0705
#
#
#
# Elastic Compliance Matrix: (Units=1/GPa)
#
#
# Indices 1 2 3 4 5 6 
#
# 1 0.006394 -0.000734 -0.001479 0.000000 0.002378 0.000000
# 2 -0.000734 0.007549 -0.001237 0.000000 -0.000519 0.000000
# 3 -0.001479 -0.001237 0.005970 0.000000 0.001959 0.000000
# 4 0.000000 0.000000 0.000000 0.018583 0.000000 -0.000290
# 5 0.002378 -0.000519 0.001959 0.000000 0.015734 0.000000
# 6 0.000000 0.000000 0.000000 -0.000290 0.000000 0.010635
#
#
# Mechanical properties :
#
#
# Convention : Reuss Voigt Hill
#
# Bulk Modulus (GPa) = 76.84964 86.98161 81.91562
# Shear Modulus (GPa) = 65.69988 71.05781 68.37884
#
# Velocity S-wave (km/s) = 5.17807 5.38507 5.28259
# Velocity P-wave (km/s) = 8.19223 8.61179 8.40463
#
# Compressibility (1/GPa) = 0.01301242
#
# Stress axis : x y z
#
# Youngs Moduli (GPa) = 156.38888 132.46549 167.49638
#
# Poissons Ratio (x) = 0.09729 0.24779
# Poissons Ratio (y) = 0.11486 0.20717
# Poissons Ratio (z) = 0.23136 0.16384
#
# Static dielectric constant tensor:
#      x y z
#    x 3.213830 0.000000 -0.191830 
#    y 0.000000 1.966860 0.000000 
#    z -0.191830 0.000000 1.649600 
# 
# From -- ./inp_files/868.got.cif
#   From: 2010.05.17/outbox.cif.g08.bks.cpg/sg13_1_cif.got.tgz:868.got - 2010.06.03 16:44:36.
