data_PCOD9232208
_publ_section_title
;
Structure prediction by ZEFSAII (Michael W. Deem and Ramdas Pophale) SiO2 
 PCOD9232208
Probable space group: P 2/C
;
_chemical_formula_sum "Si O2"
_cell_formula_units_Z 28
_cell_length_a 9.248605
_cell_length_b 12.719969
_cell_length_c 9.707259
_cell_angle_alpha 90.000000
_cell_angle_beta 87.271112
_cell_angle_gamma 90.000000
_cell_volume 1140.686052
_symmetry_space_group_name_H-M "P 2/C"
_symmetry_group_IT_number 13
_symmetry_cell_setting 'monoclinic'
loop_
_space_group_symop_operation_xyz
x,y,z
-x,y,1/2-z
-x,-y,-z
x,-y,1/2+z
loop_
_atom_site_type_symbol
_atom_site_label
_atom_site_fract_x
_atom_site_fract_y
_atom_site_fract_z
Si Si1 0.366138 0.458731 0.346810
Si Si2 0.293544 0.249078 0.463323
Si Si3 0.767935 0.395736 0.418138
Si Si4 0.749633 0.966366 0.452593
Si Si5 0.229191 0.830618 0.669277
Si Si6 0.993581 0.657908 0.395922
Si Si7 0.932223 0.118758 0.573061
O O1 0.500000 0.496581 0.250000
O O2 0.396163 0.343582 0.411073
O O3 0.244541 0.440386 0.235228
O O4 0.322954 0.536733 0.469185
O O5 0.342022 0.140034 0.531827
O O6 0.225249 0.201420 0.326460
O O7 0.166804 0.307260 0.553786
O O8 0.715725 0.274930 0.407757
O O9 0.926965 0.393674 0.478160
O O10 0.909719 0.924272 0.396343
O O11 0.686242 0.061127 0.364682
O O12 0.804896 0.032431 0.586789
O O13 0.081433 0.855495 0.591687
O O14 0.000000 0.600671 0.250000
O O15 0.084868 0.766320 0.364120
#
# Coordination Sequence:
#
# PCOD9232208 Si02
#       7
#     4   4   4   4   4   4   4
#     4  11  25  46  69  89 114 163 225 269 313 368
#     4  10  21  35  61  88 128 169 197 253 315 372
#     4  10  23  43  65  91 121 162 205 270 314 369
#     4   8  14  28  48  84 118 158 198 232 287 369
#     4   8  16  33  52  84 119 157 206 241 303 361
#     4  10  21  36  56  94 136 159 199 248 315 384
#     4   7  14  28  45  79 117 163 191 229 278 362
#
# _framework density 24.546633
#
# number of rings (size 3 to 8) (size 9 to 14) (size 15 to 20)
#    0.857    2.000    0.000    0.429    2.000   12.000 
#    0.000    0.000    0.000    4.286    0.000    0.000 
#    0.000    0.000    0.000    0.000    0.000    0.000 
#
# Total GULP energy -155891.865930 kJ/mol
# GULP energy per Si atom -5567.566640 kJ/mol
# Density = 2.449076 g / cm^3
# Si number density = 24.546633 Si / 1000 Ang^3
#
#
#
# Elastic Constant Matrix: (Units=GPa)
#
#
# Indices 1 2 3 4 5 6 
#
# 1 20.2105 21.1292 9.3913 0.0000 3.9514 0.0000
# 2 21.1292 146.9458 37.6475 0.0000 -16.0040 0.0000
# 3 9.3913 37.6475 99.5753 0.0000 9.8884 0.0000
# 4 0.0000 0.0000 0.0000 32.2847 0.0000 -3.2734
# 5 3.9514 -16.0040 9.8884 0.0000 24.6500 0.0000
# 6 0.0000 0.0000 0.0000 -3.2734 0.0000 5.4723
#
#
#
# Elastic Compliance Matrix: (Units=1/GPa)
#
#
# Indices 1 2 3 4 5 6 
#
# 1 0.064661 -0.011179 -0.000127 0.000000 -0.017572 0.000000
# 2 -0.011179 0.010535 -0.003943 0.000000 0.010214 0.000000
# 3 -0.000127 -0.003943 0.012287 0.000000 -0.007469 0.000000
# 4 0.000000 0.000000 0.000000 0.032974 0.000000 0.019724
# 5 -0.017572 0.010214 -0.007469 0.000000 0.053012 0.000000
# 6 0.000000 0.000000 0.000000 0.019724 0.000000 0.194537
#
#
# Mechanical properties :
#
#
# Convention : Reuss Voigt Hill
#
# Bulk Modulus (GPa) = 17.54836 44.78529 31.16683
# Shear Modulus (GPa) = 11.97608 25.71897 18.84753
#
# Velocity S-wave (km/s) = 2.21122 3.24042 2.77397
# Velocity P-wave (km/s) = 3.69917 5.68199 4.79421
#
# Compressibility (1/GPa) = 0.05698539
#
# Stress axis : x y z
#
# Youngs Moduli (GPa) = 15.46536 94.91956 81.38590
#
# Poissons Ratio (x) = 1.06108 0.01033
# Poissons Ratio (y) = 0.17288 0.32092
# Poissons Ratio (z) = 0.00196 0.37428
#
# Static dielectric constant tensor:
#      x y z
#    x 2.017040 0.000000 0.003500 
#    y 0.000000 2.065920 0.000000 
#    z 0.003500 0.000000 1.980310 
# 
# From -- ./inp_files/33220.got.cif
#   From: 2010.05.17/outbox.cif.g08.bks.cpg/sg13_17_cif.got.tgz:33220.got - 2010.06.03 16:44:36.
