data_PCOD9232295
_publ_section_title
;
Structure prediction by ZEFSAII (Michael W. Deem and Ramdas Pophale) SiO2 
 PCOD9232295
Probable space group: P 2/C
;
_chemical_formula_sum "Si O2"
_cell_formula_units_Z 28
_cell_length_a 11.615393
_cell_length_b 25.754375
_cell_length_c 4.982087
_cell_angle_alpha 90.000000
_cell_angle_beta 91.199384
_cell_angle_gamma 90.000000
_cell_volume 1490.050783
_symmetry_space_group_name_H-M "P 2/C"
_symmetry_group_IT_number 13
_symmetry_cell_setting 'monoclinic'
loop_
_space_group_symop_operation_xyz
x,y,z
-x,y,1/2-z
-x,-y,-z
x,-y,1/2+z
loop_
_atom_site_type_symbol
_atom_site_label
_atom_site_fract_x
_atom_site_fract_y
_atom_site_fract_z
Si Si1 0.076063 0.266646 0.502989
Si Si2 0.636355 0.848645 0.690949
Si Si3 0.247954 0.357903 0.381070
Si Si4 0.360260 0.967536 0.731142
Si Si5 0.716635 0.212198 0.695229
Si Si6 0.377888 0.327559 0.879330
Si Si7 0.136026 0.465637 0.218484
O O1 0.151884 0.312570 0.373440
O O2 0.161957 0.226593 0.657924
O O3 0.000000 0.245668 0.250000
O O4 0.000000 0.287325 0.750000
O O5 0.500000 0.844758 0.750000
O O6 0.673810 0.908606 0.712652
O O7 0.653379 0.826062 0.396782
O O8 0.710205 0.814564 0.904848
O O9 0.288504 0.358898 0.689981
O O10 0.201136 0.412986 0.287574
O O11 0.351268 0.340958 0.186080
O O12 0.500000 0.966759 0.750000
O O13 0.322904 0.989852 0.445170
O O14 0.650983 0.266919 0.664321
O O15 0.500000 0.338227 0.750000
O O16 0.162092 0.511915 0.427759
O O17 0.000000 0.455118 0.250000
#
# Coordination Sequence:
#
# PCOD9232295 Si02
#       7
#     4   4   4   4   4   4   4
#     4  11  22  37  56  79 111 143 176 222 272 328
#     4  11  20  32  51  75 110 146 176 217 261 312
#     4  11  22  37  59  82 107 143 180 215 265 325
#     4   9  17  29  45  68 100 139 177 212 258 312
#     4  11  22  34  51  79 107 140 181 216 262 318
#     4  11  22  37  56  79 110 146 184 220 253 307
#     4  10  21  36  57  83 108 133 168 221 277 323
#
# _framework density 18.791308000000001
#
# number of rings (size 3 to 8) (size 9 to 14) (size 15 to 20)
#    0.000    1.429    0.000    8.143    0.000    4.000 
#    0.000    0.000    0.000    8.571    0.000    0.000 
#    0.000   40.000    0.000    0.000    0.000    0.000 
#
# Total GULP energy -156307.162171 kJ/mol
# GULP energy per Si atom -5582.398649 kJ/mol
# Density = 1.874854 g / cm^3
# Si number density = 18.791308 Si / 1000 Ang^3
#
#
#
# Elastic Constant Matrix: (Units=GPa)
#
#
# Indices 1 2 3 4 5 6 
#
# 1 38.4226 13.6725 -2.9044 0.0000 -2.6082 0.0000
# 2 13.6725 84.2898 -4.8674 0.0000 2.1477 0.0000
# 3 -2.9044 -4.8674 61.5420 0.0000 -5.9244 0.0000
# 4 0.0000 0.0000 0.0000 -23.5748 0.0000 22.7460
# 5 -2.6082 2.1477 -5.9244 0.0000 34.2861 0.0000
# 6 0.0000 0.0000 0.0000 22.7460 0.0000 -23.0231
#
#
#
# Elastic Compliance Matrix: (Units=1/GPa)
#
#
# Indices 1 2 3 4 5 6 
#
# 1 0.027905 -0.004523 0.001211 0.000000 0.002615 0.000000
# 2 -0.004523 0.012663 0.000690 0.000000 -0.001018 0.000000
# 3 0.001211 0.000690 0.016642 0.000000 0.002925 0.000000
# 4 0.000000 0.000000 0.000000 -0.906949 0.000000 -0.896033
# 5 0.002615 -0.001018 0.002925 0.000000 0.029934 0.000000
# 6 0.000000 0.000000 0.000000 -0.896033 0.000000 -0.928684
#
#
# Mechanical properties :
#
#
# Convention : Reuss Voigt Hill
#
# Bulk Modulus (GPa) = 19.24318 21.78398 20.51358
# Shear Modulus (GPa) = -2.89700 9.42790 3.26545
#
# Velocity S-wave (km/s) = -1.24299 2.24233 1.31966
# Velocity P-wave (km/s) = 2.86403 4.28040 3.64174
#
# Compressibility (1/GPa) = 0.05196647
#
# Stress axis : x y z
#
# Youngs Moduli (GPa) = 35.83595 78.96834 60.08774
#
# Poissons Ratio (x) = 0.35718 -0.07277
# Poissons Ratio (y) = 0.16209 -0.04147
# Poissons Ratio (z) = -0.04340 -0.05449
#
# Static dielectric constant tensor:
#      x y z
#    x 1.639650 0.000000 0.017520 
#    y 0.000000 1.621720 0.000000 
#    z 0.017520 0.000000 1.637470 
# 
# From -- ./inp_files/3944.got.cif
#   From: 2010.05.17/outbox.cif.g08.bks.cpg/sg13_2_cif.got.tgz:3944.got - 2010.06.03 16:44:36.
