data_PCOD9232961
_publ_section_title
;
Structure prediction by ZEFSAII (Michael W. Deem and Ramdas Pophale) SiO2 
 PCOD9232961
Probable space group: P 2/C
;
_chemical_formula_sum "Si O2"
_cell_formula_units_Z 20
_cell_length_a 16.472663
_cell_length_b 7.987325
_cell_length_c 17.712891
_cell_angle_alpha 90.000000
_cell_angle_beta 23.730114
_cell_angle_gamma 90.000000
_cell_volume 937.872649
_symmetry_space_group_name_H-M "P 2/C"
_symmetry_group_IT_number 13
_symmetry_cell_setting 'monoclinic'
loop_
_space_group_symop_operation_xyz
x,y,z
-x,y,1/2-z
-x,-y,-z
x,-y,1/2+z
loop_
_atom_site_type_symbol
_atom_site_label
_atom_site_fract_x
_atom_site_fract_y
_atom_site_fract_z
Si Si1 0.946393 0.303948 0.962160
Si Si2 0.168603 0.903407 0.170590
Si Si3 0.310451 0.601217 0.959767
Si Si4 0.277612 0.563130 0.712825
Si Si5 0.788766 0.734824 0.884644
O O1 0.042297 0.126497 0.855011
O O2 0.133492 0.401708 0.839633
O O3 0.873636 0.384610 0.943827
O O4 0.762415 0.330466 0.176957
O O5 0.000000 0.916746 0.250000
O O6 0.290822 0.075251 0.056548
O O7 0.282532 0.732481 0.051663
O O8 0.500000 0.655534 0.750000
O O9 0.335119 0.412227 0.968394
O O10 0.500000 0.500000 0.500000
O O11 0.190950 0.671546 0.717742
O O12 0.000000 0.737333 0.750000
#
# Coordination Sequence:
#
# PCOD9232961 Si02
#       5
#     4   4   4   4   4
#     4  10  21  39  60  89 127 159 201 256 306 365
#     4   9  20  37  61  90 119 161 208 252 306 364
#     4  11  20  37  64  89 124 161 202 259 307 359
#     4  11  22  38  64  93 122 166 207 246 315 368
#     4  11  20  39  64  87 120 161 209 254 303 368
#
# _framework density 21.324857999999999
#
# number of rings (size 3 to 8) (size 9 to 14) (size 15 to 20)
#    0.000    1.600    4.000    1.800    0.000    1.600 
#    0.000    1.000    0.000    0.000    0.000    0.000 
#    0.000    0.000    0.000    0.000    0.000    0.000 
#
# Total GULP energy -111352.759303 kJ/mol
# GULP energy per Si atom -5567.637965 kJ/mol
# Density = 2.127632 g / cm^3
# Si number density = 21.324858 Si / 1000 Ang^3
#
#
#
# Elastic Constant Matrix: (Units=GPa)
#
#
# Indices 1 2 3 4 5 6 
#
# 1 74.8247 15.9539 12.8231 0.0000 21.9432 0.0000
# 2 15.9539 107.5647 37.4353 0.0000 7.8575 0.0000
# 3 12.8231 37.4353 106.9837 0.0000 12.7192 0.0000
# 4 0.0000 0.0000 0.0000 7.5984 0.0000 1.1574
# 5 21.9432 7.8575 12.7192 0.0000 36.1312 0.0000
# 6 0.0000 0.0000 0.0000 1.1574 0.0000 -5.9341
#
#
#
# Elastic Compliance Matrix: (Units=1/GPa)
#
#
# Indices 1 2 3 4 5 6 
#
# 1 0.016585 -0.001666 -0.000261 0.000000 -0.009618 0.000000
# 2 -0.001666 0.010791 -0.003567 0.000000 -0.000079 0.000000
# 3 -0.000261 -0.003567 0.010975 0.000000 -0.002929 0.000000
# 4 0.000000 0.000000 0.000000 0.127809 0.000000 0.024928
# 5 -0.009618 -0.000079 -0.002929 0.000000 0.034567 0.000000
# 6 0.000000 0.000000 0.000000 0.024928 0.000000 -0.163655
#
#
# Mechanical properties :
#
#
# Convention : Reuss Voigt Hill
#
# Bulk Modulus (GPa) = 36.54679 46.86641 41.70660
# Shear Modulus (GPa) = 87.44101 22.43648 54.93875
#
# Velocity S-wave (km/s) = 6.41040 3.24717 5.08121
# Velocity P-wave (km/s) = 8.48330 6.00699 7.35018
#
# Compressibility (1/GPa) = 0.02736219
#
# Stress axis : x y z
#
# Youngs Moduli (GPa) = 60.29424 92.66976 91.11727
#
# Poissons Ratio (x) = 0.15442 0.02381
# Poissons Ratio (y) = 0.10047 0.32500
# Poissons Ratio (z) = 0.01576 0.33054
#
# Static dielectric constant tensor:
#      x y z
#    x 1.807460 0.000000 -0.005710 
#    y 0.000000 1.850640 0.000000 
#    z -0.005710 0.000000 1.813360 
# 
# From -- ./inp_files/81485.got.cif
#   From: 2010.05.17/outbox.cif.g08.bks.cpg/sg13_41_cif.got.tgz:81485.got - 2010.06.03 16:44:36.
