data_PCOD9232400
_publ_section_title
;
Structure prediction by ZEFSAII (Michael W. Deem and Ramdas Pophale) SiO2 
 PCOD9232400
Probable space group: P 2/C
;
_chemical_formula_sum "Si O2"
_cell_formula_units_Z 28
_cell_length_a 30.296903
_cell_length_b 8.857268
_cell_length_c 29.877173
_cell_angle_alpha 90.000000
_cell_angle_beta 170.455770
_cell_angle_gamma 90.000000
_cell_volume 1329.368664
_symmetry_space_group_name_H-M "P 2/C"
_symmetry_group_IT_number 13
_symmetry_cell_setting 'monoclinic'
loop_
_space_group_symop_operation_xyz
x,y,z
-x,y,1/2-z
-x,-y,-z
x,-y,1/2+z
loop_
_atom_site_type_symbol
_atom_site_label
_atom_site_fract_x
_atom_site_fract_y
_atom_site_fract_z
Si Si1 0.756580 0.193636 0.778744
Si Si2 0.530007 0.011693 0.374173
Si Si3 0.000000 0.679070 0.750000
Si Si4 0.739692 0.167585 0.272690
Si Si5 0.500000 0.885933 0.250000
Si Si6 0.559223 0.683566 0.172969
Si Si7 0.027192 0.803652 0.398534
Si Si8 0.062019 0.528298 0.718267
O O1 0.556075 0.215552 0.536569
O O2 0.654910 0.294798 0.717779
O O3 0.738066 0.015810 0.773622
O O4 0.058282 0.215680 0.064683
O O5 0.595755 0.981682 0.388183
O O6 0.459529 0.851660 0.325643
O O7 0.274436 0.118664 0.120998
O O8 0.778304 0.082611 0.648819
O O9 0.095523 0.583592 0.802747
O O10 0.750362 0.782997 0.486390
O O11 0.858742 0.226993 0.437883
O O12 0.777456 0.587239 0.417308
O O13 0.279349 0.604628 0.903204
O O14 0.931841 0.650682 0.280292
#
# Coordination Sequence:
#
# PCOD9232400 Si02
#       8
#     4   4   2   4   2   4   4   4
#     4  10  21  36  66  95 125 169 226 271 318 388
#     4  12  24  42  70  96 129 167 221 281 313 383
#     4  12  22  44  66  96 128 172 218 260 326 402
#     4  10  21  38  61  97 130 169 213 281 327 376
#     4  12  24  42  70 102 126 158 232 280 318 366
#     4  12  23  44  67 101 124 179 226 264 319 398
#     4  12  26  44  65 101 138 172 214 272 342 387
#     4  12  26  43  67  94 138 177 209 268 338 402
#
# _framework density 21.062628
#
# number of rings (size 3 to 8) (size 9 to 14) (size 15 to 20)
#    0.000    0.571    4.286    4.286    4.000    1.143 
#    0.000    4.286    0.000    0.000    0.000    0.000 
#    0.000    0.000    0.000    0.000    0.000    0.000 
#
# Total GULP energy -156682.613967 kJ/mol
# GULP energy per Si atom -5595.807642 kJ/mol
# Density = 2.101469 g / cm^3
# Si number density = 21.062628 Si / 1000 Ang^3
#
#
#
# Elastic Constant Matrix: (Units=GPa)
#
#
# Indices 1 2 3 4 5 6 
#
# 1 23.0312 11.9009 7.6313 0.0000 2.8277 0.0000
# 2 11.9009 47.6080 12.4116 0.0000 4.0200 0.0000
# 3 7.6313 12.4116 252.4668 0.0000 -26.6218 0.0000
# 4 0.0000 0.0000 0.0000 -139.9796 0.0000 -90.5187
# 5 2.8277 4.0200 -26.6218 0.0000 38.6348 0.0000
# 6 0.0000 0.0000 0.0000 -90.5187 0.0000 -42.9234
#
#
#
# Elastic Compliance Matrix: (Units=1/GPa)
#
#
# Indices 1 2 3 4 5 6 
#
# 1 0.050453 -0.011995 -0.001287 0.000000 -0.003331 0.000000
# 2 -0.011995 0.024494 -0.001098 0.000000 -0.002427 0.000000
# 3 -0.001287 -0.001098 0.004395 0.000000 0.003237 0.000000
# 4 0.000000 0.000000 0.000000 0.019642 0.000000 -0.041423
# 5 -0.003331 -0.002427 0.003237 0.000000 0.028610 0.000000
# 6 0.000000 0.000000 0.000000 -0.041423 0.000000 0.064057
#
#
# Mechanical properties :
#
#
# Convention : Reuss Voigt Hill
#
# Bulk Modulus (GPa) = 19.76925 42.99930 31.38427
# Shear Modulus (GPa) = 21.07283 -9.44281 5.81501
#
# Velocity S-wave (km/s) = 3.16648 -2.11966 1.66337
# Velocity P-wave (km/s) = 4.77232 3.80378 4.31531
#
# Compressibility (1/GPa) = 0.05058362
#
# Stress axis : x y z
#
# Youngs Moduli (GPa) = 19.82038 40.82550 227.52729
#
# Poissons Ratio (x) = 0.48972 0.29274
# Poissons Ratio (y) = 0.23775 0.24971
# Poissons Ratio (z) = 0.02550 0.04481
#
# Static dielectric constant tensor:
#      x y z
#    x 1.066070 0.000000 0.143620 
#    y 0.000000 1.726780 0.000000 
#    z 0.143620 0.000000 1.690480 
# 
# From -- ./inp_files/98139.got.cif
#   From: 2010.05.17/outbox.cif.g08.bks.cpg/sg13_50_cif.got.tgz:98139.got - 2010.06.03 16:44:36.
