data_PCOD9232794
_publ_section_title
;
Structure prediction by ZEFSAII (Michael W. Deem and Ramdas Pophale) SiO2 
 PCOD9232794
Probable space group: P 2/C
;
_chemical_formula_sum "Si O2"
_cell_formula_units_Z 16
_cell_length_a 12.814847
_cell_length_b 7.179559
_cell_length_c 22.161825
_cell_angle_alpha 90.000000
_cell_angle_beta 159.313817
_cell_angle_gamma 90.000000
_cell_volume 720.274373
_symmetry_space_group_name_H-M "P 2/C"
_symmetry_group_IT_number 13
_symmetry_cell_setting 'monoclinic'
loop_
_space_group_symop_operation_xyz
x,y,z
-x,y,1/2-z
-x,-y,-z
x,-y,1/2+z
loop_
_atom_site_type_symbol
_atom_site_label
_atom_site_fract_x
_atom_site_fract_y
_atom_site_fract_z
Si Si1 0.517829 0.759652 0.193769
Si Si2 0.962646 0.979452 0.370595
Si Si3 0.254484 0.766407 0.843542
Si Si4 0.764917 0.358633 0.707404
O O1 0.500000 0.670449 0.250000
O O2 0.573789 0.629556 0.166171
O O3 0.796877 0.899861 0.339461
O O4 0.233026 0.886753 0.028532
O O5 0.730099 0.096816 0.204589
O O6 0.016280 0.790402 0.360775
O O7 0.143477 0.562912 0.762136
O O8 0.000000 0.843213 0.750000
O O9 0.554000 0.728728 0.042051
#
# Coordination Sequence:
#
# PCOD9232794 Si02
#       4
#     4   4   4   4
#     4  10  21  41  60  83 119 154 196 238 279 342
#     4  10  21  38  62  85 114 155 190 236 292 337
#     4  11  19  38  58  88 119 145 191 242 290 344
#     4   9  23  34  60  88 115 152 188 237 291 343
#
# _framework density 22.213754999999999
#
# number of rings (size 3 to 8) (size 9 to 14) (size 15 to 20)
#    1.500    0.500    2.500    1.500    0.000    5.000 
#    0.000    2.500    0.000    0.000    0.000    0.000 
#    0.000    0.000    0.000    0.000    0.000    0.000 
#
# Total GULP energy -89205.430062 kJ/mol
# GULP energy per Si atom -5575.339379 kJ/mol
# Density = 2.216320 g / cm^3
# Si number density = 22.213755 Si / 1000 Ang^3
#
#
#
# Elastic Constant Matrix: (Units=GPa)
#
#
# Indices 1 2 3 4 5 6 
#
# 1 85.4358 -1.8256 0.9722 0.0000 -15.1536 0.0000
# 2 -1.8256 45.3300 4.1085 0.0000 -11.7959 0.0000
# 3 0.9722 4.1085 29.2248 0.0000 -4.3259 0.0000
# 4 0.0000 0.0000 0.0000 5.3494 0.0000 1.2329
# 5 -15.1536 -11.7959 -4.3259 0.0000 26.5653 0.0000
# 6 0.0000 0.0000 0.0000 1.2329 0.0000 20.4116
#
#
#
# Elastic Compliance Matrix: (Units=1/GPa)
#
#
# Indices 1 2 3 4 5 6 
#
# 1 0.013346 0.002821 0.000483 0.000000 0.008944 0.000000
# 2 0.002821 0.025644 -0.001819 0.000000 0.012700 0.000000
# 3 0.000483 -0.001819 0.035228 0.000000 0.005204 0.000000
# 4 0.000000 0.000000 0.000000 0.189575 0.000000 -0.011451
# 5 0.008944 0.012700 0.005204 0.000000 0.049232 0.000000
# 6 0.000000 0.000000 0.000000 -0.011451 0.000000 0.049683
#
#
# Mechanical properties :
#
#
# Convention : Reuss Voigt Hill
#
# Bulk Modulus (GPa) = 12.95534 18.50007 15.72771
# Shear Modulus (GPa) = 12.97132 20.91430 16.94281
#
# Velocity S-wave (km/s) = 2.41909 3.07172 2.76473
# Velocity P-wave (km/s) = 3.69425 4.57459 4.15778
#
# Compressibility (1/GPa) = 0.07718823
#
# Stress axis : x y z
#
# Youngs Moduli (GPa) = 74.92920 38.99589 28.38690
#
# Poissons Ratio (x) = -0.11002 -0.01372
# Poissons Ratio (y) = -0.21139 0.05164
# Poissons Ratio (z) = -0.03622 0.07094
#
# Static dielectric constant tensor:
#      x y z
#    x 1.832930 0.000000 -0.005740 
#    y 0.000000 1.788980 0.000000 
#    z -0.005740 0.000000 1.831240 
# 
# From -- ./inp_files/14330.got.cif
#   From: 2010.05.17/outbox.cif.g08.bks.cpg/sg13_8_cif.got.tgz:14330.got - 2010.06.03 16:44:36.
