data_PCOD9232069
_publ_section_title
;
Structure prediction by ZEFSAII (Michael W. Deem and Ramdas Pophale) SiO2 
 PCOD9232069
Probable space group: P 2/C
;
_chemical_formula_sum "Si O2"
_cell_formula_units_Z 32
_cell_length_a 15.369770
_cell_length_b 19.682728
_cell_length_c 5.538142
_cell_angle_alpha 90.000000
_cell_angle_beta 64.897005
_cell_angle_gamma 90.000000
_cell_volume 1517.146649
_symmetry_space_group_name_H-M "P 2/C"
_symmetry_group_IT_number 13
_symmetry_cell_setting 'monoclinic'
loop_
_space_group_symop_operation_xyz
x,y,z
-x,y,1/2-z
-x,-y,-z
x,-y,1/2+z
loop_
_atom_site_type_symbol
_atom_site_label
_atom_site_fract_x
_atom_site_fract_y
_atom_site_fract_z
Si Si1 0.603602 0.190510 0.118218
Si Si2 0.109490 0.168918 0.606327
Si Si3 0.236389 0.868309 0.366596
Si Si4 0.263902 0.749596 0.669834
Si Si5 0.599360 0.323818 0.780523
Si Si6 0.109803 0.027355 0.368671
Si Si7 0.606919 0.957958 0.099623
Si Si8 0.390176 0.526823 0.098318
O O1 0.500000 0.158303 0.250000
O O2 0.639950 0.218069 0.329408
O O3 0.681573 0.137641 0.936101
O O4 0.597689 0.256266 0.948547
O O5 0.141184 0.128340 0.811713
O O6 0.181268 0.231400 0.462267
O O7 0.112304 0.108598 0.400377
O O8 0.000000 0.191690 0.750000
O O9 0.227207 0.793627 0.490601
O O10 0.299436 0.910298 0.487133
O O11 0.307835 0.681263 0.507158
O O12 0.500000 0.328536 0.750000
O O13 0.607832 0.391984 0.925890
O O14 0.153080 0.994473 0.560421
O O15 0.000000 0.000000 0.500000
O O16 0.500000 0.924920 0.250000
O O17 0.611483 0.006067 0.332810
O O18 0.346488 0.506016 0.409143
O O19 0.500000 0.500000 0.000000
#
# Coordination Sequence:
#
# PCOD9232069 Si02
#       8
#     4   4   4   4   4   4   4   4
#     4  10  21  33  58  82 112 161 202 259 300 357
#     4  11  24  43  63  87 123 156 204 271 335 400
#     4  10  25  39  57  90 111 152 211 252 316 394
#     4  10  24  39  56  89 114 162 211 256 308 379
#     4  11  20  34  57  85 129 171 214 262 305 367
#     4  10  21  38  62  93 110 150 190 246 332 411
#     4  10  24  42  62  85 116 159 197 256 319 377
#     4  10  21  32  52  90 128 180 218 252 308 371
#
# _framework density 21.092224999999999
#
# number of rings (size 3 to 8) (size 9 to 14) (size 15 to 20)
#    0.000    1.750    3.750    0.000   10.500    2.000 
#    0.000    0.000    0.000    0.000    0.000    0.000 
#    0.000    1.000    0.000    0.750    0.000    0.000 
#
# Total GULP energy -178453.263936 kJ/mol
# GULP energy per Si atom -5576.664498 kJ/mol
# Density = 2.104422 g / cm^3
# Si number density = 21.092225 Si / 1000 Ang^3
#
#
#
# Elastic Constant Matrix: (Units=GPa)
#
#
# Indices 1 2 3 4 5 6 
#
# 1 102.5347 14.0046 21.4461 0.0000 -9.2542 0.0000
# 2 14.0046 46.5827 12.9431 0.0000 -0.7006 0.0000
# 3 21.4461 12.9431 90.1745 0.0000 19.5856 0.0000
# 4 0.0000 0.0000 0.0000 38.9374 0.0000 2.1361
# 5 -9.2542 -0.7006 19.5856 0.0000 44.1222 0.0000
# 6 0.0000 0.0000 0.0000 2.1361 0.0000 12.0040
#
#
#
# Elastic Compliance Matrix: (Units=1/GPa)
#
#
# Indices 1 2 3 4 5 6 
#
# 1 0.011055 -0.002414 -0.003074 0.000000 0.003645 0.000000
# 2 -0.002414 0.023042 -0.002991 0.000000 0.001187 0.000000
# 3 -0.003074 -0.002991 0.013724 0.000000 -0.006784 0.000000
# 4 0.000000 0.000000 0.000000 0.025935 0.000000 -0.004615
# 5 0.003645 0.001187 -0.006784 0.000000 0.026459 0.000000
# 6 0.000000 0.000000 0.000000 -0.004615 0.000000 0.084127
#
#
# Mechanical properties :
#
#
# Convention : Reuss Voigt Hill
#
# Bulk Modulus (GPa) = 32.40346 37.34218 34.87282
# Shear Modulus (GPa) = 23.63091 31.73925 27.68508
#
# Velocity S-wave (km/s) = 3.35081 3.88336 3.62688
# Velocity P-wave (km/s) = 5.51060 6.15224 5.84024
#
# Compressibility (1/GPa) = 0.03086090
#
# Stress axis : x y z
#
# Youngs Moduli (GPa) = 90.46060 43.39912 72.86765
#
# Poissons Ratio (x) = 0.10478 0.22401
# Poissons Ratio (y) = 0.21841 0.21794
# Poissons Ratio (z) = 0.27809 0.12980
#
# Static dielectric constant tensor:
#      x y z
#    x 1.798260 0.000000 0.006190 
#    y 0.000000 1.859220 0.000000 
#    z 0.006190 0.000000 1.984170 
# 
# From -- ./inp_files/5557.got.cif
#   From: 2010.05.17/outbox.cif.g08.bks.cpg/sg13_3_cif.got.tgz:5557.got - 2010.06.03 16:44:36.
