data_PCOD9232529
_publ_section_title
;
Structure prediction by ZEFSAII (Michael W. Deem and Ramdas Pophale) SiO2 
 PCOD9232529
Probable space group: P 2/C
;
_chemical_formula_sum "Si O2"
_cell_formula_units_Z 24
_cell_length_a 14.140307
_cell_length_b 8.462321
_cell_length_c 9.356771
_cell_angle_alpha 90.000000
_cell_angle_beta 79.989200
_cell_angle_gamma 90.000000
_cell_volume 1102.583149
_symmetry_space_group_name_H-M "P 2/C"
_symmetry_group_IT_number 13
_symmetry_cell_setting 'monoclinic'
loop_
_space_group_symop_operation_xyz
x,y,z
-x,y,1/2-z
-x,-y,-z
x,-y,1/2+z
loop_
_atom_site_type_symbol
_atom_site_label
_atom_site_fract_x
_atom_site_fract_y
_atom_site_fract_z
Si Si1 0.054454 0.377687 0.093677
Si Si2 0.470414 0.844462 0.923223
Si Si3 0.796480 0.818262 0.122229
Si Si4 0.350741 0.670662 0.554606
Si Si5 0.780114 0.611665 0.401362
Si Si6 0.265364 0.174857 0.360825
O O1 0.139062 0.481518 0.140712
O O2 0.000000 0.316506 0.250000
O O3 0.109421 0.243498 0.986883
O O4 0.000000 0.500000 0.000000
O O5 0.500000 0.861649 0.750000
O O6 0.535922 0.704475 0.969925
O O7 0.356096 0.831450 0.946395
O O8 0.500000 0.000000 0.000000
O O9 0.793487 0.744389 0.279830
O O10 0.784758 0.006183 0.130485
O O11 0.703037 0.743447 0.067905
O O12 0.318199 0.489571 0.578024
O O13 0.305774 0.768794 0.699024
O O14 0.796650 0.687649 0.552389
#
# Coordination Sequence:
#
# PCOD9232529 Si02
#       6
#     4   4   4   4   4   4
#     4  11  23  45  69  95 131 173 212 268 332 405
#     4  10  21  37  60  91 132 174 220 262 324 382
#     4  11  22  39  66  95 128 172 215 270 334 386
#     4  10  21  39  62  91 131 176 220 266 322 389
#     4  11  24  41  67  95 128 172 222 270 335 398
#     4  11  23  40  64  94 133 171 221 276 325 391
#
# _framework density 21.767064999999999
#
# number of rings (size 3 to 8) (size 9 to 14) (size 15 to 20)
#    0.000    1.333    3.333    3.000    4.667    0.667 
#    0.000    3.333    0.000    0.000    0.000    0.000 
#    0.000    0.000    0.000    0.000    0.000    0.000 
#
# Total GULP energy -134073.124256 kJ/mol
# GULP energy per Si atom -5586.380177 kJ/mol
# Density = 2.171752 g / cm^3
# Si number density = 21.767065 Si / 1000 Ang^3
#
#
#
# Elastic Constant Matrix: (Units=GPa)
#
#
# Indices 1 2 3 4 5 6 
#
# 1 53.0690 28.7043 7.9862 0.0000 1.7880 0.0000
# 2 28.7043 127.3104 8.8533 0.0000 -16.5003 0.0000
# 3 7.9862 8.8533 54.0118 0.0000 -3.0209 0.0000
# 4 0.0000 0.0000 0.0000 35.8542 0.0000 1.4942
# 5 1.7880 -16.5003 -3.0209 0.0000 28.5078 0.0000
# 6 0.0000 0.0000 0.0000 1.4942 0.0000 27.8683
#
#
#
# Elastic Compliance Matrix: (Units=1/GPa)
#
#
# Indices 1 2 3 4 5 6 
#
# 1 0.022380 -0.005490 -0.002681 0.000000 -0.004866 0.000000
# 2 -0.005490 0.009907 -0.000475 0.000000 0.006028 0.000000
# 3 -0.002681 -0.000475 0.019096 0.000000 0.001917 0.000000
# 4 0.000000 0.000000 0.000000 0.027953 0.000000 -0.001499
# 5 -0.004866 0.006028 0.001917 0.000000 0.039076 0.000000
# 6 0.000000 0.000000 0.000000 -0.001499 0.000000 0.035963
#
#
# Mechanical properties :
#
#
# Convention : Reuss Voigt Hill
#
# Bulk Modulus (GPa) = 29.33383 36.16431 32.74907
# Shear Modulus (GPa) = 27.31761 31.03587 29.17674
#
# Velocity S-wave (km/s) = 3.54644 3.78010 3.66513
# Velocity P-wave (km/s) = 5.50228 5.97516 5.74359
#
# Compressibility (1/GPa) = 0.03409034
#
# Stress axis : x y z
#
# Youngs Moduli (GPa) = 44.68195 100.93881 52.36696
#
# Poissons Ratio (x) = 0.55417 0.14042
# Poissons Ratio (y) = 0.24531 0.02487
# Poissons Ratio (z) = 0.11981 0.04794
#
# Static dielectric constant tensor:
#      x y z
#    x 1.912780 0.000000 -0.042390 
#    y 0.000000 1.776200 0.000000 
#    z -0.042390 0.000000 1.778680 
# 
# From -- ./inp_files/18056.got.cif
#   From: 2010.05.17/outbox.cif.g08.bks.cpg/sg13_10_cif.got.tgz:18056.got - 2010.06.03 16:44:36.
