data_PCOD9232083
_publ_section_title
;
Structure prediction by ZEFSAII (Michael W. Deem and Ramdas Pophale) SiO2 
 PCOD9232083
Probable space group: P 2/C
;
_chemical_formula_sum "Si O2"
_cell_formula_units_Z 24
_cell_length_a 5.362098
_cell_length_b 11.798693
_cell_length_c 22.914660
_cell_angle_alpha 90.000000
_cell_angle_beta 62.094857
_cell_angle_gamma 90.000000
_cell_volume 1281.145722
_symmetry_space_group_name_H-M "P 2/C"
_symmetry_group_IT_number 13
_symmetry_cell_setting 'monoclinic'
loop_
_space_group_symop_operation_xyz
x,y,z
-x,y,1/2-z
-x,-y,-z
x,-y,1/2+z
loop_
_atom_site_type_symbol
_atom_site_label
_atom_site_fract_x
_atom_site_fract_y
_atom_site_fract_z
Si Si1 0.710080 0.852733 0.519959
Si Si2 0.923995 0.522796 0.413003
Si Si3 0.629106 0.387523 0.060447
Si Si4 0.373688 0.110991 0.938156
Si Si5 0.677897 0.820070 0.286051
Si Si6 0.787744 0.431538 0.731128
O O1 0.611691 0.746728 0.569154
O O2 0.548638 0.847641 0.475514
O O3 0.049306 0.847643 0.475515
O O4 0.638418 0.974378 0.555789
O O5 0.672742 0.447324 0.413490
O O6 0.788321 0.592477 0.480842
O O7 0.173306 0.447323 0.413487
O O8 0.057259 0.595685 0.346370
O O9 0.524201 0.151425 0.862899
O O10 0.500000 0.862534 0.250000
O O11 0.701693 0.683654 0.274153
O O12 0.000000 0.862533 0.250000
O O13 0.500000 0.495749 0.750000
O O14 0.000000 0.495748 0.750000
#
# Coordination Sequence:
#
# PCOD9232083 Si02
#       6
#     4   4   4   4   4   4
#     4  10  21  36  59  85 112 159 177 246 282 333
#     4  10  21  36  51  83 113 144 195 229 277 337
#     4  10  21  35  57  78 112 156 181 238 279 326
#     4  10  21  36  57  87 120 139 198 230 289 342
#     4  10  21  34  53  85 110 152 175 233 288 331
#     4  10  21  33  53  80 109 150 176 236 285 327
#
# _framework density 18.733231
#
# number of rings (size 3 to 8) (size 9 to 14) (size 15 to 20)
#    0.000    2.000    0.000    3.000    9.333    0.000 
#    0.000    0.000    0.000    6.000    0.000    0.000 
#    0.000    0.000    0.000    0.000    0.000    0.000 
#
# Total GULP energy -133943.905122 kJ/mol
# GULP energy per Si atom -5580.996047 kJ/mol
# Density = 1.869059 g / cm^3
# Si number density = 18.733231 Si / 1000 Ang^3
#
#
#
# Elastic Constant Matrix: (Units=GPa)
#
#
# Indices 1 2 3 4 5 6 
#
# 1 174.9305 28.4064 24.2539 0.0000 4.0924 0.0000
# 2 28.4064 64.7625 24.1353 0.0000 0.1576 0.0000
# 3 24.2539 24.1353 89.2379 0.0000 -0.9363 0.0000
# 4 0.0000 0.0000 0.0000 16.0360 0.0000 -0.4160
# 5 4.0924 0.1576 -0.9363 0.0000 19.9166 0.0000
# 6 0.0000 0.0000 0.0000 -0.4160 0.0000 4.7142
#
#
#
# Elastic Compliance Matrix: (Units=1/GPa)
#
#
# Indices 1 2 3 4 5 6 
#
# 1 0.006279 -0.002346 -0.001086 0.000000 -0.001323 0.000000
# 2 -0.002346 0.018051 -0.004243 0.000000 0.000140 0.000000
# 3 -0.001086 -0.004243 0.012658 0.000000 0.000852 0.000000
# 4 0.000000 0.000000 0.000000 0.062503 0.000000 0.005516
# 5 -0.001323 0.000140 0.000852 0.000000 0.050520 0.000000
# 6 0.000000 0.000000 0.000000 0.005516 0.000000 0.212610
#
#
# Mechanical properties :
#
#
# Convention : Reuss Voigt Hill
#
# Bulk Modulus (GPa) = 46.21591 53.61356 49.91473
# Shear Modulus (GPa) = 12.98083 24.94240 18.96162
#
# Velocity S-wave (km/s) = 2.63521 3.65287 3.18495
# Velocity P-wave (km/s) = 5.82951 6.81710 6.34256
#
# Compressibility (1/GPa) = 0.02163757
#
# Stress axis : x y z
#
# Youngs Moduli (GPa) = 159.25961 55.39848 79.00384
#
# Poissons Ratio (x) = 0.12998 0.08579
# Poissons Ratio (y) = 0.37366 0.33521
# Poissons Ratio (z) = 0.17294 0.23505
#
# Static dielectric constant tensor:
#      x y z
#    x 1.986960 0.000000 0.012960 
#    y 0.000000 1.631330 0.000000 
#    z 0.012960 0.000000 1.634530 
# 
# From -- ./inp_files/73337.got.cif
#   From: 2010.05.17/outbox.cif.g08.bks.cpg/sg13_37_cif.got.tgz:73337.got - 2010.06.03 16:44:36.
