data_PCOD9232037
_publ_section_title
;
Structure prediction by ZEFSAII (Michael W. Deem and Ramdas Pophale) SiO2 
 PCOD9232037
Probable space group: P 2/C
;
_chemical_formula_sum "Si O2"
_cell_formula_units_Z 24
_cell_length_a 24.901296
_cell_length_b 5.930704
_cell_length_c 12.772346
_cell_angle_alpha 90.000000
_cell_angle_beta 146.136853
_cell_angle_gamma 90.000000
_cell_volume 1051.038569
_symmetry_space_group_name_H-M "P 2/C"
_symmetry_group_IT_number 13
_symmetry_cell_setting 'monoclinic'
loop_
_space_group_symop_operation_xyz
x,y,z
-x,y,1/2-z
-x,-y,-z
x,-y,1/2+z
loop_
_atom_site_type_symbol
_atom_site_label
_atom_site_fract_x
_atom_site_fract_y
_atom_site_fract_z
Si Si1 0.169012 0.564105 0.655109
Si Si2 0.436481 0.708640 0.855881
Si Si3 0.000000 0.633166 0.750000
Si Si4 0.909828 0.114224 0.296123
Si Si5 0.267749 0.817792 0.443706
Si Si6 0.359008 0.189880 0.444833
Si Si7 0.500000 0.420655 0.250000
O O1 0.127396 0.684904 0.690421
O O2 0.219273 0.336438 0.776892
O O3 0.252757 0.718882 0.743271
O O4 0.081206 0.514937 0.437064
O O5 0.330774 0.682872 0.631259
O O6 0.415995 0.853756 0.927418
O O7 0.493644 0.740849 0.839814
O O8 0.500000 0.500000 0.000000
O O9 0.053108 0.788550 0.751947
O O10 0.819387 0.947474 0.141324
O O11 0.000000 0.000000 0.500000
O O12 0.335962 0.996254 0.492123
O O13 0.413473 0.400079 0.589612
#
# Coordination Sequence:
#
# PCOD9232037 Si02
#       7
#     4   4   2   4   4   4   2
#     4  11  25  45  67 100 144 186 233 294 352 416
#     4  10  23  44  73  99 139 188 230 292 363 423
#     4  12  26  42  72 102 140 198 232 284 366 418
#     4  11  26  45  68 106 143 185 242 292 350 422
#     4  11  24  45  69  99 147 182 235 302 346 425
#     4  10  24  43  69 102 135 186 230 285 359 425
#     4  10  20  46  68 102 142 174 234 298 348 422
#
# _framework density 22.83456
#
# number of rings (size 3 to 8) (size 9 to 14) (size 15 to 20)
#    0.000    1.333    3.333    0.500    4.667    1.333 
#    0.000    2.500    0.000    0.000    0.000    0.000 
#    0.000    0.000    0.000    0.000    0.000    0.000 
#
# Total GULP energy -133927.372242 kJ/mol
# GULP energy per Si atom -5580.307177 kJ/mol
# Density = 2.278259 g / cm^3
# Si number density = 22.834560 Si / 1000 Ang^3
#
#
#
# Elastic Constant Matrix: (Units=GPa)
#
#
# Indices 1 2 3 4 5 6 
#
# 1 175.7377 41.1651 27.9610 0.0000 -0.1055 0.0000
# 2 41.1651 61.0013 51.9101 0.0000 7.2225 0.0000
# 3 27.9610 51.9101 173.0770 0.0000 5.7666 0.0000
# 4 0.0000 0.0000 0.0000 48.3482 0.0000 -0.6213
# 5 -0.1055 7.2225 5.7666 0.0000 36.8943 0.0000
# 6 0.0000 0.0000 0.0000 -0.6213 0.0000 -121.9267
#
#
#
# Elastic Compliance Matrix: (Units=1/GPa)
#
#
# Indices 1 2 3 4 5 6 
#
# 1 0.006808 -0.005026 0.000376 0.000000 0.000945 0.000000
# 2 -0.005026 0.026127 -0.006889 0.000000 -0.004052 0.000000
# 3 0.000376 -0.006889 0.007779 0.000000 0.000134 0.000000
# 4 0.000000 0.000000 0.000000 0.020682 0.000000 -0.000105
# 5 0.000945 -0.004052 0.000134 0.000000 0.027880 0.000000
# 6 0.000000 0.000000 0.000000 -0.000105 0.000000 -0.008201
#
#
# Mechanical properties :
#
#
# Convention : Reuss Voigt Hill
#
# Bulk Modulus (GPa) = 56.70345 72.43203 64.56774
# Shear Modulus (GPa) = 45.44123 11.91514 28.67819
#
# Velocity S-wave (km/s) = 4.46580 2.28678 3.54773
# Velocity P-wave (km/s) = 7.17478 6.22589 6.71711
#
# Compressibility (1/GPa) = 0.01763561
#
# Stress axis : x y z
#
# Youngs Moduli (GPa) = 146.87706 38.27416 128.55490
#
# Poissons Ratio (x) = 0.19238 -0.04836
# Poissons Ratio (y) = 0.73827 0.88564
# Poissons Ratio (z) = -0.05525 0.26368
#
# Static dielectric constant tensor:
#      x y z
#    x 1.890620 0.000000 0.068380 
#    y 0.000000 1.856730 0.000000 
#    z 0.068380 0.000000 2.170620 
# 
# From -- ./inp_files/59715.got.cif
#   From: 2010.05.17/outbox.cif.g08.bks.cpg/sg13_30_cif.got.tgz:59715.got - 2010.06.03 16:44:36.
