data_PCOD9232856
_publ_section_title
;
Structure prediction by ZEFSAII (Michael W. Deem and Ramdas Pophale) SiO2 
 PCOD9232856
Probable space group: P 2/C
;
_chemical_formula_sum "Si O2"
_cell_formula_units_Z 22
_cell_length_a 12.123120
_cell_length_b 5.488057
_cell_length_c 28.979162
_cell_angle_alpha 90.000000
_cell_angle_beta 143.441126
_cell_angle_gamma 90.000000
_cell_volume 1148.441485
_symmetry_space_group_name_H-M "P 2/C"
_symmetry_group_IT_number 13
_symmetry_cell_setting 'monoclinic'
loop_
_space_group_symop_operation_xyz
x,y,z
-x,y,1/2-z
-x,-y,-z
x,-y,1/2+z
loop_
_atom_site_type_symbol
_atom_site_label
_atom_site_fract_x
_atom_site_fract_y
_atom_site_fract_z
Si Si1 0.819679 0.740744 0.220983
Si Si2 0.968763 0.691197 0.530856
Si Si3 0.147186 0.496967 0.174603
Si Si4 0.312436 0.969609 0.609337
Si Si5 0.648257 0.245533 0.180621
Si Si6 0.500000 0.269976 0.750000
O O1 0.880997 0.699203 0.295207
O O2 0.698420 0.495583 0.171126
O O3 0.000000 0.743540 0.250000
O O4 0.706170 0.990477 0.177485
O O5 0.981503 0.564776 0.584714
O O6 0.000000 0.500000 0.500000
O O7 0.787160 0.847937 0.459530
O O8 0.147346 0.867427 0.585519
O O9 0.222264 0.272687 0.230280
O O10 0.318940 0.574912 0.200321
O O11 0.453187 0.112132 0.689508
O O12 0.435211 0.767926 0.624862
#
# Coordination Sequence:
#
# PCOD9232856 Si02
#       6
#     4   4   4   4   4   2
#     4  10  22  39  63  90 116 152 210 266 303 341
#     4  11  23  35  53  86 131 164 189 239 301 374
#     4  10  22  35  61  88 121 159 195 250 297 359
#     4  11  22  34  56  87 127 162 198 237 302 365
#     4  10  21  38  64  88 114 158 204 255 292 359
#     4  12  18  38  58  90 122 156 206 242 300 362
#
# _framework density 19.156395
#
# number of rings (size 3 to 8) (size 9 to 14) (size 15 to 20)
#    1.091    0.364    3.636    2.727    2.545    0.000 
#    0.000    0.000    0.000    2.182    0.000    0.000 
#    0.000    0.000    0.000    0.000    0.000    0.000 
#
# Total GULP energy -122647.848654 kJ/mol
# GULP energy per Si atom -5574.902212 kJ/mol
# Density = 1.911279 g / cm^3
# Si number density = 19.156395 Si / 1000 Ang^3
#
#
#
# Elastic Constant Matrix: (Units=GPa)
#
#
# Indices 1 2 3 4 5 6 
#
# 1 59.8322 6.7277 -13.2337 0.0000 9.1469 0.0000
# 2 6.7277 89.4552 1.9232 0.0000 6.9669 0.0000
# 3 -13.2337 1.9232 50.3787 0.0000 0.9029 0.0000
# 4 0.0000 0.0000 0.0000 21.3565 0.0000 7.4501
# 5 9.1469 6.9669 0.9029 0.0000 17.2831 0.0000
# 6 0.0000 0.0000 0.0000 7.4501 0.0000 14.5663
#
#
#
# Elastic Compliance Matrix: (Units=1/GPa)
#
#
# Indices 1 2 3 4 5 6 
#
# 1 0.019563 -0.000783 0.005354 0.000000 -0.010318 0.000000
# 2 -0.000783 0.011579 -0.000572 0.000000 -0.004223 0.000000
# 3 0.005354 -0.000572 0.021344 0.000000 -0.003718 0.000000
# 4 0.000000 0.000000 0.000000 0.056993 0.000000 -0.029149
# 5 -0.010318 -0.004223 -0.003718 0.000000 0.065217 0.000000
# 6 0.000000 0.000000 0.000000 -0.029149 0.000000 0.083560
#
#
# Mechanical properties :
#
#
# Convention : Reuss Voigt Hill
#
# Bulk Modulus (GPa) = 16.53331 21.16672 18.85001
# Shear Modulus (GPa) = 18.48975 24.25777 21.37376
#
# Velocity S-wave (km/s) = 3.11014 3.56237 3.34391
# Velocity P-wave (km/s) = 4.64184 5.29094 4.97699
#
# Compressibility (1/GPa) = 0.06048396
#
# Stress axis : x y z
#
# Youngs Moduli (GPa) = 51.11724 86.36421 46.85055
#
# Poissons Ratio (x) = 0.06761 -0.25082
# Poissons Ratio (y) = 0.04002 0.02680
# Poissons Ratio (z) = -0.27366 0.04940
#
# Static dielectric constant tensor:
#      x y z
#    x 1.665850 0.000000 -0.015060 
#    y 0.000000 1.755860 0.000000 
#    z -0.015060 0.000000 1.696790 
# 
# From -- ./inp_files/56641.got.cif
#   From: 2010.05.17/outbox.cif.g08.bks.cpg/sg13_29_cif.got.tgz:56641.got - 2010.06.03 16:44:36.
