data_PCOD9232732
_publ_section_title
;
Structure prediction by ZEFSAII (Michael W. Deem and Ramdas Pophale) SiO2 
 PCOD9232732
Probable space group: P 2/C
;
_chemical_formula_sum "Si O2"
_cell_formula_units_Z 20
_cell_length_a 19.146561
_cell_length_b 12.880961
_cell_length_c 9.748503
_cell_angle_alpha 90.000000
_cell_angle_beta 158.435113
_cell_angle_gamma 90.000000
_cell_volume 883.687951
_symmetry_space_group_name_H-M "P 2/C"
_symmetry_group_IT_number 13
_symmetry_cell_setting 'monoclinic'
loop_
_space_group_symop_operation_xyz
x,y,z
-x,y,1/2-z
-x,-y,-z
x,-y,1/2+z
loop_
_atom_site_type_symbol
_atom_site_label
_atom_site_fract_x
_atom_site_fract_y
_atom_site_fract_z
Si Si1 0.637421 0.521682 0.876132
Si Si2 0.229299 0.108997 0.508535
Si Si3 0.766030 0.085517 0.668594
Si Si4 0.777289 0.726650 0.000922
Si Si5 0.224376 0.293875 0.310381
O O1 0.500000 0.548237 0.750000
O O2 0.500000 0.500000 0.500000
O O3 0.755911 0.620191 0.045465
O O4 0.749792 0.415753 0.112530
O O5 0.296395 0.091573 0.787173
O O6 0.288953 0.219357 0.552291
O O7 0.286371 0.020550 0.504091
O O8 0.997911 0.097243 0.094275
O O9 0.701223 0.180144 0.454219
O O10 0.003420 0.736930 0.397170
O O11 0.694046 0.723232 0.694349
#
# Coordination Sequence:
#
# PCOD9232732 Si02
#       5
#     4   4   4   4   4
#     4  12  25  42  59  82 116 156 194 239 292 345
#     4   9  17  30  53  85 117 148 185 233 287 336
#     4   9  17  30  53  85 117 148 185 234 285 337
#     4  10  21  38  60  86 116 151 194 239 285 339
#     4  10  21  38  60  86 116 151 194 240 283 340
#
# _framework density 22.632421999999998
#
# number of rings (size 3 to 8) (size 9 to 14) (size 15 to 20)
#    0.000    2.000    2.000    1.800    2.800    4.800 
#    0.000    0.000    0.000    2.400    0.000    0.000 
#    0.000    0.000    0.000    0.000    0.000    0.000 
#
# Total GULP energy -111778.867070 kJ/mol
# GULP energy per Si atom -5588.943353 kJ/mol
# Density = 2.258091 g / cm^3
# Si number density = 22.632422 Si / 1000 Ang^3
#
#
#
# Elastic Constant Matrix: (Units=GPa)
#
#
# Indices 1 2 3 4 5 6 
#
# 1 191.3302 69.7196 30.4079 0.0000 -38.3148 0.0000
# 2 69.7196 111.9531 -18.9483 0.0000 -13.2772 0.0000
# 3 30.4079 -18.9483 30.1745 0.0000 -6.2782 0.0000
# 4 0.0000 0.0000 0.0000 28.1367 0.0000 36.3241
# 5 -38.3148 -13.2772 -6.2782 0.0000 44.1854 0.0000
# 6 0.0000 0.0000 0.0000 36.3241 0.0000 190.7654
#
#
#
# Elastic Compliance Matrix: (Units=1/GPa)
#
#
# Indices 1 2 3 4 5 6 
#
# 1 0.013358 -0.010896 -0.019140 0.000000 0.005590 0.000000
# 2 -0.010896 0.019623 0.023251 0.000000 -0.000248 0.000000
# 3 -0.019140 0.023251 0.067011 0.000000 -0.000089 0.000000
# 4 0.000000 0.000000 0.000000 0.047125 0.000000 -0.008973
# 5 0.005590 -0.000248 -0.000089 0.000000 0.027392 0.000000
# 6 0.000000 0.000000 0.000000 -0.008973 0.000000 0.006951
#
#
# Mechanical properties :
#
#
# Convention : Reuss Voigt Hill
#
# Bulk Modulus (GPa) = 11.57102 55.09071 33.33087
# Shear Modulus (GPa) = 22.33760 69.43607 45.88683
#
# Velocity S-wave (km/s) = 3.14502 5.54495 4.50764
# Velocity P-wave (km/s) = 4.27924 8.08639 6.46922
#
# Compressibility (1/GPa) = 0.08642280
#
# Stress axis : x y z
#
# Youngs Moduli (GPa) = 74.86061 50.95942 14.92291
#
# Poissons Ratio (x) = 0.55523 0.28563
# Poissons Ratio (y) = 0.81564 -0.34697
# Poissons Ratio (z) = 1.43286 -1.18485
#
# Static dielectric constant tensor:
#      x y z
#    x 2.731550 0.000000 1.125200 
#    y 0.000000 1.966260 0.000000 
#    z 1.125200 0.000000 3.208970 
# 
# From -- ./inp_files/11653.got.cif
#   From: 2010.05.17/outbox.cif.g08.bks.cpg/sg13_6_cif.got.tgz:11653.got - 2010.06.03 16:44:36.
