data_PCOD9232942
_publ_section_title
;
Structure prediction by ZEFSAII (Michael W. Deem and Ramdas Pophale) SiO2 
 PCOD9232942
Probable space group: P 2/C
;
_chemical_formula_sum "Si O2"
_cell_formula_units_Z 30
_cell_length_a 14.561746
_cell_length_b 8.581739
_cell_length_c 24.135065
_cell_angle_alpha 90.000000
_cell_angle_beta 29.558806
_cell_angle_gamma 90.000000
_cell_volume 1487.863033
_symmetry_space_group_name_H-M "P 2/C"
_symmetry_group_IT_number 13
_symmetry_cell_setting 'monoclinic'
loop_
_space_group_symop_operation_xyz
x,y,z
-x,y,1/2-z
-x,-y,-z
x,-y,1/2+z
loop_
_atom_site_type_symbol
_atom_site_label
_atom_site_fract_x
_atom_site_fract_y
_atom_site_fract_z
Si Si1 0.563260 0.843865 0.934487
Si Si2 0.721490 0.861548 0.043009
Si Si3 0.532229 0.309879 0.908913
Si Si4 0.708854 0.213130 0.026913
Si Si5 0.500000 0.316797 0.750000
Si Si6 0.896097 0.712386 0.698692
Si Si7 0.580490 0.436804 0.296221
Si Si8 0.951264 0.367957 0.712113
O O1 0.419384 0.814730 0.960326
O O2 0.769634 0.833233 0.800215
O O3 0.553057 0.706823 0.985591
O O4 0.500000 0.000000 0.000000
O O5 0.912399 0.783916 0.922590
O O6 0.565419 0.817730 0.078807
O O7 0.644090 0.786624 0.139822
O O8 0.747464 0.045484 0.032271
O O9 0.507569 0.472612 0.889826
O O10 0.753101 0.293339 0.800253
O O11 0.584072 0.319316 0.132548
O O12 0.892109 0.300817 0.910531
O O13 0.395684 0.429901 0.761504
O O14 0.765068 0.654078 0.716894
O O15 0.935810 0.554360 0.712102
O O16 0.000000 0.331872 0.750000
#
# Coordination Sequence:
#
# PCOD9232942 Si02
#       8
#     4   4   4   4   2   4   4   4
#     4  11  22  38  62  92 134 177 203 252 315 377
#     4  11  24  41  63  90 126 164 212 271 325 374
#     4  10  21  39  58  88 131 173 209 252 304 378
#     4  11  23  37  61  95 130 163 211 264 314 382
#     4  10  22  46  72  86 118 166 214 274 338 372
#     4  10  25  39  61  95 131 167 213 256 309 383
#     4   9  22  42  67  91 122 166 218 270 316 376
#     4  11  22  33  58  90 128 173 213 245 300 374
#
# _framework density 20.163146000000001
#
# number of rings (size 3 to 8) (size 9 to 14) (size 15 to 20)
#    0.000    1.600    2.667    1.600    5.600    2.667 
#    0.000    1.333    0.000   11.200    0.000    0.000 
#    0.000    0.000    0.000    0.000    0.000    0.000 
#
# Total GULP energy -167598.661480 kJ/mol
# GULP energy per Si atom -5586.622049 kJ/mol
# Density = 2.011725 g / cm^3
# Si number density = 20.163146 Si / 1000 Ang^3
#
#
#
# Elastic Constant Matrix: (Units=GPa)
#
#
# Indices 1 2 3 4 5 6 
#
# 1 46.0045 30.8047 49.0299 0.0000 3.3166 0.0000
# 2 30.8047 98.5145 54.9522 0.0000 -3.4250 0.0000
# 3 49.0299 54.9522 148.2095 0.0000 -8.5927 0.0000
# 4 0.0000 0.0000 0.0000 38.0045 0.0000 5.4293
# 5 3.3166 -3.4250 -8.5927 0.0000 30.8341 0.0000
# 6 0.0000 0.0000 0.0000 5.4293 0.0000 20.1343
#
#
#
# Elastic Compliance Matrix: (Units=1/GPa)
#
#
# Indices 1 2 3 4 5 6 
#
# 1 0.037767 -0.006126 -0.010670 0.000000 -0.007716 0.000000
# 2 -0.006126 0.013792 -0.003009 0.000000 0.001352 0.000000
# 3 -0.010670 -0.003009 0.011627 0.000000 0.004054 0.000000
# 4 0.000000 0.000000 0.000000 0.027367 0.000000 -0.007380
# 5 -0.007716 0.001352 0.004054 0.000000 0.034541 0.000000
# 6 0.000000 0.000000 0.000000 -0.007380 0.000000 0.051656
#
#
# Mechanical properties :
#
#
# Convention : Reuss Voigt Hill
#
# Bulk Modulus (GPa) = 42.41407 62.47801 52.44604
# Shear Modulus (GPa) = 22.29971 28.32403 25.31187
#
# Velocity S-wave (km/s) = 3.32921 3.75206 3.54694
# Velocity P-wave (km/s) = 5.98826 7.05862 6.54536
#
# Compressibility (1/GPa) = 0.02357708
#
# Stress axis : x y z
#
# Youngs Moduli (GPa) = 26.47837 72.50817 86.00315
#
# Poissons Ratio (x) = 0.44418 0.91764
# Poissons Ratio (y) = 0.16220 0.25875
# Poissons Ratio (z) = 0.28252 0.21815
#
# Static dielectric constant tensor:
#      x y z
#    x 1.719810 0.000000 0.006840 
#    y 0.000000 1.751210 0.000000 
#    z 0.006840 0.000000 1.684550 
# 
# From -- ./inp_files/87279.got.cif
#   From: 2010.05.17/outbox.cif.g08.bks.cpg/sg13_44_cif.got.tgz:87279.got - 2010.06.03 16:44:36.
