data_PCOD9232839
_publ_section_title
;
Structure prediction by ZEFSAII (Michael W. Deem and Ramdas Pophale) SiO2 
 PCOD9232839
Probable space group: P 2/C
;
_chemical_formula_sum "Si O2"
_cell_formula_units_Z 32
_cell_length_a 12.205916
_cell_length_b 12.058682
_cell_length_c 21.672796
_cell_angle_alpha 90.000000
_cell_angle_beta 23.536221
_cell_angle_gamma 90.000000
_cell_volume 1273.842463
_symmetry_space_group_name_H-M "P 2/C"
_symmetry_group_IT_number 13
_symmetry_cell_setting 'monoclinic'
loop_
_space_group_symop_operation_xyz
x,y,z
-x,y,1/2-z
-x,-y,-z
x,-y,1/2+z
loop_
_atom_site_type_symbol
_atom_site_label
_atom_site_fract_x
_atom_site_fract_y
_atom_site_fract_z
Si Si1 0.001952 0.424875 0.057830
Si Si2 0.828446 0.019635 0.894157
Si Si3 0.390536 0.701198 0.496279
Si Si4 0.694089 0.794947 0.706377
Si Si5 0.685483 0.881903 0.290294
Si Si6 0.268185 0.786577 0.434553
Si Si7 0.164084 0.531088 0.100582
Si Si8 0.542955 0.235559 0.042622
O O1 0.752090 0.337650 0.181076
O O2 0.261768 0.340603 0.916641
O O3 0.007739 0.492050 0.118891
O O4 0.000000 0.500000 0.000000
O O5 0.035278 0.053569 0.842702
O O6 0.000000 0.965361 0.750000
O O7 0.725969 0.137110 0.921088
O O8 0.560957 0.952138 0.051461
O O9 0.675748 0.759651 0.327558
O O10 0.196694 0.757974 0.544584
O O11 0.382667 0.569762 0.494327
O O12 0.336795 0.731023 0.594531
O O13 0.500000 0.822863 0.750000
O O14 0.001859 0.843135 0.543414
O O15 0.567527 0.818999 0.837884
O O16 0.554526 0.850584 0.291103
O O17 0.297055 0.651524 0.024793
O O18 0.000000 0.530387 0.250000
#
# Coordination Sequence:
#
# PCOD9232839 Si02
#       8
#     4   4   4   4   4   4   4   4
#     4   9  18  37  63  92 129 175 233 279 336 410
#     4  12  24  40  64 104 141 184 229 295 352 422
#     4   9  20  38  57  91 131 174 221 266 349 412
#     4  10  21  38  63  94 126 172 230 285 334 403
#     4  10  23  41  66  98 139 173 230 285 355 409
#     4   7  19  37  62  90 128 160 220 274 345 394
#     4  11  22  36  59  94 139 184 224 279 356 428
#     4  12  24  37  61  97 142 179 230 279 359 420
#
# _framework density 25.120846
#
# number of rings (size 3 to 8) (size 9 to 14) (size 15 to 20)
#    1.500    0.500    1.250    2.625    1.750    0.500 
#    0.000    0.000    0.000    1.500    0.000    0.000 
#    0.000    0.000    0.000    0.000    0.000    0.000 
#
# Total GULP energy -178423.987459 kJ/mol
# GULP energy per Si atom -5575.749608 kJ/mol
# Density = 2.506367 g / cm^3
# Si number density = 25.120846 Si / 1000 Ang^3
#
#
#
# Elastic Constant Matrix: (Units=GPa)
#
#
# Indices 1 2 3 4 5 6 
#
# 1 151.9865 2.0936 28.0977 0.0000 -16.0085 0.0000
# 2 2.0936 99.6732 13.1459 0.0000 -10.2233 0.0000
# 3 28.0977 13.1459 82.0286 0.0000 -0.5945 0.0000
# 4 0.0000 0.0000 0.0000 17.7175 0.0000 -6.1374
# 5 -16.0085 -10.2233 -0.5945 0.0000 36.4663 0.0000
# 6 0.0000 0.0000 0.0000 -6.1374 0.0000 34.9212
#
#
#
# Elastic Compliance Matrix: (Units=1/GPa)
#
#
# Indices 1 2 3 4 5 6 
#
# 1 0.007406 0.000531 -0.002598 0.000000 0.003358 0.000000
# 2 0.000531 0.010592 -0.001856 0.000000 0.003172 0.000000
# 3 -0.002598 -0.001856 0.013368 0.000000 -0.001443 0.000000
# 4 0.000000 0.000000 0.000000 0.060100 0.000000 0.010563
# 5 0.003358 0.003172 -0.001443 0.000000 0.029763 0.000000
# 6 0.000000 0.000000 0.000000 0.010563 0.000000 0.030492
#
#
# Mechanical properties :
#
#
# Convention : Reuss Voigt Hill
#
# Bulk Modulus (GPa) = 42.51653 46.70696 44.61175
# Shear Modulus (GPa) = 29.86745 37.17774 33.52260
#
# Velocity S-wave (km/s) = 3.45186 3.85119 3.65698
# Velocity P-wave (km/s) = 5.73137 6.19749 5.96898
#
# Compressibility (1/GPa) = 0.02352026
#
# Stress axis : x y z
#
# Youngs Moduli (GPa) = 135.02327 94.41206 74.80693
#
# Poissons Ratio (x) = -0.05018 0.19433
# Poissons Ratio (y) = -0.07176 0.13888
# Poissons Ratio (z) = 0.35075 0.17528
#
# Static dielectric constant tensor:
#      x y z
#    x 2.059070 0.000000 0.029130 
#    y 0.000000 1.981680 0.000000 
#    z 0.029130 0.000000 2.069650 
# 
# From -- ./inp_files/78684.got.cif
#   From: 2010.05.17/outbox.cif.g08.bks.cpg/sg13_40_cif.got.tgz:78684.got - 2010.06.03 16:44:36.
