data_PCOD9232917
_publ_section_title
;
Structure prediction by ZEFSAII (Michael W. Deem and Ramdas Pophale) SiO2 
 PCOD9232917
Probable space group: P 2/C
;
_chemical_formula_sum "Si O2"
_cell_formula_units_Z 16
_cell_length_a 7.672970
_cell_length_b 9.857260
_cell_length_c 8.797118
_cell_angle_alpha 90.000000
_cell_angle_beta 93.759758
_cell_angle_gamma 90.000000
_cell_volume 663.933253
_symmetry_space_group_name_H-M "P 2/C"
_symmetry_group_IT_number 13
_symmetry_cell_setting 'monoclinic'
loop_
_space_group_symop_operation_xyz
x,y,z
-x,y,1/2-z
-x,-y,-z
x,-y,1/2+z
loop_
_atom_site_type_symbol
_atom_site_label
_atom_site_fract_x
_atom_site_fract_y
_atom_site_fract_z
Si Si1 0.146173 0.609574 0.961600
Si Si2 0.681165 0.590475 0.844289
Si Si3 0.679401 0.843739 0.052770
Si Si4 0.734295 0.876348 0.409743
O O1 0.185812 0.596257 0.787466
O O2 0.310124 0.553430 0.071197
O O3 0.137651 0.766923 0.005971
O O4 0.000000 0.500000 0.000000
O O5 0.500000 0.616597 0.750000
O O6 0.719853 0.704209 0.971075
O O7 0.742421 0.856149 0.229434
O O8 0.466981 0.851148 0.047893
O O9 0.758461 0.968574 0.961730
#
# Coordination Sequence:
#
# PCOD9232917 Si02
#       4
#     4   4   4   4
#     4  12  26  43  65  98 146 189 231 291 362 427
#     4  12  24  42  67 101 134 186 243 295 350 418
#     4  10  21  38  69 104 136 174 239 296 343 412
#     4  10  21  39  66 104 139 179 228 295 356 412
#
# _framework density 24.098807000000001
#
# number of rings (size 3 to 8) (size 9 to 14) (size 15 to 20)
#    0.000    1.000    2.500    4.500    7.000    0.000 
#    0.000    1.250    0.000    3.000    0.000    0.000 
#    0.000    0.000    0.000    0.000    0.000    0.000 
#
# Total GULP energy -89604.049894 kJ/mol
# GULP energy per Si atom -5600.253118 kJ/mol
# Density = 2.404396 g / cm^3
# Si number density = 24.098807 Si / 1000 Ang^3
#
#
#
# Elastic Constant Matrix: (Units=GPa)
#
#
# Indices 1 2 3 4 5 6 
#
# 1 75.3333 30.6469 34.5280 0.0000 -8.3033 0.0000
# 2 30.6469 136.8658 21.1593 0.0000 -3.1327 0.0000
# 3 34.5280 21.1593 109.6679 0.0000 -13.8685 0.0000
# 4 0.0000 0.0000 0.0000 54.4014 0.0000 -5.9149
# 5 -8.3033 -3.1327 -13.8685 0.0000 23.0840 0.0000
# 6 0.0000 0.0000 0.0000 -5.9149 0.0000 36.0480
#
#
#
# Elastic Compliance Matrix: (Units=1/GPa)
#
#
# Indices 1 2 3 4 5 6 
#
# 1 0.016826 -0.003029 -0.004328 0.000000 0.003041 0.000000
# 2 -0.003029 0.008077 -0.000654 0.000000 -0.000386 0.000000
# 3 -0.004328 -0.000654 0.011254 0.000000 0.005116 0.000000
# 4 0.000000 0.000000 0.000000 0.018716 0.000000 0.003071
# 5 0.003041 -0.000386 0.005116 0.000000 0.047435 0.000000
# 6 0.000000 0.000000 0.000000 0.003071 0.000000 0.028245
#
#
# Mechanical properties :
#
#
# Convention : Reuss Voigt Hill
#
# Bulk Modulus (GPa) = 49.66489 54.94838 52.30663
# Shear Modulus (GPa) = 32.61891 38.40887 35.51389
#
# Velocity S-wave (km/s) = 3.68305 3.99658 3.84302
# Velocity P-wave (km/s) = 6.22415 6.64437 6.43769
#
# Compressibility (1/GPa) = 0.02013495
#
# Stress axis : x y z
#
# Youngs Moduli (GPa) = 59.43340 123.81081 88.85525
#
# Poissons Ratio (x) = 0.37500 0.38461
# Poissons Ratio (y) = 0.18001 0.05807
# Poissons Ratio (z) = 0.25726 0.08092
#
# Static dielectric constant tensor:
#      x y z
#    x 2.078530 0.000000 0.036150 
#    y 0.000000 1.834510 0.000000 
#    z 0.036150 0.000000 1.843300 
# 
# From -- ./inp_files/10871.got.cif
#   From: 2010.05.17/outbox.cif.g08.bks.cpg/sg13_6_cif.got.tgz:10871.got - 2010.06.03 16:44:36.
