data_PCOD9232392
_publ_section_title
;
Structure prediction by ZEFSAII (Michael W. Deem and Ramdas Pophale) SiO2 
 PCOD9232392
Probable space group: P 2/C
;
_chemical_formula_sum "Si O2"
_cell_formula_units_Z 26
_cell_length_a 8.339321
_cell_length_b 14.548880
_cell_length_c 19.371349
_cell_angle_alpha 90.000000
_cell_angle_beta 147.429466
_cell_angle_gamma 90.000000
_cell_volume 1265.245258
_symmetry_space_group_name_H-M "P 2/C"
_symmetry_group_IT_number 13
_symmetry_cell_setting 'monoclinic'
loop_
_space_group_symop_operation_xyz
x,y,z
-x,y,1/2-z
-x,-y,-z
x,-y,1/2+z
loop_
_atom_site_type_symbol
_atom_site_label
_atom_site_fract_x
_atom_site_fract_y
_atom_site_fract_z
Si Si1 0.460198 0.507742 0.865526
Si Si2 0.859463 0.449493 0.110560
Si Si3 0.336175 0.966585 0.259518
Si Si4 0.515233 0.735736 0.041918
Si Si5 0.500000 0.626559 0.250000
Si Si6 0.884382 0.241103 0.817434
Si Si7 0.281961 0.062053 0.466820
O O1 0.274496 0.495948 0.871287
O O2 0.501159 0.434382 0.819403
O O3 0.210028 0.573344 0.741896
O O4 0.784953 0.514072 0.017691
O O5 0.687431 0.353475 0.041013
O O6 0.500000 0.996062 0.250000
O O7 0.188580 0.865514 0.196436
O O8 0.587856 0.958265 0.409545
O O9 0.055234 0.032342 0.170870
O O10 0.687124 0.733495 0.177909
O O11 0.775838 0.741673 0.079688
O O12 0.333309 0.830257 0.972576
O O13 0.223519 0.696109 0.159022
O O14 0.500000 0.000000 0.500000
#
# Coordination Sequence:
#
# PCOD9232392 Si02
#       7
#     4   4   4   4   2   4   4
#     4  10  24  39  64  87 125 157 213 262 321 379
#     4  10  22  44  62  90 117 172 211 260 316 385
#     4  11  22  41  63  99 137 166 207 270 333 380
#     4  10  21  40  66  87 127 169 222 260 309 384
#     4  12  22  38  64 100 122 164 210 280 320 372
#     4  10  21  36  64  97 121 166 219 265 306 381
#     4  11  22  41  67  98 127 173 222 260 311 391
#
# _framework density 20.549377
#
# number of rings (size 3 to 8) (size 9 to 14) (size 15 to 20)
#    0.000    1.538    3.846    0.923    6.462    0.615 
#    5.538    0.000    1.692    0.000    0.000    0.000 
#    0.000    0.000    0.000    0.000    0.000    0.000 
#
# Total GULP energy -144736.984293 kJ/mol
# GULP energy per Si atom -5566.807088 kJ/mol
# Density = 2.050261 g / cm^3
# Si number density = 20.549377 Si / 1000 Ang^3
#
#
#
# Elastic Constant Matrix: (Units=GPa)
#
#
# Indices 1 2 3 4 5 6 
#
# 1 59.8649 30.6904 -3.6986 0.0000 4.9339 0.0000
# 2 30.6904 91.9907 15.1109 0.0000 3.9400 0.0000
# 3 -3.6986 15.1109 67.2447 0.0000 5.5463 0.0000
# 4 0.0000 0.0000 0.0000 26.9392 0.0000 12.2513
# 5 4.9339 3.9400 5.5463 0.0000 24.3640 0.0000
# 6 0.0000 0.0000 0.0000 12.2513 0.0000 24.1311
#
#
#
# Elastic Compliance Matrix: (Units=1/GPa)
#
#
# Indices 1 2 3 4 5 6 
#
# 1 0.020974 -0.007348 0.003116 0.000000 -0.003768 0.000000
# 2 -0.007348 0.013900 -0.003531 0.000000 0.000044 0.000000
# 3 0.003116 -0.003531 0.016144 0.000000 -0.003735 0.000000
# 4 0.000000 0.000000 0.000000 0.048264 0.000000 -0.024504
# 5 -0.003768 0.000044 -0.003735 0.000000 0.042650 0.000000
# 6 0.000000 0.000000 0.000000 -0.024504 0.000000 0.053881
#
#
# Mechanical properties :
#
#
# Convention : Reuss Voigt Hill
#
# Bulk Modulus (GPa) = 28.17590 33.70063 30.93827
# Shear Modulus (GPa) = 22.40426 26.88671 24.64548
#
# Velocity S-wave (km/s) = 3.30550 3.62110 3.46689
# Velocity P-wave (km/s) = 5.32067 5.82397 5.57800
#
# Compressibility (1/GPa) = 0.03549133
#
# Stress axis : x y z
#
# Youngs Moduli (GPa) = 47.67722 71.94074 61.94234
#
# Poissons Ratio (x) = 0.52862 -0.19299
# Poissons Ratio (y) = 0.35033 0.21874
# Poissons Ratio (z) = -0.14855 0.25405
#
# Static dielectric constant tensor:
#      x y z
#    x 1.783930 0.000000 -0.048210 
#    y 0.000000 1.734380 0.000000 
#    z -0.048210 0.000000 1.898150 
# 
# From -- ./inp_files/76653.got.cif
#   From: 2010.05.17/outbox.cif.g08.bks.cpg/sg13_39_cif.got.tgz:76653.got - 2010.06.03 16:44:36.
