data_PCOD9232157
_publ_section_title
;
Structure prediction by ZEFSAII (Michael W. Deem and Ramdas Pophale) SiO2 
 PCOD9232157
Probable space group: P 2/C
;
_chemical_formula_sum "Si O2"
_cell_formula_units_Z 24
_cell_length_a 13.730373
_cell_length_b 11.514239
_cell_length_c 8.798691
_cell_angle_alpha 90.000000
_cell_angle_beta 115.765433
_cell_angle_gamma 90.000000
_cell_volume 1252.732981
_symmetry_space_group_name_H-M "P 2/C"
_symmetry_group_IT_number 13
_symmetry_cell_setting 'monoclinic'
loop_
_space_group_symop_operation_xyz
x,y,z
-x,y,1/2-z
-x,-y,-z
x,-y,1/2+z
loop_
_atom_site_type_symbol
_atom_site_label
_atom_site_fract_x
_atom_site_fract_y
_atom_site_fract_z
Si Si1 0.382435 0.149446 0.240030
Si Si2 0.379732 0.907435 0.095651
Si Si3 0.796132 0.712911 0.007456
Si Si4 0.794074 0.745435 0.360100
Si Si5 0.913894 0.467461 0.068510
Si Si6 0.989470 0.873665 0.061884
O O1 0.500000 0.170432 0.250000
O O2 0.386122 0.111656 0.418869
O O3 0.339775 0.036794 0.116110
O O4 0.310896 0.263590 0.162587
O O5 0.500000 0.895839 0.250000
O O6 0.297002 0.815408 0.111725
O O7 0.767962 0.745159 0.162620
O O8 0.853471 0.588290 0.064986
O O9 0.880963 0.797975 0.979061
O O10 0.821792 0.620619 0.450576
O O11 0.911140 0.805571 0.443461
O O12 0.000000 0.419982 0.250000
O O13 0.000000 0.500000 0.000000
O O14 0.000000 0.883995 0.250000
O O15 0.000000 0.000000 0.000000
#
# Coordination Sequence:
#
# PCOD9232157 Si02
#       6
#     4   4   4   4   4   4
#     4  11  23  41  66  92 125 163 204 253 312 368
#     4  11  23  41  65  93 124 163 205 253 310 370
#     4  11  22  40  60  87 124 162 206 254 304 365
#     4  11  23  39  61  88 124 162 207 253 305 367
#     4  12  23  42  64  89 125 169 209 254 308 366
#     4  10  21  35  53  83 120 155 193 246 302 360
#
# _framework density 19.158111999999999
#
# number of rings (size 3 to 8) (size 9 to 14) (size 15 to 20)
#    0.000    1.000    3.333    5.500    2.333    4.667 
#    0.000    0.833    0.000    4.000    0.000    0.000 
#    0.000    0.000    0.000    0.000    0.000    0.000 
#
# Total GULP energy -133842.157125 kJ/mol
# GULP energy per Si atom -5576.756547 kJ/mol
# Density = 1.911451 g / cm^3
# Si number density = 19.158112 Si / 1000 Ang^3
#
#
#
# Elastic Constant Matrix: (Units=GPa)
#
#
# Indices 1 2 3 4 5 6 
#
# 1 105.4887 33.8420 26.0595 0.0000 -13.5557 0.0000
# 2 33.8420 68.5883 7.5499 0.0000 5.1136 0.0000
# 3 26.0595 7.5499 75.5978 0.0000 -4.5610 0.0000
# 4 0.0000 0.0000 0.0000 30.2427 0.0000 8.6554
# 5 -13.5557 5.1136 -4.5610 0.0000 27.2616 0.0000
# 6 0.0000 0.0000 0.0000 8.6554 0.0000 23.8365
#
#
#
# Elastic Compliance Matrix: (Units=1/GPa)
#
#
# Indices 1 2 3 4 5 6 
#
# 1 0.013488 -0.006819 -0.003522 0.000000 0.007396 0.000000
# 2 -0.006819 0.018443 0.000096 0.000000 -0.006834 0.000000
# 3 -0.003522 0.000096 0.014472 0.000000 0.000652 0.000000
# 4 0.000000 0.000000 0.000000 0.036901 0.000000 -0.013399
# 5 0.007396 -0.006834 0.000652 0.000000 0.041750 0.000000
# 6 0.000000 0.000000 0.000000 -0.013399 0.000000 0.046818
#
#
# Mechanical properties :
#
#
# Convention : Reuss Voigt Hill
#
# Bulk Modulus (GPa) = 38.59009 42.73083 40.66046
# Shear Modulus (GPa) = 24.87578 28.41638 26.64608
#
# Velocity S-wave (km/s) = 3.60731 3.85548 3.73346
# Velocity P-wave (km/s) = 6.12673 6.49403 6.31305
#
# Compressibility (1/GPa) = 0.02591339
#
# Stress axis : x y z
#
# Youngs Moduli (GPa) = 74.14121 54.22093 69.10019
#
# Poissons Ratio (x) = 0.36972 0.24338
# Poissons Ratio (y) = 0.50555 -0.00665
# Poissons Ratio (z) = 0.26114 -0.00522
#
# Static dielectric constant tensor:
#      x y z
#    x 1.639120 0.000000 0.006820 
#    y 0.000000 1.760410 0.000000 
#    z 0.006820 0.000000 1.692640 
# 
# From -- ./inp_files/15960.got.cif
#   From: 2010.05.17/outbox.cif.g08.bks.cpg/sg13_8_cif.got.tgz:15960.got - 2010.06.03 16:44:36.
