data_PCOD9232186
_publ_section_title
;
Structure prediction by ZEFSAII (Michael W. Deem and Ramdas Pophale) SiO2 
 PCOD9232186
Probable space group: P 2/C
;
_chemical_formula_sum "Si O2"
_cell_formula_units_Z 20
_cell_length_a 22.949583
_cell_length_b 9.222053
_cell_length_c 9.531459
_cell_angle_alpha 90.000000
_cell_angle_beta 150.298066
_cell_angle_gamma 90.000000
_cell_volume 999.527915
_symmetry_space_group_name_H-M "P 2/C"
_symmetry_group_IT_number 13
_symmetry_cell_setting 'monoclinic'
loop_
_space_group_symop_operation_xyz
x,y,z
-x,y,1/2-z
-x,-y,-z
x,-y,1/2+z
loop_
_atom_site_type_symbol
_atom_site_label
_atom_site_fract_x
_atom_site_fract_y
_atom_site_fract_z
Si Si1 0.443064 0.899755 0.262803
Si Si2 0.739934 0.878512 0.162956
Si Si3 0.871938 0.070008 0.221994
Si Si4 0.356513 0.570825 0.466930
Si Si5 0.267900 0.332173 0.489931
O O1 0.500000 0.817255 0.250000
O O2 0.371987 0.784415 0.202818
O O3 0.500000 0.000000 0.500000
O O4 0.361819 0.010851 0.006243
O O5 0.836250 0.893686 0.487356
O O6 0.789925 0.947723 0.124354
O O7 0.682198 0.720405 0.035889
O O8 0.845840 0.225081 0.245467
O O9 0.000000 0.000000 0.500000
O O10 0.500000 0.561717 0.750000
O O11 0.295017 0.439666 0.420462
O O12 0.291213 0.581516 0.181036
#
# Coordination Sequence:
#
# PCOD9232186 Si02
#       5
#     4   4   4   4   4
#     4  11  20  35  56  85 119 156 199 242 290 352
#     4  10  21  35  58  86 114 152 196 242 295 351
#     4  10  21  40  61  83 110 150 207 259 292 329
#     4  11  21  36  55  86 127 158 186 233 297 370
#     4  10  23  36  56  86 117 158 197 236 296 360
#
# _framework density 20.009446000000001
#
# number of rings (size 3 to 8) (size 9 to 14) (size 15 to 20)
#    0.000    1.600    0.000    7.200    0.000    4.800 
#    0.000    1.000    0.000    7.200    0.000    0.000 
#    0.000    0.000    0.000    0.000    0.000    0.000 
#
# Total GULP energy -111339.077420 kJ/mol
# GULP energy per Si atom -5566.953871 kJ/mol
# Density = 1.996390 g / cm^3
# Si number density = 20.009446 Si / 1000 Ang^3
#
#
#
# Elastic Constant Matrix: (Units=GPa)
#
#
# Indices 1 2 3 4 5 6 
#
# 1 91.0500 51.3164 31.8605 0.0000 -1.7442 0.0000
# 2 51.3164 129.2586 43.8921 0.0000 -0.0108 0.0000
# 3 31.8605 43.8921 73.4061 0.0000 6.4280 0.0000
# 4 0.0000 0.0000 0.0000 23.8971 0.0000 -7.2076
# 5 -1.7442 -0.0108 6.4280 0.0000 23.9036 0.0000
# 6 0.0000 0.0000 0.0000 -7.2076 0.0000 38.4520
#
#
#
# Elastic Compliance Matrix: (Units=1/GPa)
#
#
# Indices 1 2 3 4 5 6 
#
# 1 0.015006 -0.004620 -0.003939 0.000000 0.002152 0.000000
# 2 -0.004620 0.011190 -0.004769 0.000000 0.000950 0.000000
# 3 -0.003939 -0.004769 0.018649 0.000000 -0.005304 0.000000
# 4 0.000000 0.000000 0.000000 0.044354 0.000000 0.008314
# 5 0.002152 0.000950 -0.005304 0.000000 0.043419 0.000000
# 6 0.000000 0.000000 0.000000 0.008314 0.000000 0.027565
#
#
# Mechanical properties :
#
#
# Convention : Reuss Voigt Hill
#
# Bulk Modulus (GPa) = 54.97885 60.87252 57.92568
# Shear Modulus (GPa) = 25.92000 28.36028 27.14014
#
# Velocity S-wave (km/s) = 3.60306 3.76885 3.68688
# Velocity P-wave (km/s) = 6.69667 7.03043 6.86558
#
# Compressibility (1/GPa) = 0.01818881
#
# Stress axis : x y z
#
# Youngs Moduli (GPa) = 66.63818 89.36568 53.62302
#
# Poissons Ratio (x) = 0.41285 0.21124
# Poissons Ratio (y) = 0.30785 0.25573
# Poissons Ratio (z) = 0.26251 0.42618
#
# Static dielectric constant tensor:
#      x y z
#    x 1.789300 0.000000 0.052420 
#    y 0.000000 1.714840 0.000000 
#    z 0.052420 0.000000 1.670590 
# 
# From -- ./inp_files/14842.got.cif
#   From: 2010.05.17/outbox.cif.g08.bks.cpg/sg13_8_cif.got.tgz:14842.got - 2010.06.03 16:44:36.
