data_PCOD9232164
_publ_section_title
;
Structure prediction by ZEFSAII (Michael W. Deem and Ramdas Pophale) SiO2 
 PCOD9232164
Probable space group: P 2/C
;
_chemical_formula_sum "Si O2"
_cell_formula_units_Z 28
_cell_length_a 5.422219
_cell_length_b 17.524164
_cell_length_c 14.323633
_cell_angle_alpha 90.000000
_cell_angle_beta 62.245762
_cell_angle_gamma 90.000000
_cell_volume 1204.447432
_symmetry_space_group_name_H-M "P 2/C"
_symmetry_group_IT_number 13
_symmetry_cell_setting 'monoclinic'
loop_
_space_group_symop_operation_xyz
x,y,z
-x,y,1/2-z
-x,-y,-z
x,-y,1/2+z
loop_
_atom_site_type_symbol
_atom_site_label
_atom_site_fract_x
_atom_site_fract_y
_atom_site_fract_z
Si Si1 0.056592 0.036421 0.591013
Si Si2 0.130460 0.580357 0.584772
Si Si3 0.047168 0.880198 0.635811
Si Si4 0.500000 0.188426 0.250000
Si Si5 0.608207 0.259881 0.429252
Si Si6 0.500000 0.104794 0.750000
Si Si7 0.431908 0.502121 0.360712
Si Si8 0.743845 0.192684 0.867970
O O1 0.192024 0.118532 0.578381
O O2 0.767511 0.051695 0.695116
O O3 0.193803 0.961969 0.612303
O O4 0.000000 0.000000 0.500000
O O5 0.195595 0.667729 0.594199
O O6 0.285800 0.556355 0.461710
O O7 0.296153 0.533340 0.636489
O O8 0.806494 0.560088 0.625802
O O9 0.230922 0.814585 0.560498
O O10 0.000000 0.856214 0.750000
O O11 0.728076 0.868962 0.662342
O O12 0.551747 0.243834 0.330149
O O13 0.344182 0.260202 0.546457
O O14 0.515759 0.159577 0.836249
O O15 0.500000 0.540790 0.250000
O O16 0.000000 0.208727 0.750000
#
# Coordination Sequence:
#
# PCOD9232164 Si02
#       8
#     4   4   4   2   4   2   4   4
#     4  11  21  35  59  83 115 169 225 287 336 394
#     4  10  24  43  70 110 137 182 227 275 335 416
#     4  10  21  35  54  86 120 161 217 273 337 399
#     4  10  23  38  60  90 131 172 212 288 351 410
#     4  11  24  41  61  96 133 168 220 276 346 414
#     4  10  21  38  58  82 119 172 224 282 339 396
#     4  10  22  45  74 103 143 178 226 275 333 407
#     4  10  23  42  60  87 128 178 231 279 342 410
#
# _framework density 23.247173
#
# number of rings (size 3 to 8) (size 9 to 14) (size 15 to 20)
#    0.000    1.714    0.000    3.857    3.000    8.000 
#    1.286    2.857    0.000    0.000    0.000    0.000 
#    0.000    0.000    0.000    0.000    0.000    0.000 
#
# Total GULP energy -156050.449209 kJ/mol
# GULP energy per Si atom -5573.230329 kJ/mol
# Density = 2.319426 g / cm^3
# Si number density = 23.247173 Si / 1000 Ang^3
#
#
#
# Elastic Constant Matrix: (Units=GPa)
#
#
# Indices 1 2 3 4 5 6 
#
# 1 66.4894 7.3706 16.1966 0.0000 13.4685 0.0000
# 2 7.3706 26.0758 -3.1105 0.0000 4.1608 0.0000
# 3 16.1966 -3.1105 123.9090 0.0000 33.9041 0.0000
# 4 0.0000 0.0000 0.0000 -6.3116 0.0000 7.2957
# 5 13.4685 4.1608 33.9041 0.0000 33.0551 0.0000
# 6 0.0000 0.0000 0.0000 7.2957 0.0000 27.8578
#
#
#
# Elastic Compliance Matrix: (Units=1/GPa)
#
#
# Indices 1 2 3 4 5 6 
#
# 1 0.016791 -0.003953 -0.000776 0.000000 -0.005548 0.000000
# 2 -0.003953 0.041025 0.003502 0.000000 -0.007145 0.000000
# 3 -0.000776 0.003502 0.011530 0.000000 -0.011950 0.000000
# 4 0.000000 0.000000 0.000000 -0.121621 0.000000 0.031851
# 5 -0.005548 -0.007145 -0.011950 0.000000 0.045670 0.000000
# 6 0.000000 0.000000 0.000000 0.031851 0.000000 0.027555
#
#
# Mechanical properties :
#
#
# Convention : Reuss Voigt Hill
#
# Bulk Modulus (GPa) = 14.94995 28.59862 21.77429
# Shear Modulus (GPa) = 109.40473 23.98810 66.69642
#
# Velocity S-wave (km/s) = 6.86758 3.21576 5.36213
# Velocity P-wave (km/s) = 8.32645 5.11046 6.90820
#
# Compressibility (1/GPa) = 0.06688984
#
# Stress axis : x y z
#
# Youngs Moduli (GPa) = 59.55527 24.37544 86.73297
#
# Poissons Ratio (x) = 0.09637 0.06730
# Poissons Ratio (y) = 0.23545 -0.30370
# Poissons Ratio (z) = 0.04621 -0.08535
#
# Static dielectric constant tensor:
#      x y z
#    x 2.523360 0.000000 -0.123360 
#    y 0.000000 1.783860 0.000000 
#    z -0.123360 0.000000 2.047210 
# 
# From -- ./inp_files/44410.got.cif
#   From: 2010.05.17/outbox.cif.g08.bks.cpg/sg13_23_cif.got.tgz:44410.got - 2010.06.03 16:44:36.
