data_PCOD9232558
_publ_section_title
;
Structure prediction by ZEFSAII (Michael W. Deem and Ramdas Pophale) SiO2 
 PCOD9232558
Probable space group: P 2/C
;
_chemical_formula_sum "Si O2"
_cell_formula_units_Z 28
_cell_length_a 13.012387
_cell_length_b 11.164133
_cell_length_c 19.545925
_cell_angle_alpha 90.000000
_cell_angle_beta 151.838727
_cell_angle_gamma 90.000000
_cell_volume 1340.104811
_symmetry_space_group_name_H-M "P 2/C"
_symmetry_group_IT_number 13
_symmetry_cell_setting 'monoclinic'
loop_
_space_group_symop_operation_xyz
x,y,z
-x,y,1/2-z
-x,-y,-z
x,-y,1/2+z
loop_
_atom_site_type_symbol
_atom_site_label
_atom_site_fract_x
_atom_site_fract_y
_atom_site_fract_z
Si Si1 0.500000 0.458172 0.250000
Si Si2 0.416638 0.336688 0.958368
Si Si3 0.218038 0.565831 0.909710
Si Si4 0.229328 0.072727 0.849736
Si Si5 0.158154 0.641101 0.028216
Si Si6 0.500000 0.849052 0.250000
Si Si7 0.662104 0.292982 0.237119
Si Si8 0.411439 0.982140 0.827526
O O1 0.300855 0.545293 0.154245
O O2 0.488368 0.367145 0.179749
O O3 0.549278 0.372308 0.968754
O O4 0.606896 0.324330 0.126608
O O5 0.255547 0.438429 0.893113
O O6 0.305005 0.209555 0.884860
O O7 0.000000 0.622951 0.750000
O O8 0.173348 0.576513 0.963430
O O9 0.000000 0.070043 0.750000
O O10 0.221392 0.013845 0.769990
O O11 0.390127 0.014249 0.000844
O O12 0.296771 0.763163 0.112193
O O13 0.909164 0.670311 0.899805
O O14 0.557024 0.928948 0.217073
O O15 0.622145 0.151531 0.220322
#
# Coordination Sequence:
#
# PCOD9232558 Si02
#       8
#     2   4   4   4   4   2   4   4
#     4  11  23  44  60  88 135 161 208 264 310 389
#     4  10  21  37  61  96 127 159 213 259 319 386
#     4  11  20  37  65  93 128 164 206 262 321 383
#     4  10  22  44  66  96 128 167 215 272 324 376
#     4  11  24  40  65  94 126 171 208 263 323 380
#     4  11  25  46  62  96 133 167 224 268 322 383
#     4  11  22  42  63  92 124 169 212 253 325 376
#     4  10  24  44  68  96 127 171 219 271 318 388
#
# _framework density 20.893888
#
# number of rings (size 3 to 8) (size 9 to 14) (size 15 to 20)
#    0.000    1.429    2.857    2.143    2.000    0.571 
#    5.143    0.000    0.000    0.000    0.000    0.000 
#    0.000    0.000    0.000    0.000    0.000    0.000 
#
# Total GULP energy -156161.763940 kJ/mol
# GULP energy per Si atom -5577.205855 kJ/mol
# Density = 2.084633 g / cm^3
# Si number density = 20.893888 Si / 1000 Ang^3
#
#
#
# Elastic Constant Matrix: (Units=GPa)
#
#
# Indices 1 2 3 4 5 6 
#
# 1 45.5701 50.8072 5.5441 0.0000 -1.4992 0.0000
# 2 50.8072 100.7021 15.7766 0.0000 5.1904 0.0000
# 3 5.5441 15.7766 53.9455 0.0000 16.8467 0.0000
# 4 0.0000 0.0000 0.0000 1.1265 0.0000 -1.0709
# 5 -1.4992 5.1904 16.8467 0.0000 23.5648 0.0000
# 6 0.0000 0.0000 0.0000 -1.0709 0.0000 28.2986
#
#
#
# Elastic Compliance Matrix: (Units=1/GPa)
#
#
# Indices 1 2 3 4 5 6 
#
# 1 0.052072 -0.026681 -0.000539 0.000000 0.009575 0.000000
# 2 -0.026681 0.024079 -0.002721 0.000000 -0.005056 0.000000
# 3 -0.000539 -0.002721 0.024734 0.000000 -0.017118 0.000000
# 4 0.000000 0.000000 0.000000 0.920861 0.000000 0.034847
# 5 0.009575 -0.005056 -0.017118 0.000000 0.056396 0.000000
# 6 0.000000 0.000000 0.000000 0.034847 0.000000 0.036656
#
#
# Mechanical properties :
#
#
# Convention : Reuss Voigt Hill
#
# Bulk Modulus (GPa) = 24.38827 38.27485 31.33156
# Shear Modulus (GPa) = 4.20753 19.13730 11.67241
#
# Velocity S-wave (km/s) = 1.42061 3.02971 2.36615
# Velocity P-wave (km/s) = 3.79323 5.53149 4.74268
#
# Compressibility (1/GPa) = 0.04100332
#
# Stress axis : x y z
#
# Youngs Moduli (GPa) = 19.20417 41.53078 40.43021
#
# Poissons Ratio (x) = 1.10808 0.02178
# Poissons Ratio (y) = 0.51239 0.11001
# Poissons Ratio (z) = 0.01034 0.11300
#
# Static dielectric constant tensor:
#      x y z
#    x 1.787100 0.000000 -0.005510 
#    y 0.000000 1.763270 0.000000 
#    z -0.005510 0.000000 1.807170 
# 
# From -- ./inp_files/78618.got.cif
#   From: 2010.05.17/outbox.cif.g08.bks.cpg/sg13_40_cif.got.tgz:78618.got - 2010.06.03 16:44:36.
