data_PCOD9232447
_publ_section_title
;
Structure prediction by ZEFSAII (Michael W. Deem and Ramdas Pophale) SiO2 
 PCOD9232447
Probable space group: P 2/C
;
_chemical_formula_sum "Si O2"
_cell_formula_units_Z 22
_cell_length_a 14.386770
_cell_length_b 15.815992
_cell_length_c 5.096978
_cell_angle_alpha 90.000000
_cell_angle_beta 63.171411
_cell_angle_gamma 90.000000
_cell_volume 1034.934697
_symmetry_space_group_name_H-M "P 2/C"
_symmetry_group_IT_number 13
_symmetry_cell_setting 'monoclinic'
loop_
_space_group_symop_operation_xyz
x,y,z
-x,y,1/2-z
-x,-y,-z
x,-y,1/2+z
loop_
_atom_site_type_symbol
_atom_site_label
_atom_site_fract_x
_atom_site_fract_y
_atom_site_fract_z
Si Si1 0.159294 0.941705 0.222406
Si Si2 0.000000 0.559388 0.750000
Si Si3 0.604757 0.943996 0.539148
Si Si4 0.115745 0.762574 0.106737
Si Si5 0.802920 0.317180 0.494603
Si Si6 0.377110 0.557397 0.421109
O O1 0.099317 0.856506 0.239605
O O2 0.141467 0.988733 0.518964
O O3 0.280230 0.910666 0.058916
O O4 0.896926 0.615905 0.862524
O O5 0.000000 0.500000 0.500000
O O6 0.500000 0.893855 0.750000
O O7 0.600280 0.976319 0.247138
O O8 0.190972 0.716640 0.217835
O O9 0.000000 0.722047 0.250000
O O10 0.165940 0.755378 0.755270
O O11 0.697350 0.364041 0.547726
O O12 0.500000 0.579317 0.250000
O O13 0.356429 0.515100 0.729267
#
# Coordination Sequence:
#
# PCOD9232447 Si02
#       6
#     4   2   4   4   4   4
#     4  10  21  37  58  82 107 150 210 254 298 368
#     4  12  22  36  62  90 116 152 196 236 278 344
#     4   8  14  27  48  73 100 128 168 233 296 338
#     4  12  24  41  59  84 124 166 197 256 328 355
#     4  12  23  41  60  90 127 160 199 247 305 375
#     4  10  21  40  66  94 126 165 204 247 295 353
#
# _framework density 21.257382
#
# number of rings (size 3 to 8) (size 9 to 14) (size 15 to 20)
#    0.000    1.455    1.818    4.364    0.000    0.727 
#    0.000    1.818    0.000    2.182    0.000    0.000 
#    0.000    0.000    0.000    0.000    0.000    0.000 
#
# Total GULP energy -122855.454371 kJ/mol
# GULP energy per Si atom -5584.338835 kJ/mol
# Density = 2.120900 g / cm^3
# Si number density = 21.257382 Si / 1000 Ang^3
#
#
#
# Elastic Constant Matrix: (Units=GPa)
#
#
# Indices 1 2 3 4 5 6 
#
# 1 126.1744 23.0236 15.6001 0.0000 9.5192 0.0000
# 2 23.0236 44.9340 -13.2022 0.0000 5.5440 0.0000
# 3 15.6001 -13.2022 41.0695 0.0000 25.4162 0.0000
# 4 0.0000 0.0000 0.0000 20.7892 0.0000 0.2330
# 5 9.5192 5.5440 25.4162 0.0000 35.2939 0.0000
# 6 0.0000 0.0000 0.0000 0.2330 0.0000 25.4725
#
#
#
# Elastic Compliance Matrix: (Units=1/GPa)
#
#
# Indices 1 2 3 4 5 6 
#
# 1 0.010551 -0.009551 -0.011267 0.000000 0.006768 0.000000
# 2 -0.009551 0.040825 0.034502 0.000000 -0.028683 0.000000
# 3 -0.011267 0.034502 0.074310 0.000000 -0.055894 0.000000
# 4 0.000000 0.000000 0.000000 0.048107 0.000000 -0.000440
# 5 0.006768 -0.028683 -0.055894 0.000000 0.071265 0.000000
# 6 0.000000 0.000000 0.000000 -0.000440 0.000000 0.039262
#
#
# Mechanical properties :
#
#
# Convention : Reuss Voigt Hill
#
# Bulk Modulus (GPa) = 6.53361 29.22454 17.87908
# Shear Modulus (GPa) = 16.23543 28.76155 22.49849
#
# Velocity S-wave (km/s) = 2.76661 3.68233 3.25681
# Velocity P-wave (km/s) = 3.64496 5.64421 4.75094
#
# Compressibility (1/GPa) = 0.15305465
#
# Stress axis : x y z
#
# Youngs Moduli (GPa) = 94.77959 24.49475 13.45715
#
# Poissons Ratio (x) = 0.23396 0.15162
# Poissons Ratio (y) = 0.90528 -0.46430
# Poissons Ratio (z) = 1.06784 -0.84513
#
# Static dielectric constant tensor:
#      x y z
#    x 1.825260 0.000000 -0.035910 
#    y 0.000000 1.725500 0.000000 
#    z -0.035910 0.000000 1.774700 
# 
# From -- ./inp_files/4910.got.cif
#   From: 2010.05.17/outbox.cif.g08.bks.cpg/sg13_3_cif.got.tgz:4910.got - 2010.06.03 16:44:36.
