data_PCOD9232505
_publ_section_title
;
Structure prediction by ZEFSAII (Michael W. Deem and Ramdas Pophale) SiO2 
 PCOD9232505
Probable space group: P 2/C
;
_chemical_formula_sum "Si O2"
_cell_formula_units_Z 24
_cell_length_a 15.916788
_cell_length_b 8.703053
_cell_length_c 7.851246
_cell_angle_alpha 90.000000
_cell_angle_beta 93.715866
_cell_angle_gamma 90.000000
_cell_volume 1085.304669
_symmetry_space_group_name_H-M "P 2/C"
_symmetry_group_IT_number 13
_symmetry_cell_setting 'monoclinic'
loop_
_space_group_symop_operation_xyz
x,y,z
-x,y,1/2-z
-x,-y,-z
x,-y,1/2+z
loop_
_atom_site_type_symbol
_atom_site_label
_atom_site_fract_x
_atom_site_fract_y
_atom_site_fract_z
Si Si1 0.249147 0.420919 0.365672
Si Si2 0.408972 0.242043 0.278156
Si Si3 0.410650 0.919473 0.147113
Si Si4 0.089945 0.909780 0.350313
Si Si5 0.908660 0.241079 0.276263
Si Si6 0.749955 0.740459 0.266840
O O1 0.332441 0.358398 0.282253
O O2 0.165915 0.360066 0.260231
O O3 0.253098 0.603839 0.369879
O O4 0.245911 0.345789 0.551343
O O5 0.500000 0.314213 0.250000
O O6 0.604445 0.897308 0.855816
O O7 0.413458 0.154574 0.460861
O O8 0.500000 0.893231 0.250000
O O9 0.333354 0.843041 0.236613
O O10 0.091541 0.835089 0.536955
O O11 0.168048 0.841030 0.257433
O O12 0.000000 0.878402 0.250000
O O13 0.100422 0.094353 0.351190
O O14 0.000000 0.312015 0.250000
#
# Coordination Sequence:
#
# PCOD9232505 Si02
#       6
#     4   4   4   4   4   4
#     4  11  24  40  58  85 118 155 194 237 289 345
#     4  10  21  37  60  86 114 148 191 238 286 339
#     4  10  21  37  60  86 114 148 191 238 286 339
#     4  11  22  39  63  89 117 151 192 239 286 340
#     4  11  22  39  63  89 117 151 192 239 286 340
#     4  11  24  40  58  85 118 155 194 237 289 345
#
# _framework density 22.113606999999998
#
# number of rings (size 3 to 8) (size 9 to 14) (size 15 to 20)
#    0.000    1.333    0.000    8.000    0.000    9.333 
#    0.000    6.667    0.000    0.000    0.000    0.000 
#    0.000    0.000    0.000    0.000    0.000    0.000 
#
# Total GULP energy -134383.680601 kJ/mol
# GULP energy per Si atom -5599.320025 kJ/mol
# Density = 2.206328 g / cm^3
# Si number density = 22.113607 Si / 1000 Ang^3
#
#
#
# Elastic Constant Matrix: (Units=GPa)
#
#
# Indices 1 2 3 4 5 6 
#
# 1 192.5849 53.8007 10.8974 0.0000 -21.8025 0.0000
# 2 53.8007 41.1920 -16.5053 0.0000 6.8166 0.0000
# 3 10.8974 -16.5053 66.2863 0.0000 -7.3761 0.0000
# 4 0.0000 0.0000 0.0000 21.2022 0.0000 11.4353
# 5 -21.8025 6.8166 -7.3761 0.0000 22.8442 0.0000
# 6 0.0000 0.0000 0.0000 11.4353 0.0000 -15.3721
#
#
#
# Elastic Compliance Matrix: (Units=1/GPa)
#
#
# Indices 1 2 3 4 5 6 
#
# 1 0.014819 -0.025211 -0.006538 0.000000 0.019556 0.000000
# 2 -0.025211 0.070702 0.017348 0.000000 -0.039558 0.000000
# 3 -0.006538 0.017348 0.019926 0.000000 -0.004982 0.000000
# 4 0.000000 0.000000 0.000000 0.033660 0.000000 0.025040
# 5 0.019556 -0.039558 -0.004982 0.000000 0.072634 0.000000
# 6 0.000000 0.000000 0.000000 0.025040 0.000000 -0.046426
#
#
# Mechanical properties :
#
#
# Convention : Reuss Voigt Hill
#
# Bulk Modulus (GPa) = 13.04720 44.04988 28.54854
# Shear Modulus (GPa) = 22.76172 22.52621 22.64397
#
# Velocity S-wave (km/s) = 3.21176 3.19511 3.20345
# Velocity P-wave (km/s) = 4.43473 5.79436 5.15953
#
# Compressibility (1/GPa) = 0.07664480
#
# Stress axis : x y z
#
# Youngs Moduli (GPa) = 67.47897 14.14380 50.18558
#
# Poissons Ratio (x) = 0.35659 0.32811
# Poissons Ratio (y) = 1.70124 -0.87061
# Poissons Ratio (z) = 0.44117 -0.24536
#
# Static dielectric constant tensor:
#      x y z
#    x 1.779530 0.000000 -0.016380 
#    y 0.000000 1.759870 0.000000 
#    z -0.016380 0.000000 1.859090 
# 
# From -- ./inp_files/18172.got.cif
#   From: 2010.05.17/outbox.cif.g08.bks.cpg/sg13_10_cif.got.tgz:18172.got - 2010.06.03 16:44:36.
