data_PCOD9232748
_publ_section_title
;
Structure prediction by ZEFSAII (Michael W. Deem and Ramdas Pophale) SiO2 
 PCOD9232748
Probable space group: P 2/C
;
_chemical_formula_sum "Si O2"
_cell_formula_units_Z 28
_cell_length_a 25.782315
_cell_length_b 11.027042
_cell_length_c 25.728717
_cell_angle_alpha 90.000000
_cell_angle_beta 169.196840
_cell_angle_gamma 90.000000
_cell_volume 1371.042427
_symmetry_space_group_name_H-M "P 2/C"
_symmetry_group_IT_number 13
_symmetry_cell_setting 'monoclinic'
loop_
_space_group_symop_operation_xyz
x,y,z
-x,y,1/2-z
-x,-y,-z
x,-y,1/2+z
loop_
_atom_site_type_symbol
_atom_site_label
_atom_site_fract_x
_atom_site_fract_y
_atom_site_fract_z
Si Si1 0.691954 0.923217 0.749363
Si Si2 0.047125 0.778681 0.401271
Si Si3 0.226821 0.985426 0.014576
Si Si4 0.458940 0.345784 0.149232
Si Si5 0.086437 0.243884 0.439195
Si Si6 0.796315 0.094683 0.238088
Si Si7 0.594173 0.626977 0.401272
O O1 0.657566 0.873180 0.656860
O O2 0.406190 0.990000 0.485620
O O3 0.845831 0.826092 0.937528
O O4 0.911628 0.031725 0.962945
O O5 0.137609 0.889757 0.453315
O O6 0.236703 0.663706 0.574876
O O7 0.739948 0.740619 0.081044
O O8 0.500000 0.998948 0.250000
O O9 0.000000 0.947887 0.750000
O O10 0.226437 0.880865 0.057098
O O11 0.500000 0.307860 0.250000
O O12 0.355026 0.483218 0.046482
O O13 0.346305 0.334875 0.696613
O O14 0.888924 0.205291 0.292826
O O15 0.870322 0.301193 0.186380
O O16 0.500000 0.657980 0.250000
#
# Coordination Sequence:
#
# PCOD9232748 Si02
#       7
#     4   4   4   4   4   4   4
#     4  10  21  38  60  89 123 155 201 244 304 374
#     4  12  22  38  62  87 120 158 197 253 301 362
#     4  12  24  34  53  88 125 151 182 239 310 362
#     4  11  24  41  61  83 118 164 213 246 288 353
#     4  12  22  38  62  86 121 156 198 247 308 361
#     4  10  21  38  60  89 122 159 196 246 304 377
#     4  11  24  41  59  85 117 164 211 248 284 360
#
# _framework density 20.422415999999998
#
# number of rings (size 3 to 8) (size 9 to 14) (size 15 to 20)
#    0.000    0.857    1.429    7.714    2.000    2.286 
#    0.000    0.000    0.000    5.143    0.000    0.000 
#    0.000    0.000    0.000    0.000    0.000    0.000 
#
# Total GULP energy -156259.961849 kJ/mol
# GULP energy per Si atom -5580.712923 kJ/mol
# Density = 2.037593 g / cm^3
# Si number density = 20.422416 Si / 1000 Ang^3
#
#
#
# Elastic Constant Matrix: (Units=GPa)
#
#
# Indices 1 2 3 4 5 6 
#
# 1 75.8783 20.4360 5.9218 0.0000 -10.7617 0.0000
# 2 20.4360 66.6107 12.8654 0.0000 -7.0722 0.0000
# 3 5.9218 12.8654 101.0729 0.0000 -1.8250 0.0000
# 4 0.0000 0.0000 0.0000 33.8387 0.0000 -2.0716
# 5 -10.7617 -7.0722 -1.8250 0.0000 26.0835 0.0000
# 6 0.0000 0.0000 0.0000 -2.0716 0.0000 13.4762
#
#
#
# Elastic Compliance Matrix: (Units=1/GPa)
#
#
# Indices 1 2 3 4 5 6 
#
# 1 0.015001 -0.004009 -0.000277 0.000000 0.005083 0.000000
# 2 -0.004009 0.016900 -0.001866 0.000000 0.002798 0.000000
# 3 -0.000277 -0.001866 0.010149 0.000000 0.000090 0.000000
# 4 0.000000 0.000000 0.000000 0.029833 0.000000 0.004586
# 5 0.005083 0.002798 0.000090 0.000000 0.041200 0.000000
# 6 0.000000 0.000000 0.000000 0.004586 0.000000 0.074910
#
#
# Mechanical properties :
#
#
# Convention : Reuss Voigt Hill
#
# Bulk Modulus (GPa) = 33.61695 35.77868 34.69782
# Shear Modulus (GPa) = 23.78540 28.30224 26.04382
#
# Velocity S-wave (km/s) = 3.41643 3.72673 3.57495
# Velocity P-wave (km/s) = 5.66208 6.00628 5.83672
#
# Compressibility (1/GPa) = 0.02974690
#
# Stress axis : x y z
#
# Youngs Moduli (GPa) = 66.66093 59.17156 98.53007
#
# Poissons Ratio (x) = 0.23723 0.02727
# Poissons Ratio (y) = 0.26726 0.18383
# Poissons Ratio (z) = 0.01845 0.11040
#
# Static dielectric constant tensor:
#      x y z
#    x 1.815630 0.000000 0.002850 
#    y 0.000000 1.730010 0.000000 
#    z 0.002850 0.000000 1.736040 
# 
# From -- ./inp_files/94181.got.cif
#   From: 2010.05.17/outbox.cif.g08.bks.cpg/sg13_48_cif.got.tgz:94181.got - 2010.06.03 16:44:36.
