data_PCOD9232243
_publ_section_title
;
Structure prediction by ZEFSAII (Michael W. Deem and Ramdas Pophale) SiO2 
 PCOD9232243
Probable space group: P 2/C
;
_chemical_formula_sum "Si O2"
_cell_formula_units_Z 26
_cell_length_a 15.117089
_cell_length_b 6.588568
_cell_length_c 17.896960
_cell_angle_alpha 90.000000
_cell_angle_beta 54.472461
_cell_angle_gamma 90.000000
_cell_volume 1450.693059
_symmetry_space_group_name_H-M "P 2/C"
_symmetry_group_IT_number 13
_symmetry_cell_setting 'monoclinic'
loop_
_space_group_symop_operation_xyz
x,y,z
-x,y,1/2-z
-x,-y,-z
x,-y,1/2+z
loop_
_atom_site_type_symbol
_atom_site_label
_atom_site_fract_x
_atom_site_fract_y
_atom_site_fract_z
Si Si1 0.500000 0.446729 0.250000
Si Si2 0.385182 0.069852 0.236862
Si Si3 0.982863 0.894908 0.427908
Si Si4 0.002386 0.489419 0.336493
Si Si5 0.596074 0.823044 0.121369
Si Si6 0.167155 0.134668 0.252645
Si Si7 0.184050 0.850461 0.570328
O O1 0.421896 0.293657 0.244184
O O2 0.560208 0.598926 0.164078
O O3 0.279237 0.092602 0.239329
O O4 0.489026 0.951993 0.149926
O O5 0.364796 0.939526 0.322359
O O6 0.993484 0.656982 0.405615
O O7 0.867412 0.970234 0.453575
O O8 0.000000 0.000000 0.500000
O O9 0.075818 0.987960 0.329888
O O10 0.899665 0.337945 0.396692
O O11 0.000000 0.563619 0.250000
O O12 0.112949 0.357449 0.289805
O O13 0.694244 0.811267 0.016013
O O14 0.181166 0.096378 0.158475
#
# Coordination Sequence:
#
# PCOD9232243 Si02
#       7
#     2   4   4   4   4   4   4
#     4   8  18  36  54  72 104 136 174 222 260 316
#     4   9  19  35  55  79 105 139 179 219 266 312
#     4  11  22  36  57  81 105 141 181 219 266 316
#     4   9  20  37  54  77 110 143 172 212 266 317
#     4   9  19  35  55  79 105 139 179 219 266 312
#     4  10  21  36  54  79 110 141 177 220 265 317
#     4  10  21  36  54  79 110 141 177 220 265 317
#
# _framework density 17.922467000000001
#
# number of rings (size 3 to 8) (size 9 to 14) (size 15 to 20)
#    0.000    2.769    0.000    3.231    0.000   10.462 
#    0.000    0.769    0.000    0.000    0.000    0.000 
#    0.000    0.000    0.000    0.000    0.000    0.000 
#
# Total GULP energy -144866.357402 kJ/mol
# GULP energy per Si atom -5571.782977 kJ/mol
# Density = 1.788167 g / cm^3
# Si number density = 17.922467 Si / 1000 Ang^3
#
#
#
# Elastic Constant Matrix: (Units=GPa)
#
#
# Indices 1 2 3 4 5 6 
#
# 1 27.4252 6.4528 -13.6283 0.0000 -11.0894 0.0000
# 2 6.4528 68.3656 6.3658 0.0000 3.7607 0.0000
# 3 -13.6283 6.3658 100.0936 0.0000 -11.4459 0.0000
# 4 0.0000 0.0000 0.0000 11.5766 0.0000 6.6724
# 5 -11.0894 3.7607 -11.4459 0.0000 23.7368 0.0000
# 6 0.0000 0.0000 0.0000 6.6724 0.0000 10.2321
#
#
#
# Elastic Compliance Matrix: (Units=1/GPa)
#
#
# Indices 1 2 3 4 5 6 
#
# 1 0.058858 -0.008646 0.012557 0.000000 0.034922 0.000000
# 2 -0.008646 0.016181 -0.003134 0.000000 -0.008114 0.000000
# 3 0.012557 -0.003134 0.013364 0.000000 0.012807 0.000000
# 4 0.000000 0.000000 0.000000 0.138398 0.000000 -0.090250
# 5 0.034922 -0.008114 0.012807 0.000000 0.065905 0.000000
# 6 0.000000 0.000000 0.000000 -0.090250 0.000000 0.156584
#
#
# Mechanical properties :
#
#
# Convention : Reuss Voigt Hill
#
# Bulk Modulus (GPa) = 11.11631 21.58502 16.35066
# Shear Modulus (GPa) = 10.46634 22.22204 16.34419
#
# Velocity S-wave (km/s) = 2.41919 3.52504 3.02311
# Velocity P-wave (km/s) = 3.74422 5.35141 4.61827
#
# Compressibility (1/GPa) = 0.08995787
#
# Stress axis : x y z
#
# Youngs Moduli (GPa) = 16.99015 61.79920 74.82663
#
# Poissons Ratio (x) = 0.53429 -0.93960
# Poissons Ratio (y) = 0.14689 0.23452
# Poissons Ratio (z) = -0.21335 0.19369
#
# Static dielectric constant tensor:
#      x y z
#    x 1.619360 0.000000 0.005230 
#    y 0.000000 1.642500 0.000000 
#    z 0.005230 0.000000 1.609650 
# 
# From -- ./inp_files/78994.got.cif
#   From: 2010.05.17/outbox.cif.g08.bks.cpg/sg13_40_cif.got.tgz:78994.got - 2010.06.03 16:44:36.
