data_PCOD9232871
_publ_section_title
;
Structure prediction by ZEFSAII (Michael W. Deem and Ramdas Pophale) SiO2 
 PCOD9232871
Probable space group: P 2/C
;
_chemical_formula_sum "Si O2"
_cell_formula_units_Z 22
_cell_length_a 13.887359
_cell_length_b 9.117968
_cell_length_c 8.891764
_cell_angle_alpha 90.000000
_cell_angle_beta 49.241691
_cell_angle_gamma 90.000000
_cell_volume 852.847283
_symmetry_space_group_name_H-M "P 2/C"
_symmetry_group_IT_number 13
_symmetry_cell_setting 'monoclinic'
loop_
_space_group_symop_operation_xyz
x,y,z
-x,y,1/2-z
-x,-y,-z
x,-y,1/2+z
loop_
_atom_site_type_symbol
_atom_site_label
_atom_site_fract_x
_atom_site_fract_y
_atom_site_fract_z
Si Si1 0.317370 0.115198 0.904201
Si Si2 0.072008 0.117974 0.330838
Si Si3 0.225898 0.600993 0.973797
Si Si4 0.500000 0.378305 0.250000
Si Si5 0.610864 0.828860 0.856287
Si Si6 0.130923 0.326482 0.899026
O O1 0.405841 0.177838 0.948311
O O2 0.211050 0.066023 0.139641
O O3 0.234067 0.220305 0.880080
O O4 0.375238 0.983969 0.744860
O O5 0.015015 0.271776 0.447363
O O6 0.000000 0.113395 0.250000
O O7 0.000000 0.000000 0.500000
O O8 0.167688 0.656276 0.187962
O O9 0.367764 0.537898 0.871893
O O10 0.265275 0.735955 0.825118
O O11 0.147222 0.476887 0.972604
O O12 0.501366 0.266886 0.106637
#
# Coordination Sequence:
#
# PCOD9232871 Si02
#       6
#     4   4   4   2   4   4
#     4  11  21  39  66  98 133 168 222 274 328 391
#     4  10  21  38  64  98 127 173 212 259 331 390
#     4  10  22  45  62  93 130 173 222 274 320 397
#     4   8  24  42  68  88 134 174 228 260 352 366
#     4  10  21  42  65  95 134 174 219 277 321 395
#     4  11  23  41  68  95 133 174 221 271 331 386
#
# _framework density 25.795943999999999
#
# number of rings (size 3 to 8) (size 9 to 14) (size 15 to 20)
#    1.091    0.727    0.000    5.455    0.000    1.455 
#    0.000   14.545    0.000    0.000    0.000    0.000 
#    0.000    0.000    0.000    0.000    0.000    0.000 
#
# Total GULP energy -122738.115209 kJ/mol
# GULP energy per Si atom -5579.005237 kJ/mol
# Density = 2.573723 g / cm^3
# Si number density = 25.795944 Si / 1000 Ang^3
#
#
#
# Elastic Constant Matrix: (Units=GPa)
#
#
# Indices 1 2 3 4 5 6 
#
# 1 61.2317 35.2725 23.4557 0.0000 -45.7975 0.0000
# 2 35.2725 98.4300 25.4853 0.0000 30.7233 0.0000
# 3 23.4557 25.4853 179.8456 0.0000 15.5973 0.0000
# 4 0.0000 0.0000 0.0000 19.7051 0.0000 -0.9944
# 5 -45.7975 30.7233 15.5973 0.0000 -84.1276 0.0000
# 6 0.0000 0.0000 0.0000 -0.9944 0.0000 42.7293
#
#
#
# Elastic Compliance Matrix: (Units=1/GPa)
#
#
# Indices 1 2 3 4 5 6 
#
# 1 0.012123 -0.001859 -0.000676 0.000000 -0.007404 0.000000
# 2 -0.001859 0.009870 -0.001532 0.000000 0.004332 0.000000
# 3 -0.000676 -0.001532 0.005789 0.000000 0.000882 0.000000
# 4 0.000000 0.000000 0.000000 0.050808 0.000000 0.001182
# 5 -0.007404 0.004332 0.000882 0.000000 -0.006111 0.000000
# 6 0.000000 0.000000 0.000000 0.001182 0.000000 0.023431
#
#
# Mechanical properties :
#
#
# Convention : Reuss Voigt Hill
#
# Bulk Modulus (GPa) = 50.89052 56.43712 53.66382
# Shear Modulus (GPa) = 45.21105 12.68096 28.94600
#
# Velocity S-wave (km/s) = 4.19100 2.21958 3.35343
# Velocity P-wave (km/s) = 6.57193 5.33803 5.98685
#
# Compressibility (1/GPa) = 0.01965003
#
# Stress axis : x y z
#
# Youngs Moduli (GPa) = 82.48568 101.31787 172.73917
#
# Poissons Ratio (x) = 0.18830 0.11672
# Poissons Ratio (y) = 0.15330 0.26463
# Poissons Ratio (z) = 0.05573 0.15521
#
# Static dielectric constant tensor:
#      x y z
#    x 2.341210 0.000000 -0.155860 
#    y 0.000000 2.080270 0.000000 
#    z -0.155860 0.000000 2.055000 
# 
# From -- ./inp_files/20859.got.cif
#   From: 2010.05.17/outbox.cif.g08.bks.cpg/sg13_11_cif.got.tgz:20859.got - 2010.06.03 16:44:36.
