data_PCOD9232784
_publ_section_title
;
Structure prediction by ZEFSAII (Michael W. Deem and Ramdas Pophale) SiO2 
 PCOD9232784
Probable space group: P 2/C
;
_chemical_formula_sum "Si O2"
_cell_formula_units_Z 20
_cell_length_a 11.998199
_cell_length_b 11.544245
_cell_length_c 8.093570
_cell_angle_alpha 90.000000
_cell_angle_beta 51.767933
_cell_angle_gamma 90.000000
_cell_volume 880.590118
_symmetry_space_group_name_H-M "P 2/C"
_symmetry_group_IT_number 13
_symmetry_cell_setting 'monoclinic'
loop_
_space_group_symop_operation_xyz
x,y,z
-x,y,1/2-z
-x,-y,-z
x,-y,1/2+z
loop_
_atom_site_type_symbol
_atom_site_label
_atom_site_fract_x
_atom_site_fract_y
_atom_site_fract_z
Si Si1 0.760837 0.761439 0.723674
Si Si2 0.480663 0.367682 0.570017
Si Si3 0.666203 0.021734 0.829277
Si Si4 0.137080 0.831939 0.554769
Si Si5 0.785917 0.758015 0.341557
O O1 0.831121 0.735044 0.836888
O O2 0.824974 0.722968 0.490007
O O3 0.748869 0.901089 0.748952
O O4 0.603113 0.709053 0.873629
O O5 0.500000 0.354919 0.750000
O O6 0.500000 0.500000 0.500000
O O7 0.330688 0.323884 0.637116
O O8 0.721214 0.095409 0.619240
O O9 0.711515 0.115296 0.925977
O O10 0.500000 0.000000 0.000000
O O11 0.100526 0.781422 0.406969
O O12 0.000000 0.899209 0.750000
#
# Coordination Sequence:
#
# PCOD9232784 Si02
#       5
#     4   4   4   4   4
#     4  12  21  39  62  91 130 169 204 268 318 382
#     4  12  23  40  64  98 129 158 207 274 333 387
#     4  10  21  38  61  93 132 164 211 263 322 382
#     4  10  24  41  60  91 132 179 217 261 311 390
#     4  10  23  38  61  97 125 164 216 256 331 378
#
# _framework density 22.712043999999999
#
# number of rings (size 3 to 8) (size 9 to 14) (size 15 to 20)
#    1.200    0.000    4.000    3.000    0.000    3.200 
#    0.000    0.000    0.000    1.200    0.000    0.000 
#    0.000    0.000    0.000    0.000    0.000    0.000 
#
# Total GULP energy -111458.311548 kJ/mol
# GULP energy per Si atom -5572.915577 kJ/mol
# Density = 2.266035 g / cm^3
# Si number density = 22.712044 Si / 1000 Ang^3
#
#
#
# Elastic Constant Matrix: (Units=GPa)
#
#
# Indices 1 2 3 4 5 6 
#
# 1 91.5584 7.6469 52.7658 0.0000 19.1302 0.0000
# 2 7.6469 79.3689 2.5766 0.0000 2.6586 0.0000
# 3 52.7658 2.5766 179.5815 0.0000 21.0897 0.0000
# 4 0.0000 0.0000 0.0000 18.7304 0.0000 10.8426
# 5 19.1302 2.6586 21.0897 0.0000 52.4515 0.0000
# 6 0.0000 0.0000 0.0000 10.8426 0.0000 12.0465
#
#
#
# Elastic Compliance Matrix: (Units=1/GPa)
#
#
# Indices 1 2 3 4 5 6 
#
# 1 0.013849 -0.001098 -0.003639 0.000000 -0.003532 0.000000
# 2 -0.001098 0.012710 0.000177 0.000000 -0.000315 0.000000
# 3 -0.003639 0.000177 0.006801 0.000000 -0.001417 0.000000
# 4 0.000000 0.000000 0.000000 0.111465 0.000000 -0.100325
# 5 -0.003532 -0.000315 -0.001417 0.000000 0.020939 0.000000
# 6 0.000000 0.000000 0.000000 -0.100325 0.000000 0.173310
#
#
# Mechanical properties :
#
#
# Convention : Reuss Voigt Hill
#
# Bulk Modulus (GPa) = 41.25114 52.94305 47.09710
# Shear Modulus (GPa) = 14.03420 35.81364 24.92392
#
# Velocity S-wave (km/s) = 2.48849 3.97527 3.31628
# Velocity P-wave (km/s) = 5.14382 6.66570 5.95359
#
# Compressibility (1/GPa) = 0.02424175
#
# Stress axis : x y z
#
# Youngs Moduli (GPa) = 72.20937 78.67838 147.02818
#
# Poissons Ratio (x) = 0.08638 0.53496
# Poissons Ratio (y) = 0.07927 -0.02606
# Poissons Ratio (z) = 0.26273 -0.01394
#
# Static dielectric constant tensor:
#      x y z
#    x 1.959760 0.000000 0.080160 
#    y 0.000000 1.808920 0.000000 
#    z 0.080160 0.000000 1.935900 
# 
# From -- ./inp_files/18442.got.cif
#   From: 2010.05.17/outbox.cif.g08.bks.cpg/sg13_10_cif.got.tgz:18442.got - 2010.06.03 16:44:36.
