data_PCOD9232616
_publ_section_title
;
Structure prediction by ZEFSAII (Michael W. Deem and Ramdas Pophale) SiO2 
 PCOD9232616
Probable space group: P 2/C
;
_chemical_formula_sum "Si O2"
_cell_formula_units_Z 20
_cell_length_a 10.676355
_cell_length_b 5.258565
_cell_length_c 16.721356
_cell_angle_alpha 90.000000
_cell_angle_beta 116.904488
_cell_angle_gamma 90.000000
_cell_volume 837.164397
_symmetry_space_group_name_H-M "P 2/C"
_symmetry_group_IT_number 13
_symmetry_cell_setting 'monoclinic'
loop_
_space_group_symop_operation_xyz
x,y,z
-x,y,1/2-z
-x,-y,-z
x,-y,1/2+z
loop_
_atom_site_type_symbol
_atom_site_label
_atom_site_fract_x
_atom_site_fract_y
_atom_site_fract_z
Si Si1 0.350783 0.813023 0.670345
Si Si2 0.280609 0.670673 0.238659
Si Si3 0.148875 0.245425 0.477715
Si Si4 0.551517 0.548434 0.426890
Si Si5 0.998863 0.747866 0.111450
O O1 0.500000 0.751111 0.750000
O O2 0.255827 0.600484 0.686547
O O3 0.375257 0.706284 0.588849
O O4 0.322507 0.095646 0.692247
O O5 0.412671 0.638244 0.336757
O O6 0.121325 0.746131 0.213750
O O7 0.316988 0.260130 0.532532
O O8 0.076632 0.243625 0.545412
O O9 0.093545 0.495344 0.416812
O O10 0.095772 0.997331 0.416666
O O11 0.500000 0.500000 0.500000
#
# Coordination Sequence:
#
# PCOD9232616 Si02
#       5
#     4   4   4   4   4
#     4  10  21  37  64  97 132 171 231 283 336 417
#     4  11  22  42  69 100 129 182 239 287 341 421
#     4  10  22  38  64 104 135 174 230 297 349 406
#     4  11  25  45  71 109 149 186 233 304 375 429
#     4  10  21  38  66  98 134 177 236 291 339 413
#
# _framework density 23.890169
#
# number of rings (size 3 to 8) (size 9 to 14) (size 15 to 20)
#    0.000    1.600    2.000    3.000    5.600    1.600 
#    3.600   17.000    0.000    2.400    0.000    0.000 
#    0.000    0.000    0.000    0.000    0.000    0.000 
#
# Total GULP energy -111553.265060 kJ/mol
# GULP energy per Si atom -5577.663253 kJ/mol
# Density = 2.383579 g / cm^3
# Si number density = 23.890169 Si / 1000 Ang^3
#
#
#
# Elastic Constant Matrix: (Units=GPa)
#
#
# Indices 1 2 3 4 5 6 
#
# 1 86.5838 44.7059 76.5653 0.0000 23.6514 0.0000
# 2 44.7059 161.0208 92.9708 0.0000 18.6808 0.0000
# 3 76.5653 92.9708 128.8447 0.0000 45.2380 0.0000
# 4 0.0000 0.0000 0.0000 28.9041 0.0000 15.5102
# 5 23.6514 18.6808 45.2380 0.0000 45.5049 0.0000
# 6 0.0000 0.0000 0.0000 15.5102 0.0000 21.0390
#
#
#
# Elastic Compliance Matrix: (Units=1/GPa)
#
#
# Indices 1 2 3 4 5 6 
#
# 1 0.025597 0.003535 -0.019327 0.000000 0.004458 0.000000
# 2 0.003535 0.011936 -0.012824 0.000000 0.006011 0.000000
# 3 -0.019327 -0.012824 0.035524 0.000000 -0.020006 0.000000
# 4 0.000000 0.000000 0.000000 0.057242 0.000000 -0.042199
# 5 0.004458 0.006011 -0.020006 0.000000 0.037079 0.000000
# 6 0.000000 0.000000 0.000000 -0.042199 0.000000 0.078641
#
#
# Mechanical properties :
#
#
# Convention : Reuss Voigt Hill
#
# Bulk Modulus (GPa) = 63.19169 89.43703 76.31436
# Shear Modulus (GPa) = 16.20614 29.90343 23.05478
#
# Velocity S-wave (km/s) = 2.60736 3.54178 3.10987
# Velocity P-wave (km/s) = 5.96429 7.36503 6.70136
#
# Compressibility (1/GPa) = 0.01582486
#
# Stress axis : x y z
#
# Youngs Moduli (GPa) = 39.06664 83.78178 28.15012
#
# Poissons Ratio (x) = -0.29618 0.54407
# Poissons Ratio (y) = -0.13811 0.36099
# Poissons Ratio (z) = 0.75505 1.07441
#
# Static dielectric constant tensor:
#      x y z
#    x 1.972530 0.000000 0.007080 
#    y 0.000000 -43.671140 0.000000 
#    z 0.007080 0.000000 2.019190 
# 
# From -- ./inp_files/65147.got.cif
#   From: 2010.05.17/outbox.cif.g08.bks.cpg/sg13_33_cif.got.tgz:65147.got - 2010.06.03 16:44:36.
