data_PCOD9232763
_publ_section_title
;
Structure prediction by ZEFSAII (Michael W. Deem and Ramdas Pophale) SiO2 
 PCOD9232763
Probable space group: P 2/C
;
_chemical_formula_sum "Si O2"
_cell_formula_units_Z 24
_cell_length_a 7.320269
_cell_length_b 10.046656
_cell_length_c 14.217747
_cell_angle_alpha 90.000000
_cell_angle_beta 81.678044
_cell_angle_gamma 90.000000
_cell_volume 1034.623076
_symmetry_space_group_name_H-M "P 2/C"
_symmetry_group_IT_number 13
_symmetry_cell_setting 'monoclinic'
loop_
_space_group_symop_operation_xyz
x,y,z
-x,y,1/2-z
-x,-y,-z
x,-y,1/2+z
loop_
_atom_site_type_symbol
_atom_site_label
_atom_site_fract_x
_atom_site_fract_y
_atom_site_fract_z
Si Si1 0.187181 0.364110 0.043998
Si Si2 0.679302 0.168695 0.946135
Si Si3 0.230022 0.404879 0.424070
Si Si4 0.739488 0.903831 0.037084
Si Si5 0.227351 0.261576 0.233844
Si Si6 0.218896 0.955928 0.247586
O O1 0.284475 0.341128 0.136304
O O2 0.988279 0.428130 0.079926
O O3 0.294112 0.452403 0.959287
O O4 0.139819 0.218999 0.006337
O O5 0.464113 0.141496 0.980537
O O6 0.706353 0.150232 0.832892
O O7 0.738778 0.302957 0.992226
O O8 0.785090 0.042853 0.984511
O O9 0.294536 0.332995 0.323821
O O10 0.739765 0.921381 0.148282
O O11 0.000000 0.258011 0.250000
O O12 0.287228 0.107058 0.223342
O O13 0.000000 0.957639 0.250000
#
# Coordination Sequence:
#
# PCOD9232763 Si02
#       6
#     4   4   4   4   4   4
#     4  10  21  38  61  88 121 159 204 251 296 352
#     4  11  23  38  58  87 122 155 196 246 300 358
#     4  10  21  38  61  88 121 159 204 251 296 352
#     4  11  23  38  58  87 122 155 196 246 300 358
#     4   9  18  34  57  86 116 152 197 247 298 349
#     4  11  21  36  63  88 116 156 203 251 296 349
#
# _framework density 23.196852
#
# number of rings (size 3 to 8) (size 9 to 14) (size 15 to 20)
#    0.000    1.667    3.333    1.500    0.000    3.333 
#    0.000    4.167    0.000    0.000    0.000    0.000 
#    0.000    0.000    0.000    0.000    0.000    0.000 
#
# Total GULP energy -134155.529580 kJ/mol
# GULP energy per Si atom -5589.813733 kJ/mol
# Density = 2.314406 g / cm^3
# Si number density = 23.196852 Si / 1000 Ang^3
#
#
#
# Elastic Constant Matrix: (Units=GPa)
#
#
# Indices 1 2 3 4 5 6 
#
# 1 53.1452 -6.7865 -16.6781 0.0000 13.3178 0.0000
# 2 -6.7865 75.0257 28.4571 0.0000 16.0331 0.0000
# 3 -16.6781 28.4571 146.9168 0.0000 21.4731 0.0000
# 4 0.0000 0.0000 0.0000 34.6571 0.0000 0.0350
# 5 13.3178 16.0331 21.4731 0.0000 25.8047 0.0000
# 6 0.0000 0.0000 0.0000 0.0350 0.0000 9.0465
#
#
#
# Elastic Compliance Matrix: (Units=1/GPa)
#
#
# Indices 1 2 3 4 5 6 
#
# 1 0.026249 0.004898 0.005073 0.000000 -0.020812 0.000000
# 2 0.004898 0.016713 -0.000904 0.000000 -0.012160 0.000000
# 3 0.005073 -0.000904 0.008946 0.000000 -0.009501 0.000000
# 4 0.000000 0.000000 0.000000 0.028854 0.000000 -0.000112
# 5 -0.020812 -0.012160 -0.009501 0.000000 0.064955 0.000000
# 6 0.000000 0.000000 0.000000 -0.000112 0.000000 0.110541
#
#
# Mechanical properties :
#
#
# Convention : Reuss Voigt Hill
#
# Bulk Modulus (GPa) = 14.27723 31.67474 22.97598
# Shear Modulus (GPa) = 19.12250 31.90801 25.51525
#
# Velocity S-wave (km/s) = 2.87428 3.71284 3.32014
# Velocity P-wave (km/s) = 4.14529 5.66256 4.96226
#
# Compressibility (1/GPa) = 0.07004159
#
# Stress axis : x y z
#
# Youngs Moduli (GPa) = 38.09667 59.83280 111.77926
#
# Poissons Ratio (x) = -0.29304 -0.56705
# Poissons Ratio (y) = -0.18659 0.10105
# Poissons Ratio (z) = -0.19326 0.05409
#
# Static dielectric constant tensor:
#      x y z
#    x 1.945140 0.000000 -0.020950 
#    y 0.000000 1.874850 0.000000 
#    z -0.020950 0.000000 1.851810 
# 
# From -- ./inp_files/46104.got.cif
#   From: 2010.05.17/outbox.cif.g08.bks.cpg/sg13_24_cif.got.tgz:46104.got - 2010.06.03 16:44:36.
