data_PCOD9232608
_publ_section_title
;
Structure prediction by ZEFSAII (Michael W. Deem and Ramdas Pophale) SiO2 
 PCOD9232608
Probable space group: P 2/C
;
_chemical_formula_sum "Si O2"
_cell_formula_units_Z 26
_cell_length_a 10.941224
_cell_length_b 7.980734
_cell_length_c 14.275168
_cell_angle_alpha 90.000000
_cell_angle_beta 117.245102
_cell_angle_gamma 90.000000
_cell_volume 1108.202760
_symmetry_space_group_name_H-M "P 2/C"
_symmetry_group_IT_number 13
_symmetry_cell_setting 'monoclinic'
loop_
_space_group_symop_operation_xyz
x,y,z
-x,y,1/2-z
-x,-y,-z
x,-y,1/2+z
loop_
_atom_site_type_symbol
_atom_site_label
_atom_site_fract_x
_atom_site_fract_y
_atom_site_fract_z
Si Si1 0.309620 0.938179 0.939800
Si Si2 0.125962 0.430529 0.850158
Si Si3 0.523490 0.142683 0.368968
Si Si4 0.500000 0.282427 0.750000
Si Si5 0.748503 0.179830 0.729379
Si Si6 0.611955 0.508605 0.957173
Si Si7 0.028700 0.064357 0.904018
O O1 0.387695 0.828253 0.888202
O O2 0.320211 0.112467 0.887787
O O3 0.148513 0.939595 0.908981
O O4 0.399581 0.978378 0.062698
O O5 0.206548 0.362018 0.787041
O O6 0.076514 0.259840 0.891955
O O7 0.000000 0.515978 0.750000
O O8 0.234525 0.532095 0.950739
O O9 0.500000 0.136948 0.250000
O O10 0.617920 0.303740 0.419579
O O11 0.633627 0.182660 0.765504
O O12 0.554279 0.394482 0.854647
O O13 0.879760 0.067732 0.801945
O O14 0.500000 0.500000 0.000000
O O15 0.000000 0.000000 0.000000
#
# Coordination Sequence:
#
# PCOD9232608 Si02
#       7
#     4   4   4   2   4   4   4
#     4  10  22  40  62  94 131 170 208 274 338 399
#     4   9  19  41  62  85 129 174 212 266 328 385
#     4  11  23  38  63  97 133 169 215 274 339 387
#     4  12  24  38  68 100 124 178 230 270 334 388
#     4  10  21  39  62  91 124 168 219 261 326 403
#     4  12  22  41  65  93 137 173 225 280 320 395
#     4  10  21  37  64  93 127 165 216 266 333 401
#
# _framework density 23.461410000000001
#
# number of rings (size 3 to 8) (size 9 to 14) (size 15 to 20)
#    0.000    1.538    5.385    1.385    3.231    2.462 
#    0.000    3.077    3.385    1.846    0.000    0.000 
#    0.000    0.000    0.000    0.000    0.000    0.000 
#
# Total GULP energy -144769.942797 kJ/mol
# GULP energy per Si atom -5568.074723 kJ/mol
# Density = 2.340801 g / cm^3
# Si number density = 23.461410 Si / 1000 Ang^3
#
#
#
# Elastic Constant Matrix: (Units=GPa)
#
#
# Indices 1 2 3 4 5 6 
#
# 1 159.1103 20.4321 79.6405 0.0000 -0.0716 0.0000
# 2 20.4321 35.2894 30.9622 0.0000 1.7737 0.0000
# 3 79.6405 30.9622 194.7079 0.0000 0.5281 0.0000
# 4 0.0000 0.0000 0.0000 11.0606 0.0000 1.1118
# 5 -0.0716 1.7737 0.5281 0.0000 55.9455 0.0000
# 6 0.0000 0.0000 0.0000 1.1118 0.0000 20.6631
#
#
#
# Elastic Compliance Matrix: (Units=1/GPa)
#
#
# Indices 1 2 3 4 5 6 
#
# 1 0.008030 -0.002060 -0.002957 0.000000 0.000104 0.000000
# 2 -0.002060 0.033516 -0.004484 0.000000 -0.001023 0.000000
# 3 -0.002957 -0.004484 0.007058 0.000000 0.000072 0.000000
# 4 0.000000 0.000000 0.000000 0.090903 0.000000 -0.004891
# 5 0.000104 -0.001023 0.000072 0.000000 0.017906 0.000000
# 6 0.000000 0.000000 0.000000 -0.004891 0.000000 0.048659
#
#
# Mechanical properties :
#
#
# Convention : Reuss Voigt Hill
#
# Bulk Modulus (GPa) = 33.78247 72.35302 53.06775
# Shear Modulus (GPa) = 21.28195 34.73868 28.01032
#
# Velocity S-wave (km/s) = 3.01508 3.85213 3.45902
# Velocity P-wave (km/s) = 5.15281 7.11978 6.21461
#
# Compressibility (1/GPa) = 0.02960115
#
# Stress axis : x y z
#
# Youngs Moduli (GPa) = 124.53897 29.83689 141.67706
#
# Poissons Ratio (x) = 0.06146 0.41895
# Poissons Ratio (y) = 0.25652 0.63533
# Poissons Ratio (z) = 0.36827 0.13380
#
# Static dielectric constant tensor:
#      x y z
#    x 1.950940 0.000000 -0.031500 
#    y 0.000000 1.934100 0.000000 
#    z -0.031500 0.000000 1.904710 
# 
# From -- ./inp_files/50146.got.cif
#   From: 2010.05.17/outbox.cif.g08.bks.cpg/sg13_26_cif.got.tgz:50146.got - 2010.06.03 16:44:36.
