data_PCOD9232304
_publ_section_title
;
Structure prediction by ZEFSAII (Michael W. Deem and Ramdas Pophale) SiO2 
 PCOD9232304
Probable space group: P 2/C
;
_chemical_formula_sum "Si O2"
_cell_formula_units_Z 32
_cell_length_a 22.889723
_cell_length_b 5.056538
_cell_length_c 18.980273
_cell_angle_alpha 90.000000
_cell_angle_beta 135.842955
_cell_angle_gamma 90.000000
_cell_volume 1530.371401
_symmetry_space_group_name_H-M "P 2/C"
_symmetry_group_IT_number 13
_symmetry_cell_setting 'monoclinic'
loop_
_space_group_symop_operation_xyz
x,y,z
-x,y,1/2-z
-x,-y,-z
x,-y,1/2+z
loop_
_atom_site_type_symbol
_atom_site_label
_atom_site_fract_x
_atom_site_fract_y
_atom_site_fract_z
Si Si1 0.905946 0.948680 0.676737
Si Si2 0.888283 0.175588 0.508107
Si Si3 0.221789 0.984612 0.210183
Si Si4 0.872361 0.660249 0.267593
Si Si5 0.985480 0.665763 0.558641
Si Si6 0.574681 0.691851 0.501872
Si Si7 0.750231 0.699440 0.619229
Si Si8 0.598730 0.808630 0.120735
O O1 0.917791 0.167638 0.748222
O O2 0.000000 0.823226 0.750000
O O3 0.880280 0.078200 0.580575
O O4 0.822005 0.796716 0.628527
O O5 0.812004 0.135032 0.387574
O O6 0.958768 0.969553 0.537943
O O7 0.914982 0.481473 0.533471
O O8 0.147469 0.797577 0.175403
O O9 0.306845 0.822419 0.268668
O O10 0.238835 0.169066 0.293349
O O11 0.779503 0.600948 0.157523
O O12 0.926921 0.396866 0.326411
O O13 0.000000 0.500000 0.500000
O O14 0.652919 0.734367 0.517393
O O15 0.478739 0.733646 0.395068
O O16 0.589771 0.407635 0.550808
O O17 0.583827 0.905171 0.572940
#
# Coordination Sequence:
#
# PCOD9232304 Si02
#       8
#     4   4   4   4   4   4   4   4
#     4  11  24  40  54  80 115 161 199 244 281 350
#     4  12  26  40  58  83 114 155 198 242 293 348
#     4  10  21  36  57  88 116 148 191 243 300 344
#     4  11  21  36  58  80 115 152 199 241 291 340
#     4  12  24  39  60  81 112 149 197 248 294 342
#     4   9  17  32  55  87 117 146 182 230 295 343
#     4  10  21  36  60  82 118 155 195 242 294 350
#     4   9  17  31  55  87 120 142 178 238 291 349
#
# _framework density 20.909955
#
# number of rings (size 3 to 8) (size 9 to 14) (size 15 to 20)
#    0.000    1.500    3.750    1.875    3.500    0.500 
#    0.000    0.000    0.000    0.750    0.000    0.000 
#    0.000    0.000    0.000    0.000    0.000    0.000 
#
# Total GULP energy -178367.039324 kJ/mol
# GULP energy per Si atom -5573.969979 kJ/mol
# Density = 2.086236 g / cm^3
# Si number density = 20.909955 Si / 1000 Ang^3
#
#
#
# Elastic Constant Matrix: (Units=GPa)
#
#
# Indices 1 2 3 4 5 6 
#
# 1 118.4719 1.9883 52.2502 0.0000 30.0525 0.0000
# 2 1.9883 59.8759 6.4941 0.0000 9.5978 0.0000
# 3 52.2502 6.4941 78.2320 0.0000 22.1892 0.0000
# 4 0.0000 0.0000 0.0000 23.9217 0.0000 8.9423
# 5 30.0525 9.5978 22.1892 0.0000 40.3407 0.0000
# 6 0.0000 0.0000 0.0000 8.9423 0.0000 20.2576
#
#
#
# Elastic Compliance Matrix: (Units=1/GPa)
#
#
# Indices 1 2 3 4 5 6 
#
# 1 0.013128 0.001327 -0.007127 0.000000 -0.006176 0.000000
# 2 0.001327 0.017504 -0.001040 0.000000 -0.004581 0.000000
# 3 -0.007127 -0.001040 0.019020 0.000000 -0.004905 0.000000
# 4 0.000000 0.000000 0.000000 0.050064 0.000000 -0.022100
# 5 -0.006176 -0.004581 -0.004905 0.000000 0.033178 0.000000
# 6 0.000000 0.000000 0.000000 -0.022100 0.000000 0.059120
#
#
# Mechanical properties :
#
#
# Convention : Reuss Voigt Hill
#
# Bulk Modulus (GPa) = 27.79853 42.00500 34.90177
# Shear Modulus (GPa) = 22.96900 29.96049 26.46474
#
# Velocity S-wave (km/s) = 3.31792 3.78939 3.56146
# Velocity P-wave (km/s) = 5.29163 6.26722 5.79997
#
# Compressibility (1/GPa) = 0.03597313
#
# Stress axis : x y z
#
# Youngs Moduli (GPa) = 76.17146 57.12891 52.57642
#
# Poissons Ratio (x) = -0.07581 0.37470
# Poissons Ratio (y) = -0.10108 0.05468
# Poissons Ratio (z) = 0.54285 0.05941
#
# Static dielectric constant tensor:
#      x y z
#    x 1.831020 0.000000 0.046540 
#    y 0.000000 1.831080 0.000000 
#    z 0.046540 0.000000 1.804680 
# 
# From -- ./inp_files/81902.got.cif
#   From: 2010.05.17/outbox.cif.g08.bks.cpg/sg13_41_cif.got.tgz:81902.got - 2010.06.03 16:44:36.
