data_PCOD9232101
_publ_section_title
;
Structure prediction by ZEFSAII (Michael W. Deem and Ramdas Pophale) SiO2 
 PCOD9232101
Probable space group: P 2/C
;
_chemical_formula_sum "Si O2"
_cell_formula_units_Z 22
_cell_length_a 14.409850
_cell_length_b 8.425670
_cell_length_c 8.782935
_cell_angle_alpha 90.000000
_cell_angle_beta 70.979590
_cell_angle_gamma 90.000000
_cell_volume 1008.138823
_symmetry_space_group_name_H-M "P 2/C"
_symmetry_group_IT_number 13
_symmetry_cell_setting 'monoclinic'
loop_
_space_group_symop_operation_xyz
x,y,z
-x,y,1/2-z
-x,-y,-z
x,-y,1/2+z
loop_
_atom_site_type_symbol
_atom_site_label
_atom_site_fract_x
_atom_site_fract_y
_atom_site_fract_z
Si Si1 0.500000 0.401025 0.750000
Si Si2 0.177217 0.772323 0.370386
Si Si3 0.851077 0.959005 0.835892
Si Si4 0.762556 0.576280 0.596431
Si Si5 0.056167 0.210226 0.495072
Si Si6 0.365437 0.409159 0.079505
O O1 0.572966 0.319383 0.586941
O O2 0.563329 0.507771 0.833846
O O3 0.206768 0.850926 0.514817
O O4 0.218941 0.597674 0.343903
O O5 0.058170 0.751414 0.433110
O O6 0.203145 0.903341 0.230202
O O7 0.909190 0.846087 0.689544
O O8 0.921222 0.061723 0.908812
O O9 0.867107 0.652782 0.498757
O O10 0.692759 0.541275 0.490350
O O11 0.710141 0.673163 0.761383
#
# Coordination Sequence:
#
# PCOD9232101 Si02
#       6
#     2   4   4   4   4   4
#     4   8  16  34  54  70 106 136 154 190 272 334
#     4  11  20  34  49  71 105 149 182 213 248 289
#     4  10  21  34  50  64  96 151 200 213 234 292
#     4  11  21  31  51  82 112 126 167 223 265 293
#     4  11  20  34  49  71 105 149 182 213 248 289
#     4   9  18  32  51  78 106 130 157 208 264 319
#
# _framework density 21.822391
#
# number of rings (size 3 to 8) (size 9 to 14) (size 15 to 20)
#    0.000    1.818    0.000    7.091    0.000    0.000 
#    0.000    5.455    0.000    0.000    0.000    0.000 
#    0.000 1344.000    0.000    0.000    0.000    0.000 
#
# Total GULP energy -122606.142992 kJ/mol
# GULP energy per Si atom -5573.006500 kJ/mol
# Density = 2.177272 g / cm^3
# Si number density = 21.822391 Si / 1000 Ang^3
#
#
#
# Elastic Constant Matrix: (Units=GPa)
#
#
# Indices 1 2 3 4 5 6 
#
# 1 87.2823 16.4597 26.2657 0.0000 15.2343 0.0000
# 2 16.4597 32.3611 -0.2373 0.0000 -2.2707 0.0000
# 3 26.2657 -0.2373 127.8196 0.0000 6.0275 0.0000
# 4 0.0000 0.0000 0.0000 23.9047 0.0000 7.5587
# 5 15.2343 -2.2707 6.0275 0.0000 41.0518 0.0000
# 6 0.0000 0.0000 0.0000 7.5587 0.0000 9.7647
#
#
#
# Elastic Compliance Matrix: (Units=1/GPa)
#
#
# Indices 1 2 3 4 5 6 
#
# 1 0.014747 -0.007907 -0.002786 0.000000 -0.005501 0.000000
# 2 -0.007907 0.035261 0.001470 0.000000 0.004669 0.000000
# 3 -0.002786 0.001470 0.008404 0.000000 -0.000119 0.000000
# 4 0.000000 0.000000 0.000000 0.055391 0.000000 -0.042877
# 5 -0.005501 0.004669 -0.000119 0.000000 0.026677 0.000000
# 6 0.000000 0.000000 0.000000 -0.042877 0.000000 0.135601
#
#
# Mechanical properties :
#
#
# Convention : Reuss Voigt Hill
#
# Bulk Modulus (GPa) = 25.02036 36.93769 30.97902
# Shear Modulus (GPa) = 16.24181 28.60922 22.42552
#
# Velocity S-wave (km/s) = 2.73110 3.62471 3.20916
# Velocity P-wave (km/s) = 4.62985 5.87207 5.28757
#
# Compressibility (1/GPa) = 0.03996745
#
# Stress axis : x y z
#
# Youngs Moduli (GPa) = 67.81258 28.35965 118.98714
#
# Poissons Ratio (x) = 0.22424 0.33144
# Poissons Ratio (y) = 0.53619 -0.17492
# Poissons Ratio (z) = 0.18890 -0.04169
#
# Static dielectric constant tensor:
#      x y z
#    x 1.904790 0.000000 -0.052820 
#    y 0.000000 1.776800 0.000000 
#    z -0.052820 0.000000 1.915760 
# 
# From -- ./inp_files/12387.got.cif
#   From: 2010.05.17/outbox.cif.g08.bks.cpg/sg13_7_cif.got.tgz:12387.got - 2010.06.03 16:44:36.
