data_PCOD9232131
_publ_section_title
;
Structure prediction by ZEFSAII (Michael W. Deem and Ramdas Pophale) SiO2 
 PCOD9232131
Probable space group: P 2/C
;
_chemical_formula_sum "Si O2"
_cell_formula_units_Z 32
_cell_length_a 13.718133
_cell_length_b 5.335865
_cell_length_c 27.379593
_cell_angle_alpha 90.000000
_cell_angle_beta 116.674476
_cell_angle_gamma 90.000000
_cell_volume 1790.837254
_symmetry_space_group_name_H-M "P 2/C"
_symmetry_group_IT_number 13
_symmetry_cell_setting 'monoclinic'
loop_
_space_group_symop_operation_xyz
x,y,z
-x,y,1/2-z
-x,-y,-z
x,-y,1/2+z
loop_
_atom_site_type_symbol
_atom_site_label
_atom_site_fract_x
_atom_site_fract_y
_atom_site_fract_z
Si Si1 0.314906 0.927171 0.827577
Si Si2 0.474463 0.176324 0.639068
Si Si3 0.783667 0.810662 0.796251
Si Si4 0.347818 0.436238 0.417531
Si Si5 0.852266 0.730274 0.172711
Si Si6 0.553620 0.200410 0.975754
Si Si7 0.902140 0.674290 0.297428
Si Si8 0.580021 0.675610 0.813883
O O1 0.285904 0.803907 0.769884
O O2 0.374420 0.753511 0.879653
O O3 0.392796 0.167523 0.836456
O O4 0.203580 0.001606 0.830093
O O5 0.420537 0.129340 0.573940
O O6 0.432287 0.430832 0.654566
O O7 0.454577 0.931036 0.667185
O O8 0.873117 0.591395 0.814538
O O9 0.699980 0.737231 0.819945
O O10 0.835957 0.090277 0.805715
O O11 0.237226 0.575090 0.377494
O O12 0.345753 0.306633 0.470195
O O13 0.454185 0.607462 0.445624
O O14 0.868812 0.643050 0.232635
O O15 0.969562 0.733490 0.174232
O O16 0.500000 0.000000 0.000000
O O17 0.500000 0.630560 0.750000
#
# Coordination Sequence:
#
# PCOD9232131 Si02
#       8
#     4   4   4   4   4   4   4   4
#     4  11  21  35  59  85 127 161 193 239 303 359
#     4  12  24  39  58  89 120 163 194 252 288 363
#     4  11  23  40  57  85 120 163 203 252 287 355
#     4  11  20  36  57  84 126 161 197 238 296 372
#     4  10  21  34  56  89 121 161 196 239 300 381
#     4  11  23  35  57  87 123 165 196 243 307 363
#     4  10  23  36  60  85 124 160 199 245 304 352
#     4  12  26  38  61  85 117 162 215 236 302 357
#
# _framework density 17.868738
#
# number of rings (size 3 to 8) (size 9 to 14) (size 15 to 20)
#    0.000    1.000    5.000    1.875    7.000    1.000 
#    0.000    0.000    0.000    0.000    0.000    5.250 
#    0.000    0.000    0.000    0.000    0.000    0.000 
#
# Total GULP energy -178433.742702 kJ/mol
# GULP energy per Si atom -5576.054459 kJ/mol
# Density = 1.782807 g / cm^3
# Si number density = 17.868738 Si / 1000 Ang^3
#
#
#
# Elastic Constant Matrix: (Units=GPa)
#
#
# Indices 1 2 3 4 5 6 
#
# 1 89.1192 25.3134 28.3568 0.0000 3.7276 0.0000
# 2 25.3134 75.8687 33.8827 0.0000 -4.0013 0.0000
# 3 28.3568 33.8827 87.1047 0.0000 -0.9135 0.0000
# 4 0.0000 0.0000 0.0000 29.6314 0.0000 -2.0294
# 5 3.7276 -4.0013 -0.9135 0.0000 23.0218 0.0000
# 6 0.0000 0.0000 0.0000 -2.0294 0.0000 25.9035
#
#
#
# Elastic Compliance Matrix: (Units=1/GPa)
#
#
# Indices 1 2 3 4 5 6 
#
# 1 0.013228 -0.003178 -0.003100 0.000000 -0.002817 0.000000
# 2 -0.003178 0.016864 -0.005491 0.000000 0.003228 0.000000
# 3 -0.003100 -0.005491 0.014627 0.000000 0.000128 0.000000
# 4 0.000000 0.000000 0.000000 0.033930 0.000000 0.002658
# 5 -0.002817 0.003228 0.000128 0.000000 0.044459 0.000000
# 6 0.000000 0.000000 0.000000 0.002658 0.000000 0.038813
#
#
# Mechanical properties :
#
#
# Convention : Reuss Voigt Hill
#
# Bulk Modulus (GPa) = 47.21285 47.46647 47.33966
# Shear Modulus (GPa) = 25.97156 26.68064 26.32610
#
# Velocity S-wave (km/s) = 3.81657 3.86832 3.84253
# Velocity P-wave (km/s) = 6.77503 6.82448 6.79980
#
# Compressibility (1/GPa) = 0.02118067
#
# Stress axis : x y z
#
# Youngs Moduli (GPa) = 75.59940 59.29956 68.36684
#
# Poissons Ratio (x) = 0.18843 0.21192
# Poissons Ratio (y) = 0.24023 0.37543
# Poissons Ratio (z) = 0.23434 0.32564
#
# Static dielectric constant tensor:
#      x y z
#    x 1.656700 0.000000 -0.034150 
#    y 0.000000 1.694770 0.000000 
#    z -0.034150 0.000000 1.656450 
# 
# From -- ./inp_files/85992.got.cif
#   From: 2010.05.17/outbox.cif.g08.bks.cpg/sg13_43_cif.got.tgz:85992.got - 2010.06.03 16:44:36.
