data_PCOD9232803
_publ_section_title
;
Structure prediction by ZEFSAII (Michael W. Deem and Ramdas Pophale) SiO2 
 PCOD9232803
Probable space group: P 2/C
;
_chemical_formula_sum "Si O2"
_cell_formula_units_Z 28
_cell_length_a 15.500642
_cell_length_b 10.643419
_cell_length_c 8.963612
_cell_angle_alpha 90.000000
_cell_angle_beta 64.531122
_cell_angle_gamma 90.000000
_cell_volume 1335.102421
_symmetry_space_group_name_H-M "P 2/C"
_symmetry_group_IT_number 13
_symmetry_cell_setting 'monoclinic'
loop_
_space_group_symop_operation_xyz
x,y,z
-x,y,1/2-z
-x,-y,-z
x,-y,1/2+z
loop_
_atom_site_type_symbol
_atom_site_label
_atom_site_fract_x
_atom_site_fract_y
_atom_site_fract_z
Si Si1 0.111426 0.602160 0.833895
Si Si2 0.285187 0.821383 0.359248
Si Si3 0.213331 0.824403 0.907315
Si Si4 0.603939 0.334795 0.240628
Si Si5 0.248957 0.983060 0.136845
Si Si6 0.396823 0.587509 0.407386
Si Si7 0.884482 0.348979 0.507186
O O1 0.160195 0.697711 0.909514
O O2 0.137563 0.462113 0.864115
O O3 0.145286 0.620156 0.640251
O O4 0.999788 0.641862 0.921119
O O5 0.315783 0.893667 0.187195
O O6 0.339089 0.696651 0.366970
O O7 0.174593 0.777280 0.416412
O O8 0.295154 0.921414 0.484841
O O9 0.324635 0.783029 0.820494
O O10 0.195223 0.926581 0.792059
O O11 0.187975 0.889508 0.080481
O O12 0.500000 0.303722 0.250000
O O13 0.641863 0.449413 0.107826
O O14 0.598862 0.383565 0.417778
O O15 0.500000 0.588086 0.250000
#
# Coordination Sequence:
#
# PCOD9232803 Si02
#       7
#     4   4   4   4   4   4   4
#     4  10  21  38  62  92 120 150 194 244 298 355
#     4  11  22  43  61  85 120 159 195 245 292 339
#     4  11  22  43  61  85 120 159 195 245 292 339
#     4  11  23  39  63  92 120 149 195 244 300 355
#     4  10  24  40  62  84 118 160 206 238 278 352
#     4  11  23  39  63  92 120 149 195 244 300 355
#     4  10  21  38  62  92 120 150 194 244 298 355
#
# _framework density 20.972173999999999
#
# number of rings (size 3 to 8) (size 9 to 14) (size 15 to 20)
#    0.000    1.429    2.857    2.571    6.000    0.000 
#    0.000    8.571    0.000    0.000    0.000    0.000 
#    0.000    0.000    0.000    0.000    0.000    0.000 
#
# Total GULP energy -156178.010377 kJ/mol
# GULP energy per Si atom -5577.786085 kJ/mol
# Density = 2.092444 g / cm^3
# Si number density = 20.972174 Si / 1000 Ang^3
#
#
#
# Elastic Constant Matrix: (Units=GPa)
#
#
# Indices 1 2 3 4 5 6 
#
# 1 49.8223 38.0477 16.8091 0.0000 8.6370 0.0000
# 2 38.0477 84.7852 32.1156 0.0000 7.0435 0.0000
# 3 16.8091 32.1156 86.0261 0.0000 22.3848 0.0000
# 4 0.0000 0.0000 0.0000 31.3917 0.0000 25.4634
# 5 8.6370 7.0435 22.3848 0.0000 21.7092 0.0000
# 6 0.0000 0.0000 0.0000 25.4634 0.0000 2.6724
#
#
#
# Elastic Compliance Matrix: (Units=1/GPa)
#
#
# Indices 1 2 3 4 5 6 
#
# 1 0.032056 -0.014167 0.001569 0.000000 -0.009774 0.000000
# 2 -0.014167 0.020019 -0.006125 0.000000 0.005457 0.000000
# 3 0.001569 -0.006125 0.018108 0.000000 -0.017309 0.000000
# 4 0.000000 0.000000 0.000000 -0.004734 0.000000 0.045108
# 5 -0.009774 0.005457 -0.017309 0.000000 0.066029 0.000000
# 6 0.000000 0.000000 0.000000 0.045108 0.000000 -0.055610
#
#
# Mechanical properties :
#
#
# Convention : Reuss Voigt Hill
#
# Bulk Modulus (GPa) = 30.54791 43.84203 37.19497
# Shear Modulus (GPa) = 40.24876 20.06539 30.15708
#
# Velocity S-wave (km/s) = 4.38556 3.09651 3.79615
# Velocity P-wave (km/s) = 6.34364 5.80816 6.08180
#
# Compressibility (1/GPa) = 0.03273546
#
# Stress axis : x y z
#
# Youngs Moduli (GPa) = 31.19570 49.95243 55.22275
#
# Poissons Ratio (x) = 0.70770 -0.08664
# Poissons Ratio (y) = 0.44196 0.33826
# Poissons Ratio (z) = -0.04894 0.30598
#
# Static dielectric constant tensor:
#      x y z
#    x 1.791160 0.000000 -0.002730 
#    y 0.000000 1.738100 0.000000 
#    z -0.002730 0.000000 1.763090 
# 
# From -- ./inp_files/18736.got.cif
#   From: 2010.05.17/outbox.cif.g08.bks.cpg/sg13_10_cif.got.tgz:18736.got - 2010.06.03 16:44:36.
