data_PCOD9232786
_publ_section_title
;
Structure prediction by ZEFSAII (Michael W. Deem and Ramdas Pophale) SiO2 
 PCOD9232786
Probable space group: P 2/C
;
_chemical_formula_sum "Si O2"
_cell_formula_units_Z 24
_cell_length_a 5.486698
_cell_length_b 12.252658
_cell_length_c 22.152327
_cell_angle_alpha 90.000000
_cell_angle_beta 54.205021
_cell_angle_gamma 90.000000
_cell_volume 1207.933973
_symmetry_space_group_name_H-M "P 2/C"
_symmetry_group_IT_number 13
_symmetry_cell_setting 'monoclinic'
loop_
_space_group_symop_operation_xyz
x,y,z
-x,y,1/2-z
-x,-y,-z
x,-y,1/2+z
loop_
_atom_site_type_symbol
_atom_site_label
_atom_site_fract_x
_atom_site_fract_y
_atom_site_fract_z
Si Si1 0.307200 0.277616 0.531148
Si Si2 0.687260 0.450282 0.064953
Si Si3 0.183149 0.832978 0.593409
Si Si4 0.115919 0.589363 0.168041
Si Si5 0.812717 0.637982 0.673411
Si Si6 0.205099 0.100966 0.450993
O O1 0.415066 0.385023 0.479257
O O2 0.614927 0.209883 0.492955
O O3 0.127580 0.317794 0.615074
O O4 0.136072 0.201396 0.507497
O O5 0.453419 0.540888 0.120514
O O6 0.747798 0.369735 0.111642
O O7 0.000000 0.500000 0.000000
O O8 0.430896 0.905480 0.592491
O O9 0.064803 0.729555 0.648664
O O10 0.890155 0.881252 0.604427
O O11 0.000000 0.626189 0.250000
O O12 0.922302 0.482377 0.177595
O O13 0.500000 0.664341 0.750000
O O14 0.000000 0.000000 0.500000
#
# Coordination Sequence:
#
# PCOD9232786 Si02
#       6
#     4   4   4   4   4   4
#     4  10  22  34  60  86 123 163 211 260 320 369
#     4  12  21  35  58  81 129 169 218 249 313 368
#     4  10  21  38  61  94 120 163 206 265 323 373
#     4  12  23  35  51  89 127 174 210 254 308 389
#     4  12  22  36  54  87 131 176 208 257 306 392
#     4  10  21  39  65  94 118 150 213 276 331 373
#
# _framework density 19.868634
#
# number of rings (size 3 to 8) (size 9 to 14) (size 15 to 20)
#    1.000    0.000    6.667    2.000    0.000    0.000 
#    0.000    0.000    0.000    0.000    4.333    0.000 
#    0.000    0.000    0.000    0.000    0.000    0.000 
#
# Total GULP energy -133659.811943 kJ/mol
# GULP energy per Si atom -5569.158831 kJ/mol
# Density = 1.982341 g / cm^3
# Si number density = 19.868634 Si / 1000 Ang^3
#
#
#
# Elastic Constant Matrix: (Units=GPa)
#
#
# Indices 1 2 3 4 5 6 
#
# 1 107.6804 13.8588 23.7562 0.0000 -10.6110 0.0000
# 2 13.8588 41.4296 11.8983 0.0000 -8.2194 0.0000
# 3 23.7562 11.8983 112.7980 0.0000 -9.7664 0.0000
# 4 0.0000 0.0000 0.0000 8.9741 0.0000 -3.5884
# 5 -10.6110 -8.2194 -9.7664 0.0000 29.2374 0.0000
# 6 0.0000 0.0000 0.0000 -3.5884 0.0000 28.5299
#
#
#
# Elastic Compliance Matrix: (Units=1/GPa)
#
#
# Indices 1 2 3 4 5 6 
#
# 1 0.010215 -0.002447 -0.001680 0.000000 0.002458 0.000000
# 2 -0.002447 0.026659 -0.001776 0.000000 0.006013 0.000000
# 3 -0.001680 -0.001776 0.009588 0.000000 0.002094 0.000000
# 4 0.000000 0.000000 0.000000 0.117332 0.000000 0.014758
# 5 0.002458 0.006013 0.002094 0.000000 0.037485 0.000000
# 6 0.000000 0.000000 0.000000 0.014758 0.000000 0.036907
#
#
# Mechanical properties :
#
#
# Convention : Reuss Voigt Hill
#
# Bulk Modulus (GPa) = 28.85586 40.10382 34.47984
# Shear Modulus (GPa) = 19.11728 27.50795 23.31261
#
# Velocity S-wave (km/s) = 3.10527 3.72491 3.42912
# Velocity P-wave (km/s) = 5.23563 6.22320 5.75066
#
# Compressibility (1/GPa) = 0.03465501
#
# Stress axis : x y z
#
# Youngs Moduli (GPa) = 97.89938 37.51101 104.29780
#
# Poissons Ratio (x) = 0.09178 0.17526
# Poissons Ratio (y) = 0.23953 0.18525
# Poissons Ratio (z) = 0.16451 0.06662
#
# Static dielectric constant tensor:
#      x y z
#    x 1.797710 0.000000 0.020000 
#    y 0.000000 1.779930 0.000000 
#    z 0.020000 0.000000 1.688650 
# 
# From -- ./inp_files/73332.got.cif
#   From: 2010.05.17/outbox.cif.g08.bks.cpg/sg13_37_cif.got.tgz:73332.got - 2010.06.03 16:44:36.
