data_PCOD9232944
_publ_section_title
;
Structure prediction by ZEFSAII (Michael W. Deem and Ramdas Pophale) SiO2 
 PCOD9232944
Probable space group: P 2/C
;
_chemical_formula_sum "Si O2"
_cell_formula_units_Z 32
_cell_length_a 10.771355
_cell_length_b 10.593320
_cell_length_c 13.145092
_cell_angle_alpha 90.000000
_cell_angle_beta 85.536245
_cell_angle_gamma 90.000000
_cell_volume 1495.363386
_symmetry_space_group_name_H-M "P 2/C"
_symmetry_group_IT_number 13
_symmetry_cell_setting 'monoclinic'
loop_
_space_group_symop_operation_xyz
x,y,z
-x,y,1/2-z
-x,-y,-z
x,-y,1/2+z
loop_
_atom_site_type_symbol
_atom_site_label
_atom_site_fract_x
_atom_site_fract_y
_atom_site_fract_z
Si Si1 0.218371 0.013380 0.478284
Si Si2 0.018604 0.623301 0.866625
Si Si3 0.628880 0.384796 0.303829
Si Si4 0.593635 0.603115 0.442380
Si Si5 0.006005 0.883296 0.129936
Si Si6 0.871339 0.635490 0.068652
Si Si7 0.629200 0.759327 0.017726
Si Si8 0.250515 0.733274 0.896414
O O1 0.313946 0.899377 0.492731
O O2 0.105834 0.959883 0.416666
O O3 0.140948 0.073457 0.578041
O O4 0.291377 0.125181 0.416436
O O5 0.095717 0.495612 0.881289
O O6 0.101539 0.735107 0.907067
O O7 0.000000 0.641467 0.750000
O O8 0.899080 0.618520 0.946089
O O9 0.500000 0.390152 0.250000
O O10 0.652302 0.526244 0.344876
O O11 0.622991 0.295070 0.402955
O O12 0.718381 0.323397 0.215197
O O13 0.500000 0.500000 0.500000
O O14 0.505781 0.724204 0.427098
O O15 0.693757 0.645051 0.519249
O O16 0.000000 0.904936 0.250000
O O17 0.965128 0.738961 0.109192
O O18 0.730086 0.682154 0.078973
#
# Coordination Sequence:
#
# PCOD9232944 Si02
#       8
#     4   4   4   4   4   4   4   4
#     4  10  24  40  65  97 130 177 220 276 319 396
#     4  11  22  35  59  96 128 166 214 276 330 385
#     4  11  22  40  68  95 122 172 218 266 336 398
#     4  10  21  42  64  91 128 168 208 280 332 388
#     4  10  21  43  63  88 135 180 220 259 331 395
#     4  10  21  39  58  91 132 165 217 269 331 392
#     4  10  21  42  65  90 134 172 213 270 330 394
#     4  12  23  41  66  96 132 172 222 272 330 395
#
# _framework density 21.399481000000002
#
# number of rings (size 3 to 8) (size 9 to 14) (size 15 to 20)
#    0.000    1.500    3.750    2.625    1.750    2.000 
#    2.250    0.000    0.000    0.000    0.000    0.000 
#    0.000    0.000    0.000    0.000    0.000    0.000 
#
# Total GULP energy -178611.117614 kJ/mol
# GULP energy per Si atom -5581.597425 kJ/mol
# Density = 2.135078 g / cm^3
# Si number density = 21.399481 Si / 1000 Ang^3
#
#
#
# Elastic Constant Matrix: (Units=GPa)
#
#
# Indices 1 2 3 4 5 6 
#
# 1 50.7822 23.6525 25.7946 0.0000 8.6708 0.0000
# 2 23.6525 120.8320 39.8606 0.0000 5.0282 0.0000
# 3 25.7946 39.8606 96.3399 0.0000 0.6476 0.0000
# 4 0.0000 0.0000 0.0000 13.4997 0.0000 -14.9176
# 5 8.6708 5.0282 0.6476 0.0000 29.4738 0.0000
# 6 0.0000 0.0000 0.0000 -14.9176 0.0000 9.1914
#
#
#
# Elastic Compliance Matrix: (Units=1/GPa)
#
#
# Indices 1 2 3 4 5 6 
#
# 1 0.024922 -0.002793 -0.005472 0.000000 -0.006735 0.000000
# 2 -0.002793 0.009968 -0.003371 0.000000 -0.000805 0.000000
# 3 -0.005472 -0.003371 0.013227 0.000000 0.001894 0.000000
# 4 0.000000 0.000000 0.000000 -0.093355 0.000000 -0.151516
# 5 -0.006735 -0.000805 0.001894 0.000000 0.036005 0.000000
# 6 0.000000 0.000000 0.000000 -0.151516 0.000000 -0.137113
#
#
# Mechanical properties :
#
#
# Convention : Reuss Voigt Hill
#
# Bulk Modulus (GPa) = 40.24896 49.61882 44.93389
# Shear Modulus (GPa) = -43.55735 22.34273 -10.60731
#
# Velocity S-wave (km/s) = -4.51648 3.23473 -2.22880
# Velocity P-wave (km/s) = 2.88945 6.09824 3.79734
#
# Compressibility (1/GPa) = 0.02484536
#
# Stress axis : x y z
#
# Youngs Moduli (GPa) = 40.12474 100.31844 75.60261
#
# Poissons Ratio (x) = 0.28020 0.41369
# Poissons Ratio (y) = 0.11207 0.25487
# Poissons Ratio (z) = 0.21956 0.33818
#
# Static dielectric constant tensor:
#      x y z
#    x 1.880330 0.000000 -0.076180 
#    y 0.000000 1.802210 0.000000 
#    z -0.076180 0.000000 1.779730 
# 
# From -- ./inp_files/33871.got.cif
#   From: 2010.05.17/outbox.cif.g08.bks.cpg/sg13_17_cif.got.tgz:33871.got - 2010.06.03 16:44:36.
