data_PCOD9232238
_publ_section_title
;
Structure prediction by ZEFSAII (Michael W. Deem and Ramdas Pophale) SiO2 
 PCOD9232238
Probable space group: P 2/C
;
_chemical_formula_sum "Si O2"
_cell_formula_units_Z 20
_cell_length_a 6.873661
_cell_length_b 21.467579
_cell_length_c 8.007598
_cell_angle_alpha 90.000000
_cell_angle_beta 40.338126
_cell_angle_gamma 90.000000
_cell_volume 764.851506
_symmetry_space_group_name_H-M "P 2/C"
_symmetry_group_IT_number 13
_symmetry_cell_setting 'monoclinic'
loop_
_space_group_symop_operation_xyz
x,y,z
-x,y,1/2-z
-x,-y,-z
x,-y,1/2+z
loop_
_atom_site_type_symbol
_atom_site_label
_atom_site_fract_x
_atom_site_fract_y
_atom_site_fract_z
Si Si1 0.631490 0.065122 0.850130
Si Si2 0.872368 0.117900 0.148730
Si Si3 0.641264 0.436862 0.477493
Si Si4 0.144979 0.247062 0.839123
Si Si5 0.645475 0.696026 0.831968
O O1 0.500000 0.076455 0.750000
O O2 0.986778 0.069725 0.577997
O O3 0.483119 0.114454 0.077645
O O4 0.500000 0.000000 0.000000
O O5 0.000000 0.103672 0.250000
O O6 0.022026 0.182144 0.991455
O O7 0.500000 0.500000 0.500000
O O8 0.567447 0.374984 0.421390
O O9 0.000000 0.443516 0.250000
O O10 0.500000 0.426730 0.750000
O O11 0.493922 0.259047 0.569334
O O12 0.000000 0.254495 0.750000
O O13 0.997769 0.296883 0.062004
O O14 0.500000 0.713920 0.750000
#
# Coordination Sequence:
#
# PCOD9232238 Si02
#       5
#     4   4   4   4   4
#     4  10  21  36  54  78 108 146 190 241 299 359
#     4  10  21  36  54  80 114 148 189 243 301 361
#     4  12  26  44  68  98 131 171 217 265 319 381
#     4  10  21  37  60  87 117 156 199 245 302 365
#     4  10  22  41  62  89 125 161 203 256 308 366
#
# _framework density 26.148869999999999
#
# number of rings (size 3 to 8) (size 9 to 14) (size 15 to 20)
#    0.000    1.600    0.000    4.200    0.000    6.400 
#    0.000    0.000    0.000    0.000    0.000    0.000 
#    0.000    0.000    0.000    0.000    0.000    0.000 
#
# Total GULP energy -111949.648514 kJ/mol
# GULP energy per Si atom -5597.482426 kJ/mol
# Density = 2.608935 g / cm^3
# Si number density = 26.148870 Si / 1000 Ang^3
#
#
#
# Elastic Constant Matrix: (Units=GPa)
#
#
# Indices 1 2 3 4 5 6 
#
# 1 58.7501 -19.9277 55.5201 0.0000 1.7211 0.0000
# 2 -19.9277 145.6764 81.8251 0.0000 15.0240 0.0000
# 3 55.5201 81.8251 298.0012 0.0000 9.2961 0.0000
# 4 0.0000 0.0000 0.0000 62.4695 0.0000 10.5147
# 5 1.7211 15.0240 9.2961 0.0000 55.1690 0.0000
# 6 0.0000 0.0000 0.0000 10.5147 0.0000 34.0493
#
#
#
# Elastic Compliance Matrix: (Units=1/GPa)
#
#
# Indices 1 2 3 4 5 6 
#
# 1 0.026226 0.007662 -0.006936 0.000000 -0.001736 0.000000
# 2 0.007662 0.010546 -0.004249 0.000000 -0.002395 0.000000
# 3 -0.006936 -0.004249 0.005802 0.000000 0.000396 0.000000
# 4 0.000000 0.000000 0.000000 0.016885 0.000000 -0.005214
# 5 -0.001736 -0.002395 0.000396 0.000000 0.018766 0.000000
# 6 0.000000 0.000000 0.000000 -0.005214 0.000000 0.030979
#
#
# Mechanical properties :
#
#
# Convention : Reuss Voigt Hill
#
# Bulk Modulus (GPa) = 28.14544 81.91809 55.03176
# Shear Modulus (GPa) = 39.03444 56.00489 47.51966
#
# Velocity S-wave (km/s) = 3.86784 4.63295 4.26757
# Velocity P-wave (km/s) = 5.54381 7.74690 6.73604
#
# Compressibility (1/GPa) = 0.03552974
#
# Stress axis : x y z
#
# Youngs Moduli (GPa) = 38.13062 94.82171 172.35052
#
# Poissons Ratio (x) = -0.72656 1.19539
# Poissons Ratio (y) = -0.29217 0.73225
# Poissons Ratio (z) = 0.26447 0.40286
#
# Static dielectric constant tensor:
#      x y z
#    x 2.145460 0.000000 -0.109080 
#    y 0.000000 2.082020 0.000000 
#    z -0.109080 0.000000 2.058540 
# 
# From -- ./inp_files/13780.got.cif
#   From: 2010.05.17/outbox.cif.g08.bks.cpg/sg13_7_cif.got.tgz:13780.got - 2010.06.03 16:44:36.
