data_PCOD9232330
_publ_section_title
;
Structure prediction by ZEFSAII (Michael W. Deem and Ramdas Pophale) SiO2 
 PCOD9232330
Probable space group: P 2/C
;
_chemical_formula_sum "Si O2"
_cell_formula_units_Z 16
_cell_length_a 12.474408
_cell_length_b 8.392101
_cell_length_c 9.415283
_cell_angle_alpha 90.000000
_cell_angle_beta 125.014344
_cell_angle_gamma 90.000000
_cell_volume 807.258067
_symmetry_space_group_name_H-M "P 2/C"
_symmetry_group_IT_number 13
_symmetry_cell_setting 'monoclinic'
loop_
_space_group_symop_operation_xyz
x,y,z
-x,y,1/2-z
-x,-y,-z
x,-y,1/2+z
loop_
_atom_site_type_symbol
_atom_site_label
_atom_site_fract_x
_atom_site_fract_y
_atom_site_fract_z
Si Si1 0.882773 0.619874 0.368931
Si Si2 0.500000 0.486414 0.250000
Si Si3 0.853069 0.182554 0.108026
Si Si4 0.331298 0.373638 0.370945
Si Si5 0.000000 0.877035 0.250000
O O1 0.811742 0.709273 0.444934
O O2 0.774869 0.516681 0.205925
O O3 0.946016 0.762614 0.329060
O O4 0.000000 0.500000 0.500000
O O5 0.399752 0.381725 0.269152
O O6 0.568202 0.592051 0.424626
O O7 0.752974 0.216676 0.158234
O O8 0.000000 0.246850 0.250000
O O9 0.885952 0.997224 0.109511
#
# Coordination Sequence:
#
# PCOD9232330 Si02
#       5
#     4   2   4   4   2
#     4  12  20  36  64  98 120 161 206 265 324 385
#     4  10  24  38  62  92 120 184 228 260 286 342
#     4  10  21  36  58  95 132 155 194 263 333 380
#     4  11  21  40  64  92 128 166 225 259 298 373
#     4  10  24  36  58  98 134 160 182 266 362 380
#
# _framework density 19.820181000000002
#
# number of rings (size 3 to 8) (size 9 to 14) (size 15 to 20)
#    0.750    0.500    5.000    2.250    0.000    0.000 
#    0.000    0.000    0.000    9.000    0.000    0.000 
#    0.000    0.000    0.000    0.000    0.000    0.000 
#
# Total GULP energy -89152.967533 kJ/mol
# GULP energy per Si atom -5572.060471 kJ/mol
# Density = 1.977507 g / cm^3
# Si number density = 19.820181 Si / 1000 Ang^3
#
#
#
# Elastic Constant Matrix: (Units=GPa)
#
#
# Indices 1 2 3 4 5 6 
#
# 1 125.7026 32.8711 1.8185 0.0000 -22.5717 0.0000
# 2 32.8711 99.8079 16.5129 0.0000 -5.7168 0.0000
# 3 1.8185 16.5129 63.6354 0.0000 1.7455 0.0000
# 4 0.0000 0.0000 0.0000 32.3539 0.0000 -48.9760
# 5 -22.5717 -5.7168 1.7455 0.0000 31.3726 0.0000
# 6 0.0000 0.0000 0.0000 -48.9760 0.0000 107.9970
#
#
#
# Elastic Compliance Matrix: (Units=1/GPa)
#
#
# Indices 1 2 3 4 5 6 
#
# 1 0.009898 -0.002933 0.000298 0.000000 0.006570 0.000000
# 2 -0.002933 0.011473 -0.002897 0.000000 0.000142 0.000000
# 3 0.000298 -0.002897 0.016492 0.000000 -0.001231 0.000000
# 4 0.000000 0.000000 0.000000 0.098585 0.000000 0.044708
# 5 0.006570 0.000142 -0.001231 0.000000 0.036696 0.000000
# 6 0.000000 0.000000 0.000000 0.044708 0.000000 0.029534
#
#
# Mechanical properties :
#
#
# Convention : Reuss Voigt Hill
#
# Bulk Modulus (GPa) = 37.31619 43.50563 40.41091
# Shear Modulus (GPa) = 22.45442 50.20759 36.33101
#
# Velocity S-wave (km/s) = 3.36952 5.03851 4.28604
# Velocity P-wave (km/s) = 5.83151 7.47305 6.70272
#
# Compressibility (1/GPa) = 0.02679802
#
# Stress axis : x y z
#
# Youngs Moduli (GPa) = 101.03437 87.16458 60.63713
#
# Poissons Ratio (x) = 0.25563 -0.01807
# Poissons Ratio (y) = 0.29630 0.17567
# Poissons Ratio (z) = -0.03010 0.25253
#
# Static dielectric constant tensor:
#      x y z
#    x 1.828220 0.000000 -0.048990 
#    y 0.000000 1.677740 0.000000 
#    z -0.048990 0.000000 1.791560 
# 
# From -- ./inp_files/14338.got.cif
#   From: 2010.05.17/outbox.cif.g08.bks.cpg/sg13_8_cif.got.tgz:14338.got - 2010.06.03 16:44:36.
