data_PCOD9232456
_publ_section_title
;
Structure prediction by ZEFSAII (Michael W. Deem and Ramdas Pophale) SiO2 
 PCOD9232456
Probable space group: P 2/C
;
_chemical_formula_sum "Si O2"
_cell_formula_units_Z 16
_cell_length_a 7.559798
_cell_length_b 10.132433
_cell_length_c 14.484197
_cell_angle_alpha 90.000000
_cell_angle_beta 143.032582
_cell_angle_gamma 90.000000
_cell_volume 667.196023
_symmetry_space_group_name_H-M "P 2/C"
_symmetry_group_IT_number 13
_symmetry_cell_setting 'monoclinic'
loop_
_space_group_symop_operation_xyz
x,y,z
-x,y,1/2-z
-x,-y,-z
x,-y,1/2+z
loop_
_atom_site_type_symbol
_atom_site_label
_atom_site_fract_x
_atom_site_fract_y
_atom_site_fract_z
Si Si1 0.034673 0.469476 0.120840
Si Si2 0.317107 0.944425 0.337498
Si Si3 0.425414 0.666471 0.400993
Si Si4 0.299568 0.775990 0.811460
O O1 0.178361 0.582933 0.244273
O O2 0.236434 0.340337 0.215161
O O3 0.712795 0.425319 0.020157
O O4 0.000000 0.500000 0.000000
O O5 0.447969 0.807146 0.356415
O O6 0.000000 0.913978 0.250000
O O7 0.500000 0.000000 0.500000
O O8 0.318046 0.077341 0.277067
O O9 0.438303 0.724602 0.511686
O O10 0.000000 0.783813 0.750000
#
# Coordination Sequence:
#
# PCOD9232456 Si02
#       4
#     4   4   4   4
#     4  11  22  37  56  84 119 155 193 239 288 344
#     4   9  18  35  60  89 115 143 188 244 290 339
#     4  10  21  37  58  85 115 153 195 239 288 344
#     4   8  17  35  60  86 111 143 189 238 287 343
#
# _framework density 23.980958000000001
#
# number of rings (size 3 to 8) (size 9 to 14) (size 15 to 20)
#    0.000    2.500    0.000    3.000    0.000    7.000 
#    0.000    1.250    0.000    3.000    0.000    0.000 
#    0.000    0.000    0.000    0.000    0.000    0.000 
#
# Total GULP energy -89207.022690 kJ/mol
# GULP energy per Si atom -5575.438918 kJ/mol
# Density = 2.392638 g / cm^3
# Si number density = 23.980958 Si / 1000 Ang^3
#
#
#
# Elastic Constant Matrix: (Units=GPa)
#
#
# Indices 1 2 3 4 5 6 
#
# 1 37.1575 16.8019 33.9240 0.0000 4.7515 0.0000
# 2 16.8019 260.4791 93.3169 0.0000 -2.4922 0.0000
# 3 33.9240 93.3169 166.2911 0.0000 14.6399 0.0000
# 4 0.0000 0.0000 0.0000 32.6374 0.0000 16.7205
# 5 4.7515 -2.4922 14.6399 0.0000 37.4997 0.0000
# 6 0.0000 0.0000 0.0000 16.7205 0.0000 10.1454
#
#
#
# Elastic Compliance Matrix: (Units=1/GPa)
#
#
# Indices 1 2 3 4 5 6 
#
# 1 0.033182 0.000277 -0.006790 0.000000 -0.001535 0.000000
# 2 0.000277 0.004882 -0.002922 0.000000 0.001430 0.000000
# 3 -0.006790 -0.002922 0.009299 0.000000 -0.002964 0.000000
# 4 0.000000 0.000000 0.000000 0.196833 0.000000 -0.324399
# 5 -0.001535 0.001430 -0.002964 0.000000 0.028114 0.000000
# 6 0.000000 0.000000 0.000000 -0.324399 0.000000 0.633206
#
#
# Mechanical properties :
#
#
# Convention : Reuss Voigt Hill
#
# Bulk Modulus (GPa) = 35.09431 83.55704 59.32567
# Shear Modulus (GPa) = 5.35399 37.38216 21.36807
#
# Velocity S-wave (km/s) = 1.49581 3.95248 2.98827
# Velocity P-wave (km/s) = 4.20110 7.46647 6.05795
#
# Compressibility (1/GPa) = 0.02849465
#
# Stress axis : x y z
#
# Youngs Moduli (GPa) = 30.13652 204.84926 107.53448
#
# Poissons Ratio (x) = -0.05682 0.73014
# Poissons Ratio (y) = -0.00836 0.31420
# Poissons Ratio (z) = 0.20462 0.59855
#
# Static dielectric constant tensor:
#      x y z
#    x 2.067470 0.000000 0.025550 
#    y 0.000000 2.098710 0.000000 
#    z 0.025550 0.000000 1.970400 
# 
# From -- ./inp_files/31905.got.cif
#   From: 2010.05.17/outbox.cif.g08.bks.cpg/sg13_16_cif.got.tgz:31905.got - 2010.06.03 16:44:36.
