data_PCOD9232746
_publ_section_title
;
Structure prediction by ZEFSAII (Michael W. Deem and Ramdas Pophale) SiO2 
 PCOD9232746
Probable space group: P 2/C
;
_chemical_formula_sum "Si O2"
_cell_formula_units_Z 32
_cell_length_a 26.363169
_cell_length_b 8.495061
_cell_length_c 15.351866
_cell_angle_alpha 90.000000
_cell_angle_beta 151.516308
_cell_angle_gamma 90.000000
_cell_volume 1639.685079
_symmetry_space_group_name_H-M "P 2/C"
_symmetry_group_IT_number 13
_symmetry_cell_setting 'monoclinic'
loop_
_space_group_symop_operation_xyz
x,y,z
-x,y,1/2-z
-x,-y,-z
x,-y,1/2+z
loop_
_atom_site_type_symbol
_atom_site_label
_atom_site_fract_x
_atom_site_fract_y
_atom_site_fract_z
Si Si1 0.509650 0.925654 0.867766
Si Si2 0.485820 0.432031 0.075537
Si Si3 0.722718 0.945996 0.935168
Si Si4 0.739791 0.552499 0.772002
Si Si5 0.281807 0.437638 0.058447
Si Si6 0.117411 0.434162 0.663384
Si Si7 0.120211 0.942394 0.175463
Si Si8 0.266415 0.071964 0.244887
O O1 0.500000 0.895404 0.750000
O O2 0.520511 0.756976 0.931369
O O3 0.397804 0.000824 0.727988
O O4 0.614284 0.025008 0.046447
O O5 0.597628 0.478444 0.288346
O O6 0.500000 0.500000 0.000000
O O7 0.373301 0.495918 0.937613
O O8 0.719606 0.754251 0.938693
O O9 0.751544 0.987561 0.880369
O O10 0.808162 0.999414 0.134884
O O11 0.741341 0.507723 0.877225
O O12 0.833316 0.482608 0.854884
O O13 0.743647 0.740372 0.772173
O O14 0.196062 0.492547 0.859037
O O15 0.117568 0.246114 0.670435
O O16 0.000000 0.500000 0.500000
O O17 0.181530 0.001186 0.182773
O O18 0.000000 0.000000 0.000000
#
# Coordination Sequence:
#
# PCOD9232746 Si02
#       8
#     4   4   4   4   4   4   4   4
#     4  11  20  37  64  90 124 168 200 237 307 374
#     4   9  19  36  59  90 117 155 199 238 288 360
#     4   9  20  38  62  84 120 162 198 236 302 367
#     4  10  21  38  60  89 119 151 198 250 296 355
#     4   8  19  38  59  83 117 157 193 233 301 362
#     4  11  23  41  61  85 113 158 201 250 299 354
#     4  11  23  42  62  85 118 159 206 251 303 367
#     4  11  22  40  61  91 122 159 199 251 303 364
#
# _framework density 19.515941999999999
#
# number of rings (size 3 to 8) (size 9 to 14) (size 15 to 20)
#    0.000    2.000    1.250    2.625    3.500    1.000 
#    2.250   12.500    0.000    0.000    0.000    0.000 
#    0.000    0.000    0.000    0.000    0.000    0.000 
#
# Total GULP energy -178662.169044 kJ/mol
# GULP energy per Si atom -5583.192783 kJ/mol
# Density = 1.947152 g / cm^3
# Si number density = 19.515942 Si / 1000 Ang^3
#
#
#
# Elastic Constant Matrix: (Units=GPa)
#
#
# Indices 1 2 3 4 5 6 
#
# 1 103.0731 7.6542 58.0864 0.0000 17.9094 0.0000
# 2 7.6542 33.9148 13.5338 0.0000 4.3035 0.0000
# 3 58.0864 13.5338 91.6279 0.0000 32.0785 0.0000
# 4 0.0000 0.0000 0.0000 28.7783 0.0000 6.0465
# 5 17.9094 4.3035 32.0785 0.0000 37.3473 0.0000
# 6 0.0000 0.0000 0.0000 6.0465 0.0000 28.9193
#
#
#
# Elastic Compliance Matrix: (Units=1/GPa)
#
#
# Indices 1 2 3 4 5 6 
#
# 1 0.015153 0.000459 -0.010169 0.000000 0.001415 0.000000
# 2 0.000459 0.031353 -0.005119 0.000000 0.000564 0.000000
# 3 -0.010169 -0.005119 0.023170 0.000000 -0.014435 0.000000
# 4 0.000000 0.000000 0.000000 0.036345 0.000000 -0.007599
# 5 0.001415 0.000564 -0.014435 0.000000 0.038431 0.000000
# 6 0.000000 0.000000 0.000000 -0.007599 0.000000 0.036168
#
#
# Mechanical properties :
#
#
# Convention : Reuss Voigt Hill
#
# Bulk Modulus (GPa) = 24.98971 43.01828 34.00399
# Shear Modulus (GPa) = 22.35956 28.96506 25.66231
#
# Velocity S-wave (km/s) = 3.38850 3.85668 3.63015
# Velocity P-wave (km/s) = 5.30489 6.47475 5.91879
#
# Compressibility (1/GPa) = 0.04001648
#
# Stress axis : x y z
#
# Youngs Moduli (GPa) = 65.99525 31.89439 43.15914
#
# Poissons Ratio (x) = -0.01463 0.43889
# Poissons Ratio (y) = -0.03027 0.22095
# Poissons Ratio (z) = 0.67111 0.16328
#
# Static dielectric constant tensor:
#      x y z
#    x 1.681210 0.000000 -0.011800 
#    y 0.000000 1.680100 0.000000 
#    z -0.011800 0.000000 1.685270 
# 
# From -- ./inp_files/58841.got.cif
#   From: 2010.05.17/outbox.cif.g08.bks.cpg/sg13_30_cif.got.tgz:58841.got - 2010.06.03 16:44:36.
