data_PCOD9232325
_publ_section_title
;
Structure prediction by ZEFSAII (Michael W. Deem and Ramdas Pophale) SiO2 
 PCOD9232325
Probable space group: P 2/C
;
_chemical_formula_sum "Si O2"
_cell_formula_units_Z 20
_cell_length_a 27.819422
_cell_length_b 5.198180
_cell_length_c 13.547750
_cell_angle_alpha 90.000000
_cell_angle_beta 25.007703
_cell_angle_gamma 90.000000
_cell_volume 828.209181
_symmetry_space_group_name_H-M "P 2/C"
_symmetry_group_IT_number 13
_symmetry_cell_setting 'monoclinic'
loop_
_space_group_symop_operation_xyz
x,y,z
-x,y,1/2-z
-x,-y,-z
x,-y,1/2+z
loop_
_atom_site_type_symbol
_atom_site_label
_atom_site_fract_x
_atom_site_fract_y
_atom_site_fract_z
Si Si1 0.040085 0.017217 0.039619
Si Si2 0.184745 0.277315 0.027578
Si Si3 0.414536 0.965778 0.069279
Si Si4 0.823609 0.476705 0.238150
Si Si5 0.643784 0.528654 0.928700
O O1 0.134106 0.239682 0.866210
O O2 0.096171 0.743883 0.959364
O O3 0.925570 0.123567 0.303034
O O4 0.000000 0.000000 0.000000
O O5 0.163749 0.424904 0.168674
O O6 0.237878 0.476494 0.851288
O O7 0.288035 0.076500 0.849608
O O8 0.412174 0.213261 0.004823
O O9 0.429556 0.712299 0.973522
O O10 0.500000 0.000000 0.000000
O O11 0.692599 0.451986 0.447803
#
# Coordination Sequence:
#
# PCOD9232325 Si02
#       5
#     4   4   4   4   4
#     4  10  21  36  58  89 125 165 196 234 294 365
#     4   9  23  37  63  85 123 162 196 235 313 341
#     4  10  22  42  63  83 119 157 202 258 304 350
#     4  11  22  39  60  89 130 154 200 246 287 368
#     4  10  23  39  62  90 119 155 206 246 299 357
#
# _framework density 24.148486999999999
#
# number of rings (size 3 to 8) (size 9 to 14) (size 15 to 20)
#    1.200    0.800    0.000    4.200    8.400    0.800 
#    0.000    1.000    0.000    0.000    0.000    0.000 
#    0.000    0.000    0.000    0.000    0.000    0.000 
#
# Total GULP energy -111777.995389 kJ/mol
# GULP energy per Si atom -5588.899769 kJ/mol
# Density = 2.409352 g / cm^3
# Si number density = 24.148487 Si / 1000 Ang^3
#
#
#
# Elastic Constant Matrix: (Units=GPa)
#
#
# Indices 1 2 3 4 5 6 
#
# 1 98.5064 14.3314 8.1229 0.0000 -31.7338 0.0000
# 2 14.3314 114.2465 -15.4406 0.0000 -10.7961 0.0000
# 3 8.1229 -15.4406 70.5535 0.0000 -2.5276 0.0000
# 4 0.0000 0.0000 0.0000 -53.2656 0.0000 -27.5741
# 5 -31.7338 -10.7961 -2.5276 0.0000 47.7733 0.0000
# 6 0.0000 0.0000 0.0000 -27.5741 0.0000 36.2783
#
#
#
# Elastic Compliance Matrix: (Units=1/GPa)
#
#
# Indices 1 2 3 4 5 6 
#
# 1 0.013132 -0.001047 -0.001440 0.000000 0.008410 0.000000
# 2 -0.001047 0.009329 0.002217 0.000000 0.001530 0.000000
# 3 -0.001440 0.002217 0.014836 0.000000 0.000330 0.000000
# 4 0.000000 0.000000 0.000000 -0.013473 0.000000 -0.010240
# 5 0.008410 0.001530 0.000330 0.000000 0.026882 0.000000
# 6 0.000000 0.000000 0.000000 -0.010240 0.000000 0.019781
#
#
# Mechanical properties :
#
#
# Convention : Reuss Voigt Hill
#
# Bulk Modulus (GPa) = 27.20572 33.03708 30.12140
# Shear Modulus (GPa) = 60.03852 24.57672 42.30762
#
# Velocity S-wave (km/s) = 4.99161 3.19365 4.19020
# Velocity P-wave (km/s) = 6.67174 5.22587 5.99257
#
# Compressibility (1/GPa) = 0.03675697
#
# Stress axis : x y z
#
# Youngs Moduli (GPa) = 76.14955 107.19774 67.40181
#
# Poissons Ratio (x) = 0.11225 0.09704
# Poissons Ratio (y) = 0.07974 -0.14942
# Poissons Ratio (z) = 0.10964 -0.23765
#
# Static dielectric constant tensor:
#      x y z
#    x 1.999830 0.000000 0.037670 
#    y 0.000000 1.864030 0.000000 
#    z 0.037670 0.000000 2.013340 
# 
# From -- ./inp_files/59088.got.cif
#   From: 2010.05.17/outbox.cif.g08.bks.cpg/sg13_30_cif.got.tgz:59088.got - 2010.06.03 16:44:36.
