data_PCOD9232752
_publ_section_title
;
Structure prediction by ZEFSAII (Michael W. Deem and Ramdas Pophale) SiO2 
 PCOD9232752
Probable space group: P 2/C
;
_chemical_formula_sum "Si O2"
_cell_formula_units_Z 28
_cell_length_a 14.736034
_cell_length_b 9.813954
_cell_length_c 19.377047
_cell_angle_alpha 90.000000
_cell_angle_beta 27.858323
_cell_angle_gamma 90.000000
_cell_volume 1309.470668
_symmetry_space_group_name_H-M "P 2/C"
_symmetry_group_IT_number 13
_symmetry_cell_setting 'monoclinic'
loop_
_space_group_symop_operation_xyz
x,y,z
-x,y,1/2-z
-x,-y,-z
x,-y,1/2+z
loop_
_atom_site_type_symbol
_atom_site_label
_atom_site_fract_x
_atom_site_fract_y
_atom_site_fract_z
Si Si1 0.446913 0.086518 0.104894
Si Si2 0.844069 0.499381 0.417047
Si Si3 0.426879 0.366361 0.508729
Si Si4 0.064913 0.283333 0.847596
Si Si5 0.303806 0.140732 0.789792
Si Si6 0.855944 0.925565 0.404420
Si Si7 0.737613 0.803813 0.023063
O O1 0.291215 0.999432 0.253834
O O2 0.415239 0.245190 0.106803
O O3 0.637172 0.096001 0.026308
O O4 0.500000 0.000000 0.000000
O O5 0.664601 0.579042 0.501709
O O6 0.796895 0.350797 0.476319
O O7 0.000000 0.488845 0.250000
O O8 0.937698 0.585952 0.415631
O O9 0.500000 0.500000 0.500000
O O10 0.253105 0.298182 0.670602
O O11 0.157266 0.252200 0.858767
O O12 0.924299 0.156902 0.924449
O O13 0.281496 0.138400 0.886547
O O14 0.527071 0.185912 0.628501
O O15 0.000000 0.869442 0.250000
O O16 0.881105 0.086800 0.393621
#
# Coordination Sequence:
#
# PCOD9232752 Si02
#       7
#     4   4   4   4   4   4   4
#     4  11  20  36  64  91 115 159 204 247 302 357
#     4  10  21  38  60  91 123 153 199 256 314 360
#     4  11  21  35  61  95 122 151 198 258 303 360
#     4  11  20  39  60  86 124 155 193 257 312 355
#     4  10  22  40  62  83 122 161 207 243 300 359
#     4  11  19  36  63  86 117 154 198 251 305 350
#     4  10  23  39  61  86 120 161 205 248 293 370
#
# _framework density 21.382684999999999
#
# number of rings (size 3 to 8) (size 9 to 14) (size 15 to 20)
#    0.000    1.429    4.286    1.714    2.000    1.143 
#    5.143    0.000    9.429    0.000    0.000    0.000 
#    0.000    0.000    0.000    0.000    0.000    0.000 
#
# Total GULP energy -156197.227370 kJ/mol
# GULP energy per Si atom -5578.472406 kJ/mol
# Density = 2.133402 g / cm^3
# Si number density = 21.382685 Si / 1000 Ang^3
#
#
#
# Elastic Constant Matrix: (Units=GPa)
#
#
# Indices 1 2 3 4 5 6 
#
# 1 93.4843 39.6802 10.8350 0.0000 -8.4373 0.0000
# 2 39.6802 164.3357 19.7214 0.0000 -7.1382 0.0000
# 3 10.8350 19.7214 18.4436 0.0000 -1.2688 0.0000
# 4 0.0000 0.0000 0.0000 27.4667 0.0000 -7.8205
# 5 -8.4373 -7.1382 -1.2688 0.0000 19.7976 0.0000
# 6 0.0000 0.0000 0.0000 -7.8205 0.0000 28.3903
#
#
#
# Elastic Compliance Matrix: (Units=1/GPa)
#
#
# Indices 1 2 3 4 5 6 
#
# 1 0.012594 -0.002299 -0.004649 0.000000 0.004241 0.000000
# 2 -0.002299 0.007484 -0.006563 0.000000 0.001298 0.000000
# 3 -0.004649 -0.006563 0.063951 0.000000 -0.000249 0.000000
# 4 0.000000 0.000000 0.000000 0.039506 0.000000 0.010883
# 5 0.004241 0.001298 -0.000249 0.000000 0.052771 0.000000
# 6 0.000000 0.000000 0.000000 0.010883 0.000000 0.038221
#
#
# Mechanical properties :
#
#
# Convention : Reuss Voigt Hill
#
# Bulk Modulus (GPa) = 17.54140 46.30409 31.92274
# Shear Modulus (GPa) = 19.19012 28.86606 24.02809
#
# Velocity S-wave (km/s) = 2.99901 3.67818 3.35583
# Velocity P-wave (km/s) = 4.49594 6.30402 5.47513
#
# Compressibility (1/GPa) = 0.05700800
#
# Stress axis : x y z
#
# Youngs Moduli (GPa) = 79.40092 133.61529 15.63705
#
# Poissons Ratio (x) = 0.30717 0.07269
# Poissons Ratio (y) = 0.18254 0.10262
# Poissons Ratio (z) = 0.36912 0.87690
#
# Static dielectric constant tensor:
#      x y z
#    x 1.793480 0.000000 0.002210 
#    y 0.000000 1.807580 0.000000 
#    z 0.002210 0.000000 1.795740 
# 
# From -- ./inp_files/57439.got.cif
#   From: 2010.05.17/outbox.cif.g08.bks.cpg/sg13_29_cif.got.tgz:57439.got - 2010.06.03 16:44:36.
