data_PCOD9232655
_publ_section_title
;
Structure prediction by ZEFSAII (Michael W. Deem and Ramdas Pophale) SiO2 
 PCOD9232655
Probable space group: P 2/C
;
_chemical_formula_sum "Si O2"
_cell_formula_units_Z 26
_cell_length_a 11.285056
_cell_length_b 26.261547
_cell_length_c 5.322298
_cell_angle_alpha 90.000000
_cell_angle_beta 68.955412
_cell_angle_gamma 90.000000
_cell_volume 1472.126272
_symmetry_space_group_name_H-M "P 2/C"
_symmetry_group_IT_number 13
_symmetry_cell_setting 'monoclinic'
loop_
_space_group_symop_operation_xyz
x,y,z
-x,y,1/2-z
-x,-y,-z
x,-y,1/2+z
loop_
_atom_site_type_symbol
_atom_site_label
_atom_site_fract_x
_atom_site_fract_y
_atom_site_fract_z
Si Si1 0.727090 0.884549 0.067010
Si Si2 0.654303 0.825652 0.622635
Si Si3 0.141942 0.021587 0.922107
Si Si4 0.500000 0.965967 0.250000
Si Si5 0.345917 0.706416 0.865630
Si Si6 0.344946 0.647593 0.366699
Si Si7 0.654776 0.529790 0.132834
O O1 0.702715 0.848189 0.322491
O O2 0.851496 0.919362 0.010319
O O3 0.619167 0.927935 0.157443
O O4 0.713190 0.855171 0.815644
O O5 0.500000 0.831110 0.750000
O O6 0.686567 0.765898 0.614009
O O7 0.201795 0.011070 0.603698
O O8 0.000000 0.000000 0.000000
O O9 0.500000 0.000000 0.500000
O O10 0.500000 0.704489 0.750000
O O11 0.303273 0.676742 0.649390
O O12 0.303421 0.677727 0.149907
O O13 0.500000 0.647758 0.250000
O O14 0.305274 0.588669 0.394510
O O15 0.500000 0.529881 0.250000
O O16 0.695165 0.499560 0.350810
#
# Coordination Sequence:
#
# PCOD9232655 Si02
#       7
#     4   4   4   2   4   4   4
#     4  12  21  34  50  69  93 116 143 177 217 268
#     4  11  20  33  45  66  91 117 143 175 221 271
#     4  10  21  38  56  72  90 115 146 178 214 264
#     4  12  22  32  46  66  92 114 136 162 204 262
#     4   9  17  26  39  51  72 102 134 168 203 260
#     4   9  15  24  34  49  66  95 134 169 211 263
#     4   9  15  21  30  44  64  88 120 169 221 264
#
# _framework density 17.661527
#
# number of rings (size 3 to 8) (size 9 to 14) (size 15 to 20)
#    0.000    1.846    1.538    4.615    0.000    6.154 
#    0.000    0.000    0.000    0.000    0.000    0.000 
#    0.000    0.000    0.000    0.000    0.000    0.000 
#
# Total GULP energy -145028.294777 kJ/mol
# GULP energy per Si atom -5578.011338 kJ/mol
# Density = 1.762133 g / cm^3
# Si number density = 17.661527 Si / 1000 Ang^3
#
#
#
# Elastic Constant Matrix: (Units=GPa)
#
#
# Indices 1 2 3 4 5 6 
#
# 1 32.7659 35.2941 32.0731 0.0000 11.0143 0.0000
# 2 35.2941 168.7025 79.8381 0.0000 34.3295 0.0000
# 3 32.0731 79.8381 134.5775 0.0000 57.8516 0.0000
# 4 0.0000 0.0000 0.0000 38.2674 0.0000 10.8091
# 5 11.0143 34.3295 57.8516 0.0000 32.2732 0.0000
# 6 0.0000 0.0000 0.0000 10.8091 0.0000 12.0076
#
#
#
# Elastic Compliance Matrix: (Units=1/GPa)
#
#
# Indices 1 2 3 4 5 6 
#
# 1 0.045658 -0.006122 -0.014604 0.000000 0.017108 0.000000
# 2 -0.006122 0.009062 -0.002927 0.000000 -0.002304 0.000000
# 3 -0.014604 -0.002927 0.039955 0.000000 -0.063524 0.000000
# 4 0.000000 0.000000 0.000000 0.035042 0.000000 -0.031544
# 5 0.017108 -0.002304 -0.063524 0.000000 0.141467 0.000000
# 6 0.000000 0.000000 0.000000 -0.031544 0.000000 0.111676
#
#
# Mechanical properties :
#
#
# Convention : Reuss Voigt Hill
#
# Bulk Modulus (GPa) = 21.11046 70.05075 45.58060
# Shear Modulus (GPa) = 11.21188 29.09902 20.15545
#
# Velocity S-wave (km/s) = 2.52230 4.06346 3.38184
# Velocity P-wave (km/s) = 4.52343 7.85905 6.41194
#
# Compressibility (1/GPa) = 0.04736988
#
# Stress axis : x y z
#
# Youngs Moduli (GPa) = 21.90183 110.34690 25.02840
#
# Poissons Ratio (x) = 0.67557 0.36551
# Poissons Ratio (y) = 0.13409 0.07325
# Poissons Ratio (z) = 0.31985 0.32295
#
# Static dielectric constant tensor:
#      x y z
#    x 1.637410 0.000000 0.010400 
#    y 0.000000 1.594200 0.000000 
#    z 0.010400 0.000000 1.606520 
# 
# From -- ./inp_files/3899.got.cif
#   From: 2010.05.17/outbox.cif.g08.bks.cpg/sg13_2_cif.got.tgz:3899.got - 2010.06.03 16:44:36.
