data_PCOD9232651
_publ_section_title
;
Structure prediction by ZEFSAII (Michael W. Deem and Ramdas Pophale) SiO2 
 PCOD9232651
Probable space group: P 2/C
;
_chemical_formula_sum "Si O2"
_cell_formula_units_Z 26
_cell_length_a 5.954619
_cell_length_b 12.717792
_cell_length_c 18.687853
_cell_angle_alpha 90.000000
_cell_angle_beta 115.124341
_cell_angle_gamma 90.000000
_cell_volume 1281.327308
_symmetry_space_group_name_H-M "P 2/C"
_symmetry_group_IT_number 13
_symmetry_cell_setting 'monoclinic'
loop_
_space_group_symop_operation_xyz
x,y,z
-x,y,1/2-z
-x,-y,-z
x,-y,1/2+z
loop_
_atom_site_type_symbol
_atom_site_label
_atom_site_fract_x
_atom_site_fract_y
_atom_site_fract_z
Si Si1 0.179667 0.237494 0.512793
Si Si2 0.493974 0.882299 0.165124
Si Si3 0.683493 0.418346 0.084595
Si Si4 0.827504 0.592393 0.005953
Si Si5 0.000000 0.344488 0.250000
Si Si6 0.500000 0.760702 0.750000
Si Si7 0.829636 0.090107 0.373803
Si Si8 0.000000 0.998796 0.750000
O O1 0.403759 0.200626 0.593824
O O2 0.263383 0.323848 0.465001
O O3 0.978720 0.301507 0.533041
O O4 0.032114 0.142402 0.453379
O O5 0.500000 0.848035 0.250000
O O6 0.294925 0.977415 0.126864
O O7 0.767595 0.930330 0.194401
O O8 0.409175 0.395776 0.077324
O O9 0.890561 0.410434 0.171112
O O10 0.704447 0.537506 0.057911
O O11 0.000000 0.500000 0.000000
O O12 0.247797 0.291335 0.247953
O O13 0.397676 0.831107 0.670397
O O14 0.941920 0.072410 0.310273
#
# Coordination Sequence:
#
# PCOD9232651 Si02
#       8
#     4   4   4   4   2   2   4   2
#     4  11  22  38  62  91 121 167 216 265 323 397
#     4  10  23  40  58  83 124 173 217 267 318 378
#     4  10  22  39  65  94 125 162 207 270 334 391
#     4   9  21  43  61  84 123 161 206 266 325 387
#     4  12  25  38  68 107 130 170 213 272 336 399
#     4  12  22  38  64 102 140 168 214 266 336 388
#     4  11  21  36  61  89 128 170 204 271 321 388
#     4  10  21  38  54  85 130 168 215 268 324 369
#
# _framework density 20.291461000000002
#
# number of rings (size 3 to 8) (size 9 to 14) (size 15 to 20)
#    0.000    1.538    3.846    1.846    2.154    4.308 
#    0.000    4.615    0.000    0.000    0.000    0.000 
#    0.000    0.000    0.000    0.000    0.000    0.000 
#
# Total GULP energy -144761.648943 kJ/mol
# GULP energy per Si atom -5567.755729 kJ/mol
# Density = 2.024528 g / cm^3
# Si number density = 20.291461 Si / 1000 Ang^3
#
#
#
# Elastic Constant Matrix: (Units=GPa)
#
#
# Indices 1 2 3 4 5 6 
#
# 1 84.0161 21.4985 29.5952 0.0000 17.5027 0.0000
# 2 21.4985 57.5336 56.5699 0.0000 -0.6850 0.0000
# 3 29.5952 56.5699 143.2688 0.0000 31.5803 0.0000
# 4 0.0000 0.0000 0.0000 33.0658 0.0000 17.5555
# 5 17.5027 -0.6850 31.5803 0.0000 18.9087 0.0000
# 6 0.0000 0.0000 0.0000 17.5555 0.0000 13.1977
#
#
#
# Elastic Compliance Matrix: (Units=1/GPa)
#
#
# Indices 1 2 3 4 5 6 
#
# 1 0.022393 -0.023677 0.015005 0.000000 -0.046646 0.000000
# 2 -0.023677 0.073311 -0.046644 0.000000 0.102475 0.000000
# 3 0.015005 -0.046644 0.040724 0.000000 -0.083595 0.000000
# 4 0.000000 0.000000 0.000000 0.102950 0.000000 -0.136944
# 5 -0.046646 0.102475 -0.083595 0.000000 0.239391 0.000000
# 6 0.000000 0.000000 0.000000 -0.136944 0.000000 0.257934
#
#
# Mechanical properties :
#
#
# Convention : Reuss Voigt Hill
#
# Bulk Modulus (GPa) = 38.76431 55.57173 47.16802
# Shear Modulus (GPa) = 5.84156 24.84476 15.34316
#
# Velocity S-wave (km/s) = 1.69855 3.50293 2.75278
# Velocity P-wave (km/s) = 4.79500 6.61868 5.77923
#
# Compressibility (1/GPa) = 0.02579693
#
# Stress axis : x y z
#
# Youngs Moduli (GPa) = 44.65696 13.64046 24.55535
#
# Poissons Ratio (x) = 0.32296 -0.36845
# Poissons Ratio (y) = 1.05732 1.14537
# Poissons Ratio (z) = -0.67008 0.63625
#
# Static dielectric constant tensor:
#      x y z
#    x 2.958920 0.000000 1.297680 
#    y 0.000000 1.754840 0.000000 
#    z 1.297680 0.000000 3.244850 
# 
# From -- ./inp_files/73751.got.cif
#   From: 2010.05.17/outbox.cif.g08.bks.cpg/sg13_37_cif.got.tgz:73751.got - 2010.06.03 16:44:36.
