data_PCOD9232499
_publ_section_title
;
Structure prediction by ZEFSAII (Michael W. Deem and Ramdas Pophale) SiO2 
 PCOD9232499
Probable space group: P 2/C
;
_chemical_formula_sum "Si O2"
_cell_formula_units_Z 30
_cell_length_a 14.885093
_cell_length_b 8.086497
_cell_length_c 23.612997
_cell_angle_alpha 90.000000
_cell_angle_beta 152.737330
_cell_angle_gamma 90.000000
_cell_volume 1301.953320
_symmetry_space_group_name_H-M "P 2/C"
_symmetry_group_IT_number 13
_symmetry_cell_setting 'monoclinic'
loop_
_space_group_symop_operation_xyz
x,y,z
-x,y,1/2-z
-x,-y,-z
x,-y,1/2+z
loop_
_atom_site_type_symbol
_atom_site_label
_atom_site_fract_x
_atom_site_fract_y
_atom_site_fract_z
Si Si1 0.772959 0.343913 0.188511
Si Si2 0.213170 0.540536 0.199783
Si Si3 0.316323 0.997602 0.357110
Si Si4 0.580066 0.141714 0.697375
Si Si5 0.568015 0.775736 0.725395
Si Si6 0.000000 0.184549 0.750000
Si Si7 0.756891 0.688119 0.547892
Si Si8 0.818935 0.647329 0.037914
O O1 0.722825 0.501144 0.198469
O O2 0.706268 0.334518 0.085964
O O3 0.007080 0.312098 0.321309
O O4 0.689448 0.180858 0.170870
O O5 0.326829 0.685664 0.229996
O O6 0.269356 0.363006 0.202303
O O7 0.988016 0.603359 0.086007
O O8 0.313101 0.877047 0.303093
O O9 0.147265 0.940986 0.303317
O O10 0.500000 0.000000 0.500000
O O11 0.355871 0.169824 0.549804
O O12 0.622677 0.972110 0.754149
O O13 0.500000 0.728734 0.750000
O O14 0.357167 0.769823 0.575066
O O15 0.913604 0.296660 0.651061
O O16 0.704550 0.522006 0.485831
#
# Coordination Sequence:
#
# PCOD9232499 Si02
#       8
#     4   4   4   4   4   2   4   4
#     4  10  21  37  60 101 144 186 223 270 343 426
#     4  11  24  47  72 102 141 182 238 292 360 421
#     4  12  23  35  60 101 148 193 222 276 336 425
#     4  12  24  43  66 100 137 186 235 290 353 417
#     4  12  29  51  74 100 137 186 249 310 359 415
#     4  12  24  38  70 112 152 188 230 274 360 436
#     4  10  21  37  64  97 140 189 222 272 345 427
#     4  11  24  45  72 106 147 184 230 295 352 431
#
# _framework density 23.042301999999999
#
# number of rings (size 3 to 8) (size 9 to 14) (size 15 to 20)
#    0.000    0.800    5.333    3.200    1.867    1.600 
#    0.000    0.667    0.000    0.000    0.000    0.000 
#    0.000    0.000    0.000    0.000    0.000    0.000 
#
# Total GULP energy -167184.139023 kJ/mol
# GULP energy per Si atom -5572.804634 kJ/mol
# Density = 2.298986 g / cm^3
# Si number density = 23.042302 Si / 1000 Ang^3
#
#
#
# Elastic Constant Matrix: (Units=GPa)
#
#
# Indices 1 2 3 4 5 6 
#
# 1 65.9790 7.5296 8.1450 0.0000 16.6700 0.0000
# 2 7.5296 130.9962 -0.1268 0.0000 13.7361 0.0000
# 3 8.1450 -0.1268 27.9298 0.0000 20.3083 0.0000
# 4 0.0000 0.0000 0.0000 28.5641 0.0000 9.1150
# 5 16.6700 13.7361 20.3083 0.0000 23.2061 0.0000
# 6 0.0000 0.0000 0.0000 9.1150 0.0000 35.4266
#
#
#
# Elastic Compliance Matrix: (Units=1/GPa)
#
#
# Indices 1 2 3 4 5 6 
#
# 1 0.020414 0.001892 0.015213 0.000000 -0.029098 0.000000
# 2 0.001892 0.009406 0.012449 0.000000 -0.017822 0.000000
# 3 0.015213 0.012449 0.122989 0.000000 -0.125928 0.000000
# 4 0.000000 0.000000 0.000000 0.038140 0.000000 -0.009813
# 5 -0.029098 -0.017822 -0.125928 0.000000 0.184746 0.000000
# 6 0.000000 0.000000 0.000000 -0.009813 0.000000 0.030752
#
#
# Mechanical properties :
#
#
# Convention : Reuss Voigt Hill
#
# Bulk Modulus (GPa) = 4.71881 28.44451 16.58166
# Shear Modulus (GPa) = 11.96236 31.39650 21.67943
#
# Velocity S-wave (km/s) = 2.28095 3.69529 3.07066
# Velocity P-wave (km/s) = 2.99822 5.52975 4.44789
#
# Compressibility (1/GPa) = 0.21191797
#
# Stress axis : x y z
#
# Youngs Moduli (GPa) = 48.98574 106.31698 8.13083
#
# Poissons Ratio (x) = -0.20120 -0.12369
# Poissons Ratio (y) = -0.09271 -0.10122
# Poissons Ratio (z) = -0.74522 -1.32357
#
# Static dielectric constant tensor:
#      x y z
#    x 1.888990 0.000000 0.036050 
#    y 0.000000 1.970770 0.000000 
#    z 0.036050 0.000000 1.886790 
# 
# From -- ./inp_files/87307.got.cif
#   From: 2010.05.17/outbox.cif.g08.bks.cpg/sg13_44_cif.got.tgz:87307.got - 2010.06.03 16:44:36.
