data_PCOD9232005
_publ_section_title
;
Structure prediction by ZEFSAII (Michael W. Deem and Ramdas Pophale) SiO2 
 PCOD9232005
Probable space group: P 2/C
;
_chemical_formula_sum "Si O2"
_cell_formula_units_Z 22
_cell_length_a 5.146426
_cell_length_b 9.744687
_cell_length_c 16.941879
_cell_angle_alpha 90.000000
_cell_angle_beta 104.514286
_cell_angle_gamma 90.000000
_cell_volume 822.524370
_symmetry_space_group_name_H-M "P 2/C"
_symmetry_group_IT_number 13
_symmetry_cell_setting 'monoclinic'
loop_
_space_group_symop_operation_xyz
x,y,z
-x,y,1/2-z
-x,-y,-z
x,-y,1/2+z
loop_
_atom_site_type_symbol
_atom_site_label
_atom_site_fract_x
_atom_site_fract_y
_atom_site_fract_z
Si Si1 0.000000 0.749118 0.750000
Si Si2 0.334515 0.036253 0.376972
Si Si3 0.500000 0.500000 0.500000
Si Si4 0.325287 0.745216 0.003549
Si Si5 0.984407 0.761089 0.358266
Si Si6 0.092689 0.551529 0.622125
Si Si7 0.500000 0.099724 0.750000
O O1 0.154947 0.653173 0.699034
O O2 0.163850 0.851531 0.817023
O O3 0.556302 0.998754 0.329289
O O4 0.192593 0.889536 0.375060
O O5 0.390501 0.121466 0.459497
O O6 0.420865 0.653826 0.457463
O O7 0.319458 0.539572 0.572538
O O8 0.181428 0.616007 0.942353
O O9 0.148760 0.776525 0.064251
O O10 0.979044 0.595766 0.348547
O O11 0.758565 0.804884 0.275251
#
# Coordination Sequence:
#
# PCOD9232005 Si02
#       7
#     2   4   2   4   4   4   2
#     4  10  20  44  66  90 132 188 212 286 338 394
#     4  11  24  48  64  95 138 175 234 274 338 414
#     4   8  20  40  66 100 134 166 232 268 330 414
#     4   9  22  45  68  99 133 179 223 281 335 398
#     4  12  24  43  71 101 135 176 226 286 335 411
#     4   9  22  40  68  99 138 170 227 278 337 400
#     4  12  28  40  68  98 138 178 222 278 348 400
#
# _framework density 26.746926999999999
#
# number of rings (size 3 to 8) (size 9 to 14) (size 15 to 20)
#    1.091    0.727    1.818    1.091    5.091    0.727 
#    6.545    0.000    0.000    0.000    0.000    0.000 
#    0.000    0.000    0.000    0.000    0.000    0.000 
#
# Total GULP energy -122515.688520 kJ/mol
# GULP energy per Si atom -5568.894933 kJ/mol
# Density = 2.668605 g / cm^3
# Si number density = 26.746927 Si / 1000 Ang^3
#
#
#
# Elastic Constant Matrix: (Units=GPa)
#
#
# Indices 1 2 3 4 5 6 
#
# 1 71.7685 49.8098 30.8201 0.0000 -13.8196 0.0000
# 2 49.8098 263.4286 80.8807 0.0000 -19.8703 0.0000
# 3 30.8201 80.8807 81.1811 0.0000 -29.6762 0.0000
# 4 0.0000 0.0000 0.0000 49.7486 0.0000 -13.0476
# 5 -13.8196 -19.8703 -29.6762 0.0000 30.5183 0.0000
# 6 0.0000 0.0000 0.0000 -13.0476 0.0000 10.2702
#
#
#
# Elastic Compliance Matrix: (Units=1/GPa)
#
#
# Indices 1 2 3 4 5 6 
#
# 1 0.017419 -0.001992 -0.003443 0.000000 0.003243 0.000000
# 2 -0.001992 0.005844 -0.006213 0.000000 -0.003139 0.000000
# 3 -0.003443 -0.006213 0.027565 0.000000 0.021200 0.000000
# 4 0.000000 0.000000 0.000000 0.030145 0.000000 0.038298
# 5 0.003243 -0.003139 0.021200 0.000000 0.052807 0.000000
# 6 0.000000 0.000000 0.000000 0.038298 0.000000 0.146024
#
#
# Mechanical properties :
#
#
# Convention : Reuss Voigt Hill
#
# Bulk Modulus (GPa) = 36.32180 82.15547 59.23863
# Shear Modulus (GPa) = 16.01136 35.09861 25.55498
#
# Velocity S-wave (km/s) = 2.44933 3.62643 3.09437
# Velocity P-wave (km/s) = 4.64847 6.95105 5.91293
#
# Compressibility (1/GPa) = 0.02753168
#
# Stress axis : x y z
#
# Youngs Moduli (GPa) = 57.40789 171.12673 36.27723
#
# Poissons Ratio (x) = 0.34087 0.12491
# Poissons Ratio (y) = 0.11435 0.22540
# Poissons Ratio (z) = 0.19766 1.06326
#
# Static dielectric constant tensor:
#      x y z
#    x -0.984190 0.000000 -1.772240 
#    y 0.000000 2.790220 0.000000 
#    z -1.772240 0.000000 1.304270 
# 
# From -- ./inp_files/73108.got.cif
#   From: 2010.05.17/outbox.cif.g08.bks.cpg/sg13_37_cif.got.tgz:73108.got - 2010.06.03 16:44:36.
