data_PCOD9232970
_publ_section_title
;
Structure prediction by ZEFSAII (Michael W. Deem and Ramdas Pophale) SiO2 
 PCOD9232970
Probable space group: P 2/C
;
_chemical_formula_sum "Si O2"
_cell_formula_units_Z 18
_cell_length_a 20.852499
_cell_length_b 5.228135
_cell_length_c 10.898095
_cell_angle_alpha 90.000000
_cell_angle_beta 34.677769
_cell_angle_gamma 90.000000
_cell_volume 675.985837
_symmetry_space_group_name_H-M "P 2/C"
_symmetry_group_IT_number 13
_symmetry_cell_setting 'monoclinic'
loop_
_space_group_symop_operation_xyz
x,y,z
-x,y,1/2-z
-x,-y,-z
x,-y,1/2+z
loop_
_atom_site_type_symbol
_atom_site_label
_atom_site_fract_x
_atom_site_fract_y
_atom_site_fract_z
Si Si1 0.500000 0.805585 0.250000
Si Si2 0.375267 0.496194 0.136431
Si Si3 0.319914 0.995650 0.352420
Si Si4 0.071637 0.286617 0.020297
Si Si5 0.136602 0.211781 0.330309
O O1 0.404390 0.623615 0.458854
O O2 0.435827 0.973662 0.249583
O O3 0.330501 0.780074 0.230002
O O4 0.308624 0.279724 0.318070
O O5 0.500000 0.500000 0.000000
O O6 0.221172 0.905547 0.598190
O O7 0.000000 0.370237 0.250000
O O8 0.982656 0.251840 0.050202
O O9 0.160150 0.507017 0.846614
O O10 0.121275 0.003585 0.957994
#
# Coordination Sequence:
#
# PCOD9232970 Si02
#       5
#     2   4   4   4   4
#     4  10  22  38  58  80 114 152 186 230 282 330
#     4  10  22  38  56  81 113 150 192 235 277 331
#     4  11  23  38  58  85 115 149 192 235 280 337
#     4  10  21  39  61  84 115 149 185 234 290 341
#     4  10  22  38  58  87 115 145 190 236 280 342
#
# _framework density 26.627776000000001
#
# number of rings (size 3 to 8) (size 9 to 14) (size 15 to 20)
#    0.000    1.778    0.000    4.667    0.000   11.556 
#    0.000    0.000    0.000    0.000    0.000    0.000 
#    0.000    0.000    0.000    0.000    0.000    0.000 
#
# Total GULP energy -100882.931249 kJ/mol
# GULP energy per Si atom -5604.607292 kJ/mol
# Density = 2.656717 g / cm^3
# Si number density = 26.627776 Si / 1000 Ang^3
#
#
#
# Elastic Constant Matrix: (Units=GPa)
#
#
# Indices 1 2 3 4 5 6 
#
# 1 89.3623 33.1400 -16.2751 0.0000 -11.5388 0.0000
# 2 33.1400 139.5401 36.3841 0.0000 -6.8832 0.0000
# 3 -16.2751 36.3841 127.3470 0.0000 -0.4597 0.0000
# 4 0.0000 0.0000 0.0000 49.8403 0.0000 3.8016
# 5 -11.5388 -6.8832 -0.4597 0.0000 35.2379 0.0000
# 6 0.0000 0.0000 0.0000 3.8016 0.0000 22.9405
#
#
#
# Elastic Compliance Matrix: (Units=1/GPa)
#
#
# Indices 1 2 3 4 5 6 
#
# 1 0.013592 -0.003781 0.002831 0.000000 0.003749 0.000000
# 2 -0.003781 0.008874 -0.003017 0.000000 0.000456 0.000000
# 3 0.002831 -0.003017 0.009078 0.000000 0.000456 0.000000
# 4 0.000000 0.000000 0.000000 0.020321 0.000000 -0.003367
# 5 0.003749 0.000456 0.000456 0.000000 0.029701 0.000000
# 6 0.000000 0.000000 0.000000 -0.003367 0.000000 0.044149
#
#
# Mechanical properties :
#
#
# Convention : Reuss Voigt Hill
#
# Bulk Modulus (GPa) = 42.35573 51.41637 46.88605
# Shear Modulus (GPa) = 35.33087 41.80378 38.56733
#
# Velocity S-wave (km/s) = 3.64654 3.96653 3.80990
# Velocity P-wave (km/s) = 5.80265 6.35052 6.08276
#
# Compressibility (1/GPa) = 0.02360956
#
# Stress axis : x y z
#
# Youngs Moduli (GPa) = 73.57037 112.69434 110.15684
#
# Poissons Ratio (x) = 0.42614 -0.31186
# Poissons Ratio (y) = 0.27820 0.33233
# Poissons Ratio (z) = -0.20828 0.33998
#
# Static dielectric constant tensor:
#      x y z
#    x 2.171270 0.000000 -0.015430 
#    y 0.000000 2.075940 0.000000 
#    z -0.015430 0.000000 2.058260 
# 
# From -- ./inp_files/31295.got.cif
#   From: 2010.05.17/outbox.cif.g08.bks.cpg/sg13_16_cif.got.tgz:31295.got - 2010.06.03 16:44:36.
