data_PCOD9232193
_publ_section_title
;
Structure prediction by ZEFSAII (Michael W. Deem and Ramdas Pophale) SiO2 
 PCOD9232193
Probable space group: P 2/C
;
_chemical_formula_sum "Si O2"
_cell_formula_units_Z 22
_cell_length_a 8.126563
_cell_length_b 5.568986
_cell_length_c 24.162873
_cell_angle_alpha 90.000000
_cell_angle_beta 63.248335
_cell_angle_gamma 90.000000
_cell_volume 976.486988
_symmetry_space_group_name_H-M "P 2/C"
_symmetry_group_IT_number 13
_symmetry_cell_setting 'monoclinic'
loop_
_space_group_symop_operation_xyz
x,y,z
-x,y,1/2-z
-x,-y,-z
x,-y,1/2+z
loop_
_atom_site_type_symbol
_atom_site_label
_atom_site_fract_x
_atom_site_fract_y
_atom_site_fract_z
Si Si1 0.787483 0.388510 0.937530
Si Si2 0.656004 0.316278 0.178788
Si Si3 0.480491 0.347025 0.424088
Si Si4 0.158143 0.116743 0.112292
Si Si5 0.721515 0.186034 0.708524
Si Si6 0.000000 0.999322 0.750000
O O1 0.611781 0.432725 0.923007
O O2 0.885968 0.648298 0.917705
O O3 0.887224 0.147745 0.902920
O O4 0.700427 0.350762 0.010997
O O5 0.500000 0.304767 0.250000
O O6 0.565930 0.344207 0.132811
O O7 0.766534 0.558407 0.175177
O O8 0.755519 0.059409 0.169020
O O9 0.617756 0.128862 0.418091
O O10 0.084524 0.147996 0.186071
O O11 0.500000 0.192810 0.750000
O O12 0.835320 0.153177 0.747872
#
# Coordination Sequence:
#
# PCOD9232193 Si02
#       6
#     4   4   4   4   4   2
#     4   9  21  34  61  96 123 169 224 256 312 386
#     4  10  21  35  60  89 127 157 206 265 318 373
#     4   9  20  36  65  90 129 168 216 266 313 377
#     4  10  21  35  58  95 123 165 217 258 318 378
#     4  10  24  40  58  94 122 169 209 252 324 380
#     4  12  26  42  70  90 142 170 204 278 318 390
#
# _framework density 22.529744000000001
#
# number of rings (size 3 to 8) (size 9 to 14) (size 15 to 20)
#    1.091    1.091    0.000    2.727    7.636    2.909 
#    0.000    0.000    0.000    6.545    0.000    0.000 
#    0.000    0.000    0.000    0.000    0.000    0.000 
#
# Total GULP energy -122670.610698 kJ/mol
# GULP energy per Si atom -5575.936850 kJ/mol
# Density = 2.247846 g / cm^3
# Si number density = 22.529744 Si / 1000 Ang^3
#
#
#
# Elastic Constant Matrix: (Units=GPa)
#
#
# Indices 1 2 3 4 5 6 
#
# 1 84.7745 15.2526 23.2191 0.0000 8.4774 0.0000
# 2 15.2526 172.6018 44.5333 0.0000 -17.2741 0.0000
# 3 23.2191 44.5333 110.3330 0.0000 0.7168 0.0000
# 4 0.0000 0.0000 0.0000 -335.6203 0.0000 36.2753
# 5 8.4774 -17.2741 0.7168 0.0000 33.3623 0.0000
# 6 0.0000 0.0000 0.0000 36.2753 0.0000 16.7295
#
#
#
# Elastic Compliance Matrix: (Units=1/GPa)
#
#
# Indices 1 2 3 4 5 6 
#
# 1 0.012973 -0.000916 -0.002336 0.000000 -0.003720 0.000000
# 2 -0.000916 0.006943 -0.002635 0.000000 0.003884 0.000000
# 3 -0.002336 -0.002635 0.010625 0.000000 -0.000999 0.000000
# 4 0.000000 0.000000 0.000000 -0.002414 0.000000 0.005234
# 5 -0.003720 0.003884 -0.000999 0.000000 0.032952 0.000000
# 6 0.000000 0.000000 0.000000 0.005234 0.000000 0.048426
#
#
# Mechanical properties :
#
#
# Convention : Reuss Voigt Hill
#
# Bulk Modulus (GPa) = 53.28532 59.30216 56.29374
# Shear Modulus (GPa) = 39.20508 -38.12542 0.53983
#
# Velocity S-wave (km/s) = 4.17603 -4.11813 0.49003
# Velocity P-wave (km/s) = 6.85236 1.94084 5.03595
#
# Compressibility (1/GPa) = 0.01876690
#
# Stress axis : x y z
#
# Youngs Moduli (GPa) = 77.08493 144.02543 94.11653
#
# Poissons Ratio (x) = 0.13192 0.21987
# Poissons Ratio (y) = 0.07061 0.24799
# Poissons Ratio (z) = 0.18008 0.37950
#
# Static dielectric constant tensor:
#      x y z
#    x 1.826370 0.000000 -0.041750 
#    y 0.000000 1.862690 0.000000 
#    z -0.041750 0.000000 1.784680 
# 
# From -- ./inp_files/84279.got.cif
#   From: 2010.05.17/outbox.cif.g08.bks.cpg/sg13_43_cif.got.tgz:84279.got - 2010.06.03 16:44:36.
