data_PCOD9232475
_publ_section_title
;
Structure prediction by ZEFSAII (Michael W. Deem and Ramdas Pophale) SiO2 
 PCOD9232475
Probable space group: P 2/C
;
_chemical_formula_sum "Si O2"
_cell_formula_units_Z 30
_cell_length_a 6.688747
_cell_length_b 8.394481
_cell_length_c 28.266788
_cell_angle_alpha 90.000000
_cell_angle_beta 88.083368
_cell_angle_gamma 90.000000
_cell_volume 1586.251505
_symmetry_space_group_name_H-M "P 2/C"
_symmetry_group_IT_number 13
_symmetry_cell_setting 'monoclinic'
loop_
_space_group_symop_operation_xyz
x,y,z
-x,y,1/2-z
-x,-y,-z
x,-y,1/2+z
loop_
_atom_site_type_symbol
_atom_site_label
_atom_site_fract_x
_atom_site_fract_y
_atom_site_fract_z
Si Si1 0.301629 0.559247 0.027114
Si Si2 0.451814 0.809913 0.102331
Si Si3 0.054852 0.624791 0.935798
Si Si4 0.652706 0.720290 0.704989
Si Si5 0.938678 0.131187 0.834381
Si Si6 0.221666 0.591707 0.350189
Si Si7 0.269514 0.916714 0.883855
Si Si8 0.000000 0.918192 0.750000
O O1 0.370248 0.701590 0.060527
O O2 0.179368 0.420033 0.055828
O O3 0.500000 0.500000 0.000000
O O4 0.153707 0.614836 0.986695
O O5 0.258759 0.857890 0.133462
O O6 0.596015 0.701896 0.134018
O O7 0.581979 0.966833 0.088724
O O8 0.137401 0.491609 0.898595
O O9 0.136799 0.789083 0.913390
O O10 0.500000 0.720640 0.750000
O O11 0.701360 0.544444 0.685645
O O12 0.604524 0.823512 0.657991
O O13 0.850113 0.805491 0.723241
O O14 0.045683 0.302629 0.828465
O O15 0.891023 0.037209 0.786925
O O16 0.107745 0.029092 0.859829
#
# Coordination Sequence:
#
# PCOD9232475 Si02
#       8
#     4   4   4   4   4   4   4   2
#     4  11  22  37  63  87 117 155 198 245 300 354
#     4  11  21  38  61  87 115 158 200 237 299 363
#     4  10  21  40  58  87 121 151 193 254 288 349
#     4  10  21  39  58  87 119 153 196 248 286 351
#     4  10  21  39  59  86 119 156 192 247 291 355
#     4  10  21  37  59  85 118 151 195 242 294 345
#     4   9  22  39  60  86 122 157 195 244 303 346
#     4  10  22  38  58  82 118 156 194 234 300 346
#
# _framework density 18.912512
#
# number of rings (size 3 to 8) (size 9 to 14) (size 15 to 20)
#    0.000    1.867    2.667    0.800    0.000    4.267 
#    2.400    2.667    0.000    0.000    0.000    0.000 
#    0.000    0.000    0.000    0.000    0.000    0.000 
#
# Total GULP energy -167253.956305 kJ/mol
# GULP energy per Si atom -5575.131877 kJ/mol
# Density = 1.886947 g / cm^3
# Si number density = 18.912512 Si / 1000 Ang^3
#
#
#
# Elastic Constant Matrix: (Units=GPa)
#
#
# Indices 1 2 3 4 5 6 
#
# 1 80.4289 44.7617 23.8655 0.0000 -26.9719 0.0000
# 2 44.7617 121.8246 42.3355 0.0000 -10.6309 0.0000
# 3 23.8655 42.3355 76.4030 0.0000 -16.9645 0.0000
# 4 0.0000 0.0000 0.0000 10.7733 0.0000 1.9865
# 5 -26.9719 -10.6309 -16.9645 0.0000 38.4454 0.0000
# 6 0.0000 0.0000 0.0000 1.9865 0.0000 24.3487
#
#
#
# Elastic Compliance Matrix: (Units=1/GPa)
#
#
# Indices 1 2 3 4 5 6 
#
# 1 0.020080 -0.006284 -0.000053 0.000000 0.012326 0.000000
# 2 -0.006284 0.012137 -0.005539 0.000000 -0.003496 0.000000
# 3 -0.000053 -0.005539 0.017545 0.000000 0.006173 0.000000
# 4 0.000000 0.000000 0.000000 0.094240 0.000000 -0.007689
# 5 0.012326 -0.003496 0.006173 0.000000 0.036416 0.000000
# 6 0.000000 0.000000 0.000000 -0.007689 0.000000 0.041697
#
#
# Mechanical properties :
#
#
# Convention : Reuss Voigt Hill
#
# Bulk Modulus (GPa) = 38.44680 55.62019 47.03349
# Shear Modulus (GPa) = 19.64358 25.89307 22.76832
#
# Velocity S-wave (km/s) = 3.22631 3.70415 3.47346
# Velocity P-wave (km/s) = 5.85249 6.91139 6.40387
#
# Compressibility (1/GPa) = 0.02600997
#
# Stress axis : x y z
#
# Youngs Moduli (GPa) = 49.80098 82.39269 56.99677
#
# Poissons Ratio (x) = 0.51773 0.00305
# Poissons Ratio (y) = 0.31293 0.31569
# Poissons Ratio (z) = 0.00266 0.45635
#
# Static dielectric constant tensor:
#      x y z
#    x 1.637990 0.000000 -0.011210 
#    y 0.000000 1.672610 0.000000 
#    z -0.011210 0.000000 1.604710 
# 
# From -- ./inp_files/94888.got.cif
#   From: 2010.05.17/outbox.cif.g08.bks.cpg/sg13_48_cif.got.tgz:94888.got - 2010.06.03 16:44:36.
