data_PCOD9232182
_publ_section_title
;
Structure prediction by ZEFSAII (Michael W. Deem and Ramdas Pophale) SiO2 
 PCOD9232182
Probable space group: P 2/C
;
_chemical_formula_sum "Si O2"
_cell_formula_units_Z 32
_cell_length_a 11.417573
_cell_length_b 10.432108
_cell_length_c 12.992546
_cell_angle_alpha 90.000000
_cell_angle_beta 82.268534
_cell_angle_gamma 90.000000
_cell_volume 1533.465862
_symmetry_space_group_name_H-M "P 2/C"
_symmetry_group_IT_number 13
_symmetry_cell_setting 'monoclinic'
loop_
_space_group_symop_operation_xyz
x,y,z
-x,y,1/2-z
-x,-y,-z
x,-y,1/2+z
loop_
_atom_site_type_symbol
_atom_site_label
_atom_site_fract_x
_atom_site_fract_y
_atom_site_fract_z
Si Si1 0.139895 0.283070 0.969300
Si Si2 0.354912 0.867643 0.471258
Si Si3 0.487340 0.632795 0.365402
Si Si4 0.075928 0.268382 0.643137
Si Si5 0.522323 0.894526 0.629971
Si Si6 0.732106 0.521807 0.641856
Si Si7 0.694122 0.712103 0.475662
Si Si8 0.121880 0.568925 0.683679
O O1 0.143993 0.351700 0.078766
O O2 0.217858 0.155214 0.968030
O O3 0.197148 0.388505 0.884134
O O4 0.009931 0.255863 0.943908
O O5 0.409687 0.727922 0.442771
O O6 0.400651 0.903946 0.579275
O O7 0.414472 0.967788 0.386791
O O8 0.500000 0.689984 0.250000
O O9 0.407221 0.507921 0.355762
O O10 0.612012 0.627895 0.408442
O O11 0.206358 0.214919 0.602679
O O12 0.100425 0.419565 0.659834
O O13 0.000000 0.220061 0.750000
O O14 0.500000 0.856067 0.750000
O O15 0.609431 0.801871 0.554290
O O16 0.760764 0.620146 0.547929
O O17 0.772541 0.575620 0.746268
O O18 0.000000 0.614681 0.750000
#
# Coordination Sequence:
#
# PCOD9232182 Si02
#       8
#     4   4   4   4   4   4   4   4
#     4  11  21  37  60  88 125 157 210 255 299 371
#     4   9  22  41  63  90 114 156 205 261 301 371
#     4  10  21  35  57  86 118 156 199 251 312 368
#     4  11  21  38  59  89 124 167 208 244 300 372
#     4  10  22  44  66  89 118 161 211 255 321 371
#     4  11  21  34  54  87 124 158 201 250 315 369
#     4  11  23  37  59  88 127 160 204 260 308 369
#     4  11  20  33  57  86 125 171 205 246 304 376
#
# _framework density 20.867761999999999
#
# number of rings (size 3 to 8) (size 9 to 14) (size 15 to 20)
#    0.000    1.500    3.750    2.625    3.500    0.500 
#    0.000    0.625    0.000    0.750    0.000    0.000 
#    0.000    0.000    0.000    0.000    0.000    0.000 
#
# Total GULP energy -178599.359805 kJ/mol
# GULP energy per Si atom -5581.229994 kJ/mol
# Density = 2.082027 g / cm^3
# Si number density = 20.867762 Si / 1000 Ang^3
#
#
#
# Elastic Constant Matrix: (Units=GPa)
#
#
# Indices 1 2 3 4 5 6 
#
# 1 118.5248 12.8806 58.5928 0.0000 12.0850 0.0000
# 2 12.8806 23.5951 10.4533 0.0000 6.6844 0.0000
# 3 58.5928 10.4533 137.2296 0.0000 10.1124 0.0000
# 4 0.0000 0.0000 0.0000 10.1818 0.0000 -21.9844
# 5 12.0850 6.6844 10.1124 0.0000 34.3076 0.0000
# 6 0.0000 0.0000 0.0000 -21.9844 0.0000 -51.9854
#
#
#
# Elastic Compliance Matrix: (Units=1/GPa)
#
#
# Indices 1 2 3 4 5 6 
#
# 1 0.011182 -0.003623 -0.004355 0.000000 -0.001950 0.000000
# 2 -0.003623 0.047137 -0.001493 0.000000 -0.007468 0.000000
# 3 -0.004355 -0.001493 0.009328 0.000000 -0.000925 0.000000
# 4 0.000000 0.000000 0.000000 0.051338 0.000000 -0.021710
# 5 -0.001950 -0.007468 -0.000925 0.000000 0.031562 0.000000
# 6 0.000000 0.000000 0.000000 -0.021710 0.000000 -0.010055
#
#
# Mechanical properties :
#
#
# Convention : Reuss Voigt Hill
#
# Bulk Modulus (GPa) = 20.53180 49.24477 34.88828
# Shear Modulus (GPa) = 28.46251 11.66231 20.06241
#
# Velocity S-wave (km/s) = 3.69717 2.36660 3.10402
# Velocity P-wave (km/s) = 5.29960 5.57830 5.44074
#
# Compressibility (1/GPa) = 0.04870494
#
# Stress axis : x y z
#
# Youngs Moduli (GPa) = 89.42627 21.21495 107.19992
#
# Poissons Ratio (x) = 0.07686 0.46685
# Poissons Ratio (y) = 0.32398 0.16010
# Poissons Ratio (z) = 0.38944 0.03168
#
# Static dielectric constant tensor:
#      x y z
#    x 1.824570 0.000000 -0.041430 
#    y 0.000000 1.756420 0.000000 
#    z -0.041430 0.000000 1.774160 
# 
# From -- ./inp_files/33857.got.cif
#   From: 2010.05.17/outbox.cif.g08.bks.cpg/sg13_17_cif.got.tgz:33857.got - 2010.06.03 16:44:36.
