data_PCOD9232291
_publ_section_title
;
Structure prediction by ZEFSAII (Michael W. Deem and Ramdas Pophale) SiO2 
 PCOD9232291
Probable space group: P 2/C
;
_chemical_formula_sum "Si O2"
_cell_formula_units_Z 28
_cell_length_a 13.905912
_cell_length_b 7.418282
_cell_length_c 13.122276
_cell_angle_alpha 90.000000
_cell_angle_beta 107.104315
_cell_angle_gamma 90.000000
_cell_volume 1293.795905
_symmetry_space_group_name_H-M "P 2/C"
_symmetry_group_IT_number 13
_symmetry_cell_setting 'monoclinic'
loop_
_space_group_symop_operation_xyz
x,y,z
-x,y,1/2-z
-x,-y,-z
x,-y,1/2+z
loop_
_atom_site_type_symbol
_atom_site_label
_atom_site_fract_x
_atom_site_fract_y
_atom_site_fract_z
Si Si1 0.260408 0.696611 0.251782
Si Si2 0.252490 0.232319 0.046730
Si Si3 0.287981 0.823678 0.048074
Si Si4 0.380924 0.501544 0.470466
Si Si5 0.079645 0.219050 0.396055
Si Si6 0.095804 0.817386 0.335947
Si Si7 0.866279 0.346586 0.312312
O O1 0.317845 0.775006 0.172648
O O2 0.332123 0.598467 0.356543
O O3 0.187293 0.840861 0.284269
O O4 0.181860 0.542027 0.194625
O O5 0.210899 0.225240 0.147691
O O6 0.293041 0.036070 0.028977
O O7 0.336363 0.380635 0.050379
O O8 0.155073 0.281321 0.945717
O O9 0.343289 0.700221 0.982747
O O10 0.169555 0.775555 0.003204
O O11 0.500000 0.500000 0.500000
O O12 0.121039 0.295634 0.301908
O O13 0.977719 0.319522 0.391595
O O14 0.057578 0.007507 0.368293
O O15 0.000000 0.729631 0.250000
#
# Coordination Sequence:
#
# PCOD9232291 Si02
#       7
#     4   4   4   4   4   4   4
#     4  11  24  39  65  92 127 169 218 269 317 386
#     4  10  24  41  65  96 130 169 219 262 319 390
#     4  11  23  42  67  95 129 169 210 264 324 377
#     4  11  25  48  69  91 125 163 220 277 336 380
#     4  10  22  36  59  92 136 175 206 253 306 381
#     4  10  21  36  56  91 130 177 211 253 307 370
#     4  11  20  37  59  92 132 170 215 247 308 381
#
# _framework density 21.641743999999999
#
# number of rings (size 3 to 8) (size 9 to 14) (size 15 to 20)
#    0.000    1.429    4.286    0.857    4.000    2.857 
#    0.000    0.000    3.143    0.000    0.000    0.000 
#    0.000    0.000    0.000    0.000    0.000    0.000 
#
# Total GULP energy -156391.286443 kJ/mol
# GULP energy per Si atom -5585.403087 kJ/mol
# Density = 2.159249 g / cm^3
# Si number density = 21.641744 Si / 1000 Ang^3
#
#
#
# Elastic Constant Matrix: (Units=GPa)
#
#
# Indices 1 2 3 4 5 6 
#
# 1 107.4585 37.7957 29.2649 0.0000 13.8387 0.0000
# 2 37.7957 79.0469 8.8661 0.0000 9.3184 0.0000
# 3 29.2649 8.8661 46.9535 0.0000 -4.6536 0.0000
# 4 0.0000 0.0000 0.0000 20.8243 0.0000 -1.9696
# 5 13.8387 9.3184 -4.6536 0.0000 23.3686 0.0000
# 6 0.0000 0.0000 0.0000 -1.9696 0.0000 16.8118
#
#
#
# Elastic Compliance Matrix: (Units=1/GPa)
#
#
# Indices 1 2 3 4 5 6 
#
# 1 0.014592 -0.004972 -0.008993 0.000000 -0.008450 0.000000
# 2 -0.004972 0.015424 -0.000134 0.000000 -0.003233 0.000000
# 3 -0.008993 -0.000134 0.028014 0.000000 0.010958 0.000000
# 4 0.000000 0.000000 0.000000 0.048559 0.000000 0.005689
# 5 -0.008450 -0.003233 0.010958 0.000000 0.051267 0.000000
# 6 0.000000 0.000000 0.000000 0.005689 0.000000 0.060148
#
#
# Mechanical properties :
#
#
# Convention : Reuss Voigt Hill
#
# Bulk Modulus (GPa) = 33.52140 42.81247 38.16693
# Shear Modulus (GPa) = 19.51990 22.70308 21.11149
#
# Velocity S-wave (km/s) = 3.00652 3.24240 3.12669
# Velocity P-wave (km/s) = 5.25119 5.81746 5.54157
#
# Compressibility (1/GPa) = 0.02983169
#
# Stress axis : x y z
#
# Youngs Moduli (GPa) = 68.52970 64.83276 35.69592
#
# Poissons Ratio (x) = 0.32237 0.32103
# Poissons Ratio (y) = 0.34075 0.00478
# Poissons Ratio (z) = 0.61632 0.00867
#
# Static dielectric constant tensor:
#      x y z
#    x 1.757910 0.000000 -0.030690 
#    y 0.000000 1.811510 0.000000 
#    z -0.030690 0.000000 1.855710 
# 
# From -- ./inp_files/50101.got.cif
#   From: 2010.05.17/outbox.cif.g08.bks.cpg/sg13_26_cif.got.tgz:50101.got - 2010.06.03 16:44:36.
