data_PCOD9232429
_publ_section_title
;
Structure prediction by ZEFSAII (Michael W. Deem and Ramdas Pophale) SiO2 
 PCOD9232429
Probable space group: P 2/C
;
_chemical_formula_sum "Si O2"
_cell_formula_units_Z 28
_cell_length_a 15.190046
_cell_length_b 5.882942
_cell_length_c 13.384151
_cell_angle_alpha 90.000000
_cell_angle_beta 106.417340
_cell_angle_gamma 90.000000
_cell_volume 1147.272409
_symmetry_space_group_name_H-M "P 2/C"
_symmetry_group_IT_number 13
_symmetry_cell_setting 'monoclinic'
loop_
_space_group_symop_operation_xyz
x,y,z
-x,y,1/2-z
-x,-y,-z
x,-y,1/2+z
loop_
_atom_site_type_symbol
_atom_site_label
_atom_site_fract_x
_atom_site_fract_y
_atom_site_fract_z
Si Si1 0.405182 0.120002 0.444018
Si Si2 0.599664 0.435099 0.243407
Si Si3 0.974730 0.485998 0.624786
Si Si4 0.976356 0.988487 0.624354
Si Si5 0.296043 0.436714 0.540983
Si Si6 0.856287 0.233968 0.875969
Si Si7 0.271635 0.263264 0.851071
O O1 0.410254 0.225560 0.335020
O O2 0.382566 0.309213 0.519494
O O3 0.500000 0.000000 0.500000
O O4 0.317201 0.955754 0.414866
O O5 0.500000 0.502445 0.250000
O O6 0.664952 0.397447 0.360327
O O7 0.648514 0.626757 0.192372
O O8 0.929625 0.236211 0.593404
O O9 0.074477 0.451047 0.603511
O O10 0.000000 0.490338 0.750000
O O11 0.936855 0.738152 0.590191
O O12 0.073623 0.022805 0.597630
O O13 0.000000 0.984444 0.750000
O O14 0.226637 0.269185 0.575058
O O15 0.250425 0.559321 0.431990
O O16 0.810129 0.218803 0.751336
#
# Coordination Sequence:
#
# PCOD9232429 Si02
#       7
#     4   4   4   4   4   4   4
#     4  11  23  38  58  82 111 149 193 243 294 352
#     4  10  21  37  57  78 106 145 189 238 290 353
#     4   8  15  30  54  84 114 150 194 239 291 351
#     4   8  15  29  53  85 116 152 197 240 288 352
#     4  10  22  38  54  81 114 148 188 238 293 351
#     4   9  19  33  55  82 112 153 193 239 294 355
#     4  10  22  37  53  82 113 147 187 242 291 348
#
# _framework density 24.405712000000001
#
# number of rings (size 3 to 8) (size 9 to 14) (size 15 to 20)
#    0.857    1.714    0.000    1.714    0.000   12.000 
#    0.000    0.000    0.000    3.429    0.000    8.000 
#    0.000    0.000    0.000    0.000    0.000    0.000 
#
# Total GULP energy -156357.934307 kJ/mol
# GULP energy per Si atom -5584.211940 kJ/mol
# Density = 2.435016 g / cm^3
# Si number density = 24.405712 Si / 1000 Ang^3
#
#
#
# Elastic Constant Matrix: (Units=GPa)
#
#
# Indices 1 2 3 4 5 6 
#
# 1 100.6956 25.2847 45.4429 0.0000 -2.8020 0.0000
# 2 25.2847 148.3341 48.8060 0.0000 6.3603 0.0000
# 3 45.4429 48.8060 137.2235 0.0000 -11.8628 0.0000
# 4 0.0000 0.0000 0.0000 23.5719 0.0000 6.7879
# 5 -2.8020 6.3603 -11.8628 0.0000 46.5478 0.0000
# 6 0.0000 0.0000 0.0000 6.7879 0.0000 28.5004
#
#
#
# Elastic Compliance Matrix: (Units=1/GPa)
#
#
# Indices 1 2 3 4 5 6 
#
# 1 0.011764 -0.000811 -0.003616 0.000000 -0.000103 0.000000
# 2 -0.000811 0.007837 -0.002675 0.000000 -0.001801 0.000000
# 3 -0.003616 -0.002675 0.009662 0.000000 0.002610 0.000000
# 4 0.000000 0.000000 0.000000 0.045547 0.000000 -0.010848
# 5 -0.000103 -0.001801 0.002610 0.000000 0.022388 0.000000
# 6 0.000000 0.000000 0.000000 -0.010848 0.000000 0.037671
#
#
# Mechanical properties :
#
#
# Convention : Reuss Voigt Hill
#
# Bulk Modulus (GPa) = 66.40462 69.48005 67.94233
# Shear Modulus (GPa) = 32.44819 37.50531 34.97675
#
# Velocity S-wave (km/s) = 3.65023 3.92438 3.78979
# Velocity P-wave (km/s) = 6.71068 7.00464 6.85924
#
# Compressibility (1/GPa) = 0.01505919
#
# Stress axis : x y z
#
# Youngs Moduli (GPa) = 85.00797 127.59969 103.50088
#
# Poissons Ratio (x) = 0.10349 0.37426
# Poissons Ratio (y) = 0.06894 0.27681
# Poissons Ratio (z) = 0.30739 0.34127
#
# Static dielectric constant tensor:
#      x y z
#    x 1.923270 0.000000 -0.009590 
#    y 0.000000 1.963570 0.000000 
#    z -0.009590 0.000000 1.994680 
# 
# From -- ./inp_files/54304.got.cif
#   From: 2010.05.17/outbox.cif.g08.bks.cpg/sg13_28_cif.got.tgz:54304.got - 2010.06.03 16:44:36.
