data_PCOD9232712
_publ_section_title
;
Structure prediction by ZEFSAII (Michael W. Deem and Ramdas Pophale) SiO2 
 PCOD9232712
Probable space group: P 2/C
;
_chemical_formula_sum "Si O2"
_cell_formula_units_Z 32
_cell_length_a 12.472111
_cell_length_b 9.151035
_cell_length_c 22.316960
_cell_angle_alpha 90.000000
_cell_angle_beta 35.723749
_cell_angle_gamma 90.000000
_cell_volume 1487.192403
_symmetry_space_group_name_H-M "P 2/C"
_symmetry_group_IT_number 13
_symmetry_cell_setting 'monoclinic'
loop_
_space_group_symop_operation_xyz
x,y,z
-x,y,1/2-z
-x,-y,-z
x,-y,1/2+z
loop_
_atom_site_type_symbol
_atom_site_label
_atom_site_fract_x
_atom_site_fract_y
_atom_site_fract_z
Si Si1 0.201582 0.884555 0.632370
Si Si2 0.103965 0.403009 0.559347
Si Si3 0.372388 0.093232 0.862537
Si Si4 0.703973 0.918192 0.300585
Si Si5 0.085784 0.058025 0.567831
Si Si6 0.611966 0.564816 0.142551
Si Si7 0.295135 0.559487 0.585001
Si Si8 0.735902 0.417359 0.781638
O O1 0.295764 0.732177 0.573518
O O2 0.000000 0.847790 0.750000
O O3 0.295042 0.976476 0.642922
O O4 0.172308 0.983227 0.587492
O O5 0.128911 0.229498 0.547671
O O6 0.210364 0.475784 0.456515
O O7 0.190809 0.473722 0.580055
O O8 0.886989 0.432590 0.661166
O O9 0.500000 0.038509 0.750000
O O10 0.510179 0.079135 0.855997
O O11 0.338582 0.265825 0.867780
O O12 0.183419 0.015121 0.966233
O O13 0.746966 0.750426 0.299266
O O14 0.866786 0.958621 0.179333
O O15 0.500000 0.506984 0.250000
O O16 0.465462 0.559691 0.154298
O O17 0.500000 0.500000 0.500000
O O18 0.213417 0.524889 0.687624
#
# Coordination Sequence:
#
# PCOD9232712 Si02
#       8
#     4   4   4   4   4   4   4   4
#     4  10  21  38  59  87 117 151 193 235 285 351
#     4  11  22  39  60  86 119 155 191 243 296 346
#     4  10  22  39  60  83 114 155 196 240 289 344
#     4   9  21  39  60  85 117 154 191 239 290 345
#     4  10  22  38  60  87 116 152 194 239 292 344
#     4  10  22  41  61  86 116 154 202 242 289 351
#     4  12  23  35  58  91 120 151 190 240 288 351
#     4  10  21  40  60  84 121 155 192 239 295 348
#
# _framework density 21.517054999999999
#
# number of rings (size 3 to 8) (size 9 to 14) (size 15 to 20)
#    0.000    1.750    1.250    2.625    3.500    5.000 
#    0.000    0.000    0.000    0.000    0.000    0.000 
#    0.000    0.000    0.000    0.000    0.000    0.000 
#
# Total GULP energy -178894.528402 kJ/mol
# GULP energy per Si atom -5590.454013 kJ/mol
# Density = 2.146808 g / cm^3
# Si number density = 21.517055 Si / 1000 Ang^3
#
#
#
# Elastic Constant Matrix: (Units=GPa)
#
#
# Indices 1 2 3 4 5 6 
#
# 1 15.0323 0.7733 -2.8907 0.0000 -2.4518 0.0000
# 2 0.7733 71.8450 41.0312 0.0000 -6.6004 0.0000
# 3 -2.8907 41.0312 133.6913 0.0000 0.9338 0.0000
# 4 0.0000 0.0000 0.0000 40.8006 0.0000 4.1926
# 5 -2.4518 -6.6004 0.9338 0.0000 29.3093 0.0000
# 6 0.0000 0.0000 0.0000 4.1926 0.0000 16.9001
#
#
#
# Elastic Compliance Matrix: (Units=1/GPa)
#
#
# Indices 1 2 3 4 5 6 
#
# 1 0.067808 -0.001281 0.001822 0.000000 0.005326 0.000000
# 2 -0.001281 0.017375 -0.005388 0.000000 0.003977 0.000000
# 3 0.001822 -0.005388 0.009182 0.000000 -0.001354 0.000000
# 4 0.000000 0.000000 0.000000 0.025151 0.000000 -0.006239
# 5 0.005326 0.003977 -0.001354 0.000000 0.035503 0.000000
# 6 0.000000 0.000000 0.000000 -0.006239 0.000000 0.060719
#
#
# Mechanical properties :
#
#
# Convention : Reuss Voigt Hill
#
# Bulk Modulus (GPa) = 11.81032 33.15513 22.48272
# Shear Modulus (GPa) = 19.71165 29.51232 24.61198
#
# Velocity S-wave (km/s) = 3.02999 3.70750 3.38573
# Velocity P-wave (km/s) = 4.21211 5.81116 5.07501
#
# Compressibility (1/GPa) = 0.08467170
#
# Stress axis : x y z
#
# Youngs Moduli (GPa) = 14.74745 57.55315 108.90356
#
# Poissons Ratio (x) = 0.07374 -0.19844
# Poissons Ratio (y) = 0.01889 0.58679
# Poissons Ratio (z) = -0.02687 0.31010
#
# Static dielectric constant tensor:
#      x y z
#    x 1.763780 0.000000 0.029750 
#    y 0.000000 1.730300 0.000000 
#    z 0.029750 0.000000 1.906930 
# 
# From -- ./inp_files/87388.got.cif
#   From: 2010.05.17/outbox.cif.g08.bks.cpg/sg13_44_cif.got.tgz:87388.got - 2010.06.03 16:44:36.
