data_PCOD9232894
_publ_section_title
;
Structure prediction by ZEFSAII (Michael W. Deem and Ramdas Pophale) SiO2 
 PCOD9232894
Probable space group: P 2/C
;
_chemical_formula_sum "Si O2"
_cell_formula_units_Z 20
_cell_length_a 11.073573
_cell_length_b 5.223109
_cell_length_c 21.673789
_cell_angle_alpha 90.000000
_cell_angle_beta 44.515733
_cell_angle_gamma 90.000000
_cell_volume 878.890609
_symmetry_space_group_name_H-M "P 2/C"
_symmetry_group_IT_number 13
_symmetry_cell_setting 'monoclinic'
loop_
_space_group_symop_operation_xyz
x,y,z
-x,y,1/2-z
-x,-y,-z
x,-y,1/2+z
loop_
_atom_site_type_symbol
_atom_site_label
_atom_site_fract_x
_atom_site_fract_y
_atom_site_fract_z
Si Si1 0.287512 0.976836 0.970439
Si Si2 0.493652 0.525370 0.429133
Si Si3 0.964126 0.142512 0.167386
Si Si4 0.294152 0.041601 0.826913
Si Si5 0.832654 0.636657 0.236465
O O1 0.426029 0.193126 0.936979
O O2 0.370375 0.696726 0.947289
O O3 0.237143 0.034224 0.918261
O O4 0.128188 0.022362 0.074094
O O5 0.500000 0.500000 0.500000
O O6 0.681210 0.510195 0.330605
O O7 0.812011 0.170654 0.171788
O O8 0.986909 0.431324 0.181174
O O9 0.887423 0.920437 0.238908
O O10 0.500000 0.011080 0.750000
O O11 0.238123 0.286644 0.806289
#
# Coordination Sequence:
#
# PCOD9232894 Si02
#       5
#     4   4   4   4   4
#     4  12  24  42  68  99 130 170 216 277 333 377
#     4  12  26  46  67  92 130 181 231 263 313 395
#     4  10  23  39  65 102 134 161 209 271 343 390
#     4  10  21  38  66  99 130 167 206 267 325 406
#     4  10  22  41  63  93 133 168 217 257 331 385
#
# _framework density 22.755959000000001
#
# number of rings (size 3 to 8) (size 9 to 14) (size 15 to 20)
#    1.200    0.000    2.000    4.800    2.800    1.600 
#    0.000    6.000    0.000    0.000    0.000    0.000 
#    0.000    0.000    0.000    0.000    0.000    0.000 
#
# Total GULP energy -111629.308275 kJ/mol
# GULP energy per Si atom -5581.465414 kJ/mol
# Density = 2.270417 g / cm^3
# Si number density = 22.755959 Si / 1000 Ang^3
#
#
#
# Elastic Constant Matrix: (Units=GPa)
#
#
# Indices 1 2 3 4 5 6 
#
# 1 75.9027 -12.5749 6.5492 0.0000 20.2530 0.0000
# 2 -12.5749 69.2295 15.3961 0.0000 -0.8033 0.0000
# 3 6.5492 15.3961 87.1902 0.0000 -0.6602 0.0000
# 4 0.0000 0.0000 0.0000 36.9642 0.0000 -23.0471
# 5 20.2530 -0.8033 -0.6602 0.0000 42.6874 0.0000
# 6 0.0000 0.0000 0.0000 -23.0471 0.0000 566.2331
#
#
#
# Elastic Compliance Matrix: (Units=1/GPa)
#
#
# Indices 1 2 3 4 5 6 
#
# 1 0.015860 0.003197 -0.001813 0.000000 -0.007493 0.000000
# 2 0.003197 0.015682 -0.003019 0.000000 -0.001268 0.000000
# 3 -0.001813 -0.003019 0.012146 0.000000 0.000991 0.000000
# 4 0.000000 0.000000 0.000000 0.027758 0.000000 0.001130
# 5 -0.007493 -0.001268 0.000991 0.000000 0.026972 0.000000
# 6 0.000000 0.000000 0.000000 0.001130 0.000000 0.001812
#
#
# Mechanical properties :
#
#
# Convention : Reuss Voigt Hill
#
# Bulk Modulus (GPa) = 24.74079 27.89592 26.31835
# Shear Modulus (GPa) = 42.74522 144.04040 93.39281
#
# Velocity S-wave (km/s) = 4.33877 7.96463 6.41328
# Velocity P-wave (km/s) = 5.99965 9.84204 8.15051
#
# Compressibility (1/GPa) = 0.04041908
#
# Stress axis : x y z
#
# Youngs Moduli (GPa) = 63.05152 63.76711 82.33222
#
# Poissons Ratio (x) = -0.20386 0.14923
# Poissons Ratio (y) = -0.20157 0.24855
# Poissons Ratio (z) = 0.11428 0.19251
#
# Static dielectric constant tensor:
#      x y z
#    x 2.033550 0.000000 0.156640 
#    y 0.000000 1.915760 0.000000 
#    z 0.156640 0.000000 1.995150 
# 
# From -- ./inp_files/85488.got.cif
#   From: 2010.05.17/outbox.cif.g08.bks.cpg/sg13_43_cif.got.tgz:85488.got - 2010.06.03 16:44:36.
