data_PCOD9232630
_publ_section_title
;
Structure prediction by ZEFSAII (Michael W. Deem and Ramdas Pophale) SiO2 
 PCOD9232630
Probable space group: P 2/C
;
_chemical_formula_sum "Si O2"
_cell_formula_units_Z 20
_cell_length_a 10.096700
_cell_length_b 17.696727
_cell_length_c 5.326383
_cell_angle_alpha 90.000000
_cell_angle_beta 101.087789
_cell_angle_gamma 90.000000
_cell_volume 933.945419
_symmetry_space_group_name_H-M "P 2/C"
_symmetry_group_IT_number 13
_symmetry_cell_setting 'monoclinic'
loop_
_space_group_symop_operation_xyz
x,y,z
-x,y,1/2-z
-x,-y,-z
x,-y,1/2+z
loop_
_atom_site_type_symbol
_atom_site_label
_atom_site_fract_x
_atom_site_fract_y
_atom_site_fract_z
Si Si1 0.646729 0.359477 0.413834
Si Si2 0.656540 0.788760 0.227662
Si Si3 0.142727 0.313893 0.409028
Si Si4 0.336845 0.038695 0.725074
Si Si5 0.825088 0.452122 0.779471
O O1 0.500000 0.373255 0.250000
O O2 0.658293 0.272787 0.508176
O O3 0.764522 0.362593 0.248849
O O4 0.676271 0.418423 0.650489
O O5 0.500000 0.788330 0.250000
O O6 0.760831 0.753173 0.463919
O O7 0.692531 0.875840 0.199526
O O8 0.110134 0.372028 0.621795
O O9 0.000000 0.288218 0.250000
O O10 0.500000 0.032479 0.750000
O O11 0.287684 0.016394 0.429136
O O12 0.855130 0.496758 0.534037
#
# Coordination Sequence:
#
# PCOD9232630 Si02
#       5
#     4   4   4   4   4
#     4  11  23  41  68  95 128 168 216 264 324 383
#     4  10  21  37  66  96 130 171 213 264 316 378
#     4  11  25  44  66  96 128 169 218 266 320 383
#     4   9  19  33  57  94 131 163 205 258 314 370
#     4  11  24  45  66  93 127 169 213 269 327 385
#
# _framework density 21.414525999999999
#
# number of rings (size 3 to 8) (size 9 to 14) (size 15 to 20)
#    0.000    1.600    4.000    0.000    2.800    5.600 
#    0.000    0.000    0.000    1.200    0.000    0.000 
#    0.000    0.000    0.000    0.000    0.000    0.000 
#
# Total GULP energy -111430.075651 kJ/mol
# GULP energy per Si atom -5571.503783 kJ/mol
# Density = 2.136579 g / cm^3
# Si number density = 21.414526 Si / 1000 Ang^3
#
#
#
# Elastic Constant Matrix: (Units=GPa)
#
#
# Indices 1 2 3 4 5 6 
#
# 1 97.4128 23.7090 36.5616 0.0000 16.5517 0.0000
# 2 23.7090 88.4188 35.3400 0.0000 -3.2060 0.0000
# 3 36.5616 35.3400 118.6921 0.0000 4.5625 0.0000
# 4 0.0000 0.0000 0.0000 33.9179 0.0000 -3.3537
# 5 16.5517 -3.2060 4.5625 0.0000 35.9866 0.0000
# 6 0.0000 0.0000 0.0000 -3.3537 0.0000 3.0199
#
#
#
# Elastic Compliance Matrix: (Units=1/GPa)
#
#
# Indices 1 2 3 4 5 6 
#
# 1 0.012999 -0.002481 -0.003042 0.000000 -0.005814 0.000000
# 2 -0.002481 0.013407 -0.003334 0.000000 0.002758 0.000000
# 3 -0.003042 -0.003334 0.010363 0.000000 -0.000212 0.000000
# 4 0.000000 0.000000 0.000000 0.033120 0.000000 0.036780
# 5 -0.005814 0.002758 -0.000212 0.000000 0.030735 0.000000
# 6 0.000000 0.000000 0.000000 0.036780 0.000000 0.371980
#
#
# Mechanical properties :
#
#
# Convention : Reuss Voigt Hill
#
# Bulk Modulus (GPa) = 52.47590 55.08277 53.77933
# Shear Modulus (GPa) = 10.06707 28.51242 19.28974
#
# Velocity S-wave (km/s) = 2.17054 3.65287 3.00455
# Velocity P-wave (km/s) = 5.55335 6.60070 6.09955
#
# Compressibility (1/GPa) = 0.01905637
#
# Stress axis : x y z
#
# Youngs Moduli (GPa) = 76.92909 74.58512 96.49670
#
# Poissons Ratio (x) = 0.18501 0.29355
# Poissons Ratio (y) = 0.19082 0.32171
# Poissons Ratio (z) = 0.23403 0.24866
#
# Static dielectric constant tensor:
#      x y z
#    x 1.808030 0.000000 -0.042880 
#    y 0.000000 1.777090 0.000000 
#    z -0.042880 0.000000 1.881140 
# 
# From -- ./inp_files/1601.got.cif
#   From: 2010.05.17/outbox.cif.g08.bks.cpg/sg13_1_cif.got.tgz:1601.got - 2010.06.03 16:44:36.
