data_PCOD9232074
_publ_section_title
;
Structure prediction by ZEFSAII (Michael W. Deem and Ramdas Pophale) SiO2 
 PCOD9232074
Probable space group: P 2/C
;
_chemical_formula_sum "Si O2"
_cell_formula_units_Z 32
_cell_length_a 23.668935
_cell_length_b 8.709305
_cell_length_c 13.460839
_cell_angle_alpha 90.000000
_cell_angle_beta 29.134412
_cell_angle_gamma 90.000000
_cell_volume 1350.947634
_symmetry_space_group_name_H-M "P 2/C"
_symmetry_group_IT_number 13
_symmetry_cell_setting 'monoclinic'
loop_
_space_group_symop_operation_xyz
x,y,z
-x,y,1/2-z
-x,-y,-z
x,-y,1/2+z
loop_
_atom_site_type_symbol
_atom_site_label
_atom_site_fract_x
_atom_site_fract_y
_atom_site_fract_z
Si Si1 0.400836 0.541580 0.073247
Si Si2 0.536583 0.900066 0.542731
Si Si3 0.850850 0.923705 0.700860
Si Si4 0.715891 0.176447 0.022662
Si Si5 0.086609 0.765590 0.709208
Si Si6 0.777109 0.989537 0.620761
Si Si7 0.624230 0.290187 0.560005
Si Si8 0.745075 0.482868 0.526567
O O1 0.282878 0.510482 0.314437
O O2 0.500000 0.500000 0.000000
O O3 0.426716 0.719947 0.014315
O O4 0.395268 0.427823 0.988522
O O5 0.414939 0.888890 0.789439
O O6 0.663245 0.974448 0.361078
O O7 0.500000 0.000000 0.500000
O O8 0.938304 0.851872 0.647846
O O9 0.878582 0.949875 0.542551
O O10 0.741858 0.804172 0.863328
O O11 0.803344 0.080986 0.821337
O O12 0.727265 0.358385 0.996401
O O13 0.747953 0.143605 0.088467
O O14 0.190535 0.866923 0.499350
O O15 0.131483 0.598285 0.671879
O O16 0.000000 0.755111 0.750000
O O17 0.500000 0.203466 0.750000
O O18 0.650985 0.366305 0.624578
#
# Coordination Sequence:
#
# PCOD9232074 Si02
#       8
#     4   4   4   4   4   4   4   4
#     4  12  21  36  55  82 125 169 195 240 295 358
#     4  10  21  32  56  88 125 163 201 231 294 366
#     4  10  24  38  60  92 124 161 201 253 301 369
#     4  10  21  36  58  89 129 162 194 242 295 369
#     4  10  23  45  66  84 113 158 209 268 319 360
#     4  10  21  38  60  90 122 159 201 242 306 363
#     4  11  23  34  55  87 128 169 201 234 290 365
#     4  11  22  39  58  85 120 154 210 248 306 363
#
# _framework density 23.687076999999999
#
# number of rings (size 3 to 8) (size 9 to 14) (size 15 to 20)
#    0.000    1.500    3.750    0.750    7.000    0.500 
#    0.000    2.500    0.000   10.500    0.000    0.000 
#    0.000    0.000    0.000    0.000    0.000    0.000 
#
# Total GULP energy -178467.545147 kJ/mol
# GULP energy per Si atom -5577.110786 kJ/mol
# Density = 2.363316 g / cm^3
# Si number density = 23.687077 Si / 1000 Ang^3
#
#
#
# Elastic Constant Matrix: (Units=GPa)
#
#
# Indices 1 2 3 4 5 6 
#
# 1 136.8517 19.7452 8.0302 0.0000 -14.1054 0.0000
# 2 19.7452 81.0626 7.6231 0.0000 -11.0443 0.0000
# 3 8.0302 7.6231 26.5665 0.0000 -1.2226 0.0000
# 4 0.0000 0.0000 0.0000 12.6989 0.0000 2.5623
# 5 -14.1054 -11.0443 -1.2226 0.0000 38.9328 0.0000
# 6 0.0000 0.0000 0.0000 2.5623 0.0000 23.0104
#
#
#
# Elastic Compliance Matrix: (Units=1/GPa)
#
#
# Indices 1 2 3 4 5 6 
#
# 1 0.007867 -0.001416 -0.001862 0.000000 0.002390 0.000000
# 2 -0.001416 0.013424 -0.003277 0.000000 0.003192 0.000000
# 3 -0.001862 -0.003277 0.039127 0.000000 -0.000376 0.000000
# 4 0.000000 0.000000 0.000000 0.080557 0.000000 -0.008970
# 5 0.002390 0.003192 -0.000376 0.000000 0.027445 0.000000
# 6 0.000000 0.000000 0.000000 -0.008970 0.000000 0.044457
#
#
# Mechanical properties :
#
#
# Convention : Reuss Voigt Hill
#
# Bulk Modulus (GPa) = 21.13745 35.03086 28.08416
# Shear Modulus (GPa) = 20.68193 28.86722 24.77458
#
# Velocity S-wave (km/s) = 2.95809 3.49476 3.23756
# Velocity P-wave (km/s) = 4.53983 5.57724 5.08506
#
# Compressibility (1/GPa) = 0.04730939
#
# Stress axis : x y z
#
# Youngs Moduli (GPa) = 127.11295 74.49308 25.55759
#
# Poissons Ratio (x) = 0.10545 0.04758
# Poissons Ratio (y) = 0.17993 0.08376
# Poissons Ratio (z) = 0.23666 0.24413
#
# Static dielectric constant tensor:
#      x y z
#    x 1.901080 0.000000 -0.064330 
#    y 0.000000 2.108850 0.000000 
#    z -0.064330 0.000000 1.871710 
# 
# From -- ./inp_files/58797.got.cif
#   From: 2010.05.17/outbox.cif.g08.bks.cpg/sg13_30_cif.got.tgz:58797.got - 2010.06.03 16:44:36.
