data_PCOD9232901
_publ_section_title
;
Structure prediction by ZEFSAII (Michael W. Deem and Ramdas Pophale) SiO2 
 PCOD9232901
Probable space group: P 2/C
;
_chemical_formula_sum "Si O2"
_cell_formula_units_Z 30
_cell_length_a 5.327460
_cell_length_b 14.374488
_cell_length_c 23.835399
_cell_angle_alpha 90.000000
_cell_angle_beta 121.233784
_cell_angle_gamma 90.000000
_cell_volume 1560.741286
_symmetry_space_group_name_H-M "P 2/C"
_symmetry_group_IT_number 13
_symmetry_cell_setting 'monoclinic'
loop_
_space_group_symop_operation_xyz
x,y,z
-x,y,1/2-z
-x,-y,-z
x,-y,1/2+z
loop_
_atom_site_type_symbol
_atom_site_label
_atom_site_fract_x
_atom_site_fract_y
_atom_site_fract_z
Si Si1 0.340080 0.607450 0.542524
Si Si2 0.570843 0.896371 0.528204
Si Si3 0.347740 0.609662 0.040284
Si Si4 0.000000 0.143069 0.250000
Si Si5 0.341609 0.135231 0.672183
Si Si6 0.496934 0.218351 0.372726
Si Si7 0.678438 0.213509 0.605360
Si Si8 0.813946 0.924166 0.839531
O O1 0.556168 0.618741 0.514125
O O2 0.366012 0.498467 0.559824
O O3 0.428114 0.678048 0.601590
O O4 0.997339 0.632195 0.489901
O O5 0.415733 0.846543 0.563635
O O6 0.506765 0.830734 0.467908
O O7 0.500000 0.000000 0.500000
O O8 0.891726 0.907831 0.590996
O O9 0.580068 0.678574 0.095964
O O10 0.162558 0.207665 0.314183
O O11 0.155507 0.073914 0.224034
O O12 0.020042 0.185925 0.635410
O O13 0.553400 0.170554 0.647775
O O14 0.297514 0.025380 0.655972
O O15 0.636361 0.167073 0.336057
O O16 0.500000 0.149055 0.750000
#
# Coordination Sequence:
#
# PCOD9232901 Si02
#       8
#     4   4   4   2   4   4   4   4
#     4  10  21  38  67  96 129 159 206 257 326 397
#     4  11  22  35  57  94 124 159 203 259 322 370
#     4  10  21  40  64 100 125 160 203 265 329 377
#     4  10  24  40  58  88 124 170 218 252 312 374
#     4  12  27  42  64  87 126 180 222 253 306 382
#     4  11  22  38  61  90 127 169 204 266 315 388
#     4  12  24  41  65  93 129 164 211 273 318 372
#     4  11  24  39  62  86 132 167 218 260 312 382
#
# _framework density 19.221633000000001
#
# number of rings (size 3 to 8) (size 9 to 14) (size 15 to 20)
#    0.000    1.067    2.667    4.000    7.467    1.067 
#    0.000    0.000    2.933    0.000    0.000    0.000 
#    0.000    0.000    0.000    0.000    0.000    0.000 
#
# Total GULP energy -167139.690042 kJ/mol
# GULP energy per Si atom -5571.323001 kJ/mol
# Density = 1.917788 g / cm^3
# Si number density = 19.221633 Si / 1000 Ang^3
#
#
#
# Elastic Constant Matrix: (Units=GPa)
#
#
# Indices 1 2 3 4 5 6 
#
# 1 60.7456 3.7677 9.4108 0.0000 -3.1341 0.0000
# 2 3.7677 81.2947 9.1815 0.0000 14.0654 0.0000
# 3 9.4108 9.1815 91.2069 0.0000 -0.2481 0.0000
# 4 0.0000 0.0000 0.0000 22.5986 0.0000 -3.9609
# 5 -3.1341 14.0654 -0.2481 0.0000 35.6249 0.0000
# 6 0.0000 0.0000 0.0000 -3.9609 0.0000 18.2510
#
#
#
# Elastic Compliance Matrix: (Units=1/GPa)
#
#
# Indices 1 2 3 4 5 6 
#
# 1 0.016868 -0.000913 -0.001644 0.000000 0.001833 0.000000
# 2 -0.000913 0.013419 -0.001271 0.000000 -0.005387 0.000000
# 3 -0.001644 -0.001271 0.011263 0.000000 0.000436 0.000000
# 4 0.000000 0.000000 0.000000 0.046000 0.000000 0.009983
# 5 0.001833 -0.005387 0.000436 0.000000 0.030362 0.000000
# 6 0.000000 0.000000 0.000000 0.009983 0.000000 0.056958
#
#
# Mechanical properties :
#
#
# Convention : Reuss Voigt Hill
#
# Bulk Modulus (GPa) = 29.50415 30.88523 30.19469
# Shear Modulus (GPa) = 25.79666 29.35404 27.57535
#
# Velocity S-wave (km/s) = 3.66739 3.91210 3.79172
# Velocity P-wave (km/s) = 5.77198 6.04226 5.90867
#
# Compressibility (1/GPa) = 0.03389354
#
# Stress axis : x y z
#
# Youngs Moduli (GPa) = 59.28407 74.52161 88.78774
#
# Poissons Ratio (x) = 0.06806 0.14592
# Poissons Ratio (y) = 0.05414 0.11287
# Poissons Ratio (z) = 0.09743 0.09474
#
# Static dielectric constant tensor:
#      x y z
#    x 1.725510 0.000000 -0.090580 
#    y 0.000000 1.692150 0.000000 
#    z -0.090580 0.000000 1.542130 
# 
# From -- ./inp_files/83745.got.cif
#   From: 2010.05.17/outbox.cif.g08.bks.cpg/sg13_42_cif.got.tgz:83745.got - 2010.06.03 16:44:36.
