data_PCOD9232162
_publ_section_title
;
Structure prediction by ZEFSAII (Michael W. Deem and Ramdas Pophale) SiO2 
 PCOD9232162
Probable space group: P 2/C
;
_chemical_formula_sum "Si O2"
_cell_formula_units_Z 32
_cell_length_a 10.295472
_cell_length_b 19.761715
_cell_length_c 12.224757
_cell_angle_alpha 90.000000
_cell_angle_beta 142.880947
_cell_angle_gamma 90.000000
_cell_volume 1500.959946
_symmetry_space_group_name_H-M "P 2/C"
_symmetry_group_IT_number 13
_symmetry_cell_setting 'monoclinic'
loop_
_space_group_symop_operation_xyz
x,y,z
-x,y,1/2-z
-x,-y,-z
x,-y,1/2+z
loop_
_atom_site_type_symbol
_atom_site_label
_atom_site_fract_x
_atom_site_fract_y
_atom_site_fract_z
Si Si1 0.940911 0.797612 0.466597
Si Si2 0.857874 0.055783 0.966854
Si Si3 0.203484 0.725436 0.471933
Si Si4 0.943457 0.417040 0.584936
Si Si5 0.435904 0.938230 0.033703
Si Si6 0.245904 0.563514 0.090992
Si Si7 0.283510 0.698495 0.027690
Si Si8 0.479759 0.789247 0.476116
O O1 0.971209 0.872000 0.533509
O O2 0.885324 0.746313 0.525497
O O3 0.731734 0.794251 0.245336
O O4 0.138107 0.773648 0.526696
O O5 0.774285 0.044836 0.034422
O O6 0.638403 0.065383 0.751392
O O7 0.000000 0.000000 0.000000
O O8 0.210402 0.648881 0.523042
O O9 0.396600 0.757967 0.533553
O O10 0.000000 0.723725 0.250000
O O11 0.845837 0.489040 0.487491
O O12 0.000000 0.422905 0.750000
O O13 0.148606 0.408126 0.640921
O O14 0.425582 0.865379 0.966366
O O15 0.500000 0.000000 0.000000
O O16 0.500000 0.555125 0.250000
O O17 0.196540 0.622237 0.969540
O O18 0.500000 0.696784 0.250000
O O19 0.359988 0.735037 0.969967
#
# Coordination Sequence:
#
# PCOD9232162 Si02
#       8
#     4   4   4   4   4   4   4   4
#     4   9  15  29  49  73 100 129 172 217 262 296
#     4  10  21  35  54  79 107 141 175 215 263 316
#     4   9  17  28  48  77 102 130 168 224 261 298
#     4  10  21  36  52  80 112 137 175 221 261 315
#     4  10  21  36  53  78 110 139 173 218 262 315
#     4  10  21  35  55  78 107 145 175 213 267 316
#     4   9  15  28  50  74  96 131 171 218 260 301
#     4   9  17  29  49  75 102 129 171 220 261 301
#
# _framework density 21.319687999999999
#
# number of rings (size 3 to 8) (size 9 to 14) (size 15 to 20)
#    0.000    2.500    2.500    0.000    7.000    1.000 
#    0.000    0.000    0.000    3.000    0.000    0.000 
#    0.000    0.000    0.000    0.000    0.000    0.000 
#
# Total GULP energy -178491.844939 kJ/mol
# GULP energy per Si atom -5577.870154 kJ/mol
# Density = 2.127116 g / cm^3
# Si number density = 21.319688 Si / 1000 Ang^3
#
#
#
# Elastic Constant Matrix: (Units=GPa)
#
#
# Indices 1 2 3 4 5 6 
#
# 1 239.0005 115.4554 20.6859 0.0000 -4.9953 0.0000
# 2 115.4554 181.0748 7.0341 0.0000 0.6253 0.0000
# 3 20.6859 7.0341 46.1258 0.0000 12.7036 0.0000
# 4 0.0000 0.0000 0.0000 14.9828 0.0000 0.5603
# 5 -4.9953 0.6253 12.7036 0.0000 11.3690 0.0000
# 6 0.0000 0.0000 0.0000 0.5603 0.0000 56.7238
#
#
#
# Elastic Compliance Matrix: (Units=1/GPa)
#
#
# Indices 1 2 3 4 5 6 
#
# 1 0.006791 -0.004175 -0.004758 0.000000 0.008530 0.000000
# 2 -0.004175 0.008128 0.001821 0.000000 -0.004316 0.000000
# 3 -0.004758 0.001821 0.034871 0.000000 -0.041155 0.000000
# 4 0.000000 0.000000 0.000000 0.066768 0.000000 -0.000660
# 5 0.008530 -0.004316 -0.041155 0.000000 0.137930 0.000000
# 6 0.000000 0.000000 0.000000 -0.000660 0.000000 0.017636
#
#
# Mechanical properties :
#
#
# Convention : Reuss Voigt Hill
#
# Bulk Modulus (GPa) = 28.11577 83.61685 55.86631
# Shear Modulus (GPa) = 16.76717 38.15017 27.45867
#
# Velocity S-wave (km/s) = 2.80744 4.23476 3.59269
# Velocity P-wave (km/s) = 4.87086 7.95088 6.59325
#
# Compressibility (1/GPa) = 0.03556723
#
# Stress axis : x y z
#
# Youngs Moduli (GPa) = 147.25795 123.02464 28.67752
#
# Poissons Ratio (x) = 0.51357 0.13645
# Poissons Ratio (y) = 0.61473 -0.05223
# Poissons Ratio (z) = 0.70067 -0.22407
#
# Static dielectric constant tensor:
#      x y z
#    x 1.811990 0.000000 0.065000 
#    y 0.000000 1.772730 0.000000 
#    z 0.065000 0.000000 0.642390 
# 
# From -- ./inp_files/30811.got.cif
#   From: 2010.05.17/outbox.cif.g08.bks.cpg/sg13_16_cif.got.tgz:30811.got - 2010.06.03 16:44:36.
