data_PCOD9232995
_publ_section_title
;
Structure prediction by ZEFSAII (Michael W. Deem and Ramdas Pophale) SiO2 
 PCOD9232995
Probable space group: P 2/C
;
_chemical_formula_sum "Si O2"
_cell_formula_units_Z 14
_cell_length_a 7.123464
_cell_length_b 17.087701
_cell_length_c 5.223394
_cell_angle_alpha 90.000000
_cell_angle_beta 106.870204
_cell_angle_gamma 90.000000
_cell_volume 608.448105
_symmetry_space_group_name_H-M "P 2/C"
_symmetry_group_IT_number 13
_symmetry_cell_setting 'monoclinic'
loop_
_space_group_symop_operation_xyz
x,y,z
-x,y,1/2-z
-x,-y,-z
x,-y,1/2+z
loop_
_atom_site_type_symbol
_atom_site_label
_atom_site_fract_x
_atom_site_fract_y
_atom_site_fract_z
Si Si1 0.500000 0.165669 0.250000
Si Si2 0.216479 0.467627 0.526130
Si Si3 0.623567 0.312308 0.057935
Si Si4 0.229631 0.948972 0.332033
O O1 0.655467 0.223743 0.169293
O O2 0.622026 0.116360 0.505132
O O3 0.308930 0.520469 0.340631
O O4 0.216833 0.377560 0.441854
O O5 0.000000 0.500000 0.500000
O O6 0.500000 0.344516 0.250000
O O7 0.500000 0.305280 0.750000
O O8 0.000000 0.924538 0.250000
O O9 0.258854 0.017819 0.557285
#
# Coordination Sequence:
#
# PCOD9232995 Si02
#       4
#     2   4   4   4
#     4  10  24  40  66  94 140 174 212 276 340 394
#     4  10  21  39  62  85 119 166 221 273 326 388
#     4  10  23  38  60  94 125 169 220 273 336 393
#     4  10  22  40  67  98 128 173 223 263 320 400
#
# _framework density 23.009356
#
# number of rings (size 3 to 8) (size 9 to 14) (size 15 to 20)
#    0.857    1.143    0.000    2.571    4.000    3.429 
#    0.000    5.714    0.000    0.000    0.000    0.000 
#    0.000    0.000    0.000    0.000    0.000    0.000 
#
# Total GULP energy -78039.481585 kJ/mol
# GULP energy per Si atom -5574.248685 kJ/mol
# Density = 2.295699 g / cm^3
# Si number density = 23.009356 Si / 1000 Ang^3
#
#
#
# Elastic Constant Matrix: (Units=GPa)
#
#
# Indices 1 2 3 4 5 6 
#
# 1 79.2597 56.4236 43.2581 0.0000 6.9084 0.0000
# 2 56.4236 131.9126 29.4792 0.0000 14.3018 0.0000
# 3 43.2581 29.4792 158.9876 0.0000 -12.5492 0.0000
# 4 0.0000 0.0000 0.0000 32.1261 0.0000 -13.2983
# 5 6.9084 14.3018 -12.5492 0.0000 43.8888 0.0000
# 6 0.0000 0.0000 0.0000 -13.2983 0.0000 13.4609
#
#
#
# Elastic Compliance Matrix: (Units=1/GPa)
#
#
# Indices 1 2 3 4 5 6 
#
# 1 0.020586 -0.007617 -0.004347 0.000000 -0.002001 0.000000
# 2 -0.007617 0.011152 -0.000192 0.000000 -0.002490 0.000000
# 3 -0.004347 -0.000192 0.007742 0.000000 0.002960 0.000000
# 4 0.000000 0.000000 0.000000 0.052664 0.000000 0.052028
# 5 -0.002001 -0.002490 0.002960 0.000000 0.024758 0.000000
# 6 0.000000 0.000000 0.000000 0.052028 0.000000 0.125688
#
#
# Mechanical properties :
#
#
# Convention : Reuss Voigt Hill
#
# Bulk Modulus (GPa) = 65.92712 69.83131 67.87921
# Shear Modulus (GPa) = 18.38532 33.96176 26.17354
#
# Velocity S-wave (km/s) = 2.82979 3.84604 3.37637
# Velocity P-wave (km/s) = 6.27626 7.08080 6.69063
#
# Compressibility (1/GPa) = 0.01516827
#
# Stress axis : x y z
#
# Youngs Moduli (GPa) = 48.57692 89.67314 129.17043
#
# Poissons Ratio (x) = 0.68304 0.56147
# Poissons Ratio (y) = 0.37001 0.02477
# Poissons Ratio (z) = 0.21115 0.01720
#
# Static dielectric constant tensor:
#      x y z
#    x 1.837190 0.000000 -0.108200 
#    y 0.000000 1.900430 0.000000 
#    z -0.108200 0.000000 1.660910 
# 
# From -- ./inp_files/1138.got.cif
#   From: 2010.05.17/outbox.cif.g08.bks.cpg/sg13_1_cif.got.tgz:1138.got - 2010.06.03 16:44:36.
