data_PCOD9232960
_publ_section_title
;
Structure prediction by ZEFSAII (Michael W. Deem and Ramdas Pophale) SiO2 
 PCOD9232960
Probable space group: P 2/C
;
_chemical_formula_sum "Si O2"
_cell_formula_units_Z 28
_cell_length_a 8.606806
_cell_length_b 18.269191
_cell_length_c 8.271485
_cell_angle_alpha 90.000000
_cell_angle_beta 91.608452
_cell_angle_gamma 90.000000
_cell_volume 1300.090739
_symmetry_space_group_name_H-M "P 2/C"
_symmetry_group_IT_number 13
_symmetry_cell_setting 'monoclinic'
loop_
_space_group_symop_operation_xyz
x,y,z
-x,y,1/2-z
-x,-y,-z
x,-y,1/2+z
loop_
_atom_site_type_symbol
_atom_site_label
_atom_site_fract_x
_atom_site_fract_y
_atom_site_fract_z
Si Si1 0.000000 0.653934 0.250000
Si Si2 0.713639 0.562412 0.153904
Si Si3 0.870304 0.056768 0.926416
Si Si4 0.763659 0.800489 0.823119
Si Si5 0.393075 0.410894 0.479894
Si Si6 0.928366 0.221663 0.985379
Si Si7 0.500000 0.294193 0.250000
Si Si8 0.320441 0.041693 0.277640
O O1 0.118950 0.601746 0.354036
O O2 0.906163 0.710135 0.364787
O O3 0.693861 0.475346 0.122986
O O4 0.668609 0.582153 0.338361
O O5 0.580388 0.585894 0.021564
O O6 0.796284 0.023564 0.765422
O O7 0.920395 0.140369 0.910982
O O8 0.720534 0.059204 0.040300
O O9 0.000000 0.000000 0.000000
O O10 0.820677 0.782606 0.641796
O O11 0.606329 0.759177 0.857851
O O12 0.735912 0.887498 0.825950
O O13 0.897063 0.772980 0.943398
O O14 0.390136 0.342309 0.361321
O O15 0.500000 0.027771 0.250000
#
# Coordination Sequence:
#
# PCOD9232960 Si02
#       8
#     2   4   4   4   4   4   2   4
#     4  12  24  40  62  92 132 152 200 270 306 350
#     4  10  22  41  62  91 125 157 199 253 299 369
#     4  11  22  38  65  86 122 169 214 252 309 379
#     4  10  21  39  60  88 123 159 206 251 309 369
#     4  10  21  39  64  90 120 162 202 235 309 377
#     4  10  23  39  59  89 122 165 206 250 313 372
#     4  12  20  36  68  90 118 160 202 254 302 372
#     4  11  22  39  59  92 123 159 207 271 307 362
#
# _framework density 21.536957000000001
#
# number of rings (size 3 to 8) (size 9 to 14) (size 15 to 20)
#    0.000    1.429    2.143    4.286    2.000    0.571 
#    0.000    1.429    3.143    0.000    0.000    0.000 
#    0.000    0.000    0.000    0.000    0.000    0.000 
#
# Total GULP energy -156017.602113 kJ/mol
# GULP energy per Si atom -5572.057218 kJ/mol
# Density = 2.148794 g / cm^3
# Si number density = 21.536957 Si / 1000 Ang^3
#
#
#
# Elastic Constant Matrix: (Units=GPa)
#
#
# Indices 1 2 3 4 5 6 
#
# 1 86.3383 43.9560 15.0411 0.0000 5.8537 0.0000
# 2 43.9560 124.3889 24.5479 0.0000 25.3495 0.0000
# 3 15.0411 24.5479 63.1524 0.0000 -3.5417 0.0000
# 4 0.0000 0.0000 0.0000 813.8701 0.0000 173.5688
# 5 5.8537 25.3495 -3.5417 0.0000 22.6549 0.0000
# 6 0.0000 0.0000 0.0000 173.5688 0.0000 64.4201
#
#
#
# Elastic Compliance Matrix: (Units=1/GPa)
#
#
# Indices 1 2 3 4 5 6 
#
# 1 0.014323 -0.005198 -0.001283 0.000000 0.001915 0.000000
# 2 -0.005198 0.013929 -0.005019 0.000000 -0.015028 0.000000
# 3 -0.001283 -0.005019 0.018588 0.000000 0.008854 0.000000
# 4 0.000000 0.000000 0.000000 0.002888 0.000000 -0.007782
# 5 0.001915 -0.015028 0.008854 0.000000 0.061845 0.000000
# 6 0.000000 0.000000 0.000000 -0.007782 0.000000 0.036491
#
#
# Mechanical properties :
#
#
# Convention : Reuss Voigt Hill
#
# Bulk Modulus (GPa) = 41.94908 48.99662 45.47285
# Shear Modulus (GPa) = 27.93126 192.87799 110.40462
#
# Velocity S-wave (km/s) = 3.60516 9.47371 7.16758
# Velocity P-wave (km/s) = 6.07038 11.93598 9.46882
#
# Compressibility (1/GPa) = 0.02383843
#
# Stress axis : x y z
#
# Youngs Moduli (GPa) = 69.81981 71.79114 53.79864
#
# Poissons Ratio (x) = 0.37320 0.06903
# Poissons Ratio (y) = 0.36295 0.27002
# Poissons Ratio (z) = 0.08959 0.36033
#
# Static dielectric constant tensor:
#      x y z
#    x 1.830060 0.000000 -0.037420 
#    y 0.000000 1.807560 0.000000 
#    z -0.037420 0.000000 1.809840 
# 
# From -- ./inp_files/13158.got.cif
#   From: 2010.05.17/outbox.cif.g08.bks.cpg/sg13_7_cif.got.tgz:13158.got - 2010.06.03 16:44:36.
