data_PCOD9232896
_publ_section_title
;
Structure prediction by ZEFSAII (Michael W. Deem and Ramdas Pophale) SiO2 
 PCOD9232896
Probable space group: P 2/C
;
_chemical_formula_sum "Si O2"
_cell_formula_units_Z 28
_cell_length_a 14.450066
_cell_length_b 15.366248
_cell_length_c 5.439427
_cell_angle_alpha 90.000000
_cell_angle_beta 118.031245
_cell_angle_gamma 90.000000
_cell_volume 1066.104408
_symmetry_space_group_name_H-M "P 2/C"
_symmetry_group_IT_number 13
_symmetry_cell_setting 'monoclinic'
loop_
_space_group_symop_operation_xyz
x,y,z
-x,y,1/2-z
-x,-y,-z
x,-y,1/2+z
loop_
_atom_site_type_symbol
_atom_site_label
_atom_site_fract_x
_atom_site_fract_y
_atom_site_fract_z
Si Si1 0.097147 0.273202 0.187726
Si Si2 0.615216 0.593084 0.358110
Si Si3 0.238124 0.191873 0.692111
Si Si4 0.674013 0.977696 0.327409
Si Si5 0.153196 0.541986 0.726228
Si Si6 0.611446 0.702824 0.845696
Si Si7 0.113408 0.904670 0.392972
O O1 0.199281 0.270919 0.486313
O O2 0.112455 0.364674 0.072670
O O3 0.000000 0.277609 0.250000
O O4 0.100039 0.181869 0.045674
O O5 0.500000 0.548354 0.250000
O O6 0.720080 0.541822 0.570610
O O7 0.611206 0.663997 0.574345
O O8 0.620070 0.634249 0.087719
O O9 0.305097 0.124386 0.622693
O O10 0.139234 0.136868 0.661265
O O11 0.297560 0.227939 0.000945
O O12 0.620092 0.011215 0.500827
O O13 0.785050 0.033725 0.433118
O O14 0.118661 0.476931 0.465030
O O15 0.500000 0.747279 0.750000
O O16 0.000000 0.949942 0.250000
#
# Coordination Sequence:
#
# PCOD9232896 Si02
#       7
#     4   4   4   4   4   4   4
#     4  12  25  43  67  93 125 176 229 263 322 392
#     4  10  21  41  69  99 130 162 212 273 331 391
#     4  11  22  39  65  92 133 175 212 267 322 390
#     4  10  22  37  58  94 132 167 208 264 328 375
#     4  12  28  45  68  95 133 172 213 271 329 387
#     4  10  21  38  67 100 129 170 218 264 318 387
#     4  11  23  38  64  94 131 171 220 275 328 383
#
# _framework density 26.263843000000001
#
# number of rings (size 3 to 8) (size 9 to 14) (size 15 to 20)
#    0.000    1.143    4.286    1.714    2.000    4.000 
#    0.000    0.000    0.000    3.429    0.000    0.000 
#    0.000    0.000    0.000    0.000    0.000    0.000 
#
# Total GULP energy -156399.106100 kJ/mol
# GULP energy per Si atom -5585.682361 kJ/mol
# Density = 2.620407 g / cm^3
# Si number density = 26.263843 Si / 1000 Ang^3
#
#
#
# Elastic Constant Matrix: (Units=GPa)
#
#
# Indices 1 2 3 4 5 6 
#
# 1 66.9685 7.4374 36.7929 0.0000 -1.8446 0.0000
# 2 7.4374 89.4806 25.8817 0.0000 -1.2125 0.0000
# 3 36.7929 25.8817 96.6407 0.0000 -6.2948 0.0000
# 4 0.0000 0.0000 0.0000 46.6713 0.0000 -19.8583
# 5 -1.8446 -1.2125 -6.2948 0.0000 43.8768 0.0000
# 6 0.0000 0.0000 0.0000 -19.8583 0.0000 -22.7299
#
#
#
# Elastic Compliance Matrix: (Units=1/GPa)
#
#
# Indices 1 2 3 4 5 6 
#
# 1 0.018910 0.000555 -0.007364 0.000000 -0.000246 0.000000
# 2 0.000555 0.012131 -0.003469 0.000000 -0.000139 0.000000
# 3 -0.007364 -0.003469 0.014186 0.000000 0.001630 0.000000
# 4 0.000000 0.000000 0.000000 0.015620 0.000000 -0.013647
# 5 -0.000246 -0.000139 0.001630 0.000000 0.023011 0.000000
# 6 0.000000 0.000000 0.000000 -0.013647 0.000000 -0.032072
#
#
# Mechanical properties :
#
#
# Convention : Reuss Voigt Hill
#
# Bulk Modulus (GPa) = 40.53369 43.70154 42.11761
# Shear Modulus (GPa) = 62.06118 25.76216 43.91167
#
# Velocity S-wave (km/s) = 4.86633 3.13533 4.09338
# Velocity P-wave (km/s) = 6.85869 5.45734 6.19775
#
# Compressibility (1/GPa) = 0.02467083
#
# Stress axis : x y z
#
# Youngs Moduli (GPa) = 52.88263 82.43312 70.48974
#
# Poissons Ratio (x) = -0.04574 0.51908
# Poissons Ratio (y) = -0.02935 0.24454
# Poissons Ratio (z) = 0.38943 0.28598
#
# Static dielectric constant tensor:
#      x y z
#    x 2.117030 0.000000 -0.002440 
#    y 0.000000 2.044570 0.000000 
#    z -0.002440 0.000000 2.097000 
# 
# From -- ./inp_files/6244.got.cif
#   From: 2010.05.17/outbox.cif.g08.bks.cpg/sg13_4_cif.got.tgz:6244.got - 2010.06.03 16:44:36.
