data_PCOD9232076
_publ_section_title
;
Structure prediction by ZEFSAII (Michael W. Deem and Ramdas Pophale) SiO2 
 PCOD9232076
Probable space group: P 2/C
;
_chemical_formula_sum "Si O2"
_cell_formula_units_Z 28
_cell_length_a 12.563600
_cell_length_b 18.855452
_cell_length_c 5.550200
_cell_angle_alpha 90.000000
_cell_angle_beta 102.039184
_cell_angle_gamma 90.000000
_cell_volume 1285.881174
_symmetry_space_group_name_H-M "P 2/C"
_symmetry_group_IT_number 13
_symmetry_cell_setting 'monoclinic'
loop_
_space_group_symop_operation_xyz
x,y,z
-x,y,1/2-z
-x,-y,-z
x,-y,1/2+z
loop_
_atom_site_type_symbol
_atom_site_label
_atom_site_fract_x
_atom_site_fract_y
_atom_site_fract_z
Si Si1 0.113339 0.281546 0.903102
Si Si2 0.278922 0.670030 0.118781
Si Si3 0.878868 0.421387 0.297657
Si Si4 0.745967 0.842658 0.869804
Si Si5 0.043821 0.919572 0.520875
Si Si6 0.319138 0.524198 0.275741
Si Si7 0.375074 0.186055 0.674753
O O1 0.189465 0.284375 0.709489
O O2 0.000000 0.256708 0.750000
O O3 0.098435 0.362412 0.987721
O O4 0.174203 0.227114 0.108616
O O5 0.320147 0.608157 0.315035
O O6 0.368231 0.728867 0.107622
O O7 0.209674 0.624421 0.896529
O O8 0.804375 0.490430 0.320298
O O9 0.000000 0.438627 0.250000
O O10 0.827176 0.909146 0.926227
O O11 0.680993 0.847260 0.588952
O O12 0.678349 0.832347 0.087727
O O13 0.000000 0.886802 0.750000
O O14 0.000000 0.000000 0.500000
O O15 0.000000 0.889028 0.250000
O O16 0.369924 0.490320 0.538059
O O17 0.500000 0.164939 0.750000
#
# Coordination Sequence:
#
# PCOD9232076 Si02
#       7
#     4   4   4   4   4   4   4
#     4  11  20  32  50  82 119 158 194 244 312 395
#     4  10  21  36  51  75 112 156 203 268 326 382
#     4  11  20  31  49  74 114 156 200 242 330 400
#     4  11  23  40  64  96 131 171 210 266 314 373
#     4  10  21  39  66 105 146 183 210 236 293 382
#     4  10  21  33  50  70 103 150 199 255 317 391
#     4  11  24  42  65  91 121 169 228 287 336 366
#
# _framework density 21.774953
#
# number of rings (size 3 to 8) (size 9 to 14) (size 15 to 20)
#    0.000    1.429    4.286    1.714    0.000    4.571 
#    0.000    0.000    0.000    3.429    0.000   40.000 
#    0.000    0.000    0.000    0.000    0.000    0.000 
#
# Total GULP energy -155893.326511 kJ/mol
# GULP energy per Si atom -5567.618804 kJ/mol
# Density = 2.172539 g / cm^3
# Si number density = 21.774953 Si / 1000 Ang^3
#
#
#
# Elastic Constant Matrix: (Units=GPa)
#
#
# Indices 1 2 3 4 5 6 
#
# 1 83.1143 30.6588 45.7347 0.0000 3.2340 0.0000
# 2 30.6588 68.2763 17.0473 0.0000 -0.1623 0.0000
# 3 45.7347 17.0473 151.8570 0.0000 0.6956 0.0000
# 4 0.0000 0.0000 0.0000 -8.5278 0.0000 11.1399
# 5 3.2340 -0.1623 0.6956 0.0000 31.8707 0.0000
# 6 0.0000 0.0000 0.0000 11.1399 0.0000 15.2579
#
#
#
# Elastic Compliance Matrix: (Units=1/GPa)
#
#
# Indices 1 2 3 4 5 6 
#
# 1 0.016887 -0.006501 -0.004348 0.000000 -0.001652 0.000000
# 2 -0.006501 0.017572 -0.000018 0.000000 0.000750 0.000000
# 3 -0.004348 -0.000018 0.007896 0.000000 0.000269 0.000000
# 4 0.000000 0.000000 0.000000 -0.060020 0.000000 0.043821
# 5 -0.001652 0.000750 0.000269 0.000000 0.031542 0.000000
# 6 0.000000 0.000000 0.000000 0.043821 0.000000 0.033546
#
#
# Mechanical properties :
#
#
# Convention : Reuss Voigt Hill
#
# Bulk Modulus (GPa) = 48.49882 54.45883 51.47882
# Shear Modulus (GPa) = 65.76305 21.70727 43.73516
#
# Velocity S-wave (km/s) = 5.50153 3.16078 4.48650
# Velocity P-wave (km/s) = 7.91687 6.19555 7.10851
#
# Compressibility (1/GPa) = 0.02061906
#
# Stress axis : x y z
#
# Youngs Moduli (GPa) = 59.21804 56.90897 126.65358
#
# Poissons Ratio (x) = 0.36997 0.55074
# Poissons Ratio (y) = 0.38498 0.00230
# Poissons Ratio (z) = 0.25750 0.00103
#
# Static dielectric constant tensor:
#      x y z
#    x 0.140050 0.000000 -0.594320 
#    y 0.000000 1.958440 0.000000 
#    z -0.594320 0.000000 1.679620 
# 
# From -- ./inp_files/4146.got.cif
#   From: 2010.05.17/outbox.cif.g08.bks.cpg/sg13_3_cif.got.tgz:4146.got - 2010.06.03 16:44:36.
