data_PCOD9232198
_publ_section_title
;
Structure prediction by ZEFSAII (Michael W. Deem and Ramdas Pophale) SiO2 
 PCOD9232198
Probable space group: P 2/C
;
_chemical_formula_sum "Si O2"
_cell_formula_units_Z 20
_cell_length_a 31.061242
_cell_length_b 5.123724
_cell_length_c 13.430238
_cell_angle_alpha 90.000000
_cell_angle_beta 157.982596
_cell_angle_gamma 90.000000
_cell_volume 801.290588
_symmetry_space_group_name_H-M "P 2/C"
_symmetry_group_IT_number 13
_symmetry_cell_setting 'monoclinic'
loop_
_space_group_symop_operation_xyz
x,y,z
-x,y,1/2-z
-x,-y,-z
x,-y,1/2+z
loop_
_atom_site_type_symbol
_atom_site_label
_atom_site_fract_x
_atom_site_fract_y
_atom_site_fract_z
Si Si1 0.675670 0.076304 0.713143
Si Si2 0.318758 0.724203 0.493451
Si Si3 0.540542 0.434341 0.952675
Si Si4 0.145417 0.956950 0.262919
Si Si5 0.912494 0.533405 0.971835
O O1 0.662517 0.112334 0.566596
O O2 0.584762 0.140005 0.055605
O O3 0.645535 0.362840 0.690715
O O4 0.805088 0.997329 0.021029
O O5 0.429829 0.565303 0.766647
O O6 0.265653 0.916912 0.460763
O O7 0.214697 0.518976 0.255033
O O8 0.500000 0.453010 0.750000
O O9 0.076137 0.700498 0.083725
O O10 0.084698 0.199635 0.082094
O O11 0.000000 0.520790 0.250000
#
# Coordination Sequence:
#
# PCOD9232198 Si02
#       5
#     4   4   4   4   4
#     4  11  22  38  60  91 127 155 199 249 289 368
#     4   9  24  39  64  87 127 164 201 238 314 349
#     4  10  21  35  59  89 125 161 193 236 297 364
#     4  10  23  39  63  90 121 154 211 247 301 362
#     4  10  22  43  63  84 120 162 205 260 305 348
#
# _framework density 24.959733
#
# number of rings (size 3 to 8) (size 9 to 14) (size 15 to 20)
#    1.200    0.800    0.000    3.600    8.400    1.600 
#    0.000    2.000    0.000    0.000    0.000    0.000 
#    0.000    0.000    0.000    0.000    0.000    0.000 
#
# Total GULP energy -111777.791970 kJ/mol
# GULP energy per Si atom -5588.889598 kJ/mol
# Density = 2.490292 g / cm^3
# Si number density = 24.959733 Si / 1000 Ang^3
#
#
#
# Elastic Constant Matrix: (Units=GPa)
#
#
# Indices 1 2 3 4 5 6 
#
# 1 70.1715 13.8592 11.4265 0.0000 6.3043 0.0000
# 2 13.8592 125.5770 28.4252 0.0000 -10.9038 0.0000
# 3 11.4265 28.4252 158.8323 0.0000 -16.9659 0.0000
# 4 0.0000 0.0000 0.0000 36.4603 0.0000 -5.6937
# 5 6.3043 -10.9038 -16.9659 0.0000 33.6890 0.0000
# 6 0.0000 0.0000 0.0000 -5.6937 0.0000 -9.7696
#
#
#
# Elastic Compliance Matrix: (Units=1/GPa)
#
#
# Indices 1 2 3 4 5 6 
#
# 1 0.015152 -0.001747 -0.001205 0.000000 -0.004008 0.000000
# 2 -0.001747 0.008637 -0.001148 0.000000 0.002544 0.000000
# 3 -0.001205 -0.001148 0.006946 0.000000 0.003352 0.000000
# 4 0.000000 0.000000 0.000000 0.025139 0.000000 -0.014651
# 5 -0.004008 0.002544 0.003352 0.000000 0.032945 0.000000
# 6 0.000000 0.000000 0.000000 -0.014651 0.000000 -0.093820
#
#
# Mechanical properties :
#
#
# Convention : Reuss Voigt Hill
#
# Bulk Modulus (GPa) = 44.37898 51.33363 47.85630
# Shear Modulus (GPa) = 466.73638 32.13394 249.43516
#
# Velocity S-wave (km/s) = 13.68947 3.59197 10.00760
# Velocity P-wave (km/s) = 16.36117 6.14933 12.35925
#
# Compressibility (1/GPa) = 0.02253319
#
# Stress axis : x y z
#
# Youngs Moduli (GPa) = 65.99650 115.78209 143.96321
#
# Poissons Ratio (x) = 0.20232 0.17354
# Poissons Ratio (y) = 0.11532 0.16530
# Poissons Ratio (z) = 0.07956 0.13294
#
# Static dielectric constant tensor:
#      x y z
#    x 2.084690 0.000000 0.040350 
#    y 0.000000 1.918480 0.000000 
#    z 0.040350 0.000000 1.956520 
# 
# From -- ./inp_files/42491.got.cif
#   From: 2010.05.17/outbox.cif.g08.bks.cpg/sg13_22_cif.got.tgz:42491.got - 2010.06.03 16:44:36.
