data_PCOD9232435
_publ_section_title
;
Structure prediction by ZEFSAII (Michael W. Deem and Ramdas Pophale) SiO2 
 PCOD9232435
Probable space group: P 2/C
;
_chemical_formula_sum "Si O2"
_cell_formula_units_Z 20
_cell_length_a 8.794921
_cell_length_b 23.549934
_cell_length_c 9.887359
_cell_angle_alpha 90.000000
_cell_angle_beta 148.715827
_cell_angle_gamma 90.000000
_cell_volume 1063.423118
_symmetry_space_group_name_H-M "P 2/C"
_symmetry_group_IT_number 13
_symmetry_cell_setting 'monoclinic'
loop_
_space_group_symop_operation_xyz
x,y,z
-x,y,1/2-z
-x,-y,-z
x,-y,1/2+z
loop_
_atom_site_type_symbol
_atom_site_label
_atom_site_fract_x
_atom_site_fract_y
_atom_site_fract_z
Si Si1 0.655497 0.171849 0.511267
Si Si2 0.690382 0.531258 0.759165
Si Si3 0.335733 0.728581 0.267005
Si Si4 0.351106 0.958438 0.493986
Si Si5 0.827420 0.655792 0.760441
O O1 0.625659 0.216350 0.610018
O O2 0.571761 0.107127 0.483589
O O3 0.000000 0.170161 0.750000
O O4 0.500000 0.187169 0.250000
O O5 0.500000 0.527331 0.750000
O O6 0.500000 0.500000 0.500000
O O7 0.771103 0.596548 0.790070
O O8 0.000000 0.500000 0.000000
O O9 0.500000 0.738988 0.250000
O O10 0.514474 0.680516 0.481781
O O11 0.017476 0.702352 0.988877
O O12 0.000000 0.964170 0.250000
O O13 0.500000 0.000000 0.500000
O O14 0.500000 0.970282 0.750000
O O15 0.000000 0.646101 0.750000
#
# Coordination Sequence:
#
# PCOD9232435 Si02
#       5
#     4   4   4   4   4
#     4  10  21  37  57  83 117 153 192 243 297 349
#     4  12  25  42  64  90 119 155 196 240 293 351
#     4  10  21  37  58  84 114 151 193 237 289 346
#     4  10  21  38  59  86 119 157 200 247 300 354
#     4  10  21  38  59  85 117 150 190 241 289 342
#
# _framework density 18.807189000000001
#
# number of rings (size 3 to 8) (size 9 to 14) (size 15 to 20)
#    0.000    1.600    0.000    4.800    0.000    4.800 
#    0.000    3.000    0.000    0.000    0.000    0.000 
#    0.000    0.000    0.000    0.000    0.000    0.000 
#
# Total GULP energy -111608.798202 kJ/mol
# GULP energy per Si atom -5580.439910 kJ/mol
# Density = 1.876438 g / cm^3
# Si number density = 18.807189 Si / 1000 Ang^3
#
#
#
# Elastic Constant Matrix: (Units=GPa)
#
#
# Indices 1 2 3 4 5 6 
#
# 1 91.0919 85.3415 51.6810 0.0000 -16.4686 0.0000
# 2 85.3415 127.7426 46.8527 0.0000 -32.5157 0.0000
# 3 51.6810 46.8527 149.4347 0.0000 -13.4375 0.0000
# 4 0.0000 0.0000 0.0000 60.5781 0.0000 -27.8606
# 5 -16.4686 -32.5157 -13.4375 0.0000 26.8649 0.0000
# 6 0.0000 0.0000 0.0000 -27.8606 0.0000 64.7422
#
#
#
# Elastic Compliance Matrix: (Units=1/GPa)
#
#
# Indices 1 2 3 4 5 6 
#
# 1 0.034112 -0.023384 -0.005372 0.000000 -0.010079 0.000000
# 2 -0.023384 0.028251 0.001063 0.000000 0.020390 0.000000
# 3 -0.005372 0.001063 0.008414 0.000000 0.002203 0.000000
# 4 0.000000 0.000000 0.000000 0.020581 0.000000 0.008857
# 5 -0.010079 0.020390 0.002203 0.000000 0.056825 0.000000
# 6 0.000000 0.000000 0.000000 0.008857 0.000000 0.019257
#
#
# Mechanical properties :
#
#
# Convention : Reuss Voigt Hill
#
# Bulk Modulus (GPa) = 64.97300 81.77995 73.37648
# Shear Modulus (GPa) = 21.93406 42.72998 32.33202
#
# Velocity S-wave (km/s) = 3.41876 4.77172 4.15074
# Velocity P-wave (km/s) = 7.08560 8.59866 7.87854
#
# Compressibility (1/GPa) = 0.01539101
#
# Stress axis : x y z
#
# Youngs Moduli (GPa) = 29.31561 35.39725 118.84397
#
# Poissons Ratio (x) = 0.82774 0.63841
# Poissons Ratio (y) = 0.68552 -0.12636
# Poissons Ratio (z) = 0.15748 -0.03764
#
# Static dielectric constant tensor:
#      x y z
#    x 1.643590 0.000000 0.002780 
#    y 0.000000 1.677420 0.000000 
#    z 0.002780 0.000000 1.639890 
# 
# From -- ./inp_files/13793.got.cif
#   From: 2010.05.17/outbox.cif.g08.bks.cpg/sg13_7_cif.got.tgz:13793.got - 2010.06.03 16:44:36.
