data_PCOD9232063
_publ_section_title
;
Structure prediction by ZEFSAII (Michael W. Deem and Ramdas Pophale) SiO2 
 PCOD9232063
Probable space group: P 2/C
;
_chemical_formula_sum "Si O2"
_cell_formula_units_Z 28
_cell_length_a 18.305754
_cell_length_b 11.206567
_cell_length_c 23.124269
_cell_angle_alpha 90.000000
_cell_angle_beta 162.492947
_cell_angle_gamma 90.000000
_cell_volume 1427.051185
_symmetry_space_group_name_H-M "P 2/C"
_symmetry_group_IT_number 13
_symmetry_cell_setting 'monoclinic'
loop_
_space_group_symop_operation_xyz
x,y,z
-x,y,1/2-z
-x,-y,-z
x,-y,1/2+z
loop_
_atom_site_type_symbol
_atom_site_label
_atom_site_fract_x
_atom_site_fract_y
_atom_site_fract_z
Si Si1 0.742007 0.868109 0.079241
Si Si2 0.331215 0.201099 0.175597
Si Si3 0.003807 0.982808 0.933074
Si Si4 0.252732 0.147515 0.415579
Si Si5 0.946255 0.363642 0.445254
Si Si6 0.628054 0.789655 0.619303
Si Si7 0.633380 0.776389 0.295247
O O1 0.000000 0.824028 0.250000
O O2 0.776747 0.007364 0.120329
O O3 0.525945 0.854069 0.868609
O O4 0.641753 0.797813 0.059163
O O5 0.500000 0.239974 0.250000
O O6 0.180946 0.301965 0.095659
O O7 0.127572 0.103336 0.003759
O O8 0.184993 0.880202 0.047407
O O9 0.747914 0.919864 0.726089
O O10 0.000000 0.000000 0.000000
O O11 0.342523 0.216440 0.426804
O O12 0.443823 0.160580 0.610602
O O13 0.000000 0.194073 0.250000
O O14 0.771879 0.316138 0.261084
O O15 0.000000 0.500000 0.500000
O O16 0.204015 0.308910 0.621073
O O17 0.500000 0.721823 0.250000
#
# Coordination Sequence:
#
# PCOD9232063 Si02
#       7
#     4   4   4   4   4   4   4
#     4  10  21  32  49  84 128 159 183 227 296 375
#     4  11  22  35  59  87 120 156 200 248 299 360
#     4  11  17  34  57  85 122 154 193 234 298 361
#     4  11  21  32  52  90 124 155 184 223 303 372
#     4  10  23  43  62  81 108 156 219 264 292 334
#     4  10  21  36  57  85 121 155 196 247 294 359
#     4  11  21  36  61  88 118 156 191 244 295 362
#
# _framework density 19.620878999999999
#
# number of rings (size 3 to 8) (size 9 to 14) (size 15 to 20)
#    0.000    1.429    5.714    2.571    4.000    1.714 
#    0.000    0.714    0.000    3.429    0.000    0.000 
#    0.000    0.000    0.000    0.000    0.000    0.000 
#
# Total GULP energy -156183.940276 kJ/mol
# GULP energy per Si atom -5577.997867 kJ/mol
# Density = 1.957622 g / cm^3
# Si number density = 19.620879 Si / 1000 Ang^3
#
#
#
# Elastic Constant Matrix: (Units=GPa)
#
#
# Indices 1 2 3 4 5 6 
#
# 1 144.4937 32.1359 28.2430 0.0000 41.3458 0.0000
# 2 32.1359 95.6926 18.4564 0.0000 20.2661 0.0000
# 3 28.2430 18.4564 70.4919 0.0000 38.5592 0.0000
# 4 0.0000 0.0000 0.0000 4.8874 0.0000 -2.2718
# 5 41.3458 20.2661 38.5592 0.0000 38.4537 0.0000
# 6 0.0000 0.0000 0.0000 -2.2718 0.0000 3.9970
#
#
#
# Elastic Compliance Matrix: (Units=1/GPa)
#
#
# Indices 1 2 3 4 5 6 
#
# 1 0.010698 -0.001206 0.004372 0.000000 -0.015251 0.000000
# 2 -0.001206 0.011914 0.000197 0.000000 -0.005180 0.000000
# 3 0.004372 0.000197 0.033247 0.000000 -0.038143 0.000000
# 4 0.000000 0.000000 0.000000 0.278069 0.000000 0.158047
# 5 -0.015251 -0.005180 -0.038143 0.000000 0.083381 0.000000
# 6 0.000000 0.000000 0.000000 0.158047 0.000000 0.340020
#
#
# Mechanical properties :
#
#
# Convention : Reuss Voigt Hill
#
# Bulk Modulus (GPa) = 15.97796 52.03875 34.00835
# Shear Modulus (GPa) = 6.48117 24.92380 15.70248
#
# Velocity S-wave (km/s) = 1.81944 3.56795 2.83202
# Velocity P-wave (km/s) = 3.54610 6.59950 5.29756
#
# Compressibility (1/GPa) = 0.06258623
#
# Stress axis : x y z
#
# Youngs Moduli (GPa) = 93.47128 83.93362 30.07796
#
# Poissons Ratio (x) = 0.10123 -0.13150
# Poissons Ratio (y) = 0.11273 -0.00594
# Poissons Ratio (z) = -0.40864 -0.01658
#
# Static dielectric constant tensor:
#      x y z
#    x 1.768060 0.000000 0.027760 
#    y 0.000000 1.647090 0.000000 
#    z 0.027760 0.000000 1.863410 
# 
# From -- ./inp_files/88126.got.cif
#   From: 2010.05.17/outbox.cif.g08.bks.cpg/sg13_45_cif.got.tgz:88126.got - 2010.06.03 16:44:36.
