data_PCOD9232844
_publ_section_title
;
Structure prediction by ZEFSAII (Michael W. Deem and Ramdas Pophale) SiO2 
 PCOD9232844
Probable space group: P 2/C
;
_chemical_formula_sum "Si O2"
_cell_formula_units_Z 20
_cell_length_a 12.540191
_cell_length_b 7.887028
_cell_length_c 15.201698
_cell_angle_alpha 90.000000
_cell_angle_beta 29.961435
_cell_angle_gamma 90.000000
_cell_volume 750.884148
_symmetry_space_group_name_H-M "P 2/C"
_symmetry_group_IT_number 13
_symmetry_cell_setting 'monoclinic'
loop_
_space_group_symop_operation_xyz
x,y,z
-x,y,1/2-z
-x,-y,-z
x,-y,1/2+z
loop_
_atom_site_type_symbol
_atom_site_label
_atom_site_fract_x
_atom_site_fract_y
_atom_site_fract_z
Si Si1 0.369877 0.077597 0.988205
Si Si2 0.795482 0.593223 0.376459
Si Si3 0.383244 0.575505 0.181024
Si Si4 0.131313 0.305489 0.029591
Si Si5 0.193330 0.071181 0.300629
O O1 0.467816 0.260417 0.946137
O O2 0.577891 0.964674 0.817773
O O3 0.223040 0.134797 0.011579
O O4 0.248067 0.005860 0.161261
O O5 0.779954 0.575016 0.282623
O O6 0.538724 0.586745 0.577951
O O7 0.855414 0.447531 0.405614
O O8 0.000000 0.714210 0.250000
O O9 0.274833 0.625949 0.348824
O O10 0.904084 0.254299 0.151885
O O11 0.000000 0.000000 0.500000
#
# Coordination Sequence:
#
# PCOD9232844 Si02
#       5
#     4   4   4   4   4
#     4  10  21  40  63  97 140 173 222 285 337 419
#     4  10  21  38  63  95 129 180 230 283 338 397
#     4  10  21  39  65  96 133 177 238 281 338 418
#     4  11  21  42  69  98 139 181 224 285 349 409
#     4  11  22  36  66 101 128 183 227 271 349 415
#
# _framework density 26.635266999999999
#
# number of rings (size 3 to 8) (size 9 to 14) (size 15 to 20)
#    0.000    1.600    2.000    5.400    0.000    0.800 
#    0.000    6.000    4.400    0.000    0.000    0.000 
#    0.000    0.000    0.000    0.000    0.000    0.000 
#
# Total GULP energy -111365.772388 kJ/mol
# GULP energy per Si atom -5568.288619 kJ/mol
# Density = 2.657464 g / cm^3
# Si number density = 26.635267 Si / 1000 Ang^3
#
#
#
# Elastic Constant Matrix: (Units=GPa)
#
#
# Indices 1 2 3 4 5 6 
#
# 1 135.4576 11.0443 89.8077 0.0000 4.3435 0.0000
# 2 11.0443 64.4203 19.5899 0.0000 3.4933 0.0000
# 3 89.8077 19.5899 196.0627 0.0000 21.8996 0.0000
# 4 0.0000 0.0000 0.0000 6.1252 0.0000 -13.2508
# 5 4.3435 3.4933 21.8996 0.0000 67.5421 0.0000
# 6 0.0000 0.0000 0.0000 -13.2508 0.0000 33.6973
#
#
#
# Elastic Compliance Matrix: (Units=1/GPa)
#
#
# Indices 1 2 3 4 5 6 
#
# 1 0.010667 -0.000373 -0.004954 0.000000 0.000940 0.000000
# 2 -0.000373 0.016029 -0.001391 0.000000 -0.000354 0.000000
# 3 -0.004954 -0.001391 0.007745 0.000000 -0.002121 0.000000
# 4 0.000000 0.000000 0.000000 1.093450 0.000000 0.429978
# 5 0.000940 -0.000354 -0.002121 0.000000 0.015451 0.000000
# 6 0.000000 0.000000 0.000000 0.429978 0.000000 0.198756
#
#
# Mechanical properties :
#
#
# Convention : Reuss Voigt Hill
#
# Bulk Modulus (GPa) = 47.60666 70.75826 59.18246
# Shear Modulus (GPa) = 3.66963 39.83949 21.75456
#
# Velocity S-wave (km/s) = 1.17504 3.87168 2.86100
# Velocity P-wave (km/s) = 4.44447 6.82714 5.76034
#
# Compressibility (1/GPa) = 0.02100547
#
# Stress axis : x y z
#
# Youngs Moduli (GPa) = 93.74717 62.38588 129.10936
#
# Poissons Ratio (x) = 0.02329 0.63957
# Poissons Ratio (y) = 0.03500 0.17960
# Poissons Ratio (z) = 0.46440 0.08678
#
# Static dielectric constant tensor:
#      x y z
#    x 2.069170 0.000000 -0.118350 
#    y 0.000000 2.305630 0.000000 
#    z -0.118350 0.000000 2.279260 
# 
# From -- ./inp_files/51058.got.cif
#   From: 2010.05.17/outbox.cif.g08.bks.cpg/sg13_26_cif.got.tgz:51058.got - 2010.06.03 16:44:36.
