data_PCOD9232978
_publ_section_title
;
Structure prediction by ZEFSAII (Michael W. Deem and Ramdas Pophale) SiO2 
 PCOD9232978
Probable space group: P 2/C
;
_chemical_formula_sum "Si O2"
_cell_formula_units_Z 18
_cell_length_a 6.697443
_cell_length_b 6.161659
_cell_length_c 22.005574
_cell_angle_alpha 90.000000
_cell_angle_beta 75.614941
_cell_angle_gamma 90.000000
_cell_volume 879.640798
_symmetry_space_group_name_H-M "P 2/C"
_symmetry_group_IT_number 13
_symmetry_cell_setting 'monoclinic'
loop_
_space_group_symop_operation_xyz
x,y,z
-x,y,1/2-z
-x,-y,-z
x,-y,1/2+z
loop_
_atom_site_type_symbol
_atom_site_label
_atom_site_fract_x
_atom_site_fract_y
_atom_site_fract_z
Si Si1 0.371326 0.477823 0.201320
Si Si2 0.167669 0.610343 0.529829
Si Si3 0.536724 0.274812 0.921231
Si Si4 0.164508 0.101845 0.139415
Si Si5 0.000000 0.803900 0.250000
O O1 0.500000 0.411956 0.250000
O O2 0.502973 0.596150 0.138601
O O3 0.257282 0.276169 0.179085
O O4 0.199822 0.652686 0.233843
O O5 0.299866 0.424587 0.554340
O O6 0.331120 0.740492 0.476120
O O7 0.077226 0.767438 0.588545
O O8 0.000000 0.500000 0.500000
O O9 0.649199 0.050282 0.897976
O O10 0.010151 0.951530 0.189022
#
# Coordination Sequence:
#
# PCOD9232978 Si02
#       5
#     4   4   4   4   2
#     4  10  22  40  61  86 120 159 197 246 298 352
#     4  10  21  39  61  87 120 156 195 246 297 347
#     4   9  21  39  58  87 121 152 198 245 290 353
#     4  10  21  39  62  87 120 158 197 246 297 355
#     4  10  22  40  58  86 122 154 200 250 296 352
#
# _framework density 20.462896000000001
#
# number of rings (size 3 to 8) (size 9 to 14) (size 15 to 20)
#    0.000    2.222    0.000    1.333    0.000   11.556 
#    0.000   11.111    0.000    0.000    0.000    0.000 
#    0.000    0.000    0.000    0.000    0.000    0.000 
#
# Total GULP energy -100595.146300 kJ/mol
# GULP energy per Si atom -5588.619239 kJ/mol
# Density = 2.041632 g / cm^3
# Si number density = 20.462896 Si / 1000 Ang^3
#
#
#
# Elastic Constant Matrix: (Units=GPa)
#
#
# Indices 1 2 3 4 5 6 
#
# 1 33.7027 20.6301 55.1310 0.0000 3.6535 0.0000
# 2 20.6301 105.9068 63.8039 0.0000 -4.4820 0.0000
# 3 55.1310 63.8039 147.2140 0.0000 3.4127 0.0000
# 4 0.0000 0.0000 0.0000 42.6254 0.0000 -10.9673
# 5 3.6535 -4.4820 3.4127 0.0000 31.8773 0.0000
# 6 0.0000 0.0000 0.0000 -10.9673 0.0000 -6.9497
#
#
#
# Elastic Compliance Matrix: (Units=1/GPa)
#
#
# Indices 1 2 3 4 5 6 
#
# 1 0.078272 0.002860 -0.030429 0.000000 -0.005311 0.000000
# 2 0.002860 0.013069 -0.006787 0.000000 0.002236 0.000000
# 3 -0.030429 -0.006787 0.021124 0.000000 0.000272 0.000000
# 4 0.000000 0.000000 0.000000 0.016685 0.000000 -0.026331
# 5 -0.005311 0.002236 0.000272 0.000000 0.032264 0.000000
# 6 0.000000 0.000000 0.000000 -0.026331 0.000000 -0.102338
#
#
# Mechanical properties :
#
#
# Convention : Reuss Voigt Hill
#
# Bulk Modulus (GPa) = 22.85571 62.88371 42.86971
# Shear Modulus (GPa) = 35.11924 23.32784 29.22354
#
# Velocity S-wave (km/s) = 4.14725 3.38006 3.78315
# Velocity P-wave (km/s) = 5.84179 6.78457 6.33075
#
# Compressibility (1/GPa) = 0.04375275
#
# Stress axis : x y z
#
# Youngs Moduli (GPa) = 12.77592 76.51907 47.34016
#
# Poissons Ratio (x) = -0.21887 1.44052
# Poissons Ratio (y) = -0.03654 0.32130
# Poissons Ratio (z) = 0.38876 0.51934
#
# Static dielectric constant tensor:
#      x y z
#    x 1.688410 0.000000 -0.022910 
#    y 0.000000 1.725690 0.000000 
#    z -0.022910 0.000000 1.753600 
# 
# From -- ./inp_files/82960.got.cif
#   From: 2010.05.17/outbox.cif.g08.bks.cpg/sg13_42_cif.got.tgz:82960.got - 2010.06.03 16:44:36.
