data_PCOD9232332
_publ_section_title
;
Structure prediction by ZEFSAII (Michael W. Deem and Ramdas Pophale) SiO2 
 PCOD9232332
Probable space group: P 2/C
;
_chemical_formula_sum "Si O2"
_cell_formula_units_Z 18
_cell_length_a 6.209073
_cell_length_b 6.052077
_cell_length_c 24.911676
_cell_angle_alpha 90.000000
_cell_angle_beta 118.825948
_cell_angle_gamma 90.000000
_cell_volume 820.128860
_symmetry_space_group_name_H-M "P 2/C"
_symmetry_group_IT_number 13
_symmetry_cell_setting 'monoclinic'
loop_
_space_group_symop_operation_xyz
x,y,z
-x,y,1/2-z
-x,-y,-z
x,-y,1/2+z
loop_
_atom_site_type_symbol
_atom_site_label
_atom_site_fract_x
_atom_site_fract_y
_atom_site_fract_z
Si Si1 0.000000 0.427569 0.750000
Si Si2 0.244764 0.088156 0.699282
Si Si3 0.366490 0.351670 0.028623
Si Si4 0.152598 0.287052 0.362736
Si Si5 0.901364 0.361677 0.914096
O O1 0.831850 0.275756 0.767439
O O2 0.833238 0.576097 0.690818
O O3 0.500000 0.987939 0.750000
O O4 0.254246 0.200392 0.641983
O O5 0.026993 0.913790 0.670076
O O6 0.582902 0.214493 0.082708
O O7 0.257402 0.515052 0.060438
O O8 0.500000 0.500000 0.000000
O O9 0.131317 0.242167 0.971620
O O10 0.022933 0.451549 0.390129
#
# Coordination Sequence:
#
# PCOD9232332 Si02
#       5
#     2   4   4   4   4
#     4  10  22  40  58  82 118 156 192 238 294 346
#     4  11  23  37  58  88 119 155 197 239 290 349
#     4   9  18  38  61  82 114 153 193 238 294 346
#     4  10  21  36  59  87 115 151 194 242 289 343
#     4   9  20  38  59  84 117 154 190 240 293 344
#
# _framework density 21.947769999999998
#
# number of rings (size 3 to 8) (size 9 to 14) (size 15 to 20)
#    0.000    2.222    0.000    2.000    0.000    8.000 
#    0.000   10.000    0.000    0.000    0.000    0.000 
#    0.000    0.000    0.000    0.000    0.000    0.000 
#
# Total GULP energy -100577.254285 kJ/mol
# GULP energy per Si atom -5587.625238 kJ/mol
# Density = 2.189782 g / cm^3
# Si number density = 21.947770 Si / 1000 Ang^3
#
#
#
# Elastic Constant Matrix: (Units=GPa)
#
#
# Indices 1 2 3 4 5 6 
#
# 1 69.2263 7.8266 66.4210 0.0000 4.9904 0.0000
# 2 7.8266 39.5206 39.2699 0.0000 0.5031 0.0000
# 3 66.4210 39.2699 173.7787 0.0000 17.5766 0.0000
# 4 0.0000 0.0000 0.0000 -0.8338 0.0000 8.3065
# 5 4.9904 0.5031 17.5766 0.0000 42.5717 0.0000
# 6 0.0000 0.0000 0.0000 8.3065 0.0000 14.9555
#
#
#
# Elastic Compliance Matrix: (Units=1/GPa)
#
#
# Indices 1 2 3 4 5 6 
#
# 1 0.023812 0.005751 -0.010552 0.000000 0.001497 0.000000
# 2 0.005751 0.034336 -0.010277 0.000000 0.003163 0.000000
# 3 -0.010552 -0.010277 0.012494 0.000000 -0.003800 0.000000
# 4 0.000000 0.000000 0.000000 -0.183575 0.000000 0.101960
# 5 0.001497 0.003163 -0.003800 0.000000 0.024846 0.000000
# 6 0.000000 0.000000 0.000000 0.101960 0.000000 0.010234
#
#
# Mechanical properties :
#
#
# Convention : Reuss Voigt Hill
#
# Bulk Modulus (GPa) = 24.70052 56.61782 40.65917
# Shear Modulus (GPa) = -146.20057 22.60589 -61.79734
#
# Velocity S-wave (km/s) = -8.17053 3.21282 -5.31203
# Velocity P-wave (km/s) = 8.81654 6.29409 4.36554
#
# Compressibility (1/GPa) = 0.04048498
#
# Stress axis : x y z
#
# Youngs Moduli (GPa) = 41.99576 29.12394 80.03584
#
# Poissons Ratio (x) = -0.16748 0.84456
# Poissons Ratio (y) = -0.24150 0.82253
# Poissons Ratio (z) = 0.44315 0.29931
#
# Static dielectric constant tensor:
#      x y z
#    x 1.788060 0.000000 0.020820 
#    y 0.000000 1.764600 0.000000 
#    z 0.020820 0.000000 1.837530 
# 
# From -- ./inp_files/82958.got.cif
#   From: 2010.05.17/outbox.cif.g08.bks.cpg/sg13_42_cif.got.tgz:82958.got - 2010.06.03 16:44:36.
