data_PCOD9232301
_publ_section_title
;
Structure prediction by ZEFSAII (Michael W. Deem and Ramdas Pophale) SiO2 
 PCOD9232301
Probable space group: P 2/C
;
_chemical_formula_sum "Si O2"
_cell_formula_units_Z 30
_cell_length_a 5.308607
_cell_length_b 15.035864
_cell_length_c 22.272907
_cell_angle_alpha 90.000000
_cell_angle_beta 122.663759
_cell_angle_gamma 90.000000
_cell_volume 1496.655292
_symmetry_space_group_name_H-M "P 2/C"
_symmetry_group_IT_number 13
_symmetry_cell_setting 'monoclinic'
loop_
_space_group_symop_operation_xyz
x,y,z
-x,y,1/2-z
-x,-y,-z
x,-y,1/2+z
loop_
_atom_site_type_symbol
_atom_site_label
_atom_site_fract_x
_atom_site_fract_y
_atom_site_fract_z
Si Si1 0.166159 0.835413 0.213037
Si Si2 0.172471 0.107353 0.465040
Si Si3 0.292716 0.354547 0.324925
Si Si4 0.000000 0.659496 0.250000
Si Si5 0.106265 0.729309 0.622846
Si Si6 0.135005 0.896534 0.447549
Si Si7 0.682428 0.468109 0.614267
Si Si8 0.123595 0.570875 0.969914
O O1 0.500000 0.870510 0.250000
O O2 0.178134 0.730204 0.231432
O O3 0.000000 0.875459 0.250000
O O4 0.991333 0.853396 0.129282
O O5 0.519687 0.132845 0.499494
O O6 0.950874 0.168737 0.398594
O O7 0.073334 0.121191 0.521537
O O8 0.141401 0.004016 0.443770
O O9 0.547467 0.297834 0.324186
O O10 0.446061 0.445900 0.367008
O O11 0.000000 0.382347 0.250000
O O12 0.136007 0.298759 0.358028
O O13 0.185447 0.598216 0.319664
O O14 0.013764 0.668086 0.553728
O O15 0.902626 0.521213 0.597673
O O16 0.461932 0.419897 0.538936
O O17 0.000000 0.500000 0.000000
#
# Coordination Sequence:
#
# PCOD9232301 Si02
#       8
#     4   4   4   2   4   4   4   4
#     4  10  23  41  59  93 126 163 202 253 317 383
#     4  10  22  39  66  94 117 162 200 260 308 382
#     4  11  22  41  58  82 120 163 199 258 299 362
#     4  10  24  38  60  92 122 172 210 252 320 392
#     4  11  23  38  61  88 120 153 210 251 311 363
#     4  10  21  41  65  91 126 155 202 252 324 370
#     4  10  21  38  55  86 119 163 211 250 313 367
#     4  10  21  36  57  85 120 161 206 266 305 357
#
# _framework density 20.044695000000001
#
# number of rings (size 3 to 8) (size 9 to 14) (size 15 to 20)
#    0.400    1.333    2.000    2.000    1.867    2.133 
#    0.000    2.000    0.000    0.000    0.000    0.000 
#    0.000    0.000    0.000    0.000    0.000    0.000 
#
# Total GULP energy -167066.224256 kJ/mol
# GULP energy per Si atom -5568.874142 kJ/mol
# Density = 1.999907 g / cm^3
# Si number density = 20.044695 Si / 1000 Ang^3
#
#
#
# Elastic Constant Matrix: (Units=GPa)
#
#
# Indices 1 2 3 4 5 6 
#
# 1 108.9766 23.6233 21.4662 0.0000 4.7989 0.0000
# 2 23.6233 38.3768 24.2967 0.0000 -7.6941 0.0000
# 3 21.4662 24.2967 83.6794 0.0000 -8.5705 0.0000
# 4 0.0000 0.0000 0.0000 33.2695 0.0000 2.1015
# 5 4.7989 -7.6941 -8.5705 0.0000 27.2606 0.0000
# 6 0.0000 0.0000 0.0000 2.1015 0.0000 11.7615
#
#
#
# Elastic Compliance Matrix: (Units=1/GPa)
#
#
# Indices 1 2 3 4 5 6 
#
# 1 0.011113 -0.006886 -0.001293 0.000000 -0.004306 0.000000
# 2 -0.006886 0.037275 -0.008116 0.000000 0.009181 0.000000
# 3 -0.001293 -0.008116 0.014907 0.000000 0.002623 0.000000
# 4 0.000000 0.000000 0.000000 0.030401 0.000000 -0.005432
# 5 -0.004306 0.009181 0.002623 0.000000 0.040857 0.000000
# 6 0.000000 0.000000 0.000000 -0.005432 0.000000 0.085994
#
#
# Mechanical properties :
#
#
# Convention : Reuss Voigt Hill
#
# Bulk Modulus (GPa) = 32.56657 41.08946 36.82801
# Shear Modulus (GPa) = 18.98455 25.23478 22.10966
#
# Velocity S-wave (km/s) = 3.08086 3.55198 3.32477
# Velocity P-wave (km/s) = 5.37939 6.11274 5.75775
#
# Compressibility (1/GPa) = 0.03070633
#
# Stress axis : x y z
#
# Youngs Moduli (GPa) = 89.98313 26.82740 67.08147
#
# Poissons Ratio (x) = 0.18473 0.08671
# Poissons Ratio (y) = 0.61961 0.54445
# Poissons Ratio (z) = 0.11631 0.21774
#
# Static dielectric constant tensor:
#      x y z
#    x 1.814150 0.000000 0.028650 
#    y 0.000000 1.724710 0.000000 
#    z 0.028650 0.000000 1.754850 
# 
# From -- ./inp_files/73940.got.cif
#   From: 2010.05.17/outbox.cif.g08.bks.cpg/sg13_37_cif.got.tgz:73940.got - 2010.06.03 16:44:36.
