data_PCOD9232967
_publ_section_title
;
Structure prediction by ZEFSAII (Michael W. Deem and Ramdas Pophale) SiO2 
 PCOD9232967
Probable space group: P 2/C
;
_chemical_formula_sum "Si O2"
_cell_formula_units_Z 22
_cell_length_a 10.179179
_cell_length_b 10.100624
_cell_length_c 15.958203
_cell_angle_alpha 90.000000
_cell_angle_beta 41.468999
_cell_angle_gamma 90.000000
_cell_volume 1086.535118
_symmetry_space_group_name_H-M "P 2/C"
_symmetry_group_IT_number 13
_symmetry_cell_setting 'monoclinic'
loop_
_space_group_symop_operation_xyz
x,y,z
-x,y,1/2-z
-x,-y,-z
x,-y,1/2+z
loop_
_atom_site_type_symbol
_atom_site_label
_atom_site_fract_x
_atom_site_fract_y
_atom_site_fract_z
Si Si1 0.704528 0.606787 0.096361
Si Si2 0.500000 0.209060 0.250000
Si Si3 0.651533 0.156713 0.492687
Si Si4 0.883647 0.331197 0.004736
Si Si5 0.657021 0.952414 0.818320
Si Si6 0.955616 0.931417 0.371160
O O1 0.500000 0.595030 0.250000
O O2 0.787236 0.468543 0.018677
O O3 0.664656 0.712435 0.041491
O O4 0.897538 0.649644 0.059769
O O5 0.707219 0.287825 0.152584
O O6 0.490063 0.117367 0.174151
O O7 0.704625 0.153814 0.368646
O O8 0.437429 0.086193 0.598364
O O9 0.796077 0.045700 0.460749
O O10 0.903931 0.212558 0.929243
O O11 0.849039 0.006674 0.679869
O O12 0.000000 0.924990 0.250000
#
# Coordination Sequence:
#
# PCOD9232967 Si02
#       6
#     4   2   4   4   4   4
#     4  11  24  42  64  92 131 175 217 264 319 388
#     4  12  22  40  64  98 134 166 208 274 320 388
#     4  10  21  39  60  93 125 162 215 263 314 382
#     4  11  24  41  63  95 131 170 217 264 320 387
#     4  10  22  36  64  94 126 163 212 267 320 379
#     4  10  21  40  63  91 127 162 213 269 314 377
#
# _framework density 20.247848000000001
#
# number of rings (size 3 to 8) (size 9 to 14) (size 15 to 20)
#    0.000    1.455    2.727    2.182    3.818    1.455 
#    0.000    7.273    0.000    0.000    0.000    0.000 
#    0.000    0.000    0.000    0.000    0.000    0.000 
#
# Total GULP energy -122511.049193 kJ/mol
# GULP energy per Si atom -5568.684054 kJ/mol
# Density = 2.020176 g / cm^3
# Si number density = 20.247848 Si / 1000 Ang^3
#
#
#
# Elastic Constant Matrix: (Units=GPa)
#
#
# Indices 1 2 3 4 5 6 
#
# 1 69.4028 43.6721 29.1158 0.0000 -15.0860 0.0000
# 2 43.6721 110.7160 32.6154 0.0000 8.2391 0.0000
# 3 29.1158 32.6154 77.8136 0.0000 -27.3861 0.0000
# 4 0.0000 0.0000 0.0000 46.8492 0.0000 7.5230
# 5 -15.0860 8.2391 -27.3861 0.0000 35.0756 0.0000
# 6 0.0000 0.0000 0.0000 7.5230 0.0000 35.1619
#
#
#
# Elastic Compliance Matrix: (Units=1/GPa)
#
#
# Indices 1 2 3 4 5 6 
#
# 1 0.023575 -0.010155 -0.000216 0.000000 0.012357 0.000000
# 2 -0.010155 0.016605 -0.008370 0.000000 -0.014804 0.000000
# 3 -0.000216 -0.008370 0.023579 0.000000 0.020283 0.000000
# 4 0.000000 0.000000 0.000000 0.022104 0.000000 -0.004729
# 5 0.012357 -0.014804 0.020283 0.000000 0.053138 0.000000
# 6 0.000000 0.000000 0.000000 -0.004729 0.000000 0.029452
#
#
# Mechanical properties :
#
#
# Convention : Reuss Voigt Hill
#
# Bulk Modulus (GPa) = 38.05645 52.08213 45.06929
# Shear Modulus (GPa) = 23.28873 33.58596 28.43734
#
# Velocity S-wave (km/s) = 3.39511 4.07718 3.75168
# Velocity P-wave (km/s) = 5.84852 6.92407 6.40890
#
# Compressibility (1/GPa) = 0.02627676
#
# Stress axis : x y z
#
# Youngs Moduli (GPa) = 42.41697 60.22163 42.41075
#
# Poissons Ratio (x) = 0.61157 0.00915
# Poissons Ratio (y) = 0.43076 0.35499
# Poissons Ratio (z) = 0.00915 0.50407
#
# Static dielectric constant tensor:
#      x y z
#    x 1.751320 0.000000 -0.034370 
#    y 0.000000 1.728430 0.000000 
#    z -0.034370 0.000000 1.822320 
# 
# From -- ./inp_files/65866.got.cif
#   From: 2010.05.17/outbox.cif.g08.bks.cpg/sg13_33_cif.got.tgz:65866.got - 2010.06.03 16:44:36.
