data_PCOD9232904
_publ_section_title
;
Structure prediction by ZEFSAII (Michael W. Deem and Ramdas Pophale) SiO2 
 PCOD9232904
Probable space group: P 2/C
;
_chemical_formula_sum "Si O2"
_cell_formula_units_Z 28
_cell_length_a 19.111637
_cell_length_b 11.668365
_cell_length_c 10.979318
_cell_angle_alpha 90.000000
_cell_angle_beta 31.775047
_cell_angle_gamma 90.000000
_cell_volume 1289.294834
_symmetry_space_group_name_H-M "P 2/C"
_symmetry_group_IT_number 13
_symmetry_cell_setting 'monoclinic'
loop_
_space_group_symop_operation_xyz
x,y,z
-x,y,1/2-z
-x,-y,-z
x,-y,1/2+z
loop_
_atom_site_type_symbol
_atom_site_label
_atom_site_fract_x
_atom_site_fract_y
_atom_site_fract_z
Si Si1 0.000000 0.949377 0.250000
Si Si2 0.947786 0.686582 0.063575
Si Si3 0.384985 0.084311 0.610950
Si Si4 0.842766 0.844608 0.870432
Si Si5 0.118694 0.477222 0.481000
Si Si6 0.500000 0.735827 0.750000
Si Si7 0.244064 0.862091 0.758600
Si Si8 0.725736 0.689143 0.583018
O O1 0.909753 0.031265 0.298047
O O2 0.906714 0.874034 0.472566
O O3 0.848656 0.732327 0.315674
O O4 0.059998 0.612880 0.969580
O O5 0.857341 0.595374 0.123494
O O6 0.024877 0.767230 0.853186
O O7 0.438620 0.177701 0.439431
O O8 0.500000 0.000000 0.500000
O O9 0.299752 0.989185 0.666930
O O10 0.276735 0.151106 0.854589
O O11 0.760560 0.817719 0.869846
O O12 0.228642 0.417119 0.401444
O O13 0.000000 0.501992 0.750000
O O14 0.607405 0.664573 0.666077
O O15 0.311633 0.786690 0.762984
#
# Coordination Sequence:
#
# PCOD9232904 Si02
#       8
#     2   4   4   4   4   2   4   4
#     4  10  24  32  54  98 130 172 198 274 336 396
#     4  10  21  38  67  98 127 159 218 284 345 412
#     4  11  24  42  61  93 137 190 224 276 314 397
#     4  11  23  37  62  95 130 169 219 275 338 401
#     4   9  20  40  64  96 127 165 212 279 359 406
#     4  12  26  44  62  92 136 186 244 264 328 416
#     4  11  21  39  60  89 137 170 221 260 331 401
#     4  11  23  41  67  94 131 184 218 280 345 406
#
# _framework density 21.717296999999999
#
# number of rings (size 3 to 8) (size 9 to 14) (size 15 to 20)
#    0.000    1.429    2.857    2.143    8.000    0.000 
#    0.000    0.714    0.000    0.000    0.000    0.000 
#    0.000    0.000    0.000    0.000    0.000    0.000 
#
# Total GULP energy -156051.834952 kJ/mol
# GULP energy per Si atom -5573.279820 kJ/mol
# Density = 2.166787 g / cm^3
# Si number density = 21.717297 Si / 1000 Ang^3
#
#
#
# Elastic Constant Matrix: (Units=GPa)
#
#
# Indices 1 2 3 4 5 6 
#
# 1 126.0787 29.0271 26.6799 0.0000 -10.4142 0.0000
# 2 29.0271 48.5293 12.4873 0.0000 7.8684 0.0000
# 3 26.6799 12.4873 58.0789 0.0000 3.9387 0.0000
# 4 0.0000 0.0000 0.0000 20.8004 0.0000 4.5372
# 5 -10.4142 7.8684 3.9387 0.0000 28.8330 0.0000
# 6 0.0000 0.0000 0.0000 4.5372 0.0000 23.1897
#
#
#
# Elastic Compliance Matrix: (Units=1/GPa)
#
#
# Indices 1 2 3 4 5 6 
#
# 1 0.010762 -0.006414 -0.003984 0.000000 0.006182 0.000000
# 2 -0.006414 0.026489 -0.002121 0.000000 -0.009256 0.000000
# 3 -0.003984 -0.002121 0.019745 0.000000 -0.003557 0.000000
# 4 0.000000 0.000000 0.000000 0.050219 0.000000 -0.009826
# 5 0.006182 -0.009256 -0.003557 0.000000 0.039927 0.000000
# 6 0.000000 0.000000 0.000000 -0.009826 0.000000 0.045045
#
#
# Mechanical properties :
#
#
# Convention : Reuss Voigt Hill
#
# Bulk Modulus (GPa) = 31.29109 41.00841 36.14975
# Shear Modulus (GPa) = 21.94145 25.53079 23.73612
#
# Velocity S-wave (km/s) = 3.18200 3.43242 3.30958
# Velocity P-wave (km/s) = 5.28582 5.88494 5.59340
#
# Compressibility (1/GPa) = 0.03195798
#
# Stress axis : x y z
#
# Youngs Moduli (GPa) = 92.91980 37.75122 50.64488
#
# Poissons Ratio (x) = 0.24215 0.20176
# Poissons Ratio (y) = 0.59601 0.10742
# Poissons Ratio (z) = 0.37018 0.08007
#
# Static dielectric constant tensor:
#      x y z
#    x 1.883650 0.000000 0.005100 
#    y 0.000000 1.814110 0.000000 
#    z 0.005100 0.000000 1.827420 
# 
# From -- ./inp_files/40789.got.cif
#   From: 2010.05.17/outbox.cif.g08.bks.cpg/sg13_21_cif.got.tgz:40789.got - 2010.06.03 16:44:36.
