data_PCOD9232955
_publ_section_title
;
Structure prediction by ZEFSAII (Michael W. Deem and Ramdas Pophale) SiO2 
 PCOD9232955
Probable space group: P 2/C
;
_chemical_formula_sum "Si O2"
_cell_formula_units_Z 26
_cell_length_a 19.573951
_cell_length_b 9.067186
_cell_length_c 8.697403
_cell_angle_alpha 90.000000
_cell_angle_beta 131.413887
_cell_angle_gamma 90.000000
_cell_volume 1157.639579
_symmetry_space_group_name_H-M "P 2/C"
_symmetry_group_IT_number 13
_symmetry_cell_setting 'monoclinic'
loop_
_space_group_symop_operation_xyz
x,y,z
-x,y,1/2-z
-x,-y,-z
x,-y,1/2+z
loop_
_atom_site_type_symbol
_atom_site_label
_atom_site_fract_x
_atom_site_fract_y
_atom_site_fract_z
Si Si1 0.109447 0.329862 0.670983
Si Si2 0.500000 0.422472 0.250000
Si Si3 0.207341 0.054986 0.977347
Si Si4 0.205497 0.431182 0.501789
Si Si5 0.958432 0.859105 0.853983
Si Si6 0.276999 0.838101 0.896980
Si Si7 0.619161 0.629782 0.649050
O O1 0.167440 0.194580 0.829163
O O2 0.155940 0.362099 0.575720
O O3 0.130083 0.471498 0.803605
O O4 0.003311 0.278518 0.511125
O O5 0.561516 0.524070 0.452003
O O6 0.433792 0.340242 0.270856
O O7 0.141058 0.917153 0.839415
O O8 0.296191 0.977815 0.036365
O O9 0.211703 0.099591 0.161236
O O10 0.246240 0.308513 0.446290
O O11 0.287567 0.540831 0.672581
O O12 0.000000 0.838250 0.750000
O O13 0.000000 0.000000 0.000000
O O14 0.358439 0.775359 0.913505
#
# Coordination Sequence:
#
# PCOD9232955 Si02
#       7
#     4   2   4   4   4   4   4
#     4  11  22  39  66  96 134 175 237 282 346 388
#     4  10  22  40  68 110 132 170 208 270 344 422
#     4  11  23  41  63  96 131 184 233 273 335 402
#     4  12  21  41  68 104 132 172 227 293 333 401
#     4  10  21  39  60  84 122 173 225 282 321 385
#     4  12  23  41  69 100 133 181 229 279 330 405
#     4  11  21  40  70 103 135 166 214 273 337 404
#
# _framework density 22.459492999999998
#
# number of rings (size 3 to 8) (size 9 to 14) (size 15 to 20)
#    0.000    0.923    4.615    3.692    0.000    0.000 
#    0.000    3.077    0.000    3.692    0.000    0.000 
#    0.000    0.000    0.000    0.000    0.000    0.000 
#
# Total GULP energy -144997.250416 kJ/mol
# GULP energy per Si atom -5576.817324 kJ/mol
# Density = 2.240837 g / cm^3
# Si number density = 22.459493 Si / 1000 Ang^3
#
#
#
# Elastic Constant Matrix: (Units=GPa)
#
#
# Indices 1 2 3 4 5 6 
#
# 1 42.7114 14.3393 11.2189 0.0000 -18.2861 0.0000
# 2 14.3393 48.8984 18.1674 0.0000 -7.7184 0.0000
# 3 11.2189 18.1674 77.9163 0.0000 -13.1970 0.0000
# 4 0.0000 0.0000 0.0000 20.5228 0.0000 -2.2339
# 5 -18.2861 -7.7184 -13.1970 0.0000 39.9776 0.0000
# 6 0.0000 0.0000 0.0000 -2.2339 0.0000 22.8318
#
#
#
# Elastic Compliance Matrix: (Units=1/GPa)
#
#
# Indices 1 2 3 4 5 6 
#
# 1 0.031403 -0.006914 -0.000744 0.000000 0.012783 0.000000
# 2 -0.006914 0.024203 -0.004652 0.000000 -0.000026 0.000000
# 3 -0.000744 -0.004652 0.014635 0.000000 0.003592 0.000000
# 4 0.000000 0.000000 0.000000 0.049251 0.000000 0.004819
# 5 0.012783 -0.000026 0.003592 0.000000 0.032042 0.000000
# 6 0.000000 0.000000 0.000000 0.004819 0.000000 0.044270
#
#
# Mechanical properties :
#
#
# Convention : Reuss Voigt Hill
#
# Bulk Modulus (GPa) = 21.92092 28.55305 25.23699
# Shear Modulus (GPa) = 21.21968 25.05313 23.13640
#
# Velocity S-wave (km/s) = 3.07709 3.34350 3.21306
# Velocity P-wave (km/s) = 4.73350 5.25796 5.00261
#
# Compressibility (1/GPa) = 0.04561852
#
# Stress axis : x y z
#
# Youngs Moduli (GPa) = 31.84444 41.31798 68.33132
#
# Poissons Ratio (x) = 0.28569 0.05085
# Poissons Ratio (y) = 0.22019 0.31787
# Poissons Ratio (z) = 0.02370 0.19221
#
# Static dielectric constant tensor:
#      x y z
#    x 1.960660 0.000000 -0.011160 
#    y 0.000000 1.803290 0.000000 
#    z -0.011160 0.000000 1.772850 
# 
# From -- ./inp_files/23005.got.cif
#   From: 2010.05.17/outbox.cif.g08.bks.cpg/sg13_12_cif.got.tgz:23005.got - 2010.06.03 16:44:36.
