data_PCOD9232717
_publ_section_title
;
Structure prediction by ZEFSAII (Michael W. Deem and Ramdas Pophale) SiO2 
 PCOD9232717
Probable space group: P 2/C
;
_chemical_formula_sum "Si O2"
_cell_formula_units_Z 24
_cell_length_a 14.512162
_cell_length_b 6.295879
_cell_length_c 14.669274
_cell_angle_alpha 90.000000
_cell_angle_beta 53.557447
_cell_angle_gamma 90.000000
_cell_volume 1078.195973
_symmetry_space_group_name_H-M "P 2/C"
_symmetry_group_IT_number 13
_symmetry_cell_setting 'monoclinic'
loop_
_space_group_symop_operation_xyz
x,y,z
-x,y,1/2-z
-x,-y,-z
x,-y,1/2+z
loop_
_atom_site_type_symbol
_atom_site_label
_atom_site_fract_x
_atom_site_fract_y
_atom_site_fract_z
Si Si1 0.106496 0.095039 0.383637
Si Si2 0.053581 0.377853 0.127529
Si Si3 0.747483 0.379218 0.091043
Si Si4 0.642763 0.429572 0.336532
Si Si5 0.216745 0.091188 0.140631
Si Si6 0.405803 0.755188 0.981119
O O1 0.208855 0.156255 0.391491
O O2 0.050259 0.308935 0.375296
O O3 0.155510 0.979837 0.264147
O O4 0.000000 0.000000 0.500000
O O5 0.000000 0.480223 0.250000
O O6 0.121932 0.166891 0.123540
O O7 0.142875 0.516591 0.020233
O O8 0.695978 0.495874 0.209191
O O9 0.653298 0.364263 0.068346
O O10 0.602299 0.629664 0.418606
O O11 0.540860 0.256815 0.380785
O O12 0.733091 0.307712 0.346579
O O13 0.324855 0.960844 0.039550
#
# Coordination Sequence:
#
# PCOD9232717 Si02
#       6
#     4   4   4   4   4   4
#     4  10  22  36  57  92 122 155 210 250 295 376
#     4  10  21  38  59  88 126 161 206 252 303 369
#     4  11  22  39  64  87 126 164 203 256 308 365
#     4  10  23  41  61  93 121 157 209 256 301 374
#     4  10  21  40  62  87 124 161 200 256 307 364
#     4  11  22  40  66  87 123 163 202 254 317 359
#
# _framework density 22.259402000000001
#
# number of rings (size 3 to 8) (size 9 to 14) (size 15 to 20)
#    0.000    1.667    1.667    2.500    2.333    1.333 
#    0.000    0.000    3.667    0.000    0.000    0.000 
#    0.000    0.000    0.000    0.000    0.000    0.000 
#
# Total GULP energy -133899.576407 kJ/mol
# GULP energy per Si atom -5579.149017 kJ/mol
# Density = 2.220874 g / cm^3
# Si number density = 22.259402 Si / 1000 Ang^3
#
#
#
# Elastic Constant Matrix: (Units=GPa)
#
#
# Indices 1 2 3 4 5 6 
#
# 1 92.1432 -5.1795 11.5959 0.0000 -5.3408 0.0000
# 2 -5.1795 12.2338 14.5696 0.0000 2.4387 0.0000
# 3 11.5959 14.5696 127.2833 0.0000 10.1349 0.0000
# 4 0.0000 0.0000 0.0000 26.9260 0.0000 -11.8824
# 5 -5.3408 2.4387 10.1349 0.0000 36.8279 0.0000
# 6 0.0000 0.0000 0.0000 -11.8824 0.0000 30.5849
#
#
#
# Elastic Compliance Matrix: (Units=1/GPa)
#
#
# Indices 1 2 3 4 5 6 
#
# 1 0.011595 0.006926 -0.001990 0.000000 0.001771 0.000000
# 2 0.006926 0.099188 -0.011800 0.000000 -0.002316 0.000000
# 3 -0.001990 -0.011800 0.009559 0.000000 -0.002138 0.000000
# 4 0.000000 0.000000 0.000000 0.044824 0.000000 0.017414
# 5 0.001771 -0.002316 -0.002138 0.000000 0.028152 0.000000
# 6 0.000000 0.000000 0.000000 0.017414 0.000000 0.039461
#
#
# Mechanical properties :
#
#
# Convention : Reuss Voigt Hill
#
# Bulk Modulus (GPa) = 9.37963 30.40358 19.89161
# Shear Modulus (GPa) = 17.72764 32.91270 25.32017
#
# Velocity S-wave (km/s) = 2.82514 3.84943 3.37635
# Velocity P-wave (km/s) = 3.85549 5.78324 4.91481
#
# Compressibility (1/GPa) = 0.10661403
#
# Stress axis : x y z
#
# Youngs Moduli (GPa) = 86.24339 10.08182 104.61616
#
# Poissons Ratio (x) = -0.06983 0.20820
# Poissons Ratio (y) = -0.59735 1.23450
# Poissons Ratio (z) = 0.17164 0.11897
#
# Static dielectric constant tensor:
#      x y z
#    x 1.793180 0.000000 -0.014800 
#    y 0.000000 1.846030 0.000000 
#    z -0.014800 0.000000 1.884500 
# 
# From -- ./inp_files/52062.got.cif
#   From: 2010.05.17/outbox.cif.g08.bks.cpg/sg13_27_cif.got.tgz:52062.got - 2010.06.03 16:44:36.
