data_PCOD9232661
_publ_section_title
;
Structure prediction by ZEFSAII (Michael W. Deem and Ramdas Pophale) SiO2 
 PCOD9232661
Probable space group: P 2/C
;
_chemical_formula_sum "Si O2"
_cell_formula_units_Z 26
_cell_length_a 9.140272
_cell_length_b 14.536559
_cell_length_c 9.264298
_cell_angle_alpha 90.000000
_cell_angle_beta 85.393297
_cell_angle_gamma 90.000000
_cell_volume 1226.953171
_symmetry_space_group_name_H-M "P 2/C"
_symmetry_group_IT_number 13
_symmetry_cell_setting 'monoclinic'
loop_
_space_group_symop_operation_xyz
x,y,z
-x,y,1/2-z
-x,-y,-z
x,-y,1/2+z
loop_
_atom_site_type_symbol
_atom_site_label
_atom_site_fract_x
_atom_site_fract_y
_atom_site_fract_z
Si Si1 0.631471 0.281676 0.342603
Si Si2 0.170672 0.249675 0.441612
Si Si3 0.090937 0.939965 0.101207
Si Si4 0.601698 0.979481 0.359811
Si Si5 0.430781 0.234257 0.611571
Si Si6 0.890258 0.384174 0.475475
Si Si7 0.000000 0.461831 0.750000
O O1 0.500000 0.321140 0.250000
O O2 0.743859 0.239119 0.216795
O O3 0.546924 0.222819 0.471103
O O4 0.736254 0.345289 0.431559
O O5 0.129329 0.151175 0.508738
O O6 0.291736 0.284835 0.549571
O O7 0.028938 0.314965 0.438605
O O8 0.230026 0.002804 0.135761
O O9 0.000000 0.914299 0.250000
O O10 0.000000 0.000000 0.000000
O O11 0.500000 0.025689 0.250000
O O12 0.614604 0.868846 0.336771
O O13 0.500000 0.000000 0.500000
O O14 0.500000 0.278072 0.750000
O O15 0.916890 0.472660 0.371048
O O16 0.898217 0.404993 0.646610
#
# Coordination Sequence:
#
# PCOD9232661 Si02
#       7
#     4   4   4   4   4   4   2
#     4  10  21  40  64  90 125 165 211 259 312 385
#     4  10  22  40  64  90 124 172 208 256 323 382
#     4  11  25  41  60  95 132 165 221 275 315 373
#     4  10  21  38  57  81 117 163 203 258 318 374
#     4   9  21  37  59  89 119 154 217 258 306 380
#     4  11  22  42  66  94 127 165 210 255 323 383
#     4  10  24  40  66  96 128 158 210 262 314 394
#
# _framework density 21.190702999999999
#
# number of rings (size 3 to 8) (size 9 to 14) (size 15 to 20)
#    0.000    1.846    1.538    0.923    3.231    9.231 
#    0.000    0.769    0.000    0.000    0.000    0.000 
#    0.000    0.000    0.000    0.000    0.000    0.000 
#
# Total GULP energy -144813.369175 kJ/mol
# GULP energy per Si atom -5569.744968 kJ/mol
# Density = 2.114247 g / cm^3
# Si number density = 21.190703 Si / 1000 Ang^3
#
#
#
# Elastic Constant Matrix: (Units=GPa)
#
#
# Indices 1 2 3 4 5 6 
#
# 1 129.9201 28.4323 52.0326 0.0000 28.0398 0.0000
# 2 28.4323 32.6591 22.7158 0.0000 10.0276 0.0000
# 3 52.0326 22.7158 163.1467 0.0000 26.5669 0.0000
# 4 0.0000 0.0000 0.0000 28.9492 0.0000 7.1616
# 5 28.0398 10.0276 26.5669 0.0000 38.8666 0.0000
# 6 0.0000 0.0000 0.0000 7.1616 0.0000 9.4111
#
#
#
# Elastic Compliance Matrix: (Units=1/GPa)
#
#
# Indices 1 2 3 4 5 6 
#
# 1 0.010952 -0.006803 -0.001738 0.000000 -0.004958 0.000000
# 2 -0.006803 0.039516 -0.002781 0.000000 -0.003386 0.000000
# 3 -0.001738 -0.002781 0.007595 0.000000 -0.003220 0.000000
# 4 0.000000 0.000000 0.000000 0.042554 0.000000 -0.032383
# 5 -0.004958 -0.003386 -0.003220 0.000000 0.032381 0.000000
# 6 0.000000 0.000000 0.000000 -0.032383 0.000000 0.130900
#
#
# Mechanical properties :
#
#
# Convention : Reuss Voigt Hill
#
# Bulk Modulus (GPa) = 28.23386 59.12081 43.67733
# Shear Modulus (GPa) = 16.75884 30.28172 23.52028
#
# Velocity S-wave (km/s) = 2.81527 3.78433 3.33518
# Velocity P-wave (km/s) = 4.89084 6.85965 5.95714
#
# Compressibility (1/GPa) = 0.03541846
#
# Stress axis : x y z
#
# Youngs Moduli (GPa) = 91.30648 25.30620 131.65771
#
# Poissons Ratio (x) = 0.17217 0.22887
# Poissons Ratio (y) = 0.62119 0.36612
# Poissons Ratio (z) = 0.15873 0.07037
#
# Static dielectric constant tensor:
#      x y z
#    x 1.857610 0.000000 0.071610 
#    y 0.000000 1.789510 0.000000 
#    z 0.071610 0.000000 1.791260 
# 
# From -- ./inp_files/13109.got.cif
#   From: 2010.05.17/outbox.cif.g08.bks.cpg/sg13_7_cif.got.tgz:13109.got - 2010.06.03 16:44:36.
