data_PCOD9232741
_publ_section_title
;
Structure prediction by ZEFSAII (Michael W. Deem and Ramdas Pophale) SiO2 
 PCOD9232741
Probable space group: P 2/C
;
_chemical_formula_sum "Si O2"
_cell_formula_units_Z 32
_cell_length_a 10.153978
_cell_length_b 8.390470
_cell_length_c 14.565148
_cell_angle_alpha 90.000000
_cell_angle_beta 97.626967
_cell_angle_gamma 90.000000
_cell_volume 1229.923752
_symmetry_space_group_name_H-M "P 2/C"
_symmetry_group_IT_number 13
_symmetry_cell_setting 'monoclinic'
loop_
_space_group_symop_operation_xyz
x,y,z
-x,y,1/2-z
-x,-y,-z
x,-y,1/2+z
loop_
_atom_site_type_symbol
_atom_site_label
_atom_site_fract_x
_atom_site_fract_y
_atom_site_fract_z
Si Si1 0.951999 0.118363 0.919173
Si Si2 0.509251 0.815423 0.973600
Si Si3 0.752037 0.215125 0.164428
Si Si4 0.633975 0.348689 0.324667
Si Si5 0.434383 0.685324 0.146789
Si Si6 0.110916 0.614330 0.960600
Si Si7 0.126977 0.352415 0.825066
Si Si8 0.264771 0.095137 0.729695
O O1 0.071916 0.206450 0.880603
O O2 0.864692 0.035097 0.834777
O O3 0.863024 0.261799 0.954489
O O4 0.000000 0.000000 0.000000
O O5 0.368122 0.752201 0.918878
O O6 0.618143 0.776178 0.906061
O O7 0.526834 0.714100 0.068090
O O8 0.500000 0.000000 0.000000
O O9 0.744753 0.315439 0.258378
O O10 0.887695 0.250457 0.122060
O O11 0.711917 0.036893 0.192555
O O12 0.500000 0.328506 0.250000
O O13 0.646616 0.520844 0.373968
O O14 0.500000 0.647615 0.250000
O O15 0.372998 0.859048 0.164264
O O16 0.179479 0.481915 0.901550
O O17 0.000000 0.500000 0.000000
O O18 0.230697 0.268081 0.768482
O O19 0.000000 0.406451 0.750000
#
# Coordination Sequence:
#
# PCOD9232741 Si02
#       8
#     4   4   4   4   4   4   4   4
#     4  10  21  39  59  86 119 156 205 263 323 384
#     4  11  22  39  62  91 129 172 217 272 329 390
#     4  11  22  39  62  92 127 167 216 267 325 398
#     4   9  21  39  60  88 125 169 217 265 318 384
#     4  11  22  39  62  90 126 168 211 263 327 390
#     4  10  21  38  60  87 120 159 204 265 330 391
#     4   9  20  37  58  82 115 155 203 262 323 387
#     4  11  22  38  61  90 122 164 213 263 320 394
#
# _framework density 26.017873999999999
#
# number of rings (size 3 to 8) (size 9 to 14) (size 15 to 20)
#    0.000    1.750    0.000    4.125    0.000    2.000 
#    0.000   10.000    0.000    0.000    0.000    0.000 
#    0.000    0.000    0.000    0.000    0.000    0.000 
#
# Total GULP energy -178395.851820 kJ/mol
# GULP energy per Si atom -5574.870369 kJ/mol
# Density = 2.595866 g / cm^3
# Si number density = 26.017874 Si / 1000 Ang^3
#
#
#
# Elastic Constant Matrix: (Units=GPa)
#
#
# Indices 1 2 3 4 5 6 
#
# 1 38.4422 24.5342 37.8011 0.0000 -15.7863 0.0000
# 2 24.5342 97.3925 47.9779 0.0000 -12.0844 0.0000
# 3 37.8011 47.9779 152.3473 0.0000 -31.3735 0.0000
# 4 0.0000 0.0000 0.0000 66.9297 0.0000 -9.1194
# 5 -15.7863 -12.0844 -31.3735 0.0000 52.8533 0.0000
# 6 0.0000 0.0000 0.0000 -9.1194 0.0000 23.1893
#
#
#
# Elastic Compliance Matrix: (Units=1/GPa)
#
#
# Indices 1 2 3 4 5 6 
#
# 1 0.038675 -0.005765 -0.006463 0.000000 0.006397 0.000000
# 2 -0.005765 0.013028 -0.002750 0.000000 -0.000375 0.000000
# 3 -0.006463 -0.002750 0.009691 0.000000 0.003194 0.000000
# 4 0.000000 0.000000 0.000000 0.015787 0.000000 0.006208
# 5 0.006397 -0.000375 0.003194 0.000000 0.022641 0.000000
# 6 0.000000 0.000000 0.000000 0.006208 0.000000 0.045565
#
#
# Mechanical properties :
#
#
# Convention : Reuss Voigt Hill
#
# Bulk Modulus (GPa) = 31.80861 56.53426 44.17143
# Shear Modulus (GPa) = 26.90755 40.45238 33.67997
#
# Velocity S-wave (km/s) = 3.21938 3.94736 3.60181
# Velocity P-wave (km/s) = 5.10602 6.52317 5.85761
#
# Compressibility (1/GPa) = 0.03143803
#
# Stress axis : x y z
#
# Youngs Moduli (GPa) = 25.85677 76.75794 103.18570
#
# Poissons Ratio (x) = 0.44250 0.66692
# Poissons Ratio (y) = 0.14906 0.28373
# Poissons Ratio (z) = 0.16712 0.21106
#
# Static dielectric constant tensor:
#      x y z
#    x 2.692600 0.000000 0.028000 
#    y 0.000000 2.194930 0.000000 
#    z 0.028000 0.000000 2.039220 
# 
# From -- ./inp_files/50363.got.cif
#   From: 2010.05.17/outbox.cif.g08.bks.cpg/sg13_26_cif.got.tgz:50363.got - 2010.06.03 16:44:36.
