data_PCOD9232778
_publ_section_title
;
Structure prediction by ZEFSAII (Michael W. Deem and Ramdas Pophale) SiO2 
 PCOD9232778
Probable space group: P 2/C
;
_chemical_formula_sum "Si O2"
_cell_formula_units_Z 30
_cell_length_a 11.974353
_cell_length_b 8.198034
_cell_length_c 15.008521
_cell_angle_alpha 90.000000
_cell_angle_beta 91.961001
_cell_angle_gamma 90.000000
_cell_volume 1472.465914
_symmetry_space_group_name_H-M "P 2/C"
_symmetry_group_IT_number 13
_symmetry_cell_setting 'monoclinic'
loop_
_space_group_symop_operation_xyz
x,y,z
-x,y,1/2-z
-x,-y,-z
x,-y,1/2+z
loop_
_atom_site_type_symbol
_atom_site_label
_atom_site_fract_x
_atom_site_fract_y
_atom_site_fract_z
Si Si1 0.000000 0.188823 0.250000
Si Si2 0.660726 0.518312 0.080761
Si Si3 0.354285 0.032795 0.540972
Si Si4 0.997174 0.723229 0.085519
Si Si5 0.509640 0.725999 0.949298
Si Si6 0.100011 0.366466 0.411793
Si Si7 0.835532 0.064966 0.819532
Si Si8 0.755695 0.147615 0.628081
O O1 0.083486 0.287262 0.315451
O O2 0.076465 0.081595 0.186533
O O3 0.569998 0.387786 0.112192
O O4 0.773578 0.419318 0.064105
O O5 0.696599 0.675983 0.138322
O O6 0.602578 0.606187 0.994169
O O7 0.428344 0.192896 0.522772
O O8 0.250594 0.057801 0.602400
O O9 0.429642 0.887202 0.584785
O O10 0.310732 0.961808 0.444834
O O11 0.970816 0.532825 0.093132
O O12 0.879979 0.816693 0.093272
O O13 0.085195 0.779588 0.161762
O O14 0.051853 0.744861 0.989687
O O15 0.771244 0.070190 0.724605
#
# Coordination Sequence:
#
# PCOD9232778 Si02
#       8
#     2   4   4   4   4   4   4   4
#     4  12  26  36  60  98 130 158 204 262 314 386
#     4   9  19  37  67  85 120 161 211 255 317 357
#     4  10  22  39  65  89 127 159 210 257 316 370
#     4  10  21  40  61  89 127 170 204 247 311 385
#     4   9  19  40  66  91 116 164 209 269 307 359
#     4  10  23  38  64  93 123 167 208 254 313 380
#     4  12  24  38  62  93 128 171 203 255 315 388
#     4  10  21  38  61  91 124 167 200 258 310 376
#
# _framework density 20.373984
#
# number of rings (size 3 to 8) (size 9 to 14) (size 15 to 20)
#    0.000    1.867    1.333    1.600    7.467    2.133 
#    0.000    6.000    2.933    0.000    0.000    0.000 
#    0.000    0.000    0.000    0.000    0.000    0.000 
#
# Total GULP energy -167372.462543 kJ/mol
# GULP energy per Si atom -5579.082085 kJ/mol
# Density = 2.032761 g / cm^3
# Si number density = 20.373984 Si / 1000 Ang^3
#
#
#
# Elastic Constant Matrix: (Units=GPa)
#
#
# Indices 1 2 3 4 5 6 
#
# 1 111.4909 47.6647 30.7306 0.0000 3.9586 0.0000
# 2 47.6647 59.3542 22.8377 0.0000 6.2493 0.0000
# 3 30.7306 22.8377 61.4815 0.0000 9.2833 0.0000
# 4 0.0000 0.0000 0.0000 19.2768 0.0000 5.4114
# 5 3.9586 6.2493 9.2833 0.0000 17.4899 0.0000
# 6 0.0000 0.0000 0.0000 5.4114 0.0000 34.8570
#
#
#
# Elastic Compliance Matrix: (Units=1/GPa)
#
#
# Indices 1 2 3 4 5 6 
#
# 1 0.014316 -0.010334 -0.003680 0.000000 0.002406 0.000000
# 2 -0.010334 0.027307 -0.004194 0.000000 -0.005192 0.000000
# 3 -0.003680 -0.004194 0.020993 0.000000 -0.008811 0.000000
# 4 0.000000 0.000000 0.000000 0.054240 0.000000 -0.008421
# 5 0.002406 -0.005192 -0.008811 0.000000 0.063163 0.000000
# 6 0.000000 0.000000 0.000000 -0.008421 0.000000 0.029996
#
#
# Mechanical properties :
#
#
# Convention : Reuss Voigt Hill
#
# Bulk Modulus (GPa) = 38.16885 48.31030 43.23958
# Shear Modulus (GPa) = 19.59510 23.06431 21.32970
#
# Velocity S-wave (km/s) = 3.10461 3.36824 3.23911
# Velocity P-wave (km/s) = 5.62372 6.23618 5.93785
#
# Compressibility (1/GPa) = 0.02619937
#
# Stress axis : x y z
#
# Youngs Moduli (GPa) = 69.85001 36.62033 47.63485
#
# Poissons Ratio (x) = 0.37844 0.17532
# Poissons Ratio (y) = 0.72183 0.19979
# Poissons Ratio (z) = 0.25708 0.15359
#
# Static dielectric constant tensor:
#      x y z
#    x 1.745970 0.000000 0.010340 
#    y 0.000000 1.762180 0.000000 
#    z 0.010340 0.000000 1.708590 
# 
# From -- ./inp_files/50062.got.cif
#   From: 2010.05.17/outbox.cif.g08.bks.cpg/sg13_26_cif.got.tgz:50062.got - 2010.06.03 16:44:36.
