data_PCOD9232658
_publ_section_title
;
Structure prediction by ZEFSAII (Michael W. Deem and Ramdas Pophale) SiO2 
 PCOD9232658
Probable space group: P 2/C
;
_chemical_formula_sum "Si O2"
_cell_formula_units_Z 28
_cell_length_a 7.577570
_cell_length_b 20.855079
_cell_length_c 12.050668
_cell_angle_alpha 90.000000
_cell_angle_beta 142.642285
_cell_angle_gamma 90.000000
_cell_volume 1155.555726
_symmetry_space_group_name_H-M "P 2/C"
_symmetry_group_IT_number 13
_symmetry_cell_setting 'monoclinic'
loop_
_space_group_symop_operation_xyz
x,y,z
-x,y,1/2-z
-x,-y,-z
x,-y,1/2+z
loop_
_atom_site_type_symbol
_atom_site_label
_atom_site_fract_x
_atom_site_fract_y
_atom_site_fract_z
Si Si1 0.695810 0.595177 0.650550
Si Si2 0.217423 0.459454 0.754215
Si Si3 0.767250 0.967641 0.802545
Si Si4 0.133306 0.794258 0.441581
Si Si5 0.320174 0.899262 0.271529
Si Si6 0.718449 0.837873 0.655354
Si Si7 0.122006 0.656397 0.438559
O O1 0.733256 0.533326 0.750890
O O2 0.514574 0.568336 0.453216
O O3 0.465457 0.642118 0.595211
O O4 0.000000 0.618655 0.750000
O O5 0.000000 0.467869 0.750000
O O6 0.059233 0.404083 0.604161
O O7 0.500000 0.953095 0.750000
O O8 0.831271 0.902788 0.770400
O O9 0.717905 0.029416 0.698485
O O10 0.000000 0.000000 0.000000
O O11 0.480386 0.802560 0.611191
O O12 0.063354 0.725835 0.461755
O O13 0.000000 0.789821 0.250000
O O14 0.969736 0.858420 0.399684
O O15 0.500000 0.907605 0.250000
O O16 0.518615 0.859456 0.453304
O O17 0.000000 0.801577 0.750000
O O18 0.000000 0.660150 0.250000
#
# Coordination Sequence:
#
# PCOD9232658 Si02
#       7
#     4   4   4   4   4   4   4
#     4   8  11  16  30  53  81 118 162 206 252 309
#     4   7  11  18  29  49  80 119 161 203 253 310
#     4  11  22  37  57  82 108 138 178 225 281 328
#     4   9  19  34  50  70 102 143 180 221 275 333
#     4  10  21  38  57  78 105 143 187 229 274 328
#     4  11  22  35  54  81 112 142 181 226 274 330
#     4   8  14  24  37  56  89 130 167 207 263 324
#
# _framework density 24.230765999999999
#
# number of rings (size 3 to 8) (size 9 to 14) (size 15 to 20)
#    0.000    3.143    0.000    3.857    0.000    2.286 
#    0.000    0.000    0.000    0.000    0.000    0.000 
#    0.000    1.143    0.000    0.857    0.000    6.000 
#
# Total GULP energy -156099.544635 kJ/mol
# GULP energy per Si atom -5574.983737 kJ/mol
# Density = 2.417562 g / cm^3
# Si number density = 24.230766 Si / 1000 Ang^3
#
#
#
# Elastic Constant Matrix: (Units=GPa)
#
#
# Indices 1 2 3 4 5 6 
#
# 1 54.8787 17.9219 36.3418 0.0000 18.3566 0.0000
# 2 17.9219 123.4274 25.7976 0.0000 9.3484 0.0000
# 3 36.3418 25.7976 111.6517 0.0000 32.4887 0.0000
# 4 0.0000 0.0000 0.0000 14.5957 0.0000 -3.6630
# 5 18.3566 9.3484 32.4887 0.0000 40.2472 0.0000
# 6 0.0000 0.0000 0.0000 -3.6630 0.0000 38.1569
#
#
#
# Elastic Compliance Matrix: (Units=1/GPa)
#
#
# Indices 1 2 3 4 5 6 
#
# 1 0.024762 -0.001912 -0.005831 0.000000 -0.006143 0.000000
# 2 -0.001912 0.008669 -0.001370 0.000000 -0.000035 0.000000
# 3 -0.005831 -0.001370 0.013468 0.000000 -0.007894 0.000000
# 4 0.000000 0.000000 0.000000 0.070205 0.000000 0.006740
# 5 -0.006143 -0.000035 -0.007894 0.000000 0.034029 0.000000
# 6 0.000000 0.000000 0.000000 0.006740 0.000000 0.026855
#
#
# Mechanical properties :
#
#
# Convention : Reuss Voigt Hill
#
# Bulk Modulus (GPa) = 34.87533 50.00894 42.44214
# Shear Modulus (GPa) = 24.29895 32.59308 28.44602
#
# Velocity S-wave (km/s) = 3.17016 3.67155 3.43003
# Velocity P-wave (km/s) = 5.27486 6.21749 5.76547
#
# Compressibility (1/GPa) = 0.02867356
#
# Stress axis : x y z
#
# Youngs Moduli (GPa) = 40.38382 115.35887 74.25030
#
# Poissons Ratio (x) = 0.22052 0.43293
# Poissons Ratio (y) = 0.07720 0.10175
# Poissons Ratio (z) = 0.23547 0.15809
#
# Static dielectric constant tensor:
#      x y z
#    x 1.936090 0.000000 -0.027730 
#    y 0.000000 2.081530 0.000000 
#    z -0.027730 0.000000 2.023730 
# 
# From -- ./inp_files/48234.got.cif
#   From: 2010.05.17/outbox.cif.g08.bks.cpg/sg13_25_cif.got.tgz:48234.got - 2010.06.03 16:44:36.
