data_PCOD9232506
_publ_section_title
;
Structure prediction by ZEFSAII (Michael W. Deem and Ramdas Pophale) SiO2 
 PCOD9232506
Probable space group: P 2/C
;
_chemical_formula_sum "Si O2"
_cell_formula_units_Z 26
_cell_length_a 15.256108
_cell_length_b 6.046478
_cell_length_c 13.877066
_cell_angle_alpha 90.000000
_cell_angle_beta 95.806297
_cell_angle_gamma 90.000000
_cell_volume 1273.532534
_symmetry_space_group_name_H-M "P 2/C"
_symmetry_group_IT_number 13
_symmetry_cell_setting 'monoclinic'
loop_
_space_group_symop_operation_xyz
x,y,z
-x,y,1/2-z
-x,-y,-z
x,-y,1/2+z
loop_
_atom_site_type_symbol
_atom_site_label
_atom_site_fract_x
_atom_site_fract_y
_atom_site_fract_z
Si Si1 0.440054 0.799999 0.454071
Si Si2 0.750678 0.287797 0.065022
Si Si3 0.312718 0.643252 0.289688
Si Si4 0.070151 0.516451 0.423776
Si Si5 0.388821 0.441355 0.590697
Si Si6 0.000000 0.197688 0.250000
Si Si7 0.851301 0.095634 0.686337
O O1 0.370145 0.818366 0.359225
O O2 0.389074 0.678842 0.536529
O O3 0.511679 0.636975 0.413825
O O4 0.500000 0.000000 0.500000
O O5 0.705862 0.430275 0.145509
O O6 0.833170 0.430624 0.035122
O O7 0.794102 0.068236 0.112807
O O8 0.676304 0.277664 0.975468
O O9 0.359712 0.569567 0.197466
O O10 0.217061 0.752291 0.263673
O O11 0.032714 0.352143 0.338871
O O12 0.088091 0.752176 0.375711
O O13 0.000000 0.500000 0.500000
O O14 0.084270 0.044178 0.238593
#
# Coordination Sequence:
#
# PCOD9232506 Si02
#       7
#     4   4   4   4   4   2   4
#     4  10  21  39  60  87 121 156 197 244 296 355
#     4   9  21  37  55  85 118 151 196 246 297 357
#     4  10  21  38  59  87 118 154 200 247 295 355
#     4  10  22  38  58  84 117 155 198 247 298 357
#     4  10  21  37  60  86 118 155 195 245 296 353
#     4  10  22  38  58  86 116 154 200 248 296 354
#     4  10  21  38  58  83 121 156 195 247 299 354
#
# _framework density 20.415655000000001
#
# number of rings (size 3 to 8) (size 9 to 14) (size 15 to 20)
#    0.000    2.154    0.000    1.846    0.000    9.846 
#    0.000    4.615    0.000    0.000    0.000    0.000 
#    0.000    0.000    0.000    0.000    0.000    0.000 
#
# Total GULP energy -145023.152620 kJ/mol
# GULP energy per Si atom -5577.813562 kJ/mol
# Density = 2.036919 g / cm^3
# Si number density = 20.415655 Si / 1000 Ang^3
#
#
#
# Elastic Constant Matrix: (Units=GPa)
#
#
# Indices 1 2 3 4 5 6 
#
# 1 109.4273 23.8153 53.6273 0.0000 1.0229 0.0000
# 2 23.8153 69.1622 26.5101 0.0000 -5.0297 0.0000
# 3 53.6273 26.5101 96.4559 0.0000 -25.9270 0.0000
# 4 0.0000 0.0000 0.0000 6.2592 0.0000 7.5621
# 5 1.0229 -5.0297 -25.9270 0.0000 39.4610 0.0000
# 6 0.0000 0.0000 0.0000 7.5621 0.0000 45.7384
#
#
#
# Elastic Compliance Matrix: (Units=1/GPa)
#
#
# Indices 1 2 3 4 5 6 
#
# 1 0.014041 -0.001838 -0.009063 0.000000 -0.006553 0.000000
# 2 -0.001838 0.016437 -0.003546 0.000000 -0.000187 0.000000
# 3 -0.009063 -0.003546 0.019823 0.000000 0.012807 0.000000
# 4 0.000000 0.000000 0.000000 0.199646 0.000000 -0.033008
# 5 -0.006553 -0.000187 0.012807 0.000000 0.033902 0.000000
# 6 0.000000 0.000000 0.000000 -0.033008 0.000000 0.027321
#
#
# Mechanical properties :
#
#
# Convention : Reuss Voigt Hill
#
# Bulk Modulus (GPa) = 46.71097 53.66120 50.18609
# Shear Modulus (GPa) = 14.40092 29.69790 22.04941
#
# Velocity S-wave (km/s) = 2.65879 3.81814 3.28994
# Velocity P-wave (km/s) = 5.68816 6.76602 6.25037
#
# Compressibility (1/GPa) = 0.02140825
#
# Stress axis : x y z
#
# Youngs Moduli (GPa) = 71.21938 60.83752 50.44530
#
# Poissons Ratio (x) = 0.11180 0.45718
# Poissons Ratio (y) = 0.13088 0.17889
# Poissons Ratio (z) = 0.64545 0.21575
#
# Static dielectric constant tensor:
#      x y z
#    x 1.738310 0.000000 0.005070 
#    y 0.000000 1.787310 0.000000 
#    z 0.005070 0.000000 1.579020 
# 
# From -- ./inp_files/52194.got.cif
#   From: 2010.05.17/outbox.cif.g08.bks.cpg/sg13_27_cif.got.tgz:52194.got - 2010.06.03 16:44:36.
