data_PCOD9232714
_publ_section_title
;
Structure prediction by ZEFSAII (Michael W. Deem and Ramdas Pophale) SiO2 
 PCOD9232714
Probable space group: P 2/C
;
_chemical_formula_sum "Si O2"
_cell_formula_units_Z 24
_cell_length_a 18.280649
_cell_length_b 5.365749
_cell_length_c 14.181765
_cell_angle_alpha 90.000000
_cell_angle_beta 130.035216
_cell_angle_gamma 90.000000
_cell_volume 1065.079661
_symmetry_space_group_name_H-M "P 2/C"
_symmetry_group_IT_number 13
_symmetry_cell_setting 'monoclinic'
loop_
_space_group_symop_operation_xyz
x,y,z
-x,y,1/2-z
-x,-y,-z
x,-y,1/2+z
loop_
_atom_site_type_symbol
_atom_site_label
_atom_site_fract_x
_atom_site_fract_y
_atom_site_fract_z
Si Si1 0.907710 0.985221 0.127626
Si Si2 0.381589 0.723626 0.425902
Si Si3 0.765477 0.312516 0.376059
Si Si4 0.576835 0.777111 0.656598
Si Si5 0.187966 0.991398 0.268045
Si Si6 0.917902 0.686698 0.463750
O O1 0.848206 0.103039 0.164312
O O2 0.000000 0.853931 0.250000
O O3 0.835333 0.813698 0.009165
O O4 0.945365 0.182333 0.083286
O O5 0.463111 0.748582 0.573534
O O6 0.394881 0.448202 0.393078
O O7 0.273758 0.798096 0.362413
O O8 0.408097 0.943172 0.371971
O O9 0.653559 0.276530 0.302449
O O10 0.811643 0.581037 0.398736
O O11 0.778984 0.181435 0.285130
O O12 0.101410 0.857717 0.142021
O O13 0.000000 0.500000 0.500000
#
# Coordination Sequence:
#
# PCOD9232714 Si02
#       6
#     4   4   4   4   4   4
#     4  11  24  39  57  88 121 164 216 270 330 392
#     4   9  17  33  61  94 123 164 206 260 315 396
#     4  10  21  38  59  87 122 164 207 269 322 392
#     4   9  17  33  61  93 124 162 212 250 325 387
#     4  10  21  39  60  87 124 160 212 266 329 388
#     4  11  22  38  61  85 118 166 214 268 329 389
#
# _framework density 22.533525999999998
#
# number of rings (size 3 to 8) (size 9 to 14) (size 15 to 20)
#    0.000    2.000    1.667    2.000    0.000    6.000 
#    0.000    0.833    0.000    0.000    0.000    0.000 
#    0.000    0.000    0.000    0.000    0.000    0.000 
#
# Total GULP energy -133770.195054 kJ/mol
# GULP energy per Si atom -5573.758127 kJ/mol
# Density = 2.248224 g / cm^3
# Si number density = 22.533526 Si / 1000 Ang^3
#
#
#
# Elastic Constant Matrix: (Units=GPa)
#
#
# Indices 1 2 3 4 5 6 
#
# 1 80.1889 14.3823 55.2960 0.0000 -7.4827 0.0000
# 2 14.3823 65.6315 18.2732 0.0000 -3.9039 0.0000
# 3 55.2960 18.2732 154.3543 0.0000 17.4229 0.0000
# 4 0.0000 0.0000 0.0000 30.6048 0.0000 21.5265
# 5 -7.4827 -3.9039 17.4229 0.0000 31.1365 0.0000
# 6 0.0000 0.0000 0.0000 21.5265 0.0000 16.3027
#
#
#
# Elastic Compliance Matrix: (Units=1/GPa)
#
#
# Indices 1 2 3 4 5 6 
#
# 1 0.018686 -0.001510 -0.007473 0.000000 0.008483 0.000000
# 2 -0.001510 0.016187 -0.001669 0.000000 0.002601 0.000000
# 3 -0.007473 -0.001669 0.010225 0.000000 -0.007727 0.000000
# 4 0.000000 0.000000 0.000000 0.458540 0.000000 -0.605465
# 5 0.008483 0.002601 -0.007727 0.000000 0.038805 0.000000
# 6 0.000000 0.000000 0.000000 -0.605465 0.000000 0.860808
#
#
# Mechanical properties :
#
#
# Convention : Reuss Voigt Hill
#
# Bulk Modulus (GPa) = 42.02527 52.89753 47.46140
# Shear Modulus (GPa) = 3.49044 29.75702 16.62373
#
# Velocity S-wave (km/s) = 1.24594 3.63790 2.71907
# Velocity P-wave (km/s) = 4.55636 6.41652 5.56472
#
# Compressibility (1/GPa) = 0.02379521
#
# Stress axis : x y z
#
# Youngs Moduli (GPa) = 53.51609 61.77887 97.79502
#
# Poissons Ratio (x) = 0.09326 0.73081
# Poissons Ratio (y) = 0.08079 0.16322
# Poissons Ratio (z) = 0.39992 0.10311
#
# Static dielectric constant tensor:
#      x y z
#    x 1.902200 0.000000 0.071670 
#    y 0.000000 1.877710 0.000000 
#    z 0.071670 0.000000 1.902760 
# 
# From -- ./inp_files/52184.got.cif
#   From: 2010.05.17/outbox.cif.g08.bks.cpg/sg13_27_cif.got.tgz:52184.got - 2010.06.03 16:44:36.
