data_PCOD9232430
_publ_section_title
;
Structure prediction by ZEFSAII (Michael W. Deem and Ramdas Pophale) SiO2 
 PCOD9232430
Probable space group: P 2/C
;
_chemical_formula_sum "Si O2"
_cell_formula_units_Z 16
_cell_length_a 6.933885
_cell_length_b 9.985667
_cell_length_c 9.549483
_cell_angle_alpha 90.000000
_cell_angle_beta 73.052980
_cell_angle_gamma 90.000000
_cell_volume 632.488250
_symmetry_space_group_name_H-M "P 2/C"
_symmetry_group_IT_number 13
_symmetry_cell_setting 'monoclinic'
loop_
_space_group_symop_operation_xyz
x,y,z
-x,y,1/2-z
-x,-y,-z
x,-y,1/2+z
loop_
_atom_site_type_symbol
_atom_site_label
_atom_site_fract_x
_atom_site_fract_y
_atom_site_fract_z
Si Si1 0.351428 0.050454 0.411070
Si Si2 0.201658 0.510925 0.270111
Si Si3 0.696786 0.763840 0.102458
Si Si4 0.376912 0.331701 0.473286
O O1 0.500000 0.082019 0.250000
O O2 0.260607 0.189767 0.482822
O O3 0.500000 0.000000 0.500000
O O4 0.223381 0.915823 0.410081
O O5 0.162307 0.645746 0.370589
O O6 0.317983 0.411889 0.347256
O O7 0.318891 0.570909 0.112763
O O8 0.000000 0.450554 0.250000
O O9 0.500000 0.768511 0.250000
O O10 0.601240 0.717899 0.973452
#
# Coordination Sequence:
#
# PCOD9232430 Si02
#       4
#     4   4   4   4
#     4   9  18  35  59  85 107 135 182 235 273 315
#     4  11  22  37  54  81 116 148 181 226 274 325
#     4   8  17  35  59  81 104 138 183 227 270 319
#     4  10  21  37  57  81 110 147 186 226 271 325
#
# _framework density 25.296913
#
# number of rings (size 3 to 8) (size 9 to 14) (size 15 to 20)
#    0.000    2.500    0.000    3.000    0.000    7.000 
#    0.000    2.500    0.000    0.000    0.000    0.000 
#    0.000    0.000    0.000    0.000    0.000    0.000 
#
# Total GULP energy -89320.136615 kJ/mol
# GULP energy per Si atom -5582.508538 kJ/mol
# Density = 2.523934 g / cm^3
# Si number density = 25.296913 Si / 1000 Ang^3
#
#
#
# Elastic Constant Matrix: (Units=GPa)
#
#
# Indices 1 2 3 4 5 6 
#
# 1 62.8674 35.8562 44.2982 0.0000 19.5444 0.0000
# 2 35.8562 223.8149 62.8612 0.0000 21.1183 0.0000
# 3 44.2982 62.8612 149.3562 0.0000 41.1418 0.0000
# 4 0.0000 0.0000 0.0000 38.5196 0.0000 5.2040
# 5 19.5444 21.1183 41.1418 0.0000 26.8871 0.0000
# 6 0.0000 0.0000 0.0000 5.2040 0.0000 21.3635
#
#
#
# Elastic Compliance Matrix: (Units=1/GPa)
#
#
# Indices 1 2 3 4 5 6 
#
# 1 0.022196 -0.001742 -0.003081 0.000000 -0.010051 0.000000
# 2 -0.001742 0.005228 -0.001558 0.000000 -0.000456 0.000000
# 3 -0.003081 -0.001558 0.012638 0.000000 -0.015875 0.000000
# 4 0.000000 0.000000 0.000000 0.026844 0.000000 -0.006539
# 5 -0.010051 -0.000456 -0.015875 0.000000 0.069147 0.000000
# 6 0.000000 0.000000 0.000000 -0.006539 0.000000 0.048402
#
#
# Mechanical properties :
#
#
# Convention : Reuss Voigt Hill
#
# Bulk Modulus (GPa) = 36.63177 80.22996 58.43087
# Shear Modulus (GPa) = 24.23453 36.88889 30.56171
#
# Velocity S-wave (km/s) = 3.09852 3.82283 3.47957
# Velocity P-wave (km/s) = 5.22621 7.16027 6.26829
#
# Compressibility (1/GPa) = 0.02729871
#
# Stress axis : x y z
#
# Youngs Moduli (GPa) = 45.05317 191.29052 79.12743
#
# Poissons Ratio (x) = 0.33325 0.24382
# Poissons Ratio (y) = 0.07849 0.12328
# Poissons Ratio (z) = 0.13882 0.29803
#
# Static dielectric constant tensor:
#      x y z
#    x 1.997400 0.000000 -0.062590 
#    y 0.000000 2.099090 0.000000 
#    z -0.062590 0.000000 2.124770 
# 
# From -- ./inp_files/27415.got.cif
#   From: 2010.05.17/outbox.cif.g08.bks.cpg/sg13_14_cif.got.tgz:27415.got - 2010.06.03 16:44:36.
