data_PCOD9232668
_publ_section_title
;
Structure prediction by ZEFSAII (Michael W. Deem and Ramdas Pophale) SiO2 
 PCOD9232668
Probable space group: P 2/C
;
_chemical_formula_sum "Si O2"
_cell_formula_units_Z 30
_cell_length_a 14.061085
_cell_length_b 11.717320
_cell_length_c 28.655004
_cell_angle_alpha 90.000000
_cell_angle_beta 20.670747
_cell_angle_gamma 90.000000
_cell_volume 1666.551941
_symmetry_space_group_name_H-M "P 2/C"
_symmetry_group_IT_number 13
_symmetry_cell_setting 'monoclinic'
loop_
_space_group_symop_operation_xyz
x,y,z
-x,y,1/2-z
-x,-y,-z
x,-y,1/2+z
loop_
_atom_site_type_symbol
_atom_site_label
_atom_site_fract_x
_atom_site_fract_y
_atom_site_fract_z
Si Si1 0.430942 0.966164 0.585974
Si Si2 0.587207 0.855325 0.322667
Si Si3 0.512626 0.361938 0.992030
Si Si4 0.617950 0.391575 0.842232
Si Si5 0.808663 0.164204 0.984249
Si Si6 0.293369 0.991602 0.887145
Si Si7 0.000000 0.206460 0.250000
Si Si8 0.206533 0.596338 0.044388
O O1 0.656888 0.893971 0.509954
O O2 0.169494 0.882023 0.704471
O O3 0.500000 0.000000 0.500000
O O4 0.401379 0.077221 0.632907
O O5 0.540268 0.720920 0.349867
O O6 0.879593 0.869964 0.164845
O O7 0.366035 0.907763 0.389958
O O8 0.654329 0.342833 0.877963
O O9 0.682932 0.340251 0.959852
O O10 0.500000 0.500000 0.000000
O O11 0.231122 0.291663 0.123132
O O12 0.901766 0.440488 0.694618
O O13 0.394767 0.489960 0.945977
O O14 0.790685 0.300658 0.992992
O O15 0.688777 0.116598 0.086969
O O16 0.500000 0.989373 0.750000
O O17 0.000000 0.000000 0.000000
#
# Coordination Sequence:
#
# PCOD9232668 Si02
#       8
#     4   4   4   4   4   4   2   4
#     4  11  22  36  55  89 128 168 207 254 312 375
#     4  10  22  39  61  92 123 160 202 254 319 376
#     4  10  22  33  53  81 117 171 218 253 301 352
#     4  10  22  37  59  83 126 163 214 254 306 361
#     4  10  21  38  60  88 121 158 203 254 309 371
#     4  11  22  43  69  93 118 155 199 255 320 386
#     4  12  22  36  54  80 126 166 218 268 306 358
#     4  10  21  38  57  85 120 166 210 261 298 366
#
# _framework density 18.001239999999999
#
# number of rings (size 3 to 8) (size 9 to 14) (size 15 to 20)
#    0.000    1.600    2.667    2.000    7.467    1.067 
#    2.400    0.000    0.000    1.600    0.000    0.000 
#    0.000    0.000    0.000    0.000    0.000    0.000 
#
# Total GULP energy -167125.524880 kJ/mol
# GULP energy per Si atom -5570.850829 kJ/mol
# Density = 1.796027 g / cm^3
# Si number density = 18.001240 Si / 1000 Ang^3
#
#
#
# Elastic Constant Matrix: (Units=GPa)
#
#
# Indices 1 2 3 4 5 6 
#
# 1 93.4963 31.4171 44.4076 0.0000 -4.5170 0.0000
# 2 31.4171 86.6852 60.8789 0.0000 -8.5224 0.0000
# 3 44.4076 60.8789 107.5548 0.0000 -9.8620 0.0000
# 4 0.0000 0.0000 0.0000 34.8291 0.0000 -3.6847
# 5 -4.5170 -8.5224 -9.8620 0.0000 34.3581 0.0000
# 6 0.0000 0.0000 0.0000 -3.6847 0.0000 13.9585
#
#
#
# Elastic Compliance Matrix: (Units=1/GPa)
#
#
# Indices 1 2 3 4 5 6 
#
# 1 0.013440 -0.001614 -0.004632 0.000000 0.000037 0.000000
# 2 -0.001614 0.019437 -0.010180 0.000000 0.001687 0.000000
# 3 -0.004632 -0.010180 0.017136 0.000000 0.001784 0.000000
# 4 0.000000 0.000000 0.000000 0.029536 0.000000 0.007797
# 5 0.000037 0.001687 0.001784 0.000000 0.030041 0.000000
# 6 0.000000 0.000000 0.000000 0.007797 0.000000 0.073699
#
#
# Mechanical properties :
#
#
# Convention : Reuss Voigt Hill
#
# Bulk Modulus (GPa) = 58.27813 62.34928 60.31370
# Shear Modulus (GPa) = 22.53654 26.69800 24.61727
#
# Velocity S-wave (km/s) = 3.54212 3.85531 3.70203
# Velocity P-wave (km/s) = 7.01239 7.38439 7.20079
#
# Compressibility (1/GPa) = 0.01715910
#
# Stress axis : x y z
#
# Youngs Moduli (GPa) = 74.40549 51.44923 58.35643
#
# Poissons Ratio (x) = 0.08306 0.27030
# Poissons Ratio (y) = 0.12012 0.59409
# Poissons Ratio (z) = 0.34464 0.52378
#
# Static dielectric constant tensor:
#      x y z
#    x 1.639450 0.000000 0.003940 
#    y 0.000000 1.652520 0.000000 
#    z 0.003940 0.000000 1.630800 
# 
# From -- ./inp_files/97005.got.cif
#   From: 2010.05.17/outbox.cif.g08.bks.cpg/sg13_49_cif.got.tgz:97005.got - 2010.06.03 16:44:36.
