data_PCOD9232932
_publ_section_title
;
Structure prediction by ZEFSAII (Michael W. Deem and Ramdas Pophale) SiO2 
 PCOD9232932
Probable space group: P 2/C
;
_chemical_formula_sum "Si O2"
_cell_formula_units_Z 28
_cell_length_a 5.719438
_cell_length_b 16.904037
_cell_length_c 13.132492
_cell_angle_alpha 90.000000
_cell_angle_beta 102.249867
_cell_angle_gamma 90.000000
_cell_volume 1240.761867
_symmetry_space_group_name_H-M "P 2/C"
_symmetry_group_IT_number 13
_symmetry_cell_setting 'monoclinic'
loop_
_space_group_symop_operation_xyz
x,y,z
-x,y,1/2-z
-x,-y,-z
x,-y,1/2+z
loop_
_atom_site_type_symbol
_atom_site_label
_atom_site_fract_x
_atom_site_fract_y
_atom_site_fract_z
Si Si1 0.311388 0.575775 0.588045
Si Si2 0.422818 0.752393 0.568195
Si Si3 0.770325 0.876738 0.664627
Si Si4 0.351609 0.963327 0.392528
Si Si5 0.156983 0.494893 0.857945
Si Si6 0.000736 0.134062 0.970665
Si Si7 0.574252 0.790908 0.362363
O O1 0.346858 0.668978 0.603115
O O2 0.577511 0.536424 0.639822
O O3 0.238221 0.557156 0.463201
O O4 0.066307 0.550506 0.624258
O O5 0.611613 0.799237 0.653039
O O6 0.217213 0.817133 0.536727
O O7 0.518208 0.743831 0.460267
O O8 0.000000 0.861615 0.750000
O O9 0.839459 0.885363 0.552116
O O10 0.670959 0.962896 0.684551
O O11 0.094770 0.938623 0.414450
O O12 0.456276 0.879737 0.361862
O O13 0.500000 0.000000 0.500000
O O14 0.000000 0.455339 0.750000
O O15 0.854545 0.191993 0.884911
O O16 0.500000 0.752833 0.250000
#
# Coordination Sequence:
#
# PCOD9232932 Si02
#       7
#     4   4   4   4   4   4   4
#     4  10  23  43  74 101 144 178 217 271 332 390
#     4  10  23  43  58  90 127 164 203 261 332 391
#     4  11  24  37  57  87 118 161 219 265 319 390
#     4  11  20  37  56  79 111 162 213 265 329 373
#     4  10  22  45  72 108 136 177 225 267 316 404
#     4  10  21  39  57  74 125 158 201 270 324 376
#     4  10  23  38  58  86 116 161 220 270 326 392
#
# _framework density 22.566780000000001
#
# number of rings (size 3 to 8) (size 9 to 14) (size 15 to 20)
#    0.000    1.714    4.286    0.857    6.000    2.857 
#    5.143    0.000    0.000    0.000    0.000    0.000 
#    0.000    0.000    0.000    0.000    0.000    0.000 
#
# Total GULP energy -155959.557334 kJ/mol
# GULP energy per Si atom -5569.984191 kJ/mol
# Density = 2.251542 g / cm^3
# Si number density = 22.566780 Si / 1000 Ang^3
#
#
#
# Elastic Constant Matrix: (Units=GPa)
#
#
# Indices 1 2 3 4 5 6 
#
# 1 92.7755 24.0221 38.9140 0.0000 11.6867 0.0000
# 2 24.0221 64.1334 -14.4933 0.0000 9.3377 0.0000
# 3 38.9140 -14.4933 81.2422 0.0000 27.6072 0.0000
# 4 0.0000 0.0000 0.0000 -8.5378 0.0000 -13.7642
# 5 11.6867 9.3377 27.6072 0.0000 48.6934 0.0000
# 6 0.0000 0.0000 0.0000 -13.7642 0.0000 -7.1756
#
#
#
# Elastic Compliance Matrix: (Units=1/GPa)
#
#
# Indices 1 2 3 4 5 6 
#
# 1 0.017715 -0.009905 -0.011709 0.000000 0.004286 0.000000
# 2 -0.009905 0.023278 0.011899 0.000000 -0.008833 0.000000
# 3 -0.011709 0.011899 0.024600 0.000000 -0.013419 0.000000
# 4 0.000000 0.000000 0.000000 0.055976 0.000000 -0.107374
# 5 0.004286 -0.008833 -0.013419 0.000000 0.028810 0.000000
# 6 0.000000 0.000000 0.000000 -0.107374 0.000000 0.066603
#
#
# Mechanical properties :
#
#
# Convention : Reuss Voigt Hill
#
# Bulk Modulus (GPa) = 21.66331 37.22630 29.44481
# Shear Modulus (GPa) = 19.85711 19.24323 19.55017
#
# Velocity S-wave (km/s) = 2.96957 2.92331 2.94653
# Velocity P-wave (km/s) = 4.62367 5.28453 4.96510
#
# Compressibility (1/GPa) = 0.04616099
#
# Stress axis : x y z
#
# Youngs Moduli (GPa) = 56.45040 42.95972 40.65094
#
# Poissons Ratio (x) = 0.42553 0.47597
# Poissons Ratio (y) = 0.55916 -0.48369
# Poissons Ratio (z) = 0.66096 -0.51116
#
# Static dielectric constant tensor:
#      x y z
#    x 1.901790 0.000000 -0.028850 
#    y 0.000000 1.760680 0.000000 
#    z -0.028850 0.000000 1.707920 
# 
# From -- ./inp_files/44314.got.cif
#   From: 2010.05.17/outbox.cif.g08.bks.cpg/sg13_23_cif.got.tgz:44314.got - 2010.06.03 16:44:36.
