data_PCOD9232031
_publ_section_title
;
Structure prediction by ZEFSAII (Michael W. Deem and Ramdas Pophale) SiO2 
 PCOD9232031
Probable space group: P 2/C
;
_chemical_formula_sum "Si O2"
_cell_formula_units_Z 18
_cell_length_a 6.973055
_cell_length_b 9.049118
_cell_length_c 13.522755
_cell_angle_alpha 90.000000
_cell_angle_beta 123.685300
_cell_angle_gamma 90.000000
_cell_volume 710.016089
_symmetry_space_group_name_H-M "P 2/C"
_symmetry_group_IT_number 13
_symmetry_cell_setting 'monoclinic'
loop_
_space_group_symop_operation_xyz
x,y,z
-x,y,1/2-z
-x,-y,-z
x,-y,1/2+z
loop_
_atom_site_type_symbol
_atom_site_label
_atom_site_fract_x
_atom_site_fract_y
_atom_site_fract_z
Si Si1 0.642981 0.434047 0.949302
Si Si2 0.830754 0.417238 0.324895
Si Si3 0.995308 0.935061 0.388928
Si Si4 0.500000 0.188118 0.750000
Si Si5 0.000000 0.824155 0.750000
Si Si6 0.000000 0.678635 0.250000
O O1 0.671839 0.560480 0.873495
O O2 0.572533 0.288588 0.865851
O O3 0.500000 0.500000 0.000000
O O4 0.812310 0.276627 0.250240
O O5 0.830369 0.564491 0.257133
O O6 0.095416 0.405927 0.438858
O O7 0.723726 0.908600 0.289431
O O8 0.090261 0.782637 0.365900
O O9 0.000000 0.000000 0.500000
O O10 0.108243 0.065991 0.359495
#
# Coordination Sequence:
#
# PCOD9232031 Si02
#       6
#     4   4   4   2   2   2
#     4  11  24  41  72 109 138 183 244 300 369 437
#     4  10  22  46  72 103 145 187 238 311 378 419
#     4  11  24  45  71 101 147 200 242 295 375 443
#     4  12  24  48  70 110 150 194 252 304 368 456
#     4  10  24  44  68 104 142 190 242 302 366 436
#     4  10  20  44  74  98 146 192 232 306 374 432
#
# _framework density 25.351535999999999
#
# number of rings (size 3 to 8) (size 9 to 14) (size 15 to 20)
#    0.000    1.333    2.222    2.667    6.222    0.000 
#    4.000    5.556    0.000    0.000    0.000    0.000 
#    0.000    0.000    0.000    0.000    0.000    0.000 
#
# Total GULP energy -100539.156900 kJ/mol
# GULP energy per Si atom -5585.508717 kJ/mol
# Density = 2.529383 g / cm^3
# Si number density = 25.351536 Si / 1000 Ang^3
#
#
#
# Elastic Constant Matrix: (Units=GPa)
#
#
# Indices 1 2 3 4 5 6 
#
# 1 119.8619 32.7786 48.8199 0.0000 -36.8617 0.0000
# 2 32.7786 170.6150 74.6462 0.0000 -33.3310 0.0000
# 3 48.8199 74.6462 182.9374 0.0000 -41.2038 0.0000
# 4 0.0000 0.0000 0.0000 51.1196 0.0000 -8.4174
# 5 -36.8617 -33.3310 -41.2038 0.0000 71.2245 0.0000
# 6 0.0000 0.0000 0.0000 -8.4174 0.0000 33.1842
#
#
#
# Elastic Compliance Matrix: (Units=1/GPa)
#
#
# Indices 1 2 3 4 5 6 
#
# 1 0.010442 -0.000458 -0.001645 0.000000 0.004238 0.000000
# 2 -0.000458 0.007387 -0.002491 0.000000 0.001778 0.000000
# 3 -0.001645 -0.002491 0.007436 0.000000 0.002285 0.000000
# 4 0.000000 0.000000 0.000000 0.020415 0.000000 0.005178
# 5 0.004238 0.001778 0.002285 0.000000 0.018387 0.000000
# 6 0.000000 0.000000 0.000000 0.005178 0.000000 0.031448
#
#
# Mechanical properties :
#
#
# Convention : Reuss Voigt Hill
#
# Bulk Modulus (GPa) = 62.20655 87.32263 74.76459
# Shear Modulus (GPa) = 45.42872 52.25029 48.83951
#
# Velocity S-wave (km/s) = 4.23774 4.54478 4.39394
# Velocity P-wave (km/s) = 6.96674 7.87779 7.43623
#
# Compressibility (1/GPa) = 0.01607548
#
# Stress axis : x y z
#
# Youngs Moduli (GPa) = 95.77112 135.38148 134.47253
#
# Poissons Ratio (x) = 0.06207 0.22120
# Poissons Ratio (y) = 0.04391 0.33499
# Poissons Ratio (z) = 0.15754 0.33725
#
# Static dielectric constant tensor:
#      x y z
#    x 2.136620 0.000000 0.043260 
#    y 0.000000 2.021990 0.000000 
#    z 0.043260 0.000000 2.126300 
# 
# From -- ./inp_files/27825.got.cif
#   From: 2010.05.17/outbox.cif.g08.bks.cpg/sg13_14_cif.got.tgz:27825.got - 2010.06.03 16:44:36.
