data_PCOD9232924
_publ_section_title
;
Structure prediction by ZEFSAII (Michael W. Deem and Ramdas Pophale) SiO2 
 PCOD9232924
Probable space group: P 2/C
;
_chemical_formula_sum "Si O2"
_cell_formula_units_Z 18
_cell_length_a 8.824795
_cell_length_b 17.806057
_cell_length_c 5.620271
_cell_angle_alpha 90.000000
_cell_angle_beta 83.334119
_cell_angle_gamma 90.000000
_cell_volume 877.170103
_symmetry_space_group_name_H-M "P 2/C"
_symmetry_group_IT_number 13
_symmetry_cell_setting 'monoclinic'
loop_
_space_group_symop_operation_xyz
x,y,z
-x,y,1/2-z
-x,-y,-z
x,-y,1/2+z
loop_
_atom_site_type_symbol
_atom_site_label
_atom_site_fract_x
_atom_site_fract_y
_atom_site_fract_z
Si Si1 0.000000 0.954874 0.250000
Si Si2 0.322449 0.471183 0.780370
Si Si3 0.500000 0.782706 0.750000
Si Si4 0.212345 0.826929 0.070824
Si Si5 0.711896 0.697294 0.069833
Si Si6 0.000000 0.740439 0.750000
O O1 0.851309 0.901193 0.294612
O O2 0.000000 0.000000 0.500000
O O3 0.500000 0.497705 0.750000
O O4 0.254689 0.496818 0.539839
O O5 0.319668 0.381491 0.802078
O O6 0.635974 0.832574 0.616803
O O7 0.424749 0.728061 0.567940
O O8 0.251731 0.762748 0.251807
O O9 0.077352 0.794057 0.931293
O O10 0.863419 0.691587 0.881135
#
# Coordination Sequence:
#
# PCOD9232924 Si02
#       6
#     2   4   2   4   4   2
#     4  12  27  46  74 103 136 178 218 266 343 420
#     4  10  23  38  59  91 135 179 222 278 342 394
#     4  10  24  36  72 100 132 166 244 276 328 374
#     4  11  22  44  68 101 131 177 224 278 327 403
#     4  11  22  40  67  98 128 179 229 283 326 398
#     4  10  21  38  70  93 130 168 234 272 333 386
#
# _framework density 20.520533
#
# number of rings (size 3 to 8) (size 9 to 14) (size 15 to 20)
#    0.000    1.333    2.222    2.667   14.000    0.000 
#    0.000    2.222    0.000    0.000    0.000    0.000 
#    0.000    0.000    0.000    0.000    0.000    0.000 
#
# Total GULP energy -100564.302925 kJ/mol
# GULP energy per Si atom -5586.905718 kJ/mol
# Density = 2.047383 g / cm^3
# Si number density = 20.520533 Si / 1000 Ang^3
#
#
#
# Elastic Constant Matrix: (Units=GPa)
#
#
# Indices 1 2 3 4 5 6 
#
# 1 89.2546 31.8219 39.4698 0.0000 4.3432 0.0000
# 2 31.8219 114.2451 79.8816 0.0000 2.7829 0.0000
# 3 39.4698 79.8816 151.5519 0.0000 21.1846 0.0000
# 4 0.0000 0.0000 0.0000 47.6988 0.0000 -6.9383
# 5 4.3432 2.7829 21.1846 0.0000 48.3157 0.0000
# 6 0.0000 0.0000 0.0000 -6.9383 0.0000 21.9230
#
#
#
# Elastic Compliance Matrix: (Units=1/GPa)
#
#
# Indices 1 2 3 4 5 6 
#
# 1 0.012938 -0.001980 -0.002322 0.000000 -0.000031 0.000000
# 2 -0.001980 0.014469 -0.007478 0.000000 0.002623 0.000000
# 3 -0.002322 -0.007478 0.011777 0.000000 -0.004524 0.000000
# 4 0.000000 0.000000 0.000000 0.021977 0.000000 0.006955
# 5 -0.000031 0.002623 -0.004524 0.000000 0.022533 0.000000
# 6 0.000000 0.000000 0.000000 0.006955 0.000000 0.047815
#
#
# Mechanical properties :
#
#
# Convention : Reuss Voigt Hill
#
# Bulk Modulus (GPa) = 63.99627 73.04425 68.52026
# Shear Modulus (GPa) = 31.19633 37.17937 34.18785
#
# Velocity S-wave (km/s) = 3.90327 4.26116 4.08613
# Velocity P-wave (km/s) = 7.18110 7.73841 7.46495
#
# Compressibility (1/GPa) = 0.01562591
#
# Stress axis : x y z
#
# Youngs Moduli (GPa) = 77.29225 69.11299 84.91190
#
# Poissons Ratio (x) = 0.13681 0.19715
# Poissons Ratio (y) = 0.15300 0.63494
# Poissons Ratio (z) = 0.17946 0.51680
#
# Static dielectric constant tensor:
#      x y z
#    x 1.729820 0.000000 -0.029720 
#    y 0.000000 1.693410 0.000000 
#    z -0.029720 0.000000 1.878430 
# 
# From -- ./inp_files/1315.got.cif
#   From: 2010.05.17/outbox.cif.g08.bks.cpg/sg13_1_cif.got.tgz:1315.got - 2010.06.03 16:44:36.
