data_PCOD9232641
_publ_section_title
;
Structure prediction by ZEFSAII (Michael W. Deem and Ramdas Pophale) SiO2 
 PCOD9232641
Probable space group: P 2/C
;
_chemical_formula_sum "Si O2"
_cell_formula_units_Z 28
_cell_length_a 5.517796
_cell_length_b 13.844192
_cell_length_c 15.988505
_cell_angle_alpha 90.000000
_cell_angle_beta 118.885439
_cell_angle_gamma 90.000000
_cell_volume 1069.400970
_symmetry_space_group_name_H-M "P 2/C"
_symmetry_group_IT_number 13
_symmetry_cell_setting 'monoclinic'
loop_
_space_group_symop_operation_xyz
x,y,z
-x,y,1/2-z
-x,-y,-z
x,-y,1/2+z
loop_
_atom_site_type_symbol
_atom_site_label
_atom_site_fract_x
_atom_site_fract_y
_atom_site_fract_z
Si Si1 0.676603 0.237024 0.195438
Si Si2 0.121012 0.248346 0.513110
Si Si3 0.742592 0.404515 0.097688
Si Si4 0.325531 0.772165 0.306605
Si Si5 0.362930 0.949736 0.896842
Si Si6 0.138126 0.945144 0.599500
Si Si7 0.825489 0.385335 0.597407
O O1 0.500000 0.217371 0.250000
O O2 0.680960 0.349300 0.173593
O O3 0.592153 0.166173 0.104630
O O4 0.000000 0.211675 0.250000
O O5 0.109343 0.330684 0.440598
O O6 0.425998 0.203160 0.585115
O O7 0.938378 0.163451 0.442671
O O8 0.009242 0.305818 0.577633
O O9 0.910600 0.504219 0.128805
O O10 0.437990 0.405755 0.005487
O O11 0.500000 0.780459 0.250000
O O12 0.271599 0.663186 0.332088
O O13 0.000000 0.811182 0.250000
O O14 0.546901 0.978772 0.848847
O O15 0.041834 0.970352 0.850657
O O16 0.500000 0.000000 0.000000
O O17 0.000000 0.000000 0.500000
#
# Coordination Sequence:
#
# PCOD9232641 Si02
#       7
#     4   4   4   4   4   4   4
#     4  12  26  43  67 106 146 186 222 290 373 426
#     4  11  21  39  71  94 136 176 236 288 342 414
#     4  10  23  40  63 101 138 182 233 289 337 419
#     4  11  23  41  62  94 132 181 225 283 344 398
#     4  10  21  42  69 100 130 178 236 278 339 428
#     4  10  21  37  70 103 121 164 234 281 341 405
#     4  10  22  40  67  98 130 188 242 283 332 421
#
# _framework density 26.182884999999999
#
# number of rings (size 3 to 8) (size 9 to 14) (size 15 to 20)
#    0.000    1.429    2.857    2.143    4.000    1.143 
#    0.000    0.000    0.000   13.714    7.429    0.000 
#    0.000    0.000    0.000    0.000    0.000    0.000 
#
# Total GULP energy -155876.990434 kJ/mol
# GULP energy per Si atom -5567.035373 kJ/mol
# Density = 2.612329 g / cm^3
# Si number density = 26.182885 Si / 1000 Ang^3
#
#
#
# Elastic Constant Matrix: (Units=GPa)
#
#
# Indices 1 2 3 4 5 6 
#
# 1 255.2633 22.9455 54.8583 0.0000 -12.6946 0.0000
# 2 22.9455 129.7489 35.3308 0.0000 -18.4407 0.0000
# 3 54.8583 35.3308 102.9484 0.0000 -13.2994 0.0000
# 4 0.0000 0.0000 0.0000 -22.9996 0.0000 -9.1030
# 5 -12.6946 -18.4407 -13.2994 0.0000 57.1268 0.0000
# 6 0.0000 0.0000 0.0000 -9.1030 0.0000 5.2594
#
#
#
# Elastic Compliance Matrix: (Units=1/GPa)
#
#
# Indices 1 2 3 4 5 6 
#
# 1 0.004437 -0.000105 -0.002273 0.000000 0.000423 0.000000
# 2 -0.000105 0.008763 -0.002669 0.000000 0.002184 0.000000
# 3 -0.002273 -0.002669 0.012026 0.000000 0.001433 0.000000
# 4 0.000000 0.000000 0.000000 -0.025803 0.000000 -0.044660
# 5 0.000423 0.002184 0.001433 0.000000 0.018637 0.000000
# 6 0.000000 0.000000 0.000000 -0.044660 0.000000 0.112837
#
#
# Mechanical properties :
#
#
# Convention : Reuss Voigt Hill
#
# Bulk Modulus (GPa) = 66.09389 79.35886 72.72638
# Shear Modulus (GPa) = 34.23800 32.86573 33.55187
#
# Velocity S-wave (km/s) = 3.62006 3.54678 3.58361
# Velocity P-wave (km/s) = 6.53996 6.86645 6.70519
#
# Compressibility (1/GPa) = 0.01512999
#
# Stress axis : x y z
#
# Youngs Moduli (GPa) = 225.39875 114.11579 83.15243
#
# Poissons Ratio (x) = 0.01204 0.18903
# Poissons Ratio (y) = 0.02378 0.22194
# Poissons Ratio (z) = 0.51241 0.30458
#
# Static dielectric constant tensor:
#      x y z
#    x 2.225980 0.000000 0.051990 
#    y 0.000000 2.132330 0.000000 
#    z 0.051990 0.000000 2.093240 
# 
# From -- ./inp_files/61421.got.cif
#   From: 2010.05.17/outbox.cif.g08.bks.cpg/sg13_31_cif.got.tgz:61421.got - 2010.06.03 16:44:36.
