data_PCOD9232012
_publ_section_title
;
Structure prediction by ZEFSAII (Michael W. Deem and Ramdas Pophale) SiO2 
 PCOD9232012
Probable space group: P 2/C
;
_chemical_formula_sum "Si O2"
_cell_formula_units_Z 20
_cell_length_a 12.732214
_cell_length_b 12.088608
_cell_length_c 9.148457
_cell_angle_alpha 90.000000
_cell_angle_beta 42.998526
_cell_angle_gamma 90.000000
_cell_volume 960.283406
_symmetry_space_group_name_H-M "P 2/C"
_symmetry_group_IT_number 13
_symmetry_cell_setting 'monoclinic'
loop_
_space_group_symop_operation_xyz
x,y,z
-x,y,1/2-z
-x,-y,-z
x,-y,1/2+z
loop_
_atom_site_type_symbol
_atom_site_label
_atom_site_fract_x
_atom_site_fract_y
_atom_site_fract_z
Si Si1 0.500000 0.460068 0.750000
Si Si2 0.709768 0.666323 0.506534
Si Si3 0.152555 0.014010 0.441217
Si Si4 0.646425 0.066728 0.521219
Si Si5 0.000000 0.781406 0.250000
Si Si6 0.464039 0.717782 0.532364
O O1 0.643129 0.541505 0.567115
O O2 0.484125 0.382268 0.625137
O O3 0.603197 0.737129 0.504440
O O4 0.673344 0.690671 0.714584
O O5 0.882445 0.698776 0.289511
O O6 0.115570 0.132692 0.552095
O O7 0.209159 0.933567 0.513342
O O8 0.290995 0.007671 0.185714
O O9 0.000000 0.000000 0.500000
O O10 0.500000 0.012479 0.750000
O O11 0.587837 0.183717 0.519809
#
# Coordination Sequence:
#
# PCOD9232012 Si02
#       6
#     2   4   4   4   2   4
#     4  10  20  44  68  96 124 166 224 284 326 380
#     4  10  22  40  67  92 131 173 214 272 335 389
#     4  12  26  46  64  94 142 179 213 272 332 395
#     4  12  25  43  70  99 128 173 233 269 324 390
#     4  12  24  40  66  90 140 176 212 254 346 394
#     4  10  21  41  69  95 127 167 225 278 323 376
#
# _framework density 20.827185
#
# number of rings (size 3 to 8) (size 9 to 14) (size 15 to 20)
#    0.000    1.200    5.000    3.000    2.800    1.600 
#    0.000    4.000    4.400    0.000    0.000    0.000 
#    0.000    0.000    0.000    0.000    0.000    0.000 
#
# Total GULP energy -111358.205763 kJ/mol
# GULP energy per Si atom -5567.910288 kJ/mol
# Density = 2.077978 g / cm^3
# Si number density = 20.827185 Si / 1000 Ang^3
#
#
#
# Elastic Constant Matrix: (Units=GPa)
#
#
# Indices 1 2 3 4 5 6 
#
# 1 130.2783 54.2461 27.2372 0.0000 9.3579 0.0000
# 2 54.2461 79.0916 23.8274 0.0000 4.0528 0.0000
# 3 27.2372 23.8274 98.9104 0.0000 16.3063 0.0000
# 4 0.0000 0.0000 0.0000 27.1281 0.0000 6.7528
# 5 9.3579 4.0528 16.3063 0.0000 38.8697 0.0000
# 6 0.0000 0.0000 0.0000 6.7528 0.0000 9.7306
#
#
#
# Elastic Compliance Matrix: (Units=1/GPa)
#
#
# Indices 1 2 3 4 5 6 
#
# 1 0.010971 -0.007130 -0.001064 0.000000 -0.001451 0.000000
# 2 -0.007130 0.018266 -0.002585 0.000000 0.000896 0.000000
# 3 -0.001064 -0.002585 0.011752 0.000000 -0.004404 0.000000
# 4 0.000000 0.000000 0.000000 0.044560 0.000000 -0.030924
# 5 -0.001451 0.000896 -0.004404 0.000000 0.027831 0.000000
# 6 0.000000 0.000000 0.000000 -0.030924 0.000000 0.124229
#
#
# Mechanical properties :
#
#
# Convention : Reuss Voigt Hill
#
# Bulk Modulus (GPa) = 51.46174 57.65575 54.55874
# Shear Modulus (GPa) = 18.82214 28.67699 23.74956
#
# Velocity S-wave (km/s) = 3.00947 3.71469 3.38052
# Velocity P-wave (km/s) = 6.06947 6.79276 6.44127
#
# Compressibility (1/GPa) = 0.01943191
#
# Stress axis : x y z
#
# Youngs Moduli (GPa) = 91.14561 54.74508 85.09172
#
# Poissons Ratio (x) = 0.39033 0.09057
# Poissons Ratio (y) = 0.64986 0.21994
# Poissons Ratio (z) = 0.09701 0.14150
#
# Static dielectric constant tensor:
#      x y z
#    x 1.878860 0.000000 -0.001850 
#    y 0.000000 1.807010 0.000000 
#    z -0.001850 0.000000 1.808960 
# 
# From -- ./inp_files/15753.got.cif
#   From: 2010.05.17/outbox.cif.g08.bks.cpg/sg13_8_cif.got.tgz:15753.got - 2010.06.03 16:44:36.
