data_PCOD9232666
_publ_section_title
;
Structure prediction by ZEFSAII (Michael W. Deem and Ramdas Pophale) SiO2 
 PCOD9232666
Probable space group: P 2/C
;
_chemical_formula_sum "Si O2"
_cell_formula_units_Z 32
_cell_length_a 8.189986
_cell_length_b 6.546835
_cell_length_c 30.348312
_cell_angle_alpha 90.000000
_cell_angle_beta 91.463898
_cell_angle_gamma 90.000000
_cell_volume 1626.699478
_symmetry_space_group_name_H-M "P 2/C"
_symmetry_group_IT_number 13
_symmetry_cell_setting 'monoclinic'
loop_
_space_group_symop_operation_xyz
x,y,z
-x,y,1/2-z
-x,-y,-z
x,-y,1/2+z
loop_
_atom_site_type_symbol
_atom_site_label
_atom_site_fract_x
_atom_site_fract_y
_atom_site_fract_z
Si Si1 0.328870 0.192607 0.902281
Si Si2 0.820344 0.220701 0.073109
Si Si3 0.817537 0.444804 0.838814
Si Si4 0.183771 0.505870 0.340620
Si Si5 0.364393 0.059228 0.637163
Si Si6 0.688119 0.458968 0.510751
Si Si7 0.183012 0.736208 0.577452
Si Si8 0.507157 0.697613 0.801727
O O1 0.219030 0.269780 0.860930
O O2 0.511564 0.214333 0.885591
O O3 0.298618 0.316642 0.946378
O O4 0.297039 0.961911 0.915339
O O5 0.813223 0.369516 0.115095
O O6 0.771536 0.332957 0.027837
O O7 0.007707 0.158058 0.071136
O O8 0.773588 0.204559 0.842464
O O9 0.824970 0.550362 0.887335
O O10 0.665637 0.556025 0.813638
O O11 0.998990 0.490493 0.820506
O O12 0.338061 0.417765 0.314372
O O13 0.298035 0.905404 0.599794
O O14 0.459761 0.910156 0.671803
O O15 0.500000 0.500000 0.500000
O O16 0.763674 0.355098 0.468570
O O17 0.500000 0.738668 0.750000
#
# Coordination Sequence:
#
# PCOD9232666 Si02
#       8
#     4   4   4   4   4   4   4   4
#     4  11  21  36  62  86 119 166 206 253 307 365
#     4  10  21  38  57  83 120 164 208 253 309 357
#     4  10  22  41  66  90 123 164 206 247 312 373
#     4  10  21  41  65  90 123 161 201 253 307 376
#     4  11  21  39  64  91 122 160 209 250 307 380
#     4  11  23  34  53  85 122 160 214 259 303 355
#     4  10  22  37  57  86 123 163 208 259 300 362
#     4  11  24  42  67  93 123 156 199 256 316 375
#
# _framework density 19.671737
#
# number of rings (size 3 to 8) (size 9 to 14) (size 15 to 20)
#    0.000    1.500    2.500    2.625    3.500    4.500 
#    0.000    0.000    0.000    0.000    0.000    0.000 
#    0.000    0.000    0.000    0.000    0.000    0.000 
#
# Total GULP energy -178471.582381 kJ/mol
# GULP energy per Si atom -5577.236949 kJ/mol
# Density = 1.962696 g / cm^3
# Si number density = 19.671737 Si / 1000 Ang^3
#
#
#
# Elastic Constant Matrix: (Units=GPa)
#
#
# Indices 1 2 3 4 5 6 
#
# 1 112.3951 0.4240 24.3472 0.0000 1.8892 0.0000
# 2 0.4240 51.2785 -5.0732 0.0000 7.4907 0.0000
# 3 24.3472 -5.0732 66.1725 0.0000 4.6901 0.0000
# 4 0.0000 0.0000 0.0000 7.8559 0.0000 -4.9751
# 5 1.8892 7.4907 4.6901 0.0000 12.4543 0.0000
# 6 0.0000 0.0000 0.0000 -4.9751 0.0000 27.6599
#
#
#
# Elastic Compliance Matrix: (Units=1/GPa)
#
#
# Indices 1 2 3 4 5 6 
#
# 1 0.009678 -0.000462 -0.003608 0.000000 0.000168 0.000000
# 2 -0.000462 0.021853 0.002848 0.000000 -0.014146 0.000000
# 3 -0.003608 0.002848 0.017200 0.000000 -0.007643 0.000000
# 4 0.000000 0.000000 0.000000 0.143657 0.000000 0.025839
# 5 0.000168 -0.014146 -0.007643 0.000000 0.091654 0.000000
# 6 0.000000 0.000000 0.000000 0.025839 0.000000 0.040801
#
#
# Mechanical properties :
#
#
# Convention : Reuss Voigt Hill
#
# Bulk Modulus (GPa) = 21.60427 29.91578 25.76002
# Shear Modulus (GPa) = 14.58936 23.60390 19.09663
#
# Velocity S-wave (km/s) = 2.72626 3.46770 3.11909
# Velocity P-wave (km/s) = 4.57343 5.59229 5.10833
#
# Compressibility (1/GPa) = 0.04628715
#
# Stress axis : x y z
#
# Youngs Moduli (GPa) = 103.33049 45.75947 58.14096
#
# Poissons Ratio (x) = 0.02112 0.20978
# Poissons Ratio (y) = 0.04769 -0.16558
# Poissons Ratio (z) = 0.37282 -0.13032
#
# Static dielectric constant tensor:
#      x y z
#    x 1.717620 0.000000 -0.014630 
#    y 0.000000 1.740500 0.000000 
#    z -0.014630 0.000000 1.675730 
# 
# From -- ./inp_files/95673.got.cif
#   From: 2010.05.17/outbox.cif.g08.bks.cpg/sg13_48_cif.got.tgz:95673.got - 2010.06.03 16:44:36.
