data_PCOD9232846
_publ_section_title
;
Structure prediction by ZEFSAII (Michael W. Deem and Ramdas Pophale) SiO2 
 PCOD9232846
Probable space group: P 2/C
;
_chemical_formula_sum "Si O2"
_cell_formula_units_Z 26
_cell_length_a 11.134970
_cell_length_b 5.867880
_cell_length_c 17.281350
_cell_angle_alpha 90.000000
_cell_angle_beta 92.961487
_cell_angle_gamma 90.000000
_cell_volume 1127.632406
_symmetry_space_group_name_H-M "P 2/C"
_symmetry_group_IT_number 13
_symmetry_cell_setting 'monoclinic'
loop_
_space_group_symop_operation_xyz
x,y,z
-x,y,1/2-z
-x,-y,-z
x,-y,1/2+z
loop_
_atom_site_type_symbol
_atom_site_label
_atom_site_fract_x
_atom_site_fract_y
_atom_site_fract_z
Si Si1 0.283221 0.747830 0.308019
Si Si2 0.624660 0.536813 0.899920
Si Si3 0.179141 0.175575 0.648716
Si Si4 0.919441 0.812317 0.955151
Si Si5 0.936495 0.563972 0.112693
Si Si6 0.424171 0.810086 0.454850
Si Si7 0.500000 0.440175 0.250000
O O1 0.227892 0.885882 0.234977
O O2 0.177833 0.584636 0.336339
O O3 0.333907 0.884483 0.383709
O O4 0.392021 0.599011 0.277441
O O5 0.740250 0.387942 0.879257
O O6 0.521606 0.355190 0.918960
O O7 0.563973 0.677109 0.826238
O O8 0.641478 0.675016 0.978877
O O9 0.042231 0.267004 0.645179
O O10 0.181385 0.957798 0.592518
O O11 0.000096 0.678963 0.895230
O O12 0.895544 0.638453 0.024730
O O13 0.000000 0.000000 0.000000
O O14 0.500000 0.000000 0.500000
#
# Coordination Sequence:
#
# PCOD9232846 Si02
#       7
#     4   4   4   4   4   4   2
#     4  10  21  39  66  90 131 171 220 275 334 401
#     4   9  20  38  61  85 126 167 219 271 328 390
#     4  10  21  40  63  92 133 173 214 277 340 405
#     4   9  21  38  61  94 132 169 216 269 337 405
#     4  10  21  38  63  96 129 171 219 275 340 411
#     4  10  22  38  61  91 121 169 223 273 324 387
#     4   8  18  42  60  88 124 172 210 278 330 380
#
# _framework density 23.05716
#
# number of rings (size 3 to 8) (size 9 to 14) (size 15 to 20)
#    0.000    2.462    0.000    0.462    8.615    0.000 
#    0.000   16.923    0.000    0.000    0.000    0.000 
#    0.000    0.000    0.000    0.000    0.000    0.000 
#
# Total GULP energy -145148.923452 kJ/mol
# GULP energy per Si atom -5582.650902 kJ/mol
# Density = 2.300468 g / cm^3
# Si number density = 23.057160 Si / 1000 Ang^3
#
#
#
# Elastic Constant Matrix: (Units=GPa)
#
#
# Indices 1 2 3 4 5 6 
#
# 1 139.4611 18.4096 58.8947 0.0000 0.3675 0.0000
# 2 18.4096 38.4912 14.7530 0.0000 8.1888 0.0000
# 3 58.8947 14.7530 148.0073 0.0000 39.9208 0.0000
# 4 0.0000 0.0000 0.0000 13.8502 0.0000 -1.0712
# 5 0.3675 8.1888 39.9208 0.0000 57.9741 0.0000
# 6 0.0000 0.0000 0.0000 -1.0712 0.0000 24.8497
#
#
#
# Elastic Compliance Matrix: (Units=1/GPa)
#
#
# Indices 1 2 3 4 5 6 
#
# 1 0.009467 -0.003597 -0.004334 0.000000 0.003433 0.000000
# 2 -0.003597 0.028655 -0.000417 0.000000 -0.003738 0.000000
# 3 -0.004334 -0.000417 0.010438 0.000000 -0.007101 0.000000
# 4 0.000000 0.000000 0.000000 0.072442 0.000000 0.003123
# 5 0.003433 -0.003738 -0.007101 0.000000 0.022645 0.000000
# 6 0.000000 0.000000 0.000000 0.003123 0.000000 0.040377
#
#
# Mechanical properties :
#
#
# Convention : Reuss Voigt Hill
#
# Bulk Modulus (GPa) = 31.38347 56.67490 44.02919
# Shear Modulus (GPa) = 23.65846 34.92830 29.29338
#
# Velocity S-wave (km/s) = 3.20672 3.89634 3.56823
# Velocity P-wave (km/s) = 5.22986 6.69892 6.00945
#
# Compressibility (1/GPa) = 0.03186390
#
# Stress axis : x y z
#
# Youngs Moduli (GPa) = 105.63511 34.89777 95.80374
#
# Poissons Ratio (x) = 0.12552 0.41524
# Poissons Ratio (y) = 0.37994 0.03995
# Poissons Ratio (z) = 0.45785 0.01455
#
# Static dielectric constant tensor:
#      x y z
#    x 1.953360 0.000000 0.012210 
#    y 0.000000 1.868190 0.000000 
#    z 0.012210 0.000000 1.946340 
# 
# From -- ./inp_files/65402.got.cif
#   From: 2010.05.17/outbox.cif.g08.bks.cpg/sg13_33_cif.got.tgz:65402.got - 2010.06.03 16:44:36.
