data_PCOD9232323
_publ_section_title
;
Structure prediction by ZEFSAII (Michael W. Deem and Ramdas Pophale) SiO2 
 PCOD9232323
Probable space group: P 2/C
;
_chemical_formula_sum "Si O2"
_cell_formula_units_Z 28
_cell_length_a 14.164904
_cell_length_b 14.089798
_cell_length_c 9.058155
_cell_angle_alpha 90.000000
_cell_angle_beta 131.895041
_cell_angle_gamma 90.000000
_cell_volume 1345.694972
_symmetry_space_group_name_H-M "P 2/C"
_symmetry_group_IT_number 13
_symmetry_cell_setting 'monoclinic'
loop_
_space_group_symop_operation_xyz
x,y,z
-x,y,1/2-z
-x,-y,-z
x,-y,1/2+z
loop_
_atom_site_type_symbol
_atom_site_label
_atom_site_fract_x
_atom_site_fract_y
_atom_site_fract_z
Si Si1 0.273471 0.877075 0.725215
Si Si2 0.033948 0.599452 0.957700
Si Si3 0.298006 0.323627 0.636937
Si Si4 0.702168 0.993241 0.495225
Si Si5 0.575852 0.130656 0.609590
Si Si6 0.407901 0.470432 0.274732
Si Si7 0.219095 0.320044 0.218100
O O1 0.243605 0.771777 0.649110
O O2 0.225225 0.945267 0.547883
O O3 0.222597 0.919909 0.824780
O O4 0.426466 0.875239 0.916115
O O5 0.929637 0.665822 0.921763
O O6 0.000000 0.586912 0.750000
O O7 0.000000 0.500000 0.000000
O O8 0.173336 0.646004 0.101586
O O9 0.376315 0.238841 0.800855
O O10 0.360259 0.426874 0.672249
O O11 0.266583 0.295642 0.434683
O O12 0.613506 0.930468 0.293488
O O13 0.639430 0.072147 0.539543
O O14 0.500000 0.422287 0.250000
O O15 0.500000 0.500000 0.500000
O O16 0.294781 0.406916 0.222452
#
# Coordination Sequence:
#
# PCOD9232323 Si02
#       7
#     4   4   4   4   4   4   4
#     4  11  20  35  59  89 123 157 199 245 307 357
#     4  10  22  44  66  84 112 164 216 247 295 353
#     4  11  23  40  63  88 122 162 202 250 303 357
#     4  10  21  36  58  89 122 162 199 243 297 374
#     4  11  20  35  61  89 124 158 199 245 307 361
#     4  12  24  37  58  89 126 157 190 241 314 369
#     4  11  23  40  63  88 122 160 203 253 296 363
#
# _framework density 20.807092999999998
#
# number of rings (size 3 to 8) (size 9 to 14) (size 15 to 20)
#    0.000    1.143    4.286    4.286    0.000    2.286 
#    2.571    0.000    0.000    5.143    0.000    0.000 
#    0.000    0.000    0.000    0.000    0.000    0.000 
#
# Total GULP energy -155919.263560 kJ/mol
# GULP energy per Si atom -5568.545127 kJ/mol
# Density = 2.075973 g / cm^3
# Si number density = 20.807093 Si / 1000 Ang^3
#
#
#
# Elastic Constant Matrix: (Units=GPa)
#
#
# Indices 1 2 3 4 5 6 
#
# 1 83.5563 16.6954 13.2961 0.0000 -4.5686 0.0000
# 2 16.6954 122.2183 6.2500 0.0000 -1.9264 0.0000
# 3 13.2961 6.2500 20.2940 0.0000 -11.3876 0.0000
# 4 0.0000 0.0000 0.0000 -9.9657 0.0000 -11.2287
# 5 -4.5686 -1.9264 -11.3876 0.0000 24.7924 0.0000
# 6 0.0000 0.0000 0.0000 -11.2287 0.0000 21.8231
#
#
#
# Elastic Compliance Matrix: (Units=1/GPa)
#
#
# Indices 1 2 3 4 5 6 
#
# 1 0.013676 -0.001406 -0.009666 0.000000 -0.002029 0.000000
# 2 -0.001406 0.008467 -0.001971 0.000000 -0.000506 0.000000
# 3 -0.009666 -0.001971 0.074273 0.000000 0.032181 0.000000
# 4 0.000000 0.000000 0.000000 -0.063519 0.000000 -0.032683
# 5 -0.002029 -0.000506 0.032181 0.000000 0.054703 0.000000
# 6 0.000000 0.000000 0.000000 -0.032683 0.000000 0.029007
#
#
# Mechanical properties :
#
#
# Convention : Reuss Voigt Hill
#
# Bulk Modulus (GPa) = 14.21836 33.17242 23.69539
# Shear Modulus (GPa) = 30.09622 19.98511 25.04066
#
# Velocity S-wave (km/s) = 3.80734 3.10255 3.47287
# Velocity P-wave (km/s) = 5.11625 5.36767 5.24347
#
# Compressibility (1/GPa) = 0.07033158
#
# Stress axis : x y z
#
# Youngs Moduli (GPa) = 73.12066 118.10672 13.46389
#
# Poissons Ratio (x) = 0.16604 0.13014
# Poissons Ratio (y) = 0.10280 0.02653
# Poissons Ratio (z) = 0.70675 0.23274
#
# Static dielectric constant tensor:
#      x y z
#    x 1.801850 0.000000 -0.051870 
#    y 0.000000 -0.811420 0.000000 
#    z -0.051870 0.000000 2.006190 
# 
# From -- ./inp_files/16859.got.cif
#   From: 2010.05.17/outbox.cif.g08.bks.cpg/sg13_9_cif.got.tgz:16859.got - 2010.06.03 16:44:36.
