data_PCOD9232394
_publ_section_title
;
Structure prediction by ZEFSAII (Michael W. Deem and Ramdas Pophale) SiO2 
 PCOD9232394
Probable space group: P 2/C
;
_chemical_formula_sum "Si O2"
_cell_formula_units_Z 20
_cell_length_a 21.164125
_cell_length_b 8.182731
_cell_length_c 12.537326
_cell_angle_alpha 90.000000
_cell_angle_beta 22.869315
_cell_angle_gamma 90.000000
_cell_volume 843.801800
_symmetry_space_group_name_H-M "P 2/C"
_symmetry_group_IT_number 13
_symmetry_cell_setting 'monoclinic'
loop_
_space_group_symop_operation_xyz
x,y,z
-x,y,1/2-z
-x,-y,-z
x,-y,1/2+z
loop_
_atom_site_type_symbol
_atom_site_label
_atom_site_fract_x
_atom_site_fract_y
_atom_site_fract_z
Si Si1 0.357631 0.302936 0.798772
Si Si2 0.480032 0.997660 0.899081
Si Si3 0.077804 0.678445 0.903801
Si Si4 0.257571 0.802799 0.118281
Si Si5 0.318344 0.510377 0.655350
O O1 0.289511 0.405148 0.805892
O O2 0.504980 0.411892 0.613462
O O3 0.448771 0.131073 0.629957
O O4 0.209786 0.275711 0.109057
O O5 0.500000 0.090802 0.750000
O O6 0.616192 0.857849 0.668724
O O7 0.303715 0.918912 0.148201
O O8 0.183237 0.649522 0.846153
O O9 0.000000 0.500000 0.000000
O O10 0.926445 0.800851 0.135072
O O11 0.302509 0.621355 0.086025
#
# Coordination Sequence:
#
# PCOD9232394 Si02
#       5
#     4   4   4   4   4
#     4  11  22  38  63  95 129 169 221 267 317 393
#     4   8  19  37  59  90 127 172 207 254 328 398
#     4  10  21  36  65  93 125 167 215 275 324 373
#     4   8  20  37  59  91 125 169 208 263 324 391
#     4  10  22  38  64  92 126 175 220 267 313 387
#
# _framework density 23.702248999999998
#
# number of rings (size 3 to 8) (size 9 to 14) (size 15 to 20)
#    1.200    1.200    0.000    1.800   11.200    4.800 
#    0.000    0.000    0.000    0.000    0.000    0.000 
#    0.000    0.000    0.000    0.000    0.000    0.000 
#
# Total GULP energy -111504.001329 kJ/mol
# GULP energy per Si atom -5575.200066 kJ/mol
# Density = 2.364830 g / cm^3
# Si number density = 23.702249 Si / 1000 Ang^3
#
#
#
# Elastic Constant Matrix: (Units=GPa)
#
#
# Indices 1 2 3 4 5 6 
#
# 1 75.3589 26.0014 67.0694 0.0000 -51.9810 0.0000
# 2 26.0014 88.7872 46.5716 0.0000 -10.7771 0.0000
# 3 67.0694 46.5716 141.0541 0.0000 -32.6922 0.0000
# 4 0.0000 0.0000 0.0000 45.6061 0.0000 2.2553
# 5 -51.9810 -10.7771 -32.6922 0.0000 12.1236 0.0000
# 6 0.0000 0.0000 0.0000 2.2553 0.0000 60.7780
#
#
#
# Elastic Compliance Matrix: (Units=1/GPa)
#
#
# Indices 1 2 3 4 5 6 
#
# 1 -0.004020 0.000219 -0.005628 0.000000 -0.032218 0.000000
# 2 0.000219 0.013610 -0.004203 0.000000 0.001702 0.000000
# 3 -0.005628 -0.004203 0.012519 0.000000 0.005891 0.000000
# 4 0.000000 0.000000 0.000000 0.021967 0.000000 -0.000815
# 5 -0.032218 0.001702 0.005891 0.000000 -0.038256 0.000000
# 6 0.000000 0.000000 0.000000 -0.000815 0.000000 0.016484
#
#
# Mechanical properties :
#
#
# Convention : Reuss Voigt Hill
#
# Bulk Modulus (GPa) = 346.77538 64.94278 205.85908
# Shear Modulus (GPa) = 117.67483 34.73870 76.20677
#
# Velocity S-wave (km/s) = 7.05372 3.83251 5.67640
# Velocity P-wave (km/s) = 14.59323 6.85879 11.40187
#
# Compressibility (1/GPa) = 0.00288371
#
# Stress axis : x y z
#
# Youngs Moduli (GPa) = -248.75541 73.47477 79.88148
#
# Poissons Ratio (x) = -0.01606 0.44956
# Poissons Ratio (y) = 0.05438 0.33576
# Poissons Ratio (z) = -1.39996 0.30883
#
# Static dielectric constant tensor:
#      x y z
#    x 2.138620 0.000000 0.064330 
#    y 0.000000 1.999250 0.000000 
#    z 0.064330 0.000000 1.893870 
# 
# From -- ./inp_files/49152.got.cif
#   From: 2010.05.17/outbox.cif.g08.bks.cpg/sg13_25_cif.got.tgz:49152.got - 2010.06.03 16:44:36.
