data_PCOD9232367
_publ_section_title
;
Structure prediction by ZEFSAII (Michael W. Deem and Ramdas Pophale) SiO2 
 PCOD9232367
Probable space group: P 2/C
;
_chemical_formula_sum "Si O2"
_cell_formula_units_Z 30
_cell_length_a 17.618981
_cell_length_b 9.718499
_cell_length_c 28.607474
_cell_angle_alpha 90.000000
_cell_angle_beta 162.033669
_cell_angle_gamma 90.000000
_cell_volume 1510.969251
_symmetry_space_group_name_H-M "P 2/C"
_symmetry_group_IT_number 13
_symmetry_cell_setting 'monoclinic'
loop_
_space_group_symop_operation_xyz
x,y,z
-x,y,1/2-z
-x,-y,-z
x,-y,1/2+z
loop_
_atom_site_type_symbol
_atom_site_label
_atom_site_fract_x
_atom_site_fract_y
_atom_site_fract_z
Si Si1 0.701022 0.316712 0.771302
Si Si2 0.222932 0.886554 0.265854
Si Si3 0.500000 0.668057 0.250000
Si Si4 0.012242 0.557996 0.916990
Si Si5 0.283550 0.805970 0.794978
Si Si6 0.257586 0.791922 0.889277
Si Si7 0.762132 0.542282 0.549128
Si Si8 0.164970 0.769543 0.390901
O O1 0.745033 0.186564 0.764725
O O2 0.632730 0.265636 0.782927
O O3 0.479014 0.405948 0.619070
O O4 0.913817 0.429272 0.888954
O O5 0.486868 0.866297 0.447032
O O6 0.009217 0.806505 0.168047
O O7 0.153945 0.045787 0.220028
O O8 0.724735 0.589242 0.406158
O O9 0.044486 0.528648 0.880333
O O10 0.839125 0.694533 0.811664
O O11 0.272719 0.758967 0.843113
O O12 0.567258 0.836659 0.948905
O O13 0.227355 0.656614 0.904117
O O14 0.000000 0.870376 0.750000
O O15 0.763590 0.391599 0.571692
O O16 0.000000 0.807701 0.250000
#
# Coordination Sequence:
#
# PCOD9232367 Si02
#       8
#     4   4   2   4   4   4   4   4
#     4  10  21  42  67  91 124 158 214 274 332 387
#     4  11  26  41  62  93 137 178 215 259 317 384
#     4  10  24  40  72  96 118 158 214 282 346 388
#     4  11  21  42  64  94 123 161 215 268 333 384
#     4  12  26  39  62  94 135 179 214 262 312 386
#     4  11  22  38  60  90 133 178 220 252 308 368
#     4  10  21  36  61  93 126 168 207 267 316 373
#     4  12  24  37  60  93 134 174 224 257 307 367
#
# _framework density 19.854804999999999
#
# number of rings (size 3 to 8) (size 9 to 14) (size 15 to 20)
#    0.000    1.067    5.333    1.200    1.867    0.533 
#    0.000    0.667    0.000    1.600    0.000    0.000 
#    0.000    0.000    0.000    0.000    0.000    0.000 
#
# Total GULP energy -167152.596740 kJ/mol
# GULP energy per Si atom -5571.753225 kJ/mol
# Density = 1.980961 g / cm^3
# Si number density = 19.854805 Si / 1000 Ang^3
#
#
#
# Elastic Constant Matrix: (Units=GPa)
#
#
# Indices 1 2 3 4 5 6 
#
# 1 125.0907 15.9495 21.9612 0.0000 2.9045 0.0000
# 2 15.9495 73.8877 0.8825 0.0000 -9.2073 0.0000
# 3 21.9612 0.8825 74.6943 0.0000 0.8962 0.0000
# 4 0.0000 0.0000 0.0000 10.2779 0.0000 6.1300
# 5 2.9045 -9.2073 0.8962 0.0000 30.5961 0.0000
# 6 0.0000 0.0000 0.0000 6.1300 0.0000 20.4809
#
#
#
# Elastic Compliance Matrix: (Units=1/GPa)
#
#
# Indices 1 2 3 4 5 6 
#
# 1 0.008727 -0.002024 -0.002526 0.000000 -0.001363 0.000000
# 2 -0.002024 0.014534 0.000369 0.000000 0.004555 0.000000
# 3 -0.002526 0.000369 0.014127 0.000000 -0.000063 0.000000
# 4 0.000000 0.000000 0.000000 0.118438 0.000000 -0.035449
# 5 -0.001363 0.004555 -0.000063 0.000000 0.034186 0.000000
# 6 0.000000 0.000000 0.000000 -0.035449 0.000000 0.059436
#
#
# Mechanical properties :
#
#
# Convention : Reuss Voigt Hill
#
# Bulk Modulus (GPa) = 34.45081 39.02878 36.73979
# Shear Modulus (GPa) = 18.69260 27.92961 23.31110
#
# Velocity S-wave (km/s) = 3.07166 3.75466 3.43020
# Velocity P-wave (km/s) = 5.47441 6.20455 5.85088
#
# Compressibility (1/GPa) = 0.02902690
#
# Stress axis : x y z
#
# Youngs Moduli (GPa) = 114.58307 68.80369 70.78694
#
# Poissons Ratio (x) = 0.13923 0.17879
# Poissons Ratio (y) = 0.23187 -0.02609
# Poissons Ratio (z) = 0.28940 -0.02536
#
# Static dielectric constant tensor:
#      x y z
#    x 1.794470 0.000000 -0.019480 
#    y 0.000000 1.707510 0.000000 
#    z -0.019480 0.000000 1.802230 
# 
# From -- ./inp_files/97353.got.cif
#   From: 2010.05.17/outbox.cif.g08.bks.cpg/sg13_49_cif.got.tgz:97353.got - 2010.06.03 16:44:36.
