data_PCOD9232799
_publ_section_title
;
Structure prediction by ZEFSAII (Michael W. Deem and Ramdas Pophale) SiO2 
 PCOD9232799
Probable space group: P 2/C
;
_chemical_formula_sum "Si O2"
_cell_formula_units_Z 24
_cell_length_a 8.909584
_cell_length_b 14.066133
_cell_length_c 9.765163
_cell_angle_alpha 90.000000
_cell_angle_beta 94.110039
_cell_angle_gamma 90.000000
_cell_volume 1220.656037
_symmetry_space_group_name_H-M "P 2/C"
_symmetry_group_IT_number 13
_symmetry_cell_setting 'monoclinic'
loop_
_space_group_symop_operation_xyz
x,y,z
-x,y,1/2-z
-x,-y,-z
x,-y,1/2+z
loop_
_atom_site_type_symbol
_atom_site_label
_atom_site_fract_x
_atom_site_fract_y
_atom_site_fract_z
Si Si1 0.844695 0.955079 0.545160
Si Si2 0.325192 0.058969 0.191024
Si Si3 0.329062 0.277277 0.199551
Si Si4 0.074883 0.576811 0.104907
Si Si5 0.388417 0.525917 0.614215
Si Si6 0.899532 0.262734 0.104103
O O1 0.787206 0.974741 0.695412
O O2 0.867980 0.842257 0.548869
O O3 0.712208 0.993049 0.439389
O O4 0.000000 0.000000 0.500000
O O5 0.500000 0.054062 0.250000
O O6 0.281836 0.169891 0.154468
O O7 0.500000 0.264172 0.250000
O O8 0.317954 0.367069 0.098417
O O9 0.249792 0.305473 0.336816
O O10 0.250344 0.546569 0.125559
O O11 0.000000 0.576283 0.250000
O O12 0.051455 0.674080 0.019596
O O13 0.000000 0.500000 0.000000
O O14 0.500000 0.527301 0.750000
O O15 0.500000 0.500000 0.500000
O O16 0.000000 0.261355 0.250000
#
# Coordination Sequence:
#
# PCOD9232799 Si02
#       6
#     4   4   4   4   4   4
#     4  11  22  39  62  90 121 159 206 259 312 364
#     4  10  21  38  62  89 121 161 205 252 306 366
#     4   9  18  36  61  84 113 156 198 238 295 362
#     4  12  24  39  61  90 123 160 204 254 305 364
#     4  11  22  39  62  89 122 159 200 247 299 360
#     4  11  23  41  62  86 119 161 205 252 310 372
#
# _framework density 19.661557999999999
#
# number of rings (size 3 to 8) (size 9 to 14) (size 15 to 20)
#    0.000    1.333    0.000    8.500    0.000    1.333 
#    0.000    2.500    0.000    0.000    0.000    0.000 
#    0.000    0.000    0.000    0.000    0.000    0.000 
#
# Total GULP energy -133824.593686 kJ/mol
# GULP energy per Si atom -5576.024737 kJ/mol
# Density = 1.961681 g / cm^3
# Si number density = 19.661558 Si / 1000 Ang^3
#
#
#
# Elastic Constant Matrix: (Units=GPa)
#
#
# Indices 1 2 3 4 5 6 
#
# 1 92.1152 19.4775 34.4969 0.0000 -13.1842 0.0000
# 2 19.4775 103.8492 74.3830 0.0000 -3.6117 0.0000
# 3 34.4969 74.3830 137.2289 0.0000 -18.2501 0.0000
# 4 0.0000 0.0000 0.0000 31.6709 0.0000 -7.5487
# 5 -13.1842 -3.6117 -18.2501 0.0000 45.3295 0.0000
# 6 0.0000 0.0000 0.0000 -7.5487 0.0000 28.5610
#
#
#
# Elastic Compliance Matrix: (Units=1/GPa)
#
#
# Indices 1 2 3 4 5 6 
#
# 1 0.012247 -0.000398 -0.002529 0.000000 0.002512 0.000000
# 2 -0.000398 0.015984 -0.008886 0.000000 -0.002420 0.000000
# 3 -0.002529 -0.008886 0.013257 0.000000 0.003894 0.000000
# 4 0.000000 0.000000 0.000000 0.033698 0.000000 0.008906
# 5 0.002512 -0.002420 0.003894 0.000000 0.024166 0.000000
# 6 0.000000 0.000000 0.000000 0.008906 0.000000 0.037367
#
#
# Mechanical properties :
#
#
# Convention : Reuss Voigt Hill
#
# Bulk Modulus (GPa) = 55.98292 65.54533 60.76412
# Shear Modulus (GPa) = 30.06640 34.76801 32.41720
#
# Velocity S-wave (km/s) = 3.91474 4.20971 4.06490
# Velocity P-wave (km/s) = 6.99776 7.55235 7.28034
#
# Compressibility (1/GPa) = 0.01786259
#
# Stress axis : x y z
#
# Youngs Moduli (GPa) = 81.65451 62.56079 75.43188
#
# Poissons Ratio (x) = 0.02493 0.19073
# Poissons Ratio (y) = 0.03254 0.67027
# Poissons Ratio (z) = 0.20646 0.55590
#
# Static dielectric constant tensor:
#      x y z
#    x 1.769990 0.000000 -0.028610 
#    y 0.000000 1.726480 0.000000 
#    z -0.028610 0.000000 1.706450 
# 
# From -- ./inp_files/12494.got.cif
#   From: 2010.05.17/outbox.cif.g08.bks.cpg/sg13_7_cif.got.tgz:12494.got - 2010.06.03 16:44:36.
