data_PCOD9232847
_publ_section_title
;
Structure prediction by ZEFSAII (Michael W. Deem and Ramdas Pophale) SiO2 
 PCOD9232847
Probable space group: P 2/C
;
_chemical_formula_sum "Si O2"
_cell_formula_units_Z 24
_cell_length_a 29.845284
_cell_length_b 6.916594
_cell_length_c 20.312739
_cell_angle_alpha 90.000000
_cell_angle_beta 165.596123
_cell_angle_gamma 90.000000
_cell_volume 1043.059427
_symmetry_space_group_name_H-M "P 2/C"
_symmetry_group_IT_number 13
_symmetry_cell_setting 'monoclinic'
loop_
_space_group_symop_operation_xyz
x,y,z
-x,y,1/2-z
-x,-y,-z
x,-y,1/2+z
loop_
_atom_site_type_symbol
_atom_site_label
_atom_site_fract_x
_atom_site_fract_y
_atom_site_fract_z
Si Si1 0.630941 0.252548 0.875274
Si Si2 0.042150 0.514185 0.675977
Si Si3 0.793598 0.189996 0.764564
Si Si4 0.701842 0.553899 0.351495
Si Si5 0.525619 0.192116 0.494115
Si Si6 0.871478 0.090912 0.729249
O O1 0.500000 0.225526 0.750000
O O2 0.569151 0.361679 0.720897
O O3 0.792319 0.393270 0.130326
O O4 0.726138 0.051692 0.990273
O O5 0.058797 0.286068 0.703587
O O6 0.867237 0.602138 0.393736
O O7 0.106194 0.581625 0.839666
O O8 0.615630 0.146922 0.552235
O O9 0.782158 0.161725 0.670628
O O10 0.952826 0.041176 0.010306
O O11 0.665252 0.676138 0.234843
O O12 0.646744 0.332177 0.260144
O O13 0.500000 0.000000 0.500000
#
# Coordination Sequence:
#
# PCOD9232847 Si02
#       6
#     4   4   4   4   4   4
#     4   9  21  36  62  92 125 161 212 266 308 378
#     4   9  21  40  62  89 125 163 204 260 318 372
#     4  10  23  39  61  95 129 158 214 254 316 385
#     4   9  24  41  58  91 120 161 221 248 313 378
#     4  11  25  42  63  88 127 172 206 264 308 374
#     4  10  21  38  63  97 122 165 206 262 321 374
#
# _framework density 23.009236000000001
#
# number of rings (size 3 to 8) (size 9 to 14) (size 15 to 20)
#    1.000    1.333    0.000    0.500    7.000    4.000 
#    0.000    0.000    0.000    0.000    0.000    0.000 
#    0.000    0.000    0.000    0.000    0.000    0.000 
#
# Total GULP energy -133824.020190 kJ/mol
# GULP energy per Si atom -5576.000841 kJ/mol
# Density = 2.295687 g / cm^3
# Si number density = 23.009236 Si / 1000 Ang^3
#
#
#
# Elastic Constant Matrix: (Units=GPa)
#
#
# Indices 1 2 3 4 5 6 
#
# 1 64.0496 11.6263 -0.2383 0.0000 0.2605 0.0000
# 2 11.6263 138.5058 16.9349 0.0000 -5.3245 0.0000
# 3 -0.2383 16.9349 24.5589 0.0000 -10.0644 0.0000
# 4 0.0000 0.0000 0.0000 19.3430 0.0000 -13.4448
# 5 0.2605 -5.3245 -10.0644 0.0000 27.7440 0.0000
# 6 0.0000 0.0000 0.0000 -13.4448 0.0000 23.9155
#
#
#
# Elastic Compliance Matrix: (Units=1/GPa)
#
#
# Indices 1 2 3 4 5 6 
#
# 1 0.015885 -0.001477 0.001169 0.000000 -0.000009 0.000000
# 2 -0.001477 0.008029 -0.005772 0.000000 -0.000539 0.000000
# 3 0.001169 -0.005772 0.051978 0.000000 0.017737 0.000000
# 4 0.000000 0.000000 0.000000 0.084857 0.000000 0.047705
# 5 -0.000009 -0.000539 0.017737 0.000000 0.042375 0.000000
# 6 0.000000 0.000000 0.000000 0.047705 0.000000 0.068632
#
#
# Mechanical properties :
#
#
# Convention : Reuss Voigt Hill
#
# Bulk Modulus (GPa) = 15.69025 31.52892 23.60958
# Shear Modulus (GPa) = 16.38486 27.45323 21.91904
#
# Velocity S-wave (km/s) = 2.67141 3.45793 3.08980
# Velocity P-wave (km/s) = 4.04341 5.44753 4.79712
#
# Compressibility (1/GPa) = 0.06373385
#
# Stress axis : x y z
#
# Youngs Moduli (GPa) = 62.95114 124.55107 19.23873
#
# Poissons Ratio (x) = 0.18392 -0.02249
# Poissons Ratio (y) = 0.09296 0.11104
# Poissons Ratio (z) = -0.07358 0.71886
#
# Static dielectric constant tensor:
#      x y z
#    x 1.907660 0.000000 0.031970 
#    y 0.000000 1.866630 0.000000 
#    z 0.031970 0.000000 1.887710 
# 
# From -- ./inp_files/82670.got.cif
#   From: 2010.05.17/outbox.cif.g08.bks.cpg/sg13_42_cif.got.tgz:82670.got - 2010.06.03 16:44:36.
