data_PCOD9232190
_publ_section_title
;
Structure prediction by ZEFSAII (Michael W. Deem and Ramdas Pophale) SiO2 
 PCOD9232190
Probable space group: P 2/C
;
_chemical_formula_sum "Si O2"
_cell_formula_units_Z 22
_cell_length_a 11.257573
_cell_length_b 10.317930
_cell_length_c 21.974997
_cell_angle_alpha 90.000000
_cell_angle_beta 21.974542
_cell_angle_gamma 90.000000
_cell_volume 955.132607
_symmetry_space_group_name_H-M "P 2/C"
_symmetry_group_IT_number 13
_symmetry_cell_setting 'monoclinic'
loop_
_space_group_symop_operation_xyz
x,y,z
-x,y,1/2-z
-x,-y,-z
x,-y,1/2+z
loop_
_atom_site_type_symbol
_atom_site_label
_atom_site_fract_x
_atom_site_fract_y
_atom_site_fract_z
Si Si1 0.000000 0.666706 0.750000
Si Si2 0.268243 0.582454 0.409229
Si Si3 0.592635 0.833619 0.642064
Si Si4 0.620742 0.894963 0.992245
Si Si5 0.258555 0.384979 0.248393
Si Si6 0.150279 0.057833 0.815193
O O1 0.854902 0.582559 0.764814
O O2 0.250836 0.766604 0.600795
O O3 0.500000 0.651179 0.250000
O O4 0.512960 0.489976 0.329294
O O5 0.000000 0.500000 0.500000
O O6 0.048573 0.649771 0.564055
O O7 0.500000 0.768870 0.750000
O O8 0.466471 0.744872 0.647788
O O9 0.956982 0.859745 0.456037
O O10 0.396635 0.965431 0.732077
O O11 0.342942 0.865512 0.172418
O O12 0.500000 0.000000 0.000000
O O13 0.899235 0.967236 0.898021
#
# Coordination Sequence:
#
# PCOD9232190 Si02
#       6
#     2   4   4   4   4   4
#     4  12  22  38  62  92 132 162 214 262 306 376
#     4   9  20  44  71  91 116 156 211 266 326 386
#     4  11  21  39  59  91 127 163 209 261 307 367
#     4  11  18  36  58  83 124 177 211 243 289 373
#     4  11  23  42  66  92 123 166 208 266 320 372
#     4  10  21  35  58  88 126 169 209 247 308 364
#
# _framework density 23.033449999999998
#
# number of rings (size 3 to 8) (size 9 to 14) (size 15 to 20)
#    0.000    1.455    3.636    3.273    0.000    0.727 
#    9.818    0.909    0.000    0.000    0.000    0.000 
#    0.000    0.000    0.000    0.000    0.000    0.000 
#
# Total GULP energy -122946.581472 kJ/mol
# GULP energy per Si atom -5588.480976 kJ/mol
# Density = 2.298103 g / cm^3
# Si number density = 23.033450 Si / 1000 Ang^3
#
#
#
# Elastic Constant Matrix: (Units=GPa)
#
#
# Indices 1 2 3 4 5 6 
#
# 1 132.3492 8.2735 28.4184 0.0000 -7.6389 0.0000
# 2 8.2735 25.2891 20.4767 0.0000 -5.0968 0.0000
# 3 28.4184 20.4767 143.4426 0.0000 5.7685 0.0000
# 4 0.0000 0.0000 0.0000 22.5468 0.0000 -7.5220
# 5 -7.6389 -5.0968 5.7685 0.0000 26.6184 0.0000
# 6 0.0000 0.0000 0.0000 -7.5220 0.0000 31.2358
#
#
#
# Elastic Compliance Matrix: (Units=1/GPa)
#
#
# Indices 1 2 3 4 5 6 
#
# 1 0.008093 -0.000864 -0.001581 0.000000 0.002500 0.000000
# 2 -0.000864 0.047626 -0.007046 0.000000 0.010398 0.000000
# 3 -0.001581 -0.007046 0.008436 0.000000 -0.003631 0.000000
# 4 0.000000 0.000000 0.000000 0.048227 0.000000 0.011614
# 5 0.002500 0.010398 -0.003631 0.000000 0.041063 0.000000
# 6 0.000000 0.000000 0.000000 0.011614 0.000000 0.034811
#
#
# Mechanical properties :
#
#
# Convention : Reuss Voigt Hill
#
# Bulk Modulus (GPa) = 22.13619 46.15757 34.14688
# Shear Modulus (GPa) = 22.49251 32.34102 27.41677
#
# Velocity S-wave (km/s) = 3.12831 3.75118 3.45382
# Velocity P-wave (km/s) = 4.76233 6.23255 5.54637
#
# Compressibility (1/GPa) = 0.04517490
#
# Stress axis : x y z
#
# Youngs Moduli (GPa) = 123.55653 20.99693 118.53438
#
# Poissons Ratio (x) = 0.01815 0.18736
# Poissons Ratio (y) = 0.10678 0.83515
# Poissons Ratio (z) = 0.19529 0.14794
#
# Static dielectric constant tensor:
#      x y z
#    x 1.937150 0.000000 0.004150 
#    y 0.000000 1.846910 0.000000 
#    z 0.004150 0.000000 1.878190 
# 
# From -- ./inp_files/15617.got.cif
#   From: 2010.05.17/outbox.cif.g08.bks.cpg/sg13_8_cif.got.tgz:15617.got - 2010.06.03 16:44:36.
