data_PCOD9232645
_publ_section_title
;
Structure prediction by ZEFSAII (Michael W. Deem and Ramdas Pophale) SiO2 
 PCOD9232645
Probable space group: P 2/C
;
_chemical_formula_sum "Si O2"
_cell_formula_units_Z 24
_cell_length_a 19.491618
_cell_length_b 9.591351
_cell_length_c 8.365023
_cell_angle_alpha 90.000000
_cell_angle_beta 130.597116
_cell_angle_gamma 90.000000
_cell_volume 1187.436896
_symmetry_space_group_name_H-M "P 2/C"
_symmetry_group_IT_number 13
_symmetry_cell_setting 'monoclinic'
loop_
_space_group_symop_operation_xyz
x,y,z
-x,y,1/2-z
-x,-y,-z
x,-y,1/2+z
loop_
_atom_site_type_symbol
_atom_site_label
_atom_site_fract_x
_atom_site_fract_y
_atom_site_fract_z
Si Si1 0.813880 0.092280 0.560619
Si Si2 0.643714 0.648876 0.254619
Si Si3 0.600718 0.365587 0.348323
Si Si4 0.938950 0.099756 0.022187
Si Si5 0.711184 0.148686 0.096525
Si Si6 0.467474 0.153448 0.488046
O O1 0.872888 0.168227 0.788397
O O2 0.762065 0.174661 0.341808
O O3 0.878394 0.996756 0.546355
O O4 0.748827 0.986601 0.560819
O O5 0.633690 0.488272 0.285459
O O6 0.714156 0.725037 0.475877
O O7 0.662414 0.655321 0.095648
O O8 0.548177 0.733391 0.129596
O O9 0.500000 0.413040 0.250000
O O10 0.586053 0.219427 0.241578
O O11 0.000000 0.177781 0.250000
O O12 0.000000 0.000000 0.000000
O O13 0.606181 0.135710 0.985433
O O14 0.500000 0.000000 0.500000
#
# Coordination Sequence:
#
# PCOD9232645 Si02
#       6
#     4   4   4   4   4   4
#     4   9  19  30  45  76 109 136 170 216 268 318
#     4  11  22  37  54  70  96 143 193 237 281 326
#     4  10  21  38  54  70  92 130 193 251 285 325
#     4   8  14  29  51  71 100 146 175 194 247 333
#     4  11  21  32  47  70 107 143 177 229 280 322
#     4  11  23  36  52  75 101 140 192 239 279 322
#
# _framework density 20.211601999999999
#
# number of rings (size 3 to 8) (size 9 to 14) (size 15 to 20)
#    0.000    2.000    0.000    5.500    0.000   12.000 
#    0.000    0.000    0.000    0.000    0.000    0.000 
#    0.000    0.000    0.000 1116.000    0.000   73.333 
#
# Total GULP energy -133693.541796 kJ/mol
# GULP energy per Si atom -5570.564242 kJ/mol
# Density = 2.016560 g / cm^3
# Si number density = 20.211602 Si / 1000 Ang^3
#
#
#
# Elastic Constant Matrix: (Units=GPa)
#
#
# Indices 1 2 3 4 5 6 
#
# 1 47.7736 9.6406 9.5721 0.0000 -16.3652 0.0000
# 2 9.6406 93.0802 51.0723 0.0000 -14.7718 0.0000
# 3 9.5721 51.0723 187.1355 0.0000 -42.7330 0.0000
# 4 0.0000 0.0000 0.0000 23.4026 0.0000 -12.6458
# 5 -16.3652 -14.7718 -42.7330 0.0000 31.9813 0.0000
# 6 0.0000 0.0000 0.0000 -12.6458 0.0000 10.5220
#
#
#
# Elastic Compliance Matrix: (Units=1/GPa)
#
#
# Indices 1 2 3 4 5 6 
#
# 1 0.026376 -0.001690 0.002901 0.000000 0.016592 0.000000
# 2 -0.001690 0.012814 -0.003248 0.000000 0.000714 0.000000
# 3 0.002901 -0.003248 0.008747 0.000000 0.011672 0.000000
# 4 0.000000 0.000000 0.000000 0.121885 0.000000 0.146486
# 5 0.016592 0.000714 0.011672 0.000000 0.055685 0.000000
# 6 0.000000 0.000000 0.000000 0.146486 0.000000 0.271091
#
#
# Mechanical properties :
#
#
# Convention : Reuss Voigt Hill
#
# Bulk Modulus (GPa) = 22.79831 52.06213 37.43022
# Shear Modulus (GPa) = 9.70323 30.36147 20.03235
#
# Velocity S-wave (km/s) = 2.19345 3.88000 3.15164
# Velocity P-wave (km/s) = 4.20943 6.77400 5.63943
#
# Compressibility (1/GPa) = 0.04386289
#
# Stress axis : x y z
#
# Youngs Moduli (GPa) = 37.91356 78.04120 114.32485
#
# Poissons Ratio (x) = 0.13193 -0.33167
# Poissons Ratio (y) = 0.06409 0.37127
# Poissons Ratio (z) = -0.10999 0.25344
#
# Static dielectric constant tensor:
#      x y z
#    x 1.775710 0.000000 0.022250 
#    y 0.000000 1.668970 0.000000 
#    z 0.022250 0.000000 1.939930 
# 
# From -- ./inp_files/22819.got.cif
#   From: 2010.05.17/outbox.cif.g08.bks.cpg/sg13_12_cif.got.tgz:22819.got - 2010.06.03 16:44:36.
