data_PCOD9232478
_publ_section_title
;
Structure prediction by ZEFSAII (Michael W. Deem and Ramdas Pophale) SiO2 
 PCOD9232478
Probable space group: P 2/C
;
_chemical_formula_sum "Si O2"
_cell_formula_units_Z 18
_cell_length_a 7.969057
_cell_length_b 19.987124
_cell_length_c 12.001005
_cell_angle_alpha 90.000000
_cell_angle_beta 148.689244
_cell_angle_gamma 90.000000
_cell_volume 993.368648
_symmetry_space_group_name_H-M "P 2/C"
_symmetry_group_IT_number 13
_symmetry_cell_setting 'monoclinic'
loop_
_space_group_symop_operation_xyz
x,y,z
-x,y,1/2-z
-x,-y,-z
x,-y,1/2+z
loop_
_atom_site_type_symbol
_atom_site_label
_atom_site_fract_x
_atom_site_fract_y
_atom_site_fract_z
Si Si1 0.653772 0.200449 0.215137
Si Si2 0.000000 0.143867 0.750000
Si Si3 0.000000 0.301444 0.250000
Si Si4 0.000000 0.470101 0.750000
Si Si5 0.117597 0.074283 0.044502
Si Si6 0.469377 0.414755 0.601584
O O1 0.500000 0.217965 0.250000
O O2 0.863401 0.256167 0.272810
O O3 0.885569 0.135324 0.367914
O O4 0.334903 0.183487 0.960744
O O5 0.032317 0.100301 0.656123
O O6 0.285804 0.350387 0.450666
O O7 0.194250 0.426491 0.770905
O O8 0.746604 0.519503 0.546407
O O9 0.500000 0.067173 0.250000
O O10 0.000000 0.000000 0.000000
O O11 0.500000 0.408080 0.750000
#
# Coordination Sequence:
#
# PCOD9232478 Si02
#       6
#     4   2   2   2   4   4
#     4   9  21  39  54  76 111 145 183 230 276 332
#     4   8  18  36  52  68 104 146 174 222 282 326
#     4  11  24  35  54  87 112 147 192 224 280 343
#     4   9  20  39  60  85 116 147 186 234 270 315
#     4   9  19  33  53  79 103 137 183 229 281 335
#     4  10  21  37  59  86 114 149 189 227 275 329
#
# _framework density 18.120162000000001
#
# number of rings (size 3 to 8) (size 9 to 14) (size 15 to 20)
#    0.000    3.111    0.000    0.667    0.000   12.444 
#    0.000    2.222    0.000    0.000    0.000    0.000 
#    0.000    0.000    0.000    0.000    0.000    0.000 
#
# Total GULP energy -100227.685671 kJ/mol
# GULP energy per Si atom -5568.204760 kJ/mol
# Density = 1.807892 g / cm^3
# Si number density = 18.120162 Si / 1000 Ang^3
#
#
#
# Elastic Constant Matrix: (Units=GPa)
#
#
# Indices 1 2 3 4 5 6 
#
# 1 119.6701 79.1514 44.1242 0.0000 1.1065 0.0000
# 2 79.1514 127.6808 38.8017 0.0000 -1.6674 0.0000
# 3 44.1242 38.8017 90.7646 0.0000 -13.8854 0.0000
# 4 0.0000 0.0000 0.0000 -10.8188 0.0000 -20.6644
# 5 1.1065 -1.6674 -13.8854 0.0000 20.9660 0.0000
# 6 0.0000 0.0000 0.0000 -20.6644 0.0000 -14.4174
#
#
#
# Elastic Compliance Matrix: (Units=1/GPa)
#
#
# Indices 1 2 3 4 5 6 
#
# 1 0.015660 -0.008320 -0.004767 0.000000 -0.004645 0.000000
# 2 -0.008320 0.013501 -0.001664 0.000000 0.000411 0.000000
# 3 -0.004767 -0.001664 0.015650 0.000000 0.010484 0.000000
# 4 0.000000 0.000000 0.000000 0.053194 0.000000 -0.076242
# 5 -0.004645 0.000411 0.010484 0.000000 0.054917 0.000000
# 6 0.000000 0.000000 0.000000 -0.076242 0.000000 0.039917
#
#
# Mechanical properties :
#
#
# Convention : Reuss Voigt Hill
#
# Bulk Modulus (GPa) = 65.32009 73.58554 69.45282
# Shear Modulus (GPa) = 21.98363 10.88183 16.43273
#
# Velocity S-wave (km/s) = 3.48690 2.45324 3.01470
# Velocity P-wave (km/s) = 7.23449 6.98015 7.10846
#
# Compressibility (1/GPa) = 0.01530922
#
# Stress axis : x y z
#
# Youngs Moduli (GPa) = 63.85880 74.07061 63.89763
#
# Poissons Ratio (x) = 0.61624 0.30458
# Poissons Ratio (y) = 0.53129 0.10634
# Poissons Ratio (z) = 0.30439 0.12326
#
# Static dielectric constant tensor:
#      x y z
#    x 1.607810 0.000000 -0.000910 
#    y 0.000000 1.670070 0.000000 
#    z -0.000910 0.000000 1.651540 
# 
# From -- ./inp_files/9812.got.cif
#   From: 2010.05.17/outbox.cif.g08.bks.cpg/sg13_5_cif.got.tgz:9812.got - 2010.06.03 16:44:36.
