data_PCOD9232123
_publ_section_title
;
Structure prediction by ZEFSAII (Michael W. Deem and Ramdas Pophale) SiO2 
 PCOD9232123
Probable space group: P 2/C
;
_chemical_formula_sum "Si O2"
_cell_formula_units_Z 32
_cell_length_a 14.137059
_cell_length_b 8.966345
_cell_length_c 25.366963
_cell_angle_alpha 90.000000
_cell_angle_beta 150.137133
_cell_angle_gamma 90.000000
_cell_volume 1601.060067
_symmetry_space_group_name_H-M "P 2/C"
_symmetry_group_IT_number 13
_symmetry_cell_setting 'monoclinic'
loop_
_space_group_symop_operation_xyz
x,y,z
-x,y,1/2-z
-x,-y,-z
x,-y,1/2+z
loop_
_atom_site_type_symbol
_atom_site_label
_atom_site_fract_x
_atom_site_fract_y
_atom_site_fract_z
Si Si1 0.993211 0.189589 0.308758
Si Si2 0.341016 0.060203 0.283917
Si Si3 0.369071 0.457695 0.119480
Si Si4 0.776163 0.995010 0.999744
Si Si5 0.691726 0.215316 0.865931
Si Si6 0.973657 0.477419 0.111103
Si Si7 0.243460 0.684822 0.666328
Si Si8 0.874849 0.775819 0.344499
O O1 0.792205 0.136110 0.236422
O O2 0.020896 0.361762 0.338873
O O3 0.000000 0.168351 0.250000
O O4 0.153258 0.092407 0.416394
O O5 0.272630 0.143418 0.196904
O O6 0.564649 0.070783 0.401356
O O7 0.286364 0.886749 0.254581
O O8 0.375249 0.628883 0.141300
O O9 0.580800 0.395102 0.218026
O O10 0.273383 0.359980 0.120296
O O11 0.234637 0.462320 0.004077
O O12 0.777880 0.105612 0.950505
O O13 0.930888 0.867393 0.066479
O O14 0.500000 0.142598 0.750000
O O15 0.829067 0.251389 0.883669
O O16 0.052422 0.382301 0.098774
O O17 0.105882 0.622263 0.177401
#
# Coordination Sequence:
#
# PCOD9232123 Si02
#       8
#     4   4   4   4   4   4   4   4
#     4  10  24  45  69  90 115 161 218 277 325 364
#     4  10  23  41  60  93 129 163 202 258 315 381
#     4  11  20  33  56  87 122 171 203 242 293 363
#     4  11  23  41  62  92 134 169 204 255 314 377
#     4  12  20  35  57  94 132 171 207 238 300 375
#     4  11  21  38  60  82 119 156 214 258 308 363
#     4  10  21  34  54  85 125 162 203 239 289 373
#     4  11  23  36  60  92 128 169 203 249 306 383
#
# _framework density 19.986757999999998
#
# number of rings (size 3 to 8) (size 9 to 14) (size 15 to 20)
#    0.000    1.250    5.000    1.500    0.000    3.500 
#    0.000    2.500    0.000   10.500    0.000    0.000 
#    0.000    0.000    0.000    0.000    0.000    0.000 
#
# Total GULP energy -178922.361371 kJ/mol
# GULP energy per Si atom -5591.323793 kJ/mol
# Density = 1.994127 g / cm^3
# Si number density = 19.986758 Si / 1000 Ang^3
#
#
#
# Elastic Constant Matrix: (Units=GPa)
#
#
# Indices 1 2 3 4 5 6 
#
# 1 54.6632 12.9793 21.6330 0.0000 -9.1631 0.0000
# 2 12.9793 95.3822 9.8408 0.0000 -9.2157 0.0000
# 3 21.6330 9.8408 77.8808 0.0000 9.6194 0.0000
# 4 0.0000 0.0000 0.0000 22.2680 0.0000 4.1993
# 5 -9.1631 -9.2157 9.6194 0.0000 31.7732 0.0000
# 6 0.0000 0.0000 0.0000 4.1993 0.0000 17.8831
#
#
#
# Elastic Compliance Matrix: (Units=1/GPa)
#
#
# Indices 1 2 3 4 5 6 
#
# 1 0.022910 -0.001571 -0.007194 0.000000 0.008330 0.000000
# 2 -0.001571 0.011147 -0.001367 0.000000 0.003194 0.000000
# 3 -0.007194 -0.001367 0.015911 0.000000 -0.007288 0.000000
# 4 0.000000 0.000000 0.000000 0.046988 0.000000 -0.011034
# 5 0.008330 0.003194 -0.007288 0.000000 0.037008 0.000000
# 6 0.000000 0.000000 0.000000 -0.011034 0.000000 0.058510
#
#
# Mechanical properties :
#
#
# Convention : Reuss Voigt Hill
#
# Bulk Modulus (GPa) = 33.66323 35.20359 34.43341
# Shear Modulus (GPa) = 22.45776 26.61640 24.53708
#
# Velocity S-wave (km/s) = 3.35570 3.65321 3.50761
# Velocity P-wave (km/s) = 5.64744 5.95368 5.80258
#
# Compressibility (1/GPa) = 0.02970600
#
# Stress axis : x y z
#
# Youngs Moduli (GPa) = 43.64886 89.70628 62.84815
#
# Poissons Ratio (x) = 0.14088 0.45214
# Poissons Ratio (y) = 0.06855 0.08590
# Poissons Ratio (z) = 0.31402 0.12261
#
# Static dielectric constant tensor:
#      x y z
#    x 1.671420 0.000000 0.031700 
#    y 0.000000 1.745020 0.000000 
#    z 0.031700 0.000000 1.745740 
# 
# From -- ./inp_files/59518.got.cif
#   From: 2010.05.17/outbox.cif.g08.bks.cpg/sg13_30_cif.got.tgz:59518.got - 2010.06.03 16:44:36.
