data_PCOD9232126
_publ_section_title
;
Structure prediction by ZEFSAII (Michael W. Deem and Ramdas Pophale) SiO2 
 PCOD9232126
Probable space group: P 2/C
;
_chemical_formula_sum "Si O2"
_cell_formula_units_Z 20
_cell_length_a 8.345274
_cell_length_b 5.306051
_cell_length_c 19.290123
_cell_angle_alpha 90.000000
_cell_angle_beta 63.883704
_cell_angle_gamma 90.000000
_cell_volume 766.966077
_symmetry_space_group_name_H-M "P 2/C"
_symmetry_group_IT_number 13
_symmetry_cell_setting 'monoclinic'
loop_
_space_group_symop_operation_xyz
x,y,z
-x,y,1/2-z
-x,-y,-z
x,-y,1/2+z
loop_
_atom_site_type_symbol
_atom_site_label
_atom_site_fract_x
_atom_site_fract_y
_atom_site_fract_z
Si Si1 0.357332 0.202614 0.148208
Si Si2 0.652527 0.980054 0.028372
Si Si3 0.042914 0.857218 0.159918
Si Si4 0.311979 0.467143 0.438889
Si Si5 0.850781 0.654017 0.673119
O O1 0.531038 0.018269 0.122351
O O2 0.472115 0.432678 0.092055
O O3 0.259571 0.312450 0.234020
O O4 0.221768 0.030469 0.130084
O O5 0.771725 0.227944 0.005673
O O6 0.750168 0.721709 0.015828
O O7 0.500000 0.000000 0.000000
O O8 0.000000 0.860259 0.250000
O O9 0.004081 0.562341 0.151298
O O10 0.913721 0.058854 0.146650
O O11 0.267450 0.447988 0.367186
#
# Coordination Sequence:
#
# PCOD9232126 Si02
#       5
#     4   4   4   4   4
#     4   9  23  36  61  87 120 160 197 239 301 367
#     4  10  22  39  63  86 115 160 213 252 288 353
#     4  10  21  34  55  82 126 158 189 225 306 376
#     4  10  22  37  61  86 118 151 203 254 306 340
#     4  11  21  36  56  90 124 149 184 251 306 364
#
# _framework density 26.076774
#
# number of rings (size 3 to 8) (size 9 to 14) (size 15 to 20)
#    1.200    0.800    0.000    4.200    8.400    0.000 
#    3.600    0.000    0.000    7.200    0.000    0.000 
#    0.000    0.000    0.000    0.000    0.000    0.000 
#
# Total GULP energy -111353.497773 kJ/mol
# GULP energy per Si atom -5567.674889 kJ/mol
# Density = 2.601742 g / cm^3
# Si number density = 26.076774 Si / 1000 Ang^3
#
#
#
# Elastic Constant Matrix: (Units=GPa)
#
#
# Indices 1 2 3 4 5 6 
#
# 1 64.7506 22.2121 23.2723 0.0000 12.0538 0.0000
# 2 22.2121 221.1217 37.2093 0.0000 17.9100 0.0000
# 3 23.2723 37.2093 84.2760 0.0000 -0.3345 0.0000
# 4 0.0000 0.0000 0.0000 36.6084 0.0000 5.4191
# 5 12.0538 17.9100 -0.3345 0.0000 34.2213 0.0000
# 6 0.0000 0.0000 0.0000 5.4191 0.0000 35.0745
#
#
#
# Elastic Compliance Matrix: (Units=1/GPa)
#
#
# Indices 1 2 3 4 5 6 
#
# 1 0.018568 -0.000526 -0.004920 0.000000 -0.006313 0.000000
# 2 -0.000526 0.005139 -0.002134 0.000000 -0.002525 0.000000
# 3 -0.004920 -0.002134 0.014178 0.000000 0.002988 0.000000
# 4 0.000000 0.000000 0.000000 0.027956 0.000000 -0.004319
# 5 -0.006313 -0.002525 0.002988 0.000000 0.032796 0.000000
# 6 0.000000 0.000000 0.000000 -0.004319 0.000000 0.029178
#
#
# Mechanical properties :
#
#
# Convention : Reuss Voigt Hill
#
# Bulk Modulus (GPa) = 44.00357 59.50395 51.75376
# Shear Modulus (GPa) = 33.21169 40.34448 36.77808
#
# Velocity S-wave (km/s) = 3.57264 3.93764 3.75957
# Velocity P-wave (km/s) = 5.82491 6.59861 6.22380
#
# Compressibility (1/GPa) = 0.02272543
#
# Stress axis : x y z
#
# Youngs Moduli (GPa) = 53.85633 194.59858 70.52985
#
# Poissons Ratio (x) = 0.10234 0.34703
# Poissons Ratio (y) = 0.02832 0.15049
# Poissons Ratio (z) = 0.26499 0.41521
#
# Static dielectric constant tensor:
#      x y z
#    x 2.061130 0.000000 -0.067900 
#    y 0.000000 2.166380 0.000000 
#    z -0.067900 0.000000 2.449900 
# 
# From -- ./inp_files/74175.got.cif
#   From: 2010.05.17/outbox.cif.g08.bks.cpg/sg13_38_cif.got.tgz:74175.got - 2010.06.03 16:44:36.
