data_PCOD9232537
_publ_section_title
;
Structure prediction by ZEFSAII (Michael W. Deem and Ramdas Pophale) SiO2 
 PCOD9232537
Probable space group: P 2/C
;
_chemical_formula_sum "Si O2"
_cell_formula_units_Z 24
_cell_length_a 20.301998
_cell_length_b 4.912121
_cell_length_c 20.490436
_cell_angle_alpha 90.000000
_cell_angle_beta 28.813809
_cell_angle_gamma 90.000000
_cell_volume 984.859803
_symmetry_space_group_name_H-M "P 2/C"
_symmetry_group_IT_number 13
_symmetry_cell_setting 'monoclinic'
loop_
_space_group_symop_operation_xyz
x,y,z
-x,y,1/2-z
-x,-y,-z
x,-y,1/2+z
loop_
_atom_site_type_symbol
_atom_site_label
_atom_site_fract_x
_atom_site_fract_y
_atom_site_fract_z
Si Si1 0.840411 0.945338 0.718276
Si Si2 0.908376 0.301216 0.536640
Si Si3 0.336489 0.143483 0.955692
Si Si4 0.686079 0.381628 0.939931
Si Si5 0.645351 0.192917 0.707590
Si Si6 0.417574 0.207069 0.118326
O O1 0.868174 0.071529 0.623112
O O2 0.785927 0.196988 0.808223
O O3 0.718054 0.733590 0.806832
O O4 0.985724 0.812514 0.609445
O O5 0.761161 0.392006 0.636888
O O6 0.000000 0.500000 0.500000
O O7 0.489227 0.270767 0.828711
O O8 0.297302 0.127723 0.914205
O O9 0.258390 0.344068 0.074006
O O10 0.338895 0.838807 0.980550
O O11 0.536297 0.416394 0.035611
O O12 0.624114 0.953171 0.779251
O O13 0.500000 0.000000 0.000000
#
# Coordination Sequence:
#
# PCOD9232537 Si02
#       6
#     4   4   4   4   4   4
#     4   9  20  38  57  89 122 158 204 256 314 373
#     4  10  21  37  61  86 117 162 201 256 312 371
#     4  10  22  39  63  91 120 167 201 260 306 367
#     4  10  21  38  63  90 124 157 208 254 311 368
#     4   9  20  38  58  91 124 157 213 253 313 379
#     4   8  16  35  60  93 121 157 198 267 320 364
#
# _framework density 24.368952
#
# number of rings (size 3 to 8) (size 9 to 14) (size 15 to 20)
#    0.000    2.667    0.000    0.000    4.667    5.333 
#    6.000    5.833    0.000    0.000    0.000    0.000 
#    0.000    0.000    0.000    0.000    0.000    0.000 
#
# Total GULP energy -133735.587358 kJ/mol
# GULP energy per Si atom -5572.316140 kJ/mol
# Density = 2.431349 g / cm^3
# Si number density = 24.368952 Si / 1000 Ang^3
#
#
#
# Elastic Constant Matrix: (Units=GPa)
#
#
# Indices 1 2 3 4 5 6 
#
# 1 88.3884 14.7942 36.7932 0.0000 11.8749 0.0000
# 2 14.7942 85.3341 11.7597 0.0000 -1.9307 0.0000
# 3 36.7932 11.7597 95.2352 0.0000 -4.9002 0.0000
# 4 0.0000 0.0000 0.0000 36.7509 0.0000 -4.4407
# 5 11.8749 -1.9307 -4.9002 0.0000 41.2089 0.0000
# 6 0.0000 0.0000 0.0000 -4.4407 0.0000 21.2354
#
#
#
# Elastic Compliance Matrix: (Units=1/GPa)
#
#
# Indices 1 2 3 4 5 6 
#
# 1 0.014667 -0.001871 -0.005692 0.000000 -0.004991 0.000000
# 2 -0.001871 0.012166 -0.000727 0.000000 0.001023 0.000000
# 3 -0.005692 -0.000727 0.012951 0.000000 0.003146 0.000000
# 4 0.000000 0.000000 0.000000 0.027916 0.000000 0.005838
# 5 -0.004991 0.001023 0.003146 0.000000 0.026127 0.000000
# 6 0.000000 0.000000 0.000000 0.005838 0.000000 0.048312
#
#
# Mechanical properties :
#
#
# Convention : Reuss Voigt Hill
#
# Bulk Modulus (GPa) = 43.09603 43.96132 43.52867
# Shear Modulus (GPa) = 30.03839 33.54642 31.79241
#
# Velocity S-wave (km/s) = 3.51472 3.71429 3.61588
# Velocity P-wave (km/s) = 5.84758 6.03934 5.94423
#
# Compressibility (1/GPa) = 0.02320399
#
# Stress axis : x y z
#
# Youngs Moduli (GPa) = 68.18070 82.19394 77.21378
#
# Poissons Ratio (x) = 0.15381 0.43951
# Poissons Ratio (y) = 0.12758 0.05611
# Poissons Ratio (z) = 0.38810 0.05973
#
# Static dielectric constant tensor:
#      x y z
#    x 1.982720 0.000000 0.008140 
#    y 0.000000 1.928790 0.000000 
#    z 0.008140 0.000000 2.130370 
# 
# From -- ./inp_files/81199.got.cif
#   From: 2010.05.17/outbox.cif.g08.bks.cpg/sg13_41_cif.got.tgz:81199.got - 2010.06.03 16:44:36.
