data_PCOD9232428
_publ_section_title
;
Structure prediction by ZEFSAII (Michael W. Deem and Ramdas Pophale) SiO2 
 PCOD9232428
Probable space group: P 2/C
;
_chemical_formula_sum "Si O2"
_cell_formula_units_Z 28
_cell_length_a 9.657056
_cell_length_b 15.950294
_cell_length_c 13.401845
_cell_angle_alpha 90.000000
_cell_angle_beta 132.323836
_cell_angle_gamma 90.000000
_cell_volume 1526.260712
_symmetry_space_group_name_H-M "P 2/C"
_symmetry_group_IT_number 13
_symmetry_cell_setting 'monoclinic'
loop_
_space_group_symop_operation_xyz
x,y,z
-x,y,1/2-z
-x,-y,-z
x,-y,1/2+z
loop_
_atom_site_type_symbol
_atom_site_label
_atom_site_fract_x
_atom_site_fract_y
_atom_site_fract_z
Si Si1 0.698927 0.404383 0.071927
Si Si2 0.472566 0.254696 0.401468
Si Si3 0.910060 0.591204 0.477952
Si Si4 0.392738 0.494415 0.789354
Si Si5 0.826896 0.935577 0.914710
Si Si6 0.810935 0.258475 0.423777
Si Si7 0.515490 0.063129 0.097191
O O1 0.598225 0.317640 0.049471
O O2 0.728265 0.449212 0.193494
O O3 0.864984 0.395806 0.073198
O O4 0.554551 0.459436 0.937862
O O5 0.675887 0.273200 0.453206
O O6 0.324965 0.261876 0.238613
O O7 0.479241 0.158703 0.437619
O O8 0.723188 0.579785 0.319729
O O9 0.000000 0.500000 0.500000
O O10 0.036962 0.668506 0.506204
O O11 0.500000 0.541475 0.750000
O O12 0.886285 0.837569 0.957100
O O13 0.703632 0.946771 0.754402
O O14 0.668312 0.948181 0.922797
O O15 0.000000 0.000000 0.000000
O O16 0.500000 0.000000 0.000000
#
# Coordination Sequence:
#
# PCOD9232428 Si02
#       7
#     4   4   4   4   4   4   4
#     4  10  21  37  57  77 104 151 190 220 282 335
#     4   9  19  36  59  79 106 149 189 225 278 338
#     4  11  23  36  53  83 114 141 185 241 276 321
#     4   9  21  37  54  76 108 144 186 227 277 327
#     4   9  19  38  60  85 116 154 184 230 299 347
#     4   9  20  36  57  82 112 143 187 233 276 334
#     4   9  19  37  59  88 114 144 194 238 278 348
#
# _framework density 18.345488
#
# number of rings (size 3 to 8) (size 9 to 14) (size 15 to 20)
#    0.000    2.571    0.000    2.571    8.000    4.000 
#    2.571    2.857    0.000    0.000    0.000    0.000 
#    0.000    0.000    0.000    0.000    0.000    0.000 
#
# Total GULP energy -156014.410147 kJ/mol
# GULP energy per Si atom -5571.943220 kJ/mol
# Density = 1.830373 g / cm^3
# Si number density = 18.345488 Si / 1000 Ang^3
#
#
#
# Elastic Constant Matrix: (Units=GPa)
#
#
# Indices 1 2 3 4 5 6 
#
# 1 112.8805 84.6196 45.8273 0.0000 -11.6210 0.0000
# 2 84.6196 128.5956 43.0081 0.0000 -12.1424 0.0000
# 3 45.8273 43.0081 54.8135 0.0000 -15.2517 0.0000
# 4 0.0000 0.0000 0.0000 25.6006 0.0000 5.1912
# 5 -11.6210 -12.1424 -15.2517 0.0000 35.5458 0.0000
# 6 0.0000 0.0000 0.0000 5.1912 0.0000 42.0532
#
#
#
# Elastic Compliance Matrix: (Units=1/GPa)
#
#
# Indices 1 2 3 4 5 6 
#
# 1 0.020180 -0.010355 -0.008966 0.000000 -0.000787 0.000000
# 2 -0.010355 0.015856 -0.003655 0.000000 0.000463 0.000000
# 3 -0.008966 -0.003655 0.031166 0.000000 0.009192 0.000000
# 4 0.000000 0.000000 0.000000 0.040065 0.000000 -0.004946
# 5 -0.000787 0.000463 0.009192 0.000000 0.031978 0.000000
# 6 0.000000 0.000000 0.000000 -0.004946 0.000000 0.024390
#
#
# Mechanical properties :
#
#
# Convention : Reuss Voigt Hill
#
# Bulk Modulus (GPa) = 47.05927 71.46661 59.26294
# Shear Modulus (GPa) = 23.07651 28.82890 25.95270
#
# Velocity S-wave (km/s) = 3.55051 3.96844 3.76528
# Velocity P-wave (km/s) = 6.52040 7.74846 7.16080
#
# Compressibility (1/GPa) = 0.02124980
#
# Stress axis : x y z
#
# Youngs Moduli (GPa) = 49.55280 63.06634 32.08662
#
# Poissons Ratio (x) = 0.65305 0.28770
# Poissons Ratio (y) = 0.51312 0.11728
# Poissons Ratio (z) = 0.44430 0.23052
#
# Static dielectric constant tensor:
#      x y z
#    x 1.677170 0.000000 -0.007200 
#    y 0.000000 1.629770 0.000000 
#    z -0.007200 0.000000 1.645300 
# 
# From -- ./inp_files/30511.got.cif
#   From: 2010.05.17/outbox.cif.g08.bks.cpg/sg13_16_cif.got.tgz:30511.got - 2010.06.03 16:44:36.
