data_PCOD9232653
_publ_section_title
;
Structure prediction by ZEFSAII (Michael W. Deem and Ramdas Pophale) SiO2 
 PCOD9232653
Probable space group: P 2/C
;
_chemical_formula_sum "Si O2"
_cell_formula_units_Z 30
_cell_length_a 17.483777
_cell_length_b 8.937682
_cell_length_c 21.435137
_cell_angle_alpha 90.000000
_cell_angle_beta 29.797474
_cell_angle_gamma 90.000000
_cell_volume 1664.510815
_symmetry_space_group_name_H-M "P 2/C"
_symmetry_group_IT_number 13
_symmetry_cell_setting 'monoclinic'
loop_
_space_group_symop_operation_xyz
x,y,z
-x,y,1/2-z
-x,-y,-z
x,-y,1/2+z
loop_
_atom_site_type_symbol
_atom_site_label
_atom_site_fract_x
_atom_site_fract_y
_atom_site_fract_z
Si Si1 0.500000 0.877891 0.750000
Si Si2 0.743703 0.121968 0.530582
Si Si3 0.062211 0.963613 0.855298
Si Si4 0.994140 0.759417 0.482075
Si Si5 0.694126 0.679375 0.184232
Si Si6 0.472846 0.130141 0.925957
Si Si7 0.391467 0.831810 0.616056
Si Si8 0.342588 0.649774 0.769638
O O1 0.442723 0.769916 0.736069
O O2 0.640020 0.984690 0.630063
O O3 0.711297 0.257520 0.602047
O O4 0.680690 0.149590 0.506169
O O5 0.922467 0.080916 0.409347
O O6 0.231053 0.917178 0.713891
O O7 0.043430 0.135264 0.889691
O O8 0.037712 0.868589 0.936349
O O9 0.138793 0.663010 0.401856
O O10 0.834507 0.675674 0.584029
O O11 0.605000 0.804791 0.287495
O O12 0.612873 0.519821 0.246944
O O13 0.508529 0.958181 0.918887
O O14 0.465716 0.211095 0.997713
O O15 0.358580 0.695642 0.685891
#
# Coordination Sequence:
#
# PCOD9232653 Si02
#       8
#     2   4   4   4   4   4   4   4
#     4  12  20  32  54  82 110 136 174 228 274 320
#     4  11  20  35  56  82 108 138 179 236 273 314
#     4   9  17  32  56  77 103 141 182 225 268 315
#     4   9  17  32  53  81 105 137 178 227 270 321
#     4  11  21  34  57  82 113 139 180 228 288 322
#     4  11  21  35  56  78 109 145 185 228 259 328
#     4  10  21  38  55  77 106 148 190 217 265 324
#     4  11  22  34  54  84 113 141 176 227 283 332
#
# _framework density 18.023315
#
# number of rings (size 3 to 8) (size 9 to 14) (size 15 to 20)
#    0.000    1.600    5.333    0.400    1.867    1.067 
#    0.000    0.000    0.000    0.000    0.000    0.000 
#    0.000    0.000    0.000    0.000    0.000    0.000 
#
# Total GULP energy -167324.474673 kJ/mol
# GULP energy per Si atom -5577.482489 kJ/mol
# Density = 1.798229 g / cm^3
# Si number density = 18.023315 Si / 1000 Ang^3
#
#
#
# Elastic Constant Matrix: (Units=GPa)
#
#
# Indices 1 2 3 4 5 6 
#
# 1 100.8159 22.8642 20.5955 0.0000 -2.9386 0.0000
# 2 22.8642 65.2199 -6.4725 0.0000 9.7597 0.0000
# 3 20.5955 -6.4725 24.3046 0.0000 -1.4778 0.0000
# 4 0.0000 0.0000 0.0000 12.8594 0.0000 0.3948
# 5 -2.9386 9.7597 -1.4778 0.0000 27.8530 0.0000
# 6 0.0000 0.0000 0.0000 0.3948 0.0000 12.8917
#
#
#
# Elastic Compliance Matrix: (Units=1/GPa)
#
#
# Indices 1 2 3 4 5 6 
#
# 1 0.014409 -0.006906 -0.013854 0.000000 0.003205 0.000000
# 2 -0.006906 0.019884 0.010714 0.000000 -0.007127 0.000000
# 3 -0.013854 0.010714 0.055600 0.000000 -0.002266 0.000000
# 4 0.000000 0.000000 0.000000 0.077837 0.000000 -0.002383
# 5 0.003205 -0.007127 -0.002266 0.000000 0.038618 0.000000
# 6 0.000000 0.000000 0.000000 -0.002383 0.000000 0.077642
#
#
# Mechanical properties :
#
#
# Convention : Reuss Voigt Hill
#
# Bulk Modulus (GPa) = 14.32671 29.36829 21.84750
# Shear Modulus (GPa) = 15.27421 20.94437 18.10929
#
# Velocity S-wave (km/s) = 2.91429 3.41261 3.17325
# Velocity P-wave (km/s) = 4.39208 5.64428 5.05709
#
# Compressibility (1/GPa) = 0.06979967
#
# Stress axis : x y z
#
# Youngs Moduli (GPa) = 69.40134 50.29276 17.98568
#
# Poissons Ratio (x) = 0.34732 0.24918
# Poissons Ratio (y) = 0.47928 -0.19269
# Poissons Ratio (z) = 0.96150 -0.53883
#
# Static dielectric constant tensor:
#      x y z
#    x 1.633920 0.000000 -0.023950 
#    y 0.000000 1.617770 0.000000 
#    z -0.023950 0.000000 1.628110 
# 
# From -- ./inp_files/66294.got.cif
#   From: 2010.05.17/outbox.cif.g08.bks.cpg/sg13_34_cif.got.tgz:66294.got - 2010.06.03 16:44:36.
