data_PCOD9232470
_publ_section_title
;
Structure prediction by ZEFSAII (Michael W. Deem and Ramdas Pophale) SiO2 
 PCOD9232470
Probable space group: P 2/C
;
_chemical_formula_sum "Si O2"
_cell_formula_units_Z 26
_cell_length_a 16.601211
_cell_length_b 12.817154
_cell_length_c 9.060834
_cell_angle_alpha 90.000000
_cell_angle_beta 142.026193
_cell_angle_gamma 90.000000
_cell_volume 1186.280211
_symmetry_space_group_name_H-M "P 2/C"
_symmetry_group_IT_number 13
_symmetry_cell_setting 'monoclinic'
loop_
_space_group_symop_operation_xyz
x,y,z
-x,y,1/2-z
-x,-y,-z
x,-y,1/2+z
loop_
_atom_site_type_symbol
_atom_site_label
_atom_site_fract_x
_atom_site_fract_y
_atom_site_fract_z
Si Si1 0.315291 0.473689 0.095336
Si Si2 0.846815 0.940217 0.544249
Si Si3 0.689333 0.176286 0.563634
Si Si4 0.591526 0.621601 0.064404
Si Si5 0.500000 0.003328 0.750000
Si Si6 0.264304 0.878079 0.795622
Si Si7 0.154987 0.703693 0.462257
O O1 0.340127 0.591570 0.183496
O O2 0.440701 0.411592 0.344465
O O3 0.333692 0.450314 0.949444
O O4 0.190188 0.417192 0.983576
O O5 0.771306 0.874452 0.312619
O O6 0.796449 0.909002 0.633196
O O7 0.000000 0.922788 0.750000
O O8 0.814324 0.056926 0.442339
O O9 0.600519 0.261503 0.519033
O O10 0.610135 0.083422 0.368124
O O11 0.782676 0.239190 0.589858
O O12 0.415378 0.080200 0.522282
O O13 0.233249 0.758660 0.710151
O O14 0.000000 0.719312 0.250000
#
# Coordination Sequence:
#
# PCOD9232470 Si02
#       7
#     4   4   4   4   2   4   4
#     4   9  19  35  58  82 111 144 184 231 278 335
#     4  11  22  37  54  79 109 148 188 226 274 336
#     4  10  21  37  59  80 113 147 183 233 283 333
#     4   9  18  36  59  84 109 143 184 231 285 327
#     4  10  22  38  56  84 110 144 188 232 286 326
#     4  11  23  36  58  81 112 148 188 235 277 331
#     4  11  22  39  58  83 115 154 189 227 280 338
#
# _framework density 21.917249999999999
#
# number of rings (size 3 to 8) (size 9 to 14) (size 15 to 20)
#    0.000    1.846    0.000    5.538    0.000    8.000 
#    0.000    5.385    0.000    0.000    0.000    0.000 
#    0.000    0.000    0.000    0.000    0.000    0.000 
#
# Total GULP energy -145006.308618 kJ/mol
# GULP energy per Si atom -5577.165716 kJ/mol
# Density = 2.186737 g / cm^3
# Si number density = 21.917250 Si / 1000 Ang^3
#
#
#
# Elastic Constant Matrix: (Units=GPa)
#
#
# Indices 1 2 3 4 5 6 
#
# 1 81.2415 7.5477 41.1521 0.0000 4.5808 0.0000
# 2 7.5477 31.2404 24.6524 0.0000 10.7855 0.0000
# 3 41.1521 24.6524 64.4365 0.0000 13.1931 0.0000
# 4 0.0000 0.0000 0.0000 27.2663 0.0000 -3.6015
# 5 4.5808 10.7855 13.1931 0.0000 35.0847 0.0000
# 6 0.0000 0.0000 0.0000 -3.6015 0.0000 23.4985
#
#
#
# Elastic Compliance Matrix: (Units=1/GPa)
#
#
# Indices 1 2 3 4 5 6 
#
# 1 0.019310 0.006979 -0.015218 0.000000 0.001056 0.000000
# 2 0.006979 0.050618 -0.022156 0.000000 -0.008140 0.000000
# 3 -0.015218 -0.022156 0.034576 0.000000 -0.004204 0.000000
# 4 0.000000 0.000000 0.000000 0.037433 0.000000 0.005737
# 5 0.001056 -0.008140 -0.004204 0.000000 0.032448 0.000000
# 6 0.000000 0.000000 0.000000 0.005737 0.000000 0.043435
#
#
# Mechanical properties :
#
#
# Convention : Reuss Voigt Hill
#
# Bulk Modulus (GPa) = 22.87672 35.95808 29.41740
# Shear Modulus (GPa) = 17.05434 24.07433 20.56434
#
# Velocity S-wave (km/s) = 2.79251 3.31784 3.06645
# Velocity P-wave (km/s) = 4.56705 5.57847 5.09790
#
# Compressibility (1/GPa) = 0.04371257
#
# Stress axis : x y z
#
# Youngs Moduli (GPa) = 51.78719 19.75591 28.92215
#
# Poissons Ratio (x) = -0.13788 0.44015
# Poissons Ratio (y) = -0.36144 0.64080
# Poissons Ratio (z) = 0.78812 0.43771
#
# Static dielectric constant tensor:
#      x y z
#    x 1.831800 0.000000 -0.019500 
#    y 0.000000 1.873450 0.000000 
#    z -0.019500 0.000000 1.796660 
# 
# From -- ./inp_files/19937.got.cif
#   From: 2010.05.17/outbox.cif.g08.bks.cpg/sg13_10_cif.got.tgz:19937.got - 2010.06.03 16:44:36.
