data_PCOD9232439
_publ_section_title
;
Structure prediction by ZEFSAII (Michael W. Deem and Ramdas Pophale) SiO2 
 PCOD9232439
Probable space group: P 2/C
;
_chemical_formula_sum "Si O2"
_cell_formula_units_Z 24
_cell_length_a 13.309622
_cell_length_b 8.283648
_cell_length_c 15.346870
_cell_angle_alpha 90.000000
_cell_angle_beta 36.896563
_cell_angle_gamma 90.000000
_cell_volume 1015.845789
_symmetry_space_group_name_H-M "P 2/C"
_symmetry_group_IT_number 13
_symmetry_cell_setting 'monoclinic'
loop_
_space_group_symop_operation_xyz
x,y,z
-x,y,1/2-z
-x,-y,-z
x,-y,1/2+z
loop_
_atom_site_type_symbol
_atom_site_label
_atom_site_fract_x
_atom_site_fract_y
_atom_site_fract_z
Si Si1 0.636529 0.711485 0.931675
Si Si2 0.880750 0.841046 0.088006
Si Si3 0.640703 0.892033 0.760019
Si Si4 0.245347 0.642374 0.169422
Si Si5 0.748237 0.173582 0.006917
Si Si6 0.861089 0.187088 0.415896
O O1 0.689021 0.845677 0.824646
O O2 0.735645 0.549106 0.837941
O O3 0.688622 0.754886 0.992958
O O4 0.438038 0.693121 0.057130
O O5 0.874481 0.733186 0.178681
O O6 0.699015 0.926184 0.205424
O O7 0.901572 0.747615 0.983246
O O8 0.000000 0.000000 0.000000
O O9 0.732988 0.786335 0.620584
O O10 0.444355 0.870168 0.883398
O O11 0.203224 0.697410 0.099909
O O12 0.851719 0.008304 0.926228
O O13 0.000000 0.233414 0.250000
#
# Coordination Sequence:
#
# PCOD9232439 Si02
#       6
#     4   4   4   4   4   4
#     4  10  21  37  57  84 119 152 191 242 302 365
#     4  11  22  37  59  84 112 151 197 242 290 347
#     4   9  18  34  56  81 108 145 190 240 290 346
#     4  10  21  37  58  84 115 154 194 241 299 364
#     4   9  18  34  57  80 106 144 193 239 287 348
#     4  11  22  37  57  83 113 148 193 245 297 355
#
# _framework density 23.625636
#
# number of rings (size 3 to 8) (size 9 to 14) (size 15 to 20)
#    0.000    2.000    0.000    4.000    0.000    6.000 
#    0.000   10.833    0.000    0.000    0.000    0.000 
#    0.000    0.000    0.000    0.000    0.000    0.000 
#
# Total GULP energy -134028.647053 kJ/mol
# GULP energy per Si atom -5584.526961 kJ/mol
# Density = 2.357186 g / cm^3
# Si number density = 23.625636 Si / 1000 Ang^3
#
#
#
# Elastic Constant Matrix: (Units=GPa)
#
#
# Indices 1 2 3 4 5 6 
#
# 1 81.3701 -2.9203 20.0385 0.0000 21.5790 0.0000
# 2 -2.9203 28.1874 24.7403 0.0000 4.9182 0.0000
# 3 20.0385 24.7403 102.3927 0.0000 17.1109 0.0000
# 4 0.0000 0.0000 0.0000 24.7622 0.0000 -8.7681
# 5 21.5790 4.9182 17.1109 0.0000 46.1434 0.0000
# 6 0.0000 0.0000 0.0000 -8.7681 0.0000 26.2010
#
#
#
# Elastic Compliance Matrix: (Units=1/GPa)
#
#
# Indices 1 2 3 4 5 6 
#
# 1 0.014966 0.005456 -0.003177 0.000000 -0.006402 0.000000
# 2 0.005456 0.047044 -0.011908 0.000000 -0.003150 0.000000
# 3 -0.003177 -0.011908 0.013651 0.000000 -0.002307 0.000000
# 4 0.000000 0.000000 0.000000 0.045813 0.000000 0.015331
# 5 -0.006402 -0.003150 -0.002307 0.000000 0.025857 0.000000
# 6 0.000000 0.000000 0.000000 0.015331 0.000000 0.043297
#
#
# Mechanical properties :
#
#
# Convention : Reuss Voigt Hill
#
# Bulk Modulus (GPa) = 17.72999 32.85193 25.29096
# Shear Modulus (GPa) = 21.86409 30.76077 26.31243
#
# Velocity S-wave (km/s) = 3.04540 3.61225 3.34087
# Velocity P-wave (km/s) = 4.45946 5.59761 5.06063
#
# Compressibility (1/GPa) = 0.05640162
#
# Stress axis : x y z
#
# Youngs Moduli (GPa) = 66.81991 21.25688 73.25515
#
# Poissons Ratio (x) = -0.11598 0.23276
# Poissons Ratio (y) = -0.36459 0.87234
# Poissons Ratio (z) = 0.21231 0.25313
#
# Static dielectric constant tensor:
#      x y z
#    x 2.004740 0.000000 -0.021000 
#    y 0.000000 1.831070 0.000000 
#    z -0.021000 0.000000 1.952840 
# 
# From -- ./inp_files/52871.got.cif
#   From: 2010.05.17/outbox.cif.g08.bks.cpg/sg13_27_cif.got.tgz:52871.got - 2010.06.03 16:44:36.
