data_PCOD9232170
_publ_section_title
;
Structure prediction by ZEFSAII (Michael W. Deem and Ramdas Pophale) SiO2 
 PCOD9232170
Probable space group: P 2/C
;
_chemical_formula_sum "Si O2"
_cell_formula_units_Z 32
_cell_length_a 26.295109
_cell_length_b 10.227689
_cell_length_c 20.832539
_cell_angle_alpha 90.000000
_cell_angle_beta 17.595160
_cell_angle_gamma 90.000000
_cell_volume 1693.626217
_symmetry_space_group_name_H-M "P 2/C"
_symmetry_group_IT_number 13
_symmetry_cell_setting 'monoclinic'
loop_
_space_group_symop_operation_xyz
x,y,z
-x,y,1/2-z
-x,-y,-z
x,-y,1/2+z
loop_
_atom_site_type_symbol
_atom_site_label
_atom_site_fract_x
_atom_site_fract_y
_atom_site_fract_z
Si Si1 0.644644 0.384249 0.224661
Si Si2 0.885985 0.952667 0.554927
Si Si3 0.752328 0.414582 0.767920
Si Si4 0.704760 0.305763 0.296474
Si Si5 0.562582 0.140062 0.247164
Si Si6 0.815024 0.057008 0.501881
Si Si7 0.691814 0.334641 0.696114
Si Si8 0.807080 0.845661 0.257804
O O1 0.446455 0.405432 0.476900
O O2 0.716042 0.332140 0.206351
O O3 0.657135 0.272616 0.156194
O O4 0.712947 0.530280 0.131100
O O5 0.786133 0.834542 0.709357
O O6 0.079389 0.905526 0.322430
O O7 0.815502 0.983712 0.570006
O O8 0.866282 0.079950 0.622607
O O9 0.791305 0.568095 0.725117
O O10 0.766421 0.365410 0.677270
O O11 0.835579 0.308708 0.714067
O O12 0.507677 0.307361 0.552546
O O13 0.500000 0.150153 0.250000
O O14 0.390496 0.129989 0.495316
O O15 0.680192 0.016854 0.119888
O O16 0.769258 0.207545 0.570510
O O17 0.000000 0.047416 0.250000
#
# Coordination Sequence:
#
# PCOD9232170 Si02
#       8
#     4   4   4   4   4   4   4   4
#     4   8  16  32  57  83 104 137 181 230 275 334
#     4  11  21  34  54  85 118 144 187 234 277 338
#     4   8  15  30  55  84 110 137 174 227 280 329
#     4   9  16  30  57  87 107 135 181 230 279 333
#     4  11  22  39  59  79 112 151 192 232 280 335
#     4  12  24  37  56  80 114 153 192 234 280 337
#     4   9  17  33  57  82 110 140 182 225 283 338
#     4  10  21  35  55  83 117 150 181 229 285 331
#
# _framework density 18.894369999999999
#
# number of rings (size 3 to 8) (size 9 to 14) (size 15 to 20)
#    0.000    2.250    2.500    3.000    0.000    1.500 
#    0.000    1.250    2.750    3.000    0.000    0.000 
#    0.000    0.000    0.000    0.000    0.000    0.000 
#
# Total GULP energy -178403.223941 kJ/mol
# GULP energy per Si atom -5575.100748 kJ/mol
# Density = 1.885137 g / cm^3
# Si number density = 18.894370 Si / 1000 Ang^3
#
#
#
# Elastic Constant Matrix: (Units=GPa)
#
#
# Indices 1 2 3 4 5 6 
#
# 1 45.1804 14.2349 -4.8643 0.0000 2.6021 0.0000
# 2 14.2349 76.9648 2.5870 0.0000 -2.5762 0.0000
# 3 -4.8643 2.5870 40.6638 0.0000 -7.1374 0.0000
# 4 0.0000 0.0000 0.0000 16.3627 0.0000 -5.9723
# 5 2.6021 -2.5762 -7.1374 0.0000 15.6339 0.0000
# 6 0.0000 0.0000 0.0000 -5.9723 0.0000 11.8767
#
#
#
# Elastic Compliance Matrix: (Units=1/GPa)
#
#
# Indices 1 2 3 4 5 6 
#
# 1 0.024084 -0.004661 0.002543 0.000000 -0.003616 0.000000
# 2 -0.004661 0.013976 -0.000985 0.000000 0.002629 0.000000
# 3 0.002543 -0.000985 0.027021 0.000000 0.011750 0.000000
# 4 0.000000 0.000000 0.000000 0.074854 0.000000 0.037641
# 5 -0.003616 0.002629 0.011750 0.000000 0.070363 0.000000
# 6 0.000000 0.000000 0.000000 0.037641 0.000000 0.103127
#
#
# Mechanical properties :
#
#
# Convention : Reuss Voigt Hill
#
# Bulk Modulus (GPa) = 16.98519 20.74713 18.86616
# Shear Modulus (GPa) = 14.73814 18.83143 16.78478
#
# Velocity S-wave (km/s) = 2.79593 3.16043 2.98375
# Velocity P-wave (km/s) = 4.40818 4.93175 4.67730
#
# Compressibility (1/GPa) = 0.05887481
#
# Stress axis : x y z
#
# Youngs Moduli (GPa) = 41.52135 71.55066 37.00792
#
# Poissons Ratio (x) = 0.33349 -0.09411
# Poissons Ratio (y) = 0.19353 0.03646
# Poissons Ratio (z) = -0.10558 0.07050
#
# Static dielectric constant tensor:
#      x y z
#    x 1.652180 0.000000 -0.019740 
#    y 0.000000 1.673790 0.000000 
#    z -0.019740 0.000000 1.653720 
# 
# From -- ./inp_files/82492.got.cif
#   From: 2010.05.17/outbox.cif.g08.bks.cpg/sg13_42_cif.got.tgz:82492.got - 2010.06.03 16:44:36.
