data_PCOD9232809
_publ_section_title
;
Structure prediction by ZEFSAII (Michael W. Deem and Ramdas Pophale) SiO2 
 PCOD9232809
Probable space group: P 2/C
;
_chemical_formula_sum "Si O2"
_cell_formula_units_Z 24
_cell_length_a 6.170216
_cell_length_b 13.749499
_cell_length_c 15.805956
_cell_angle_alpha 90.000000
_cell_angle_beta 71.142328
_cell_angle_gamma 90.000000
_cell_volume 1268.960336
_symmetry_space_group_name_H-M "P 2/C"
_symmetry_group_IT_number 13
_symmetry_cell_setting 'monoclinic'
loop_
_space_group_symop_operation_xyz
x,y,z
-x,y,1/2-z
-x,-y,-z
x,-y,1/2+z
loop_
_atom_site_type_symbol
_atom_site_label
_atom_site_fract_x
_atom_site_fract_y
_atom_site_fract_z
Si Si1 0.939653 0.106506 0.637443
Si Si2 0.338648 0.050262 0.091773
Si Si3 0.270884 0.219818 0.990360
Si Si4 0.908675 0.413519 0.570166
Si Si5 0.500000 0.008752 0.750000
Si Si6 0.241709 0.287984 0.636129
Si Si7 0.500000 0.610678 0.250000
O O1 0.840370 0.141090 0.559672
O O2 0.720232 0.076436 0.717636
O O3 0.112007 0.016166 0.617596
O O4 0.067634 0.199866 0.655849
O O5 0.467829 0.047291 0.165708
O O6 0.500000 0.000000 0.000000
O O7 0.272502 0.160915 0.077302
O O8 0.148339 0.321543 0.984091
O O9 0.534129 0.245146 0.937811
O O10 0.680730 0.435762 0.657806
O O11 0.000000 0.500000 0.500000
O O12 0.114167 0.376306 0.604694
O O13 0.331601 0.324555 0.714498
#
# Coordination Sequence:
#
# PCOD9232809 Si02
#       7
#     4   4   4   4   2   4   2
#     4  11  22  38  58  91 127 162 208 257 313 374
#     4  12  23  40  58  87 127 172 211 260 306 380
#     4  10  22  38  63  88 122 165 204 259 323 374
#     4  10  23  41  65  92 120 161 205 267 325 391
#     4  12  26  33  58  87 126 174 212 249 318 373
#     4  10  21  38  62  93 124 152 199 261 326 380
#     4  10  22  37  62  95 126 150 196 261 332 385
#
# _framework density 18.913119999999999
#
# number of rings (size 3 to 8) (size 9 to 14) (size 15 to 20)
#    0.000    1.333    3.333    1.500    0.000   18.667 
#    0.000    0.000    0.000   15.000    0.000    0.000 
#    0.000    0.000    0.000    0.000    0.000    0.000 
#
# Total GULP energy -133857.848782 kJ/mol
# GULP energy per Si atom -5577.410366 kJ/mol
# Density = 1.887007 g / cm^3
# Si number density = 18.913120 Si / 1000 Ang^3
#
#
#
# Elastic Constant Matrix: (Units=GPa)
#
#
# Indices 1 2 3 4 5 6 
#
# 1 130.6230 42.2073 54.2858 0.0000 2.7855 0.0000
# 2 42.2073 92.5596 58.7561 0.0000 2.5900 0.0000
# 3 54.2858 58.7561 104.3560 0.0000 12.8569 0.0000
# 4 0.0000 0.0000 0.0000 18.9879 0.0000 -6.0675
# 5 2.7855 2.5900 12.8569 0.0000 38.9592 0.0000
# 6 0.0000 0.0000 0.0000 -6.0675 0.0000 19.4857
#
#
#
# Elastic Compliance Matrix: (Units=1/GPa)
#
#
# Indices 1 2 3 4 5 6 
#
# 1 0.010014 -0.001897 -0.004241 0.000000 0.000810 0.000000
# 2 -0.001897 0.017337 -0.009016 0.000000 0.001958 0.000000
# 3 -0.004241 -0.009016 0.017464 0.000000 -0.004861 0.000000
# 4 0.000000 0.000000 0.000000 0.058484 0.000000 0.018211
# 5 0.000810 0.001958 -0.004861 0.000000 0.027084 0.000000
# 6 0.000000 0.000000 0.000000 0.018211 0.000000 0.056990
#
#
# Mechanical properties :
#
#
# Convention : Reuss Voigt Hill
#
# Bulk Modulus (GPa) = 68.93058 70.89299 69.91179
# Shear Modulus (GPa) = 22.47019 26.97253 24.72136
#
# Velocity S-wave (km/s) = 3.45058 3.78051 3.61931
# Velocity P-wave (km/s) = 7.23881 7.52471 7.38314
#
# Compressibility (1/GPa) = 0.01450735
#
# Stress axis : x y z
#
# Youngs Moduli (GPa) = 99.86271 57.67896 57.26104
#
# Poissons Ratio (x) = 0.10941 0.24284
# Poissons Ratio (y) = 0.18943 0.51627
# Poissons Ratio (z) = 0.42351 0.52004
#
# Static dielectric constant tensor:
#      x y z
#    x 1.690360 0.000000 0.007210 
#    y 0.000000 1.635380 0.000000 
#    z 0.007210 0.000000 1.742300 
# 
# From -- ./inp_files/43831.got.cif
#   From: 2010.05.17/outbox.cif.g08.bks.cpg/sg13_22_cif.got.tgz:43831.got - 2010.06.03 16:44:36.
