data_PCOD9232775
_publ_section_title
;
Structure prediction by ZEFSAII (Michael W. Deem and Ramdas Pophale) SiO2 
 PCOD9232775
Probable space group: P 2/C
;
_chemical_formula_sum "Si O2"
_cell_formula_units_Z 24
_cell_length_a 12.641751
_cell_length_b 11.028800
_cell_length_c 11.462085
_cell_angle_alpha 90.000000
_cell_angle_beta 145.558308
_cell_angle_gamma 90.000000
_cell_volume 903.822976
_symmetry_space_group_name_H-M "P 2/C"
_symmetry_group_IT_number 13
_symmetry_cell_setting 'monoclinic'
loop_
_space_group_symop_operation_xyz
x,y,z
-x,y,1/2-z
-x,-y,-z
x,-y,1/2+z
loop_
_atom_site_type_symbol
_atom_site_label
_atom_site_fract_x
_atom_site_fract_y
_atom_site_fract_z
Si Si1 0.231694 0.103458 0.946949
Si Si2 0.833706 0.643517 0.185250
Si Si3 0.217027 0.973156 0.169254
Si Si4 0.698084 0.623213 0.637792
Si Si5 0.646904 0.536875 0.287264
Si Si6 0.070466 0.727967 0.973010
O O1 0.282315 0.244259 0.971872
O O2 0.289165 0.040611 0.871613
O O3 0.000000 0.095683 0.750000
O O4 0.295456 0.059257 0.135646
O O5 0.755816 0.512096 0.147139
O O6 0.918846 0.697457 0.381120
O O7 0.000000 0.621098 0.250000
O O8 0.192511 0.847442 0.074346
O O9 0.000000 0.000000 0.000000
O O10 0.481923 0.632731 0.405216
O O11 0.699780 0.587847 0.774673
O O12 0.850074 0.723908 0.743092
O O13 0.500000 0.506017 0.250000
O O14 0.823318 0.614319 0.486393
#
# Coordination Sequence:
#
# PCOD9232775 Si02
#       6
#     4   4   4   4   4   4
#     4   8  15  29  50  83 123 151 201 265 309 366
#     4   9  17  30  57  88 119 155 201 259 311 371
#     4   9  17  34  56  90 120 157 214 264 312 372
#     4  10  22  37  60  91 119 164 212 246 322 392
#     4  10  22  39  55  87 128 157 198 265 314 374
#     4  10  21  38  61  90 122 162 212 259 314 387
#
# _framework density 26.553871999999998
#
# number of rings (size 3 to 8) (size 9 to 14) (size 15 to 20)
#    0.000    2.667    0.000    3.000    4.667    0.000 
#    9.000    0.000    0.000    1.000    8.667    2.333 
#    0.000    0.000    0.000    0.000    0.000    0.000 
#
# Total GULP energy -133663.212908 kJ/mol
# GULP energy per Si atom -5569.300538 kJ/mol
# Density = 2.649343 g / cm^3
# Si number density = 26.553872 Si / 1000 Ang^3
#
#
#
# Elastic Constant Matrix: (Units=GPa)
#
#
# Indices 1 2 3 4 5 6 
#
# 1 108.4308 32.0587 26.4932 0.0000 -33.4843 0.0000
# 2 32.0587 73.6622 15.2834 0.0000 -20.1726 0.0000
# 3 26.4932 15.2834 95.3989 0.0000 -14.5124 0.0000
# 4 0.0000 0.0000 0.0000 21.1844 0.0000 -13.9874
# 5 -33.4843 -20.1726 -14.5124 0.0000 48.4361 0.0000
# 6 0.0000 0.0000 0.0000 -13.9874 0.0000 18.9182
#
#
#
# Elastic Compliance Matrix: (Units=1/GPa)
#
#
# Indices 1 2 3 4 5 6 
#
# 1 0.012803 -0.003273 -0.001983 0.000000 0.006894 0.000000
# 2 -0.003273 0.016383 -0.001071 0.000000 0.004240 0.000000
# 3 -0.001983 -0.001071 0.011450 0.000000 0.001614 0.000000
# 4 0.000000 0.000000 0.000000 0.092228 0.000000 0.068190
# 5 0.006894 0.004240 0.001614 0.000000 0.027661 0.000000
# 6 0.000000 0.000000 0.000000 0.068190 0.000000 0.103276
#
#
# Mechanical properties :
#
#
# Convention : Reuss Voigt Hill
#
# Bulk Modulus (GPa) = 35.73463 47.24028 41.48746
# Shear Modulus (GPa) = 17.49582 31.28485 24.39033
#
# Velocity S-wave (km/s) = 2.56965 3.43616 3.03400
# Velocity P-wave (km/s) = 4.72131 5.79413 5.28501
#
# Compressibility (1/GPa) = 0.02798406
#
# Stress axis : x y z
#
# Youngs Moduli (GPa) = 78.10373 61.03828 87.33645
#
# Poissons Ratio (x) = 0.19977 0.17315
# Poissons Ratio (y) = 0.25563 0.09352
# Poissons Ratio (z) = 0.15485 0.06536
#
# Static dielectric constant tensor:
#      x y z
#    x 2.169340 0.000000 -0.185650 
#    y 0.000000 1.871040 0.000000 
#    z -0.185650 0.000000 2.171930 
# 
# From -- ./inp_files/33353.got.cif
#   From: 2010.05.17/outbox.cif.g08.bks.cpg/sg13_17_cif.got.tgz:33353.got - 2010.06.03 16:44:36.
