data_PCOD9232344
_publ_section_title
;
Structure prediction by ZEFSAII (Michael W. Deem and Ramdas Pophale) SiO2 
 PCOD9232344
Probable space group: P 2/C
;
_chemical_formula_sum "Si O2"
_cell_formula_units_Z 30
_cell_length_a 14.258261
_cell_length_b 21.608983
_cell_length_c 14.229673
_cell_angle_alpha 90.000000
_cell_angle_beta 159.202628
_cell_angle_gamma 90.000000
_cell_volume 1556.691494
_symmetry_space_group_name_H-M "P 2/C"
_symmetry_group_IT_number 13
_symmetry_cell_setting 'monoclinic'
loop_
_space_group_symop_operation_xyz
x,y,z
-x,y,1/2-z
-x,-y,-z
x,-y,1/2+z
loop_
_atom_site_type_symbol
_atom_site_label
_atom_site_fract_x
_atom_site_fract_y
_atom_site_fract_z
Si Si1 0.704162 0.729157 0.760978
Si Si2 0.941447 0.479825 0.805853
Si Si3 0.204319 0.112894 0.833284
Si Si4 0.221198 0.354573 0.744709
Si Si5 0.217254 0.985705 0.782736
Si Si6 0.500000 0.197034 0.250000
Si Si7 0.236094 0.140796 0.237006
Si Si8 0.557925 0.443392 0.693992
O O1 0.449357 0.689066 0.497957
O O2 0.638062 0.760877 0.799812
O O3 0.760659 0.786097 0.742468
O O4 0.955757 0.685098 0.995075
O O5 0.837536 0.415569 0.748752
O O6 0.713717 0.531481 0.604449
O O7 0.000000 0.472725 0.750000
O O8 0.214881 0.504462 0.104963
O O9 0.966236 0.130820 0.540119
O O10 0.186162 0.038789 0.832186
O O11 0.278416 0.153169 0.993979
O O12 0.469522 0.125926 0.022117
O O13 0.327183 0.382299 0.746042
O O14 0.185254 0.911974 0.767892
O O15 0.000000 0.000000 0.500000
O O16 0.500000 0.000000 0.000000
O O17 0.500000 0.434989 0.750000
#
# Coordination Sequence:
#
# PCOD9232344 Si02
#       8
#     4   4   4   4   4   2   4   4
#     4  11  24  33  51  76 118 161 188 223 268 351
#     4  10  21  36  60  84 114 147 181 232 290 332
#     4   9  17  29  49  69  97 143 189 229 268 314
#     4  12  23  37  56  84 116 149 198 221 282 345
#     4   8  14  26  47  69  90 122 179 237 272 302
#     4  10  22  36  48  74 124 162 196 220 276 344
#     4   9  17  32  46  70 102 137 186 230 273 317
#     4  10  21  40  62  84 106 139 190 253 293 322
#
# _framework density 19.271640999999999
#
# number of rings (size 3 to 8) (size 9 to 14) (size 15 to 20)
#    0.000    2.133    0.000    4.000    1.867    4.267 
#    0.000    0.000    0.000    0.000    1.733    0.000 
#   24.000    0.000    0.000    0.000    0.000    0.000 
#
# Total GULP energy -167209.160503 kJ/mol
# GULP energy per Si atom -5573.638683 kJ/mol
# Density = 1.922778 g / cm^3
# Si number density = 19.271641 Si / 1000 Ang^3
#
#
#
# Elastic Constant Matrix: (Units=GPa)
#
#
# Indices 1 2 3 4 5 6 
#
# 1 67.3557 59.2840 16.0450 0.0000 10.7561 0.0000
# 2 59.2840 151.6997 4.0764 0.0000 10.4685 0.0000
# 3 16.0450 4.0764 -44.8247 0.0000 42.4582 0.0000
# 4 0.0000 0.0000 0.0000 13.1829 0.0000 -11.2147
# 5 10.7561 10.4685 42.4582 0.0000 17.5552 0.0000
# 6 0.0000 0.0000 0.0000 -11.2147 0.0000 23.2389
#
#
#
# Elastic Compliance Matrix: (Units=1/GPa)
#
#
# Indices 1 2 3 4 5 6 
#
# 1 0.024049 -0.008794 -0.000359 0.000000 -0.008623 0.000000
# 2 -0.008794 0.009949 -0.000838 0.000000 0.001483 0.000000
# 3 -0.000359 -0.000838 -0.006634 0.000000 0.016765 0.000000
# 4 0.000000 0.000000 0.000000 0.128686 0.000000 0.062101
# 5 -0.008623 0.001483 0.016765 0.000000 0.020815 0.000000
# 6 0.000000 0.000000 0.000000 0.062101 0.000000 0.073000
#
#
# Mechanical properties :
#
#
# Convention : Reuss Voigt Hill
#
# Bulk Modulus (GPa) = 135.47177 37.00462 86.23820
# Shear Modulus (GPa) = 18.36161 17.11709 17.73935
#
# Velocity S-wave (km/s) = 3.09006 2.98350 3.03725
# Velocity P-wave (km/s) = 9.12030 5.57778 7.55948
#
# Compressibility (1/GPa) = 0.00738161
#
# Stress axis : x y z
#
# Youngs Moduli (GPa) = 41.58215 100.51597 -150.73641
#
# Poissons Ratio (x) = 0.88389 -0.05411
# Poissons Ratio (y) = 0.36565 -0.12637
# Poissons Ratio (z) = 0.01493 0.08427
#
# Static dielectric constant tensor:
#      x y z
#    x 1.701100 0.000000 0.004010 
#    y 0.000000 1.723610 0.000000 
#    z 0.004010 0.000000 1.660710 
# 
# From -- ./inp_files/53969.got.cif
#   From: 2010.05.17/outbox.cif.g08.bks.cpg/sg13_27_cif.got.tgz:53969.got - 2010.06.03 16:44:36.
