data_PCOD9232962
_publ_section_title
;
Structure prediction by ZEFSAII (Michael W. Deem and Ramdas Pophale) SiO2 
 PCOD9232962
Probable space group: P 2/C
;
_chemical_formula_sum "Si O2"
_cell_formula_units_Z 16
_cell_length_a 7.709713
_cell_length_b 10.220330
_cell_length_c 15.370059
_cell_angle_alpha 90.000000
_cell_angle_beta 32.000836
_cell_angle_gamma 90.000000
_cell_volume 641.798228
_symmetry_space_group_name_H-M "P 2/C"
_symmetry_group_IT_number 13
_symmetry_cell_setting 'monoclinic'
loop_
_space_group_symop_operation_xyz
x,y,z
-x,y,1/2-z
-x,-y,-z
x,-y,1/2+z
loop_
_atom_site_type_symbol
_atom_site_label
_atom_site_fract_x
_atom_site_fract_y
_atom_site_fract_z
Si Si1 0.443507 0.428242 0.877699
Si Si2 0.493889 0.063290 0.405699
Si Si3 0.847160 0.172154 0.720113
Si Si4 0.732640 0.315899 0.234457
O O1 0.500000 0.444672 0.750000
O O2 0.699570 0.314597 0.787465
O O3 0.547289 0.570622 0.869384
O O4 0.083478 0.376690 0.056544
O O5 0.754371 0.178736 0.276324
O O6 0.153411 0.135068 0.530408
O O7 0.500000 0.000000 0.500000
O O8 0.571711 0.934802 0.317850
O O9 0.000000 0.151521 0.750000
O O10 0.500000 0.290781 0.250000
#
# Coordination Sequence:
#
# PCOD9232962 Si02
#       4
#     4   4   4   4
#     4  11  22  40  66  98 132 171 217 269 324 390
#     4  10  21  39  61  89 128 170 214 266 322 383
#     4  10  21  39  60  90 127 169 214 265 321 383
#     4  11  22  40  66  97 130 172 218 270 327 388
#
# _framework density 24.929953000000001
#
# number of rings (size 3 to 8) (size 9 to 14) (size 15 to 20)
#    0.000    1.500    0.000    7.500    0.000    3.000 
#    0.000   20.000    0.000    0.000    0.000    0.000 
#    0.000    0.000    0.000    0.000    0.000    0.000 
#
# Total GULP energy -89321.606734 kJ/mol
# GULP energy per Si atom -5582.600421 kJ/mol
# Density = 2.487321 g / cm^3
# Si number density = 24.929953 Si / 1000 Ang^3
#
#
#
# Elastic Constant Matrix: (Units=GPa)
#
#
# Indices 1 2 3 4 5 6 
#
# 1 53.8847 30.0290 20.8219 0.0000 -4.8002 0.0000
# 2 30.0290 165.9905 16.6269 0.0000 14.7882 0.0000
# 3 20.8219 16.6269 85.5356 0.0000 2.0506 0.0000
# 4 0.0000 0.0000 0.0000 58.7059 0.0000 -6.3778
# 5 -4.8002 14.7882 2.0506 0.0000 19.4853 0.0000
# 6 0.0000 0.0000 0.0000 -6.3778 0.0000 34.6569
#
#
#
# Elastic Compliance Matrix: (Units=1/GPa)
#
#
# Indices 1 2 3 4 5 6 
#
# 1 0.024101 -0.004738 -0.005188 0.000000 0.010079 0.000000
# 2 -0.004738 0.007506 -0.000141 0.000000 -0.006849 0.000000
# 3 -0.005188 -0.000141 0.013042 0.000000 -0.002543 0.000000
# 4 0.000000 0.000000 0.000000 0.017382 0.000000 0.003199
# 5 0.010079 -0.006849 -0.002543 0.000000 0.059269 0.000000
# 6 0.000000 0.000000 0.000000 0.003199 0.000000 0.029443
#
#
# Mechanical properties :
#
#
# Convention : Reuss Voigt Hill
#
# Bulk Modulus (GPa) = 40.79163 48.92961 44.86062
# Shear Modulus (GPa) = 27.92520 38.43183 33.17852
#
# Velocity S-wave (km/s) = 3.35049 3.93057 3.65207
# Velocity P-wave (km/s) = 5.60051 6.34576 5.98475
#
# Compressibility (1/GPa) = 0.02451483
#
# Stress axis : x y z
#
# Youngs Moduli (GPa) = 41.49161 133.22654 76.67366
#
# Poissons Ratio (x) = 0.63129 0.39775
# Poissons Ratio (y) = 0.19661 0.01084
# Poissons Ratio (z) = 0.21524 0.01884
#
# Static dielectric constant tensor:
#      x y z
#    x 2.104130 0.000000 0.133050 
#    y 0.000000 2.124480 0.000000 
#    z 0.133050 0.000000 2.299660 
# 
# From -- ./inp_files/14441.got.cif
#   From: 2010.05.17/outbox.cif.g08.bks.cpg/sg13_8_cif.got.tgz:14441.got - 2010.06.03 16:44:36.
