data_PCOD9232280
_publ_section_title
;
Structure prediction by ZEFSAII (Michael W. Deem and Ramdas Pophale) SiO2 
 PCOD9232280
Probable space group: P 2/C
;
_chemical_formula_sum "Si O2"
_cell_formula_units_Z 20
_cell_length_a 9.007217
_cell_length_b 11.622441
_cell_length_c 9.022763
_cell_angle_alpha 90.000000
_cell_angle_beta 90.231435
_cell_angle_gamma 90.000000
_cell_volume 944.547892
_symmetry_space_group_name_H-M "P 2/C"
_symmetry_group_IT_number 13
_symmetry_cell_setting 'monoclinic'
loop_
_space_group_symop_operation_xyz
x,y,z
-x,y,1/2-z
-x,-y,-z
x,-y,1/2+z
loop_
_atom_site_type_symbol
_atom_site_label
_atom_site_fract_x
_atom_site_fract_y
_atom_site_fract_z
Si Si1 0.171850 0.518136 0.960016
Si Si2 0.168497 0.249896 0.287582
Si Si3 0.323548 0.641732 0.240234
Si Si4 0.324037 0.864153 0.068356
Si Si5 0.610487 0.120445 0.390072
O O1 0.179615 0.618324 0.836438
O O2 0.243751 0.406344 0.885726
O O3 0.260212 0.568494 0.100735
O O4 0.000000 0.500000 0.000000
O O5 0.228037 0.176995 0.427793
O O6 0.275533 0.219178 0.152264
O O7 0.000000 0.221808 0.250000
O O8 0.500000 0.624530 0.250000
O O9 0.291910 0.775185 0.199784
O O10 0.305422 0.999375 0.093915
O O11 0.498905 0.853270 0.023973
O O12 0.500000 0.106039 0.250000
#
# Coordination Sequence:
#
# PCOD9232280 Si02
#       5
#     4   4   4   4   4
#     4  11  24  43  61  84 123 164 194 238 305 356
#     4  10  21  36  56  83 115 155 197 240 290 347
#     4  11  23  39  63  92 116 151 205 250 286 346
#     4   9  20  37  60  85 114 154 193 239 295 350
#     4   9  18  37  59  83 116 150 189 240 299 346
#
# _framework density 21.174151999999999
#
# number of rings (size 3 to 8) (size 9 to 14) (size 15 to 20)
#    0.000    2.000    0.000    3.000    0.000    8.000 
#    0.000    4.000    0.000    0.000    0.000    0.000 
#    0.000    0.000    0.000    0.000    0.000    0.000 
#
# Total GULP energy -111814.177404 kJ/mol
# GULP energy per Si atom -5590.708870 kJ/mol
# Density = 2.112596 g / cm^3
# Si number density = 21.174152 Si / 1000 Ang^3
#
#
#
# Elastic Constant Matrix: (Units=GPa)
#
#
# Indices 1 2 3 4 5 6 
#
# 1 98.8972 42.8993 20.6188 0.0000 17.0850 0.0000
# 2 42.8993 124.0165 52.0799 0.0000 -8.6881 0.0000
# 3 20.6188 52.0799 49.0162 0.0000 1.4896 0.0000
# 4 0.0000 0.0000 0.0000 35.5077 0.0000 -6.3786
# 5 17.0850 -8.6881 1.4896 0.0000 31.7309 0.0000
# 6 0.0000 0.0000 0.0000 -6.3786 0.0000 24.1492
#
#
#
# Elastic Compliance Matrix: (Units=1/GPa)
#
#
# Indices 1 2 3 4 5 6 
#
# 1 0.014071 -0.005668 0.000382 0.000000 -0.009146 0.000000
# 2 -0.005668 0.017585 -0.016563 0.000000 0.008644 0.000000
# 3 0.000382 -0.016563 0.038037 0.000000 -0.006526 0.000000
# 4 0.000000 0.000000 0.000000 0.029566 0.000000 0.007809
# 5 -0.009146 0.008644 -0.006526 0.000000 0.039113 0.000000
# 6 0.000000 0.000000 0.000000 0.007809 0.000000 0.043472
#
#
# Mechanical properties :
#
#
# Convention : Reuss Voigt Hill
#
# Bulk Modulus (GPa) = 38.46987 55.90289 47.18638
# Shear Modulus (GPa) = 21.34867 28.69969 25.02418
#
# Velocity S-wave (km/s) = 3.17873 3.68559 3.44150
# Velocity P-wave (km/s) = 5.62851 6.67609 6.17456
#
# Compressibility (1/GPa) = 0.02599437
#
# Stress axis : x y z
#
# Youngs Moduli (GPa) = 71.06941 56.86625 26.29020
#
# Poissons Ratio (x) = 0.32233 -0.01003
# Poissons Ratio (y) = 0.40284 0.43543
# Poissons Ratio (z) = -0.02712 0.94185
#
# Static dielectric constant tensor:
#      x y z
#    x 1.709370 0.000000 0.003390 
#    y 0.000000 1.783300 0.000000 
#    z 0.003390 0.000000 1.806510 
# 
# From -- ./inp_files/11667.got.cif
#   From: 2010.05.17/outbox.cif.g08.bks.cpg/sg13_6_cif.got.tgz:11667.got - 2010.06.03 16:44:36.
