data_PCOD9232610
_publ_section_title
;
Structure prediction by ZEFSAII (Michael W. Deem and Ramdas Pophale) SiO2 
 PCOD9232610
Probable space group: P 2/C
;
_chemical_formula_sum "Si O2"
_cell_formula_units_Z 26
_cell_length_a 13.676833
_cell_length_b 14.948732
_cell_length_c 8.555316
_cell_angle_alpha 90.000000
_cell_angle_beta 44.071887
_cell_angle_gamma 90.000000
_cell_volume 1216.636314
_symmetry_space_group_name_H-M "P 2/C"
_symmetry_group_IT_number 13
_symmetry_cell_setting 'monoclinic'
loop_
_space_group_symop_operation_xyz
x,y,z
-x,y,1/2-z
-x,-y,-z
x,-y,1/2+z
loop_
_atom_site_type_symbol
_atom_site_label
_atom_site_fract_x
_atom_site_fract_y
_atom_site_fract_z
Si Si1 0.395209 0.056762 0.510478
Si Si2 0.000000 0.836584 0.250000
Si Si3 0.000000 0.431299 0.250000
Si Si4 0.664382 0.401896 0.055563
Si Si5 0.786779 0.234359 0.743889
Si Si6 0.814495 0.442105 0.189862
Si Si7 0.130655 0.933276 0.836264
Si Si8 0.000000 0.207672 0.250000
O O1 0.311520 0.146090 0.663207
O O2 0.500000 0.000000 0.500000
O O3 0.268885 0.985848 0.626370
O O4 0.500000 0.083259 0.250000
O O5 0.089514 0.783343 0.272693
O O6 0.877429 0.891254 0.481418
O O7 0.903377 0.389315 0.220685
O O8 0.909320 0.497385 0.465259
O O9 0.500000 0.414102 0.250000
O O10 0.724469 0.389295 0.163352
O O11 0.700499 0.316701 0.908359
O O12 0.726721 0.488191 0.895177
O O13 0.877032 0.256218 0.486723
O O14 0.085868 0.857712 0.766837
O O15 0.000000 0.000000 0.000000
#
# Coordination Sequence:
#
# PCOD9232610 Si02
#       8
#     4   2   2   4   4   4   4   2
#     4  12  24  36  59  93 130 170 212 257 325 389
#     4  10  21  37  64  94 118 166 222 259 322 373
#     4   8  16  34  64  98 126 144 208 282 324 382
#     4  11  23  41  63  92 132 175 220 268 335 412
#     4  11  24  40  62  92 130 163 211 280 328 393
#     4   9  19  37  66  95 122 169 217 267 337 402
#     4  11  20  36  65  84 121 166 220 259 301 382
#     4  10  21  39  64  90 118 162 218 261 322 373
#
# _framework density 21.370397000000001
#
# number of rings (size 3 to 8) (size 9 to 14) (size 15 to 20)
#    0.000    1.538    3.077    3.231    0.000    4.308 
#    0.000    4.615    0.000   10.154    0.000    0.000 
#    0.000    0.000    0.000    0.000    0.000    0.000 
#
# Total GULP energy -144973.823288 kJ/mol
# GULP energy per Si atom -5575.916280 kJ/mol
# Density = 2.132176 g / cm^3
# Si number density = 21.370397 Si / 1000 Ang^3
#
#
#
# Elastic Constant Matrix: (Units=GPa)
#
#
# Indices 1 2 3 4 5 6 
#
# 1 109.8987 20.8030 56.5688 0.0000 7.0526 0.0000
# 2 20.8030 65.3175 38.2178 0.0000 0.5863 0.0000
# 3 56.5688 38.2178 165.8287 0.0000 -2.7256 0.0000
# 4 0.0000 0.0000 0.0000 54.9329 0.0000 3.5334
# 5 7.0526 0.5863 -2.7256 0.0000 42.6578 0.0000
# 6 0.0000 0.0000 0.0000 3.5334 0.0000 24.4775
#
#
#
# Elastic Compliance Matrix: (Units=1/GPa)
#
#
# Indices 1 2 3 4 5 6 
#
# 1 0.011351 -0.001515 -0.003557 0.000000 -0.002083 0.000000
# 2 -0.001515 0.017909 -0.003614 0.000000 -0.000227 0.000000
# 3 -0.003557 -0.003614 0.008096 0.000000 0.001155 0.000000
# 4 0.000000 0.000000 0.000000 0.018375 0.000000 -0.002652
# 5 -0.002083 -0.000227 0.001155 0.000000 0.023864 0.000000
# 6 0.000000 0.000000 0.000000 -0.002652 0.000000 0.041237
#
#
# Mechanical properties :
#
#
# Convention : Reuss Voigt Hill
#
# Bulk Modulus (GPa) = 50.04369 63.58046 56.81207
# Shear Modulus (GPa) = 34.51500 39.44402 36.97951
#
# Velocity S-wave (km/s) = 4.02317 4.30086 4.16433
# Velocity P-wave (km/s) = 6.71188 7.38102 7.05439
#
# Compressibility (1/GPa) = 0.01998254
#
# Stress axis : x y z
#
# Youngs Moduli (GPa) = 88.10003 55.83724 123.52224
#
# Poissons Ratio (x) = 0.08460 0.43938
# Poissons Ratio (y) = 0.13348 0.44645
# Poissons Ratio (z) = 0.31338 0.20181
#
# Static dielectric constant tensor:
#      x y z
#    x 1.756600 0.000000 -0.014760 
#    y 0.000000 1.819220 0.000000 
#    z -0.014760 0.000000 1.749830 
# 
# From -- ./inp_files/19882.got.cif
#   From: 2010.05.17/outbox.cif.g08.bks.cpg/sg13_10_cif.got.tgz:19882.got - 2010.06.03 16:44:36.
