data_PCOD9232703
_publ_section_title
;
Structure prediction by ZEFSAII (Michael W. Deem and Ramdas Pophale) SiO2 
 PCOD9232703
Probable space group: P 2/C
;
_chemical_formula_sum "Si O2"
_cell_formula_units_Z 20
_cell_length_a 19.574425
_cell_length_b 8.128986
_cell_length_c 5.405586
_cell_angle_alpha 90.000000
_cell_angle_beta 75.766691
_cell_angle_gamma 90.000000
_cell_volume 833.734047
_symmetry_space_group_name_H-M "P 2/C"
_symmetry_group_IT_number 13
_symmetry_cell_setting 'monoclinic'
loop_
_space_group_symop_operation_xyz
x,y,z
-x,y,1/2-z
-x,-y,-z
x,-y,1/2+z
loop_
_atom_site_type_symbol
_atom_site_label
_atom_site_fract_x
_atom_site_fract_y
_atom_site_fract_z
Si Si1 0.250556 0.462990 0.970767
Si Si2 0.500000 0.394320 0.750000
Si Si3 0.771859 0.908956 0.007844
Si Si4 0.899999 0.594363 0.393519
Si Si5 0.000000 0.893994 0.250000
Si Si6 0.398517 0.093599 0.840170
O O1 0.291624 0.499239 0.184452
O O2 0.213597 0.285120 0.002267
O O3 0.185048 0.590117 0.030208
O O4 0.500000 0.500000 0.500000
O O5 0.432818 0.272174 0.809701
O O6 0.795502 0.997761 0.734939
O O7 0.686389 0.905304 0.084196
O O8 0.921489 0.517883 0.639075
O O9 0.933521 0.771064 0.323117
O O10 0.000000 0.000000 0.500000
O O11 0.419948 0.000073 0.571021
#
# Coordination Sequence:
#
# PCOD9232703 Si02
#       6
#     4   2   4   4   2   4
#     4  10  21  38  59  85 118 157 188 231 294 347
#     4  12  24  36  56  90 120 148 196 250 290 342
#     4  10  21  38  61  88 113 149 201 245 282 342
#     4  10  21  41  62  85 118 156 189 228 293 352
#     4  12  24  40  64  92 118 150 198 246 278 334
#     4  10  21  39  60  81 116 159 193 234 297 355
#
# _framework density 23.988462999999999
#
# number of rings (size 3 to 8) (size 9 to 14) (size 15 to 20)
#    0.000    1.600    0.000    4.800    0.000    1.600 
#    0.000   24.000    0.000    0.000    0.000    0.000 
#    0.000    0.000    0.000    0.000    0.000    0.000 
#
# Total GULP energy -111957.993911 kJ/mol
# GULP energy per Si atom -5597.899696 kJ/mol
# Density = 2.393386 g / cm^3
# Si number density = 23.988463 Si / 1000 Ang^3
#
#
#
# Elastic Constant Matrix: (Units=GPa)
#
#
# Indices 1 2 3 4 5 6 
#
# 1 51.1474 12.9944 20.8122 0.0000 -4.4173 0.0000
# 2 12.9944 158.9668 116.2359 0.0000 24.4350 0.0000
# 3 20.8122 116.2359 283.9748 0.0000 35.8362 0.0000
# 4 0.0000 0.0000 0.0000 64.5742 0.0000 3.7903
# 5 -4.4173 24.4350 35.8362 0.0000 25.4990 0.0000
# 6 0.0000 0.0000 0.0000 3.7903 0.0000 35.8199
#
#
#
# Elastic Compliance Matrix: (Units=1/GPa)
#
#
# Indices 1 2 3 4 5 6 
#
# 1 0.021416 -0.001554 -0.001932 0.000000 0.007915 0.000000
# 2 -0.001554 0.009472 -0.003141 0.000000 -0.004932 0.000000
# 3 -0.001932 -0.003141 0.005605 0.000000 -0.005202 0.000000
# 4 0.000000 0.000000 0.000000 0.015583 0.000000 -0.001649
# 5 0.007915 -0.004932 -0.005202 0.000000 0.052626 0.000000
# 6 0.000000 0.000000 0.000000 -0.001649 0.000000 0.028092
#
#
# Mechanical properties :
#
#
# Convention : Reuss Voigt Hill
#
# Bulk Modulus (GPa) = 43.03168 88.24157 65.63663
# Shear Modulus (GPa) = 32.51064 48.11505 40.31285
#
# Velocity S-wave (km/s) = 3.68538 4.48343 4.10385
# Velocity P-wave (km/s) = 6.00723 7.97912 7.06234
#
# Compressibility (1/GPa) = 0.02323869
#
# Stress axis : x y z
#
# Youngs Moduli (GPa) = 46.69399 105.56954 178.40656
#
# Poissons Ratio (x) = 0.16411 0.34470
# Poissons Ratio (y) = 0.07258 0.56035
# Poissons Ratio (z) = 0.09022 0.33158
#
# Static dielectric constant tensor:
#      x y z
#    x 1.933190 0.000000 0.011340 
#    y 0.000000 1.914600 0.000000 
#    z 0.011340 0.000000 1.967330 
# 
# From -- ./inp_files/7645.got.cif
#   From: 2010.05.17/outbox.cif.g08.bks.cpg/sg13_4_cif.got.tgz:7645.got - 2010.06.03 16:44:36.
