data_PCOD9232001
_publ_section_title
;
Structure prediction by ZEFSAII (Michael W. Deem and Ramdas Pophale) SiO2 
 PCOD9232001
Probable space group: P 2/C
;
_chemical_formula_sum "Si O2"
_cell_formula_units_Z 28
_cell_length_a 14.524633
_cell_length_b 9.360068
_cell_length_c 11.159247
_cell_angle_alpha 90.000000
_cell_angle_beta 57.631683
_cell_angle_gamma 90.000000
_cell_volume 1281.393534
_symmetry_space_group_name_H-M "P 2/C"
_symmetry_group_IT_number 13
_symmetry_cell_setting 'monoclinic'
loop_
_space_group_symop_operation_xyz
x,y,z
-x,y,1/2-z
-x,-y,-z
x,-y,1/2+z
loop_
_atom_site_type_symbol
_atom_site_label
_atom_site_fract_x
_atom_site_fract_y
_atom_site_fract_z
Si Si1 0.854853 0.703882 0.410087
Si Si2 0.616169 0.626139 0.506158
Si Si3 0.530506 0.311222 0.596738
Si Si4 0.855898 0.053950 0.723254
Si Si5 0.012656 0.779392 0.945480
Si Si6 0.384801 0.933045 0.622594
Si Si7 0.000000 0.549205 0.750000
Si Si8 0.500000 0.839588 0.750000
O O1 0.727582 0.676836 0.486566
O O2 0.879126 0.849835 0.322807
O O3 0.909623 0.721233 0.501515
O O4 0.902109 0.563952 0.311041
O O5 0.589422 0.464624 0.558887
O O6 0.585642 0.654207 0.388811
O O7 0.531564 0.733667 0.623638
O O8 0.500000 0.257357 0.750000
O O9 0.611228 0.207528 0.465134
O O10 0.904959 0.149403 0.579759
O O11 0.921201 0.905302 0.667984
O O12 0.727155 0.018538 0.815059
O O13 0.988470 0.650826 0.872449
O O14 0.401686 0.921491 0.755148
O O15 0.500000 0.000000 0.500000
#
# Coordination Sequence:
#
# PCOD9232001 Si02
#       8
#     4   4   4   4   4   4   2   2
#     4  12  25  49  73 104 144 192 242 306 358 429
#     4  10  22  41  71  99 145 188 228 293 360 421
#     4  10  22  43  67 107 143 183 239 291 354 436
#     4  11  25  47  76 100 146 190 243 295 362 431
#     4  11  27  49  74 106 143 191 243 301 362 432
#     4  11  25  44  68 100 141 186 238 289 358 433
#     4  12  28  48  74 110 142 178 254 296 368 430
#     4  10  20  44  64  98 142 182 232 288 350 430
#
# _framework density 21.851209000000001
#
# number of rings (size 3 to 8) (size 9 to 14) (size 15 to 20)
#    0.000    1.143    2.143    3.000    7.000    1.143 
#    5.143    0.000    0.000    0.000    0.000    0.000 
#    0.000    0.000    0.000    0.000    0.000    0.000 
#
# Total GULP energy -156209.822703 kJ/mol
# GULP energy per Si atom -5578.922239 kJ/mol
# Density = 2.180147 g / cm^3
# Si number density = 21.851209 Si / 1000 Ang^3
#
#
#
# Elastic Constant Matrix: (Units=GPa)
#
#
# Indices 1 2 3 4 5 6 
#
# 1 105.3323 39.9266 44.6928 0.0000 -6.6706 0.0000
# 2 39.9266 100.3842 24.1029 0.0000 -0.6037 0.0000
# 3 44.6928 24.1029 60.6424 0.0000 7.7726 0.0000
# 4 0.0000 0.0000 0.0000 28.4396 0.0000 -10.8684
# 5 -6.6706 -0.6037 7.7726 0.0000 34.1691 0.0000
# 6 0.0000 0.0000 0.0000 -10.8684 0.0000 27.7584
#
#
#
# Elastic Compliance Matrix: (Units=1/GPa)
#
#
# Indices 1 2 3 4 5 6 
#
# 1 0.015878 -0.003651 -0.010959 0.000000 0.005528 0.000000
# 2 -0.003651 0.011902 -0.002035 0.000000 -0.000039 0.000000
# 3 -0.010959 -0.002035 0.026425 0.000000 -0.008186 0.000000
# 4 0.000000 0.000000 0.000000 0.041349 0.000000 0.016190
# 5 0.005528 -0.000039 -0.008186 0.000000 0.032207 0.000000
# 6 0.000000 0.000000 0.000000 0.016190 0.000000 0.042364
#
#
# Mechanical properties :
#
#
# Convention : Reuss Voigt Hill
#
# Bulk Modulus (GPa) = 47.81258 53.75595 50.78427
# Shear Modulus (GPa) = 23.76577 28.58251 26.17414
#
# Velocity S-wave (km/s) = 3.30148 3.62062 3.46473
# Velocity P-wave (km/s) = 6.03834 6.49098 6.26875
#
# Compressibility (1/GPa) = 0.02091500
#
# Stress axis : x y z
#
# Youngs Moduli (GPa) = 62.98168 84.01879 37.84280
#
# Poissons Ratio (x) = 0.30671 0.41473
# Poissons Ratio (y) = 0.22992 0.07702
# Poissons Ratio (z) = 0.69023 0.17099
#
# Static dielectric constant tensor:
#      x y z
#    x 2.423070 0.000000 -0.244510 
#    y 0.000000 1.809560 0.000000 
#    z -0.244510 0.000000 1.922010 
# 
# From -- ./inp_files/36379.got.cif
#   From: 2010.05.17/outbox.cif.g08.bks.cpg/sg13_19_cif.got.tgz:36379.got - 2010.06.03 16:44:36.
