data_PCOD9232843
_publ_section_title
;
Structure prediction by ZEFSAII (Michael W. Deem and Ramdas Pophale) SiO2 
 PCOD9232843
Probable space group: P 2/C
;
_chemical_formula_sum "Si O2"
_cell_formula_units_Z 32
_cell_length_a 14.873446
_cell_length_b 8.415447
_cell_length_c 22.763352
_cell_angle_alpha 90.000000
_cell_angle_beta 32.883301
_cell_angle_gamma 90.000000
_cell_volume 1546.922720
_symmetry_space_group_name_H-M "P 2/C"
_symmetry_group_IT_number 13
_symmetry_cell_setting 'monoclinic'
loop_
_space_group_symop_operation_xyz
x,y,z
-x,y,1/2-z
-x,-y,-z
x,-y,1/2+z
loop_
_atom_site_type_symbol
_atom_site_label
_atom_site_fract_x
_atom_site_fract_y
_atom_site_fract_z
Si Si1 0.379514 0.842948 0.526260
Si Si2 0.649904 0.387114 0.851434
Si Si3 0.227115 0.341380 0.400016
Si Si4 0.408054 0.606559 0.920536
Si Si5 0.808496 0.002256 0.627433
Si Si6 0.188801 0.455486 0.130260
Si Si7 0.604110 0.916802 0.850886
Si Si8 0.166342 0.652452 0.361144
O O1 0.551495 0.745540 0.440996
O O2 0.238392 0.721720 0.583084
O O3 0.334639 0.907430 0.615228
O O4 0.442679 0.968342 0.443768
O O5 0.513836 0.453897 0.881207
O O6 0.709522 0.514746 0.865547
O O7 0.794049 0.332500 0.729620
O O8 0.656831 0.386193 0.109485
O O9 0.235141 0.483899 0.347676
O O10 0.031889 0.345467 0.523347
O O11 0.265544 0.157831 0.361819
O O12 0.527100 0.752129 0.870959
O O13 0.249460 0.585729 0.050323
O O14 0.762437 0.189745 0.645018
O O15 0.749849 0.970789 0.727086
O O16 0.000000 0.000000 0.500000
O O17 0.000000 0.469842 0.250000
#
# Coordination Sequence:
#
# PCOD9232843 Si02
#       8
#     4   4   4   4   4   4   4   4
#     4  10  21  38  63  95 123 168 209 256 331 386
#     4  11  19  39  66  91 123 165 214 263 322 387
#     4  10  23  41  61  92 131 169 219 265 323 384
#     4  11  22  40  63  94 123 170 220 263 320 383
#     4  10  22  41  63  94 126 169 216 266 323 384
#     4  11  22  40  62  96 130 165 215 267 325 389
#     4  11  20  39  66  89 128 165 211 267 324 386
#     4  10  21  41  65  91 127 174 210 266 331 380
#
# _framework density 20.686230999999999
#
# number of rings (size 3 to 8) (size 9 to 14) (size 15 to 20)
#    0.000    1.500    3.750    2.250    0.000    2.000 
#    6.750    3.125    0.000    0.000    0.000    0.000 
#    0.000    0.000    0.000    0.000    0.000    0.000 
#
# Total GULP energy -178180.481921 kJ/mol
# GULP energy per Si atom -5568.140060 kJ/mol
# Density = 2.063915 g / cm^3
# Si number density = 20.686231 Si / 1000 Ang^3
#
#
#
# Elastic Constant Matrix: (Units=GPa)
#
#
# Indices 1 2 3 4 5 6 
#
# 1 54.4139 1.8677 2.4980 0.0000 12.2101 0.0000
# 2 1.8677 80.6815 6.3068 0.0000 3.7845 0.0000
# 3 2.4980 6.3068 119.5724 0.0000 29.7966 0.0000
# 4 0.0000 0.0000 0.0000 20.5151 0.0000 0.0300
# 5 12.2101 3.7845 29.7966 0.0000 22.3903 0.0000
# 6 0.0000 0.0000 0.0000 0.0300 0.0000 10.7214
#
#
#
# Elastic Compliance Matrix: (Units=1/GPa)
#
#
# Indices 1 2 3 4 5 6 
#
# 1 0.022032 -0.000006 0.003791 0.000000 -0.017058 0.000000
# 2 -0.000006 0.012497 -0.000200 0.000000 -0.001843 0.000000
# 3 0.003791 -0.000200 0.013168 0.000000 -0.019557 0.000000
# 4 0.000000 0.000000 0.000000 0.048745 0.000000 -0.000137
# 5 -0.017058 -0.001843 -0.019557 0.000000 0.080302 0.000000
# 6 0.000000 0.000000 0.000000 -0.000137 0.000000 0.093272
#
#
# Mechanical properties :
#
#
# Convention : Reuss Voigt Hill
#
# Bulk Modulus (GPa) = 18.22622 30.66810 24.44716
# Shear Modulus (GPa) = 17.78513 26.99173 22.38843
#
# Velocity S-wave (km/s) = 2.93534 3.61614 3.29338
# Velocity P-wave (km/s) = 4.50758 5.68268 5.12889
#
# Compressibility (1/GPa) = 0.05486601
#
# Stress axis : x y z
#
# Youngs Moduli (GPa) = 45.38944 80.02161 75.94168
#
# Poissons Ratio (x) = 0.00050 -0.28788
# Poissons Ratio (y) = 0.00028 0.01517
# Poissons Ratio (z) = -0.17206 0.01598
#
# Static dielectric constant tensor:
#      x y z
#    x 1.717410 0.000000 0.044320 
#    y 0.000000 1.832820 0.000000 
#    z 0.044320 0.000000 1.821520 
# 
# From -- ./inp_files/71167.got.cif
#   From: 2010.05.17/outbox.cif.g08.bks.cpg/sg13_36_cif.got.tgz:71167.got - 2010.06.03 16:44:36.
