data_PCOD9232921
_publ_section_title
;
Structure prediction by ZEFSAII (Michael W. Deem and Ramdas Pophale) SiO2 
 PCOD9232921
Probable space group: P 2/C
;
_chemical_formula_sum "Si O2"
_cell_formula_units_Z 22
_cell_length_a 8.386103
_cell_length_b 6.594940
_cell_length_c 22.152737
_cell_angle_alpha 90.000000
_cell_angle_beta 67.007311
_cell_angle_gamma 90.000000
_cell_volume 1127.841404
_symmetry_space_group_name_H-M "P 2/C"
_symmetry_group_IT_number 13
_symmetry_cell_setting 'monoclinic'
loop_
_space_group_symop_operation_xyz
x,y,z
-x,y,1/2-z
-x,-y,-z
x,-y,1/2+z
loop_
_atom_site_type_symbol
_atom_site_label
_atom_site_fract_x
_atom_site_fract_y
_atom_site_fract_z
Si Si1 0.321385 0.508534 0.657949
Si Si2 0.500000 0.318445 0.750000
Si Si3 0.275833 0.130071 0.580754
Si Si4 0.029064 0.153858 0.183296
Si Si5 0.418445 0.177695 0.433307
Si Si6 0.330959 0.918105 0.811712
O O1 0.410182 0.438443 0.707846
O O2 0.263739 0.313399 0.629018
O O3 0.157875 0.663360 0.682938
O O4 0.467357 0.623765 0.596796
O O5 0.352203 0.160626 0.796843
O O6 0.293186 0.198240 0.508995
O O7 0.121464 0.976835 0.618294
O O8 0.448962 0.004625 0.571553
O O9 0.000000 0.031624 0.250000
O O10 0.836779 0.192760 0.188878
O O11 0.336537 0.123018 0.381493
O O12 0.500000 0.842157 0.750000
#
# Coordination Sequence:
#
# PCOD9232921 Si02
#       6
#     4   2   4   4   4   4
#     4  11  22  39  64  98 123 170 214 273 319 387
#     4  10  22  38  72  92 130 170 226 260 328 384
#     4  10  21  43  61  97 128 171 211 268 324 386
#     4  11  24  39  64  91 132 164 213 273 325 381
#     4  10  21  38  70  88 130 171 220 255 324 394
#     4  10  21  43  63  92 125 172 214 267 317 391
#
# _framework density 19.506288000000001
#
# number of rings (size 3 to 8) (size 9 to 14) (size 15 to 20)
#    0.545    1.091    1.818    3.818    3.818    2.909 
#    0.000    0.909    0.000    0.000    0.000    0.000 
#    0.000    0.000    0.000    0.000    0.000    0.000 
#
# Total GULP energy -122603.848723 kJ/mol
# GULP energy per Si atom -5572.902215 kJ/mol
# Density = 1.946189 g / cm^3
# Si number density = 19.506288 Si / 1000 Ang^3
#
#
#
# Elastic Constant Matrix: (Units=GPa)
#
#
# Indices 1 2 3 4 5 6 
#
# 1 96.4783 30.3748 66.3486 0.0000 1.2277 0.0000
# 2 30.3748 85.3805 28.4708 0.0000 -1.2923 0.0000
# 3 66.3486 28.4708 128.8338 0.0000 10.2916 0.0000
# 4 0.0000 0.0000 0.0000 22.1430 0.0000 14.4451
# 5 1.2277 -1.2923 10.2916 0.0000 30.2524 0.0000
# 6 0.0000 0.0000 0.0000 14.4451 0.0000 12.7290
#
#
#
# Elastic Compliance Matrix: (Units=1/GPa)
#
#
# Indices 1 2 3 4 5 6 
#
# 1 0.017007 -0.003291 -0.008187 0.000000 0.001954 0.000000
# 2 -0.003291 0.013350 -0.001348 0.000000 0.001163 0.000000
# 3 -0.008187 -0.001348 0.012597 0.000000 -0.004011 0.000000
# 4 0.000000 0.000000 0.000000 0.173905 0.000000 -0.197351
# 5 0.001954 0.001163 -0.004011 0.000000 0.034390 0.000000
# 6 0.000000 0.000000 0.000000 -0.197351 0.000000 0.302520
#
#
# Mechanical properties :
#
#
# Convention : Reuss Voigt Hill
#
# Bulk Modulus (GPa) = 57.80049 62.34231 60.07140
# Shear Modulus (GPa) = 8.54427 25.39142 16.96784
#
# Velocity S-wave (km/s) = 2.09518 3.61183 2.95255
# Velocity P-wave (km/s) = 5.96230 7.03017 6.51814
#
# Compressibility (1/GPa) = 0.01730089
#
# Stress axis : x y z
#
# Youngs Moduli (GPa) = 58.80096 74.90537 79.38596
#
# Poissons Ratio (x) = 0.24648 0.64995
# Poissons Ratio (y) = 0.19349 0.10705
# Poissons Ratio (z) = 0.48142 0.10101
#
# Static dielectric constant tensor:
#      x y z
#    x 1.735170 0.000000 -0.009040 
#    y 0.000000 1.721090 0.000000 
#    z -0.009040 0.000000 1.706060 
# 
# From -- ./inp_files/84160.got.cif
#   From: 2010.05.17/outbox.cif.g08.bks.cpg/sg13_43_cif.got.tgz:84160.got - 2010.06.03 16:44:36.
