data_PCOD9232989
_publ_section_title
;
Structure prediction by ZEFSAII (Michael W. Deem and Ramdas Pophale) SiO2 
 PCOD9232989
Probable space group: P 2/C
;
_chemical_formula_sum "Si O2"
_cell_formula_units_Z 22
_cell_length_a 15.316087
_cell_length_b 4.958502
_cell_length_c 11.421626
_cell_angle_alpha 90.000000
_cell_angle_beta 92.746579
_cell_angle_gamma 90.000000
_cell_volume 866.417209
_symmetry_space_group_name_H-M "P 2/C"
_symmetry_group_IT_number 13
_symmetry_cell_setting 'monoclinic'
loop_
_space_group_symop_operation_xyz
x,y,z
-x,y,1/2-z
-x,-y,-z
x,-y,1/2+z
loop_
_atom_site_type_symbol
_atom_site_label
_atom_site_fract_x
_atom_site_fract_y
_atom_site_fract_z
Si Si1 0.782465 0.232706 0.777300
Si Si2 0.644052 0.000114 0.095622
Si Si3 0.638341 0.498489 0.933054
Si Si4 0.500000 0.265371 0.750000
Si Si5 0.931887 0.583436 0.670847
Si Si6 0.928873 0.820442 0.434839
O O1 0.729583 0.065468 0.678191
O O2 0.717875 0.397585 0.857186
O O3 0.850321 0.442289 0.726105
O O4 0.849068 0.053581 0.858779
O O5 0.564756 0.916325 0.175788
O O6 0.643553 0.800043 0.983059
O O7 0.636651 0.300787 0.045860
O O8 0.554845 0.443583 0.845578
O O9 0.889301 0.684319 0.547785
O O10 0.000000 0.775664 0.750000
O O11 0.009398 0.382720 0.632739
O O12 0.000000 0.000000 0.500000
#
# Coordination Sequence:
#
# PCOD9232989 Si02
#       6
#     4   4   4   2   4   4
#     4  10  23  41  64  93 133 179 224 280 344 398
#     4  11  25  45  68 102 139 178 223 278 333 406
#     4  11  25  45  69 104 139 178 223 278 335 405
#     4  10  24  44  74 104 136 182 222 272 338 404
#     4   9  20  40  58  87 123 167 219 276 333 393
#     4  10  21  39  61  90 121 170 223 280 329 395
#
# _framework density 25.391923999999999
#
# number of rings (size 3 to 8) (size 9 to 14) (size 15 to 20)
#    0.000    1.818    0.000    2.182    2.545    9.455 
#   13.091    0.000    0.000    0.000    0.000    0.000 
#    0.000    0.000    0.000    0.000    0.000    0.000 
#
# Total GULP energy -123106.300728 kJ/mol
# GULP energy per Si atom -5595.740942 kJ/mol
# Density = 2.533413 g / cm^3
# Si number density = 25.391924 Si / 1000 Ang^3
#
#
#
# Elastic Constant Matrix: (Units=GPa)
#
#
# Indices 1 2 3 4 5 6 
#
# 1 159.0012 8.1364 63.9504 0.0000 24.2710 0.0000
# 2 8.1364 42.3258 -4.9237 0.0000 0.1625 0.0000
# 3 63.9504 -4.9237 109.3739 0.0000 15.9792 0.0000
# 4 0.0000 0.0000 0.0000 130.8679 0.0000 -20.9623
# 5 24.2710 0.1625 15.9792 0.0000 53.4111 0.0000
# 6 0.0000 0.0000 0.0000 -20.9623 0.0000 24.4007
#
#
#
# Elastic Compliance Matrix: (Units=1/GPa)
#
#
# Indices 1 2 3 4 5 6 
#
# 1 0.008734 -0.002232 -0.004840 0.000000 -0.002514 0.000000
# 2 -0.002232 0.024330 0.002367 0.000000 0.000232 0.000000
# 3 -0.004840 0.002367 0.012296 0.000000 -0.001487 0.000000
# 4 0.000000 0.000000 0.000000 0.008861 0.000000 0.007612
# 5 -0.002514 0.000232 -0.001487 0.000000 0.020309 0.000000
# 6 0.000000 0.000000 0.000000 0.007612 0.000000 0.047522
#
#
# Mechanical properties :
#
#
# Convention : Reuss Voigt Hill
#
# Bulk Modulus (GPa) = 27.81728 49.44746 38.63237
# Shear Modulus (GPa) = 34.85635 57.97179 46.41407
#
# Velocity S-wave (km/s) = 3.70906 4.78334 4.28004
# Velocity P-wave (km/s) = 5.41496 7.07270 6.29861
#
# Compressibility (1/GPa) = 0.03594888
#
# Stress axis : x y z
#
# Youngs Moduli (GPa) = 114.49724 41.10196 81.32397
#
# Poissons Ratio (x) = 0.09175 0.39359
# Poissons Ratio (y) = 0.25559 -0.19245
# Poissons Ratio (z) = 0.55415 -0.09727
#
# Static dielectric constant tensor:
#      x y z
#    x 1.975020 0.000000 0.063130 
#    y 0.000000 55.314030 0.000000 
#    z 0.063130 0.000000 1.702390 
# 
# From -- ./inp_files/35449.got.cif
#   From: 2010.05.17/outbox.cif.g08.bks.cpg/sg13_18_cif.got.tgz:35449.got - 2010.06.03 16:44:36.
