data_PCOD9232877
_publ_section_title
;
Structure prediction by ZEFSAII (Michael W. Deem and Ramdas Pophale) SiO2 
 PCOD9232877
Probable space group: P 2/C
;
_chemical_formula_sum "Si O2"
_cell_formula_units_Z 22
_cell_length_a 11.811822
_cell_length_b 7.650991
_cell_length_c 12.325472
_cell_angle_alpha 90.000000
_cell_angle_beta 119.555809
_cell_angle_gamma 90.000000
_cell_volume 968.936491
_symmetry_space_group_name_H-M "P 2/C"
_symmetry_group_IT_number 13
_symmetry_cell_setting 'monoclinic'
loop_
_space_group_symop_operation_xyz
x,y,z
-x,y,1/2-z
-x,-y,-z
x,-y,1/2+z
loop_
_atom_site_type_symbol
_atom_site_label
_atom_site_fract_x
_atom_site_fract_y
_atom_site_fract_z
Si Si1 0.342103 0.830076 0.989285
Si Si2 0.378708 0.457811 0.111957
Si Si3 0.485135 0.126406 0.370549
Si Si4 0.000000 0.642621 0.750000
Si Si5 0.865972 0.467406 0.869905
Si Si6 0.106410 0.128350 0.501305
O O1 0.345604 0.631771 0.029051
O O2 0.474376 0.929924 0.080780
O O3 0.345847 0.840050 0.860915
O O4 0.235909 0.942244 0.004656
O O5 0.500000 0.496725 0.250000
O O6 0.422664 0.294478 0.058077
O O7 0.250984 0.430429 0.126430
O O8 0.500000 0.133109 0.250000
O O9 0.892784 0.522562 0.759166
O O10 0.949726 0.763091 0.628398
O O11 0.846324 0.261520 0.882471
O O12 0.000000 0.500000 0.000000
O O13 0.000000 0.000000 0.500000
#
# Coordination Sequence:
#
# PCOD9232877 Si02
#       6
#     4   4   4   2   4   4
#     4  10  22  40  57  93 124 160 207 266 314 379
#     4  10  21  38  65  91 125 163 212 259 324 382
#     4  10  22  37  62  87 123 164 206 258 319 375
#     4  10  22  40  64  84 128 166 218 258 328 382
#     4   9  21  41  61  90 122 168 213 268 317 396
#     4  10  23  39  64  91 127 166 217 266 324 387
#
# _framework density 22.705304999999999
#
# number of rings (size 3 to 8) (size 9 to 14) (size 15 to 20)
#    0.000    2.182    0.000    1.091   10.182    0.727 
#    3.273    3.636    0.000    0.000    0.000    0.000 
#    0.000    0.000    0.000    0.000    0.000    0.000 
#
# Total GULP energy -122515.192440 kJ/mol
# GULP energy per Si atom -5568.872384 kJ/mol
# Density = 2.265363 g / cm^3
# Si number density = 22.705305 Si / 1000 Ang^3
#
#
#
# Elastic Constant Matrix: (Units=GPa)
#
#
# Indices 1 2 3 4 5 6 
#
# 1 173.3361 36.3032 31.2368 0.0000 -41.0499 0.0000
# 2 36.3032 80.3632 19.8428 0.0000 -26.9453 0.0000
# 3 31.2368 19.8428 61.3949 0.0000 -22.5077 0.0000
# 4 0.0000 0.0000 0.0000 63.9807 0.0000 -34.3520
# 5 -41.0499 -26.9453 -22.5077 0.0000 47.9767 0.0000
# 6 0.0000 0.0000 0.0000 -34.3520 0.0000 55.7635
#
#
#
# Elastic Compliance Matrix: (Units=1/GPa)
#
#
# Indices 1 2 3 4 5 6 
#
# 1 0.007501 -0.001349 -0.001576 0.000000 0.004921 0.000000
# 2 -0.001349 0.015817 -0.001923 0.000000 0.006827 0.000000
# 3 -0.001576 -0.001923 0.020315 0.000000 0.007102 0.000000
# 4 0.000000 0.000000 0.000000 0.023354 0.000000 0.014387
# 5 0.004921 0.006827 0.007102 0.000000 0.032220 0.000000
# 6 0.000000 0.000000 0.000000 0.014387 0.000000 0.026796
#
#
# Mechanical properties :
#
#
# Convention : Reuss Voigt Hill
#
# Bulk Modulus (GPa) = 29.46734 54.42887 41.94811
# Shear Modulus (GPa) = 34.01097 48.72497 41.36797
#
# Velocity S-wave (km/s) = 3.87451 4.63749 4.27306
# Velocity P-wave (km/s) = 5.74649 7.25941 6.54680
#
# Compressibility (1/GPa) = 0.03393587
#
# Stress axis : x y z
#
# Youngs Moduli (GPa) = 133.31225 63.22409 49.22459
#
# Poissons Ratio (x) = 0.08532 0.07760
# Poissons Ratio (y) = 0.17990 0.09465
# Poissons Ratio (z) = 0.21015 0.12156
#
# Static dielectric constant tensor:
#      x y z
#    x 2.632750 0.000000 0.031510 
#    y 0.000000 1.953160 0.000000 
#    z 0.031510 0.000000 1.968790 
# 
# From -- ./inp_files/32691.got.cif
#   From: 2010.05.17/outbox.cif.g08.bks.cpg/sg13_17_cif.got.tgz:32691.got - 2010.06.03 16:44:36.
