data_PCOD9232066
_publ_section_title
;
Structure prediction by ZEFSAII (Michael W. Deem and Ramdas Pophale) SiO2 
 PCOD9232066
Probable space group: P 2/C
;
_chemical_formula_sum "Si O2"
_cell_formula_units_Z 28
_cell_length_a 18.846645
_cell_length_b 11.128199
_cell_length_c 10.928839
_cell_angle_alpha 90.000000
_cell_angle_beta 35.911054
_cell_angle_gamma 90.000000
_cell_volume 1344.380408
_symmetry_space_group_name_H-M "P 2/C"
_symmetry_group_IT_number 13
_symmetry_cell_setting 'monoclinic'
loop_
_space_group_symop_operation_xyz
x,y,z
-x,y,1/2-z
-x,-y,-z
x,-y,1/2+z
loop_
_atom_site_type_symbol
_atom_site_label
_atom_site_fract_x
_atom_site_fract_y
_atom_site_fract_z
Si Si1 0.474336 0.854623 0.547873
Si Si2 0.050931 0.674424 0.319307
Si Si3 0.286485 0.085655 0.114518
Si Si4 0.722360 0.850621 0.494819
Si Si5 0.274504 0.772638 0.381668
Si Si6 0.131680 0.990297 0.513069
Si Si7 0.087160 0.608575 0.743975
O O1 0.400140 0.809940 0.768914
O O2 0.595602 0.778787 0.361580
O O3 0.500000 0.000000 0.500000
O O4 0.378155 0.843200 0.571959
O O5 0.086535 0.533889 0.266195
O O6 0.000000 0.703178 0.250000
O O7 0.958037 0.675168 0.566951
O O8 0.171130 0.754633 0.177709
O O9 0.153613 0.064676 0.358447
O O10 0.322041 0.946033 0.044839
O O11 0.288467 0.152583 0.986160
O O12 0.784515 0.937758 0.509191
O O13 0.178835 0.853971 0.439914
O O14 0.215661 0.650964 0.511028
O O15 0.000000 0.991283 0.750000
O O16 0.000000 0.633509 0.750000
#
# Coordination Sequence:
#
# PCOD9232066 Si02
#       7
#     4   4   4   4   4   4   4
#     4  11  20  38  51  86 122 158 201 237 301 361
#     4  10  23  44  65  90 120 158 205 253 310 358
#     4  10  21  34  54  84 119 160 196 243 295 370
#     4  10  22  34  59  83 118 160 196 244 299 363
#     4  11  22  34  58  84 117 160 199 244 302 361
#     4  10  21  32  50  86 121 149 192 245 304 367
#     4  10  24  43  66  90 120 157 203 258 307 358
#
# _framework density 20.827438000000001
#
# number of rings (size 3 to 8) (size 9 to 14) (size 15 to 20)
#    0.000    1.714    4.286    1.286   10.000    1.143 
#    0.000    0.714    0.000    0.000    7.429    0.000 
#    0.000    0.000    0.000    0.000    0.000    0.000 
#
# Total GULP energy -155936.409993 kJ/mol
# GULP energy per Si atom -5569.157500 kJ/mol
# Density = 2.078003 g / cm^3
# Si number density = 20.827438 Si / 1000 Ang^3
#
#
#
# Elastic Constant Matrix: (Units=GPa)
#
#
# Indices 1 2 3 4 5 6 
#
# 1 43.5982 12.1721 16.9760 0.0000 7.2621 0.0000
# 2 12.1721 57.5650 24.3826 0.0000 -4.5729 0.0000
# 3 16.9760 24.3826 143.8601 0.0000 -17.0409 0.0000
# 4 0.0000 0.0000 0.0000 24.9682 0.0000 2.2376
# 5 7.2621 -4.5729 -17.0409 0.0000 28.4462 0.0000
# 6 0.0000 0.0000 0.0000 2.2376 0.0000 15.2224
#
#
#
# Elastic Compliance Matrix: (Units=1/GPa)
#
#
# Indices 1 2 3 4 5 6 
#
# 1 0.027391 -0.005078 -0.003548 0.000000 -0.009935 0.000000
# 2 -0.005078 0.019694 -0.002379 0.000000 0.003037 0.000000
# 3 -0.003548 -0.002379 0.008434 0.000000 0.005576 0.000000
# 4 0.000000 0.000000 0.000000 0.040586 0.000000 -0.005966
# 5 -0.009935 0.003037 0.005576 0.000000 0.041519 0.000000
# 6 0.000000 0.000000 0.000000 -0.005966 0.000000 0.066570
#
#
# Mechanical properties :
#
#
# Convention : Reuss Voigt Hill
#
# Bulk Modulus (GPa) = 29.84351 39.12051 34.48201
# Shear Modulus (GPa) = 21.06393 26.49354 23.77873
#
# Velocity S-wave (km/s) = 3.18363 3.57045 3.38257
# Velocity P-wave (km/s) = 5.27959 5.98510 5.64338
#
# Compressibility (1/GPa) = 0.03350813
#
# Stress axis : x y z
#
# Youngs Moduli (GPa) = 36.50848 50.77603 118.57356
#
# Poissons Ratio (x) = 0.25784 0.42074
# Poissons Ratio (y) = 0.18539 0.28208
# Poissons Ratio (z) = 0.12955 0.12079
#
# Static dielectric constant tensor:
#      x y z
#    x 1.855430 0.000000 0.061200 
#    y 0.000000 1.747250 0.000000 
#    z 0.061200 0.000000 1.860610 
# 
# From -- ./inp_files/40774.got.cif
#   From: 2010.05.17/outbox.cif.g08.bks.cpg/sg13_21_cif.got.tgz:40774.got - 2010.06.03 16:44:36.
