data_PCOD9232916
_publ_section_title
;
Structure prediction by ZEFSAII (Michael W. Deem and Ramdas Pophale) SiO2 
 PCOD9232916
Probable space group: P 2/C
;
_chemical_formula_sum "Si O2"
_cell_formula_units_Z 24
_cell_length_a 8.015470
_cell_length_b 8.627132
_cell_length_c 15.508217
_cell_angle_alpha 90.000000
_cell_angle_beta 91.492994
_cell_angle_gamma 90.000000
_cell_volume 1072.037174
_symmetry_space_group_name_H-M "P 2/C"
_symmetry_group_IT_number 13
_symmetry_cell_setting 'monoclinic'
loop_
_space_group_symop_operation_xyz
x,y,z
-x,y,1/2-z
-x,-y,-z
x,-y,1/2+z
loop_
_atom_site_type_symbol
_atom_site_label
_atom_site_fract_x
_atom_site_fract_y
_atom_site_fract_z
Si Si1 0.675512 0.071248 0.607550
Si Si2 0.985321 0.902608 0.411899
Si Si3 0.451421 0.219771 0.461252
Si Si4 0.292197 0.363901 0.602720
Si Si5 0.500000 0.199236 0.750000
Si Si6 0.326531 0.680235 0.691416
Si Si7 0.000000 0.138033 0.250000
O O1 0.530104 0.133499 0.544541
O O2 0.632006 0.088277 0.706347
O O3 0.834053 0.176426 0.592173
O O4 0.687907 0.892647 0.580701
O O5 0.845471 0.772212 0.403847
O O6 0.000000 0.000000 0.500000
O O7 0.986853 0.023703 0.332642
O O8 0.368602 0.368132 0.506593
O O9 0.593340 0.231689 0.390508
O O10 0.423927 0.304693 0.675550
O O11 0.247514 0.528304 0.643662
O O12 0.500000 0.653891 0.750000
O O13 0.172367 0.760706 0.740669
#
# Coordination Sequence:
#
# PCOD9232916 Si02
#       7
#     4   4   4   4   2   4   2
#     4  10  21  38  69 102 139 178 240 300 362 416
#     4  12  24  45  70 109 143 187 247 311 362 432
#     4  10  22  42  71 105 139 187 241 296 364 446
#     4  11  24  46  71 101 148 187 245 293 373 443
#     4  10  22  38  64 102 130 186 238 286 352 426
#     4  12  27  48  72 104 152 195 243 301 373 444
#     4  12  30  46  74 112 150 194 256 312 368 440
#
# _framework density 22.387281999999999
#
# number of rings (size 3 to 8) (size 9 to 14) (size 15 to 20)
#    0.000    1.000    2.500    3.500    8.167    2.000 
#    0.000    1.667    0.000    0.000    0.000    0.000 
#    0.000    0.000    0.000    0.000    0.000    0.000 
#
# Total GULP energy -133621.726900 kJ/mol
# GULP energy per Si atom -5567.571954 kJ/mol
# Density = 2.233633 g / cm^3
# Si number density = 22.387282 Si / 1000 Ang^3
#
#
#
# Elastic Constant Matrix: (Units=GPa)
#
#
# Indices 1 2 3 4 5 6 
#
# 1 94.3374 19.1055 4.5966 0.0000 -26.3115 0.0000
# 2 19.1055 75.5003 20.4302 0.0000 -11.4778 0.0000
# 3 4.5966 20.4302 100.0643 0.0000 -27.8821 0.0000
# 4 0.0000 0.0000 0.0000 20.7083 0.0000 -12.0540
# 5 -26.3115 -11.4778 -27.8821 0.0000 35.0305 0.0000
# 6 0.0000 0.0000 0.0000 -12.0540 0.0000 26.8735
#
#
#
# Elastic Compliance Matrix: (Units=1/GPa)
#
#
# Indices 1 2 3 4 5 6 
#
# 1 0.014538 -0.002666 0.003438 0.000000 0.012783 0.000000
# 2 -0.002666 0.014754 -0.002700 0.000000 0.000683 0.000000
# 3 0.003438 -0.002700 0.013955 0.000000 0.012805 0.000000
# 4 0.000000 0.000000 0.000000 0.065353 0.000000 0.029314
# 5 0.012783 0.000683 0.012805 0.000000 0.048563 0.000000
# 6 0.000000 0.000000 0.000000 0.029314 0.000000 0.050360
#
#
# Mechanical properties :
#
#
# Convention : Reuss Voigt Hill
#
# Bulk Modulus (GPa) = 25.38581 39.79628 32.59105
# Shear Modulus (GPa) = 22.27085 31.57377 26.92231
#
# Velocity S-wave (km/s) = 3.15747 3.75953 3.47157
# Velocity P-wave (km/s) = 4.96556 6.05477 5.53702
#
# Compressibility (1/GPa) = 0.03939208
#
# Stress axis : x y z
#
# Youngs Moduli (GPa) = 68.78623 67.77857 71.65968
#
# Poissons Ratio (x) = 0.18070 -0.24638
# Poissons Ratio (y) = 0.18338 0.19345
# Poissons Ratio (z) = -0.23650 0.18297
#
# Static dielectric constant tensor:
#      x y z
#    x 1.896230 0.000000 -0.012280 
#    y 0.000000 1.951590 0.000000 
#    z -0.012280 0.000000 1.848420 
# 
# From -- ./inp_files/46169.got.cif
#   From: 2010.05.17/outbox.cif.g08.bks.cpg/sg13_24_cif.got.tgz:46169.got - 2010.06.03 16:44:36.
