data_PCOD9232040
_publ_section_title
;
Structure prediction by ZEFSAII (Michael W. Deem and Ramdas Pophale) SiO2 
 PCOD9232040
Probable space group: P 2/C
;
_chemical_formula_sum "Si O2"
_cell_formula_units_Z 30
_cell_length_a 19.926988
_cell_length_b 7.028894
_cell_length_c 17.523094
_cell_angle_alpha 90.000000
_cell_angle_beta 35.778978
_cell_angle_gamma 90.000000
_cell_volume 1434.970147
_symmetry_space_group_name_H-M "P 2/C"
_symmetry_group_IT_number 13
_symmetry_cell_setting 'monoclinic'
loop_
_space_group_symop_operation_xyz
x,y,z
-x,y,1/2-z
-x,-y,-z
x,-y,1/2+z
loop_
_atom_site_type_symbol
_atom_site_label
_atom_site_fract_x
_atom_site_fract_y
_atom_site_fract_z
Si Si1 0.251050 0.099430 0.473218
Si Si2 0.056244 0.901400 0.376663
Si Si3 0.500000 0.215569 0.250000
Si Si4 0.870347 0.594533 0.524628
Si Si5 0.456738 0.698255 0.954969
Si Si6 0.309376 0.618228 0.671712
Si Si7 0.281806 0.010568 0.619737
Si Si8 0.061447 0.205874 0.115583
O O1 0.387224 0.095377 0.331818
O O2 0.198510 0.282486 0.477024
O O3 0.244298 0.090570 0.571423
O O4 0.177218 0.917892 0.516933
O O5 0.989403 0.707625 0.425496
O O6 0.191797 0.893952 0.260543
O O7 0.000000 0.000000 0.500000
O O8 0.027662 0.053086 0.336714
O O9 0.531657 0.335733 0.146192
O O10 0.794388 0.592501 0.672134
O O11 0.904630 0.385442 0.466227
O O12 0.579198 0.675316 0.881008
O O13 0.359197 0.561410 0.079793
O O14 0.409464 0.910573 0.010647
O O15 0.279274 0.787313 0.640321
O O16 0.000000 0.272528 0.250000
#
# Coordination Sequence:
#
# PCOD9232040 Si02
#       8
#     4   4   2   4   4   4   4   4
#     4  10  23  44  64  93 129 168 213 268 315 386
#     4  11  24  43  64  93 131 166 218 268 312 383
#     4  10  20  46  68  98 128 170 218 266 322 378
#     4  11  25  41  68  91 133 173 209 268 323 380
#     4  10  24  42  68  94 133 170 211 264 323 384
#     4  11  23  45  63  99 130 168 216 262 325 383
#     4  11  23  42  67  93 128 169 213 267 321 376
#     4  11  25  43  65  96 129 172 216 258 325 386
#
# _framework density 20.906357
#
# number of rings (size 3 to 8) (size 9 to 14) (size 15 to 20)
#    0.000    1.333    4.000    0.400    3.733    3.733 
#    9.600    1.333    0.000    0.000    0.000    0.000 
#    0.000    0.000    0.000    0.000    0.000    0.000 
#
# Total GULP energy -167395.560402 kJ/mol
# GULP energy per Si atom -5579.852013 kJ/mol
# Density = 2.085877 g / cm^3
# Si number density = 20.906357 Si / 1000 Ang^3
#
#
#
# Elastic Constant Matrix: (Units=GPa)
#
#
# Indices 1 2 3 4 5 6 
#
# 1 36.3970 3.3735 3.8767 0.0000 5.7718 0.0000
# 2 3.3735 67.5992 26.5363 0.0000 2.1548 0.0000
# 3 3.8767 26.5363 92.8229 0.0000 10.4942 0.0000
# 4 0.0000 0.0000 0.0000 30.1397 0.0000 7.8491
# 5 5.7718 2.1548 10.4942 0.0000 43.1516 0.0000
# 6 0.0000 0.0000 0.0000 7.8491 0.0000 24.6215
#
#
#
# Elastic Compliance Matrix: (Units=1/GPa)
#
#
# Indices 1 2 3 4 5 6 
#
# 1 0.028198 -0.001115 -0.000451 0.000000 -0.003606 0.000000
# 2 -0.001115 0.016712 -0.004785 0.000000 0.000478 0.000000
# 3 -0.000451 -0.004785 0.012469 0.000000 -0.002733 0.000000
# 4 0.000000 0.000000 0.000000 0.036183 0.000000 -0.011535
# 5 -0.003606 0.000478 -0.002733 0.000000 0.024297 0.000000
# 6 0.000000 0.000000 0.000000 -0.011535 0.000000 0.044292
#
#
# Mechanical properties :
#
#
# Convention : Reuss Voigt Hill
#
# Bulk Modulus (GPa) = 22.38331 29.37688 25.88010
# Shear Modulus (GPa) = 26.35103 30.45141 28.40122
#
# Velocity S-wave (km/s) = 3.55411 3.82063 3.68978
# Velocity P-wave (km/s) = 5.25090 5.79182 5.52798
#
# Compressibility (1/GPa) = 0.04467614
#
# Stress axis : x y z
#
# Youngs Moduli (GPa) = 35.46344 59.83761 80.19884
#
# Poissons Ratio (x) = 0.06673 0.03618
# Poissons Ratio (y) = 0.03955 0.38376
# Poissons Ratio (z) = 0.01600 0.28633
#
# Static dielectric constant tensor:
#      x y z
#    x 1.758090 0.000000 -0.067770 
#    y 0.000000 1.808260 0.000000 
#    z -0.067770 0.000000 1.714630 
# 
# From -- ./inp_files/81995.got.cif
#   From: 2010.05.17/outbox.cif.g08.bks.cpg/sg13_41_cif.got.tgz:81995.got - 2010.06.03 16:44:36.
