data_PCOD9232207
_publ_section_title
;
Structure prediction by ZEFSAII (Michael W. Deem and Ramdas Pophale) SiO2 
 PCOD9232207
Probable space group: P 2/C
;
_chemical_formula_sum "Si O2"
_cell_formula_units_Z 24
_cell_length_a 4.947467
_cell_length_b 9.141499
_cell_length_c 23.509929
_cell_angle_alpha 90.000000
_cell_angle_beta 82.666686
_cell_angle_gamma 90.000000
_cell_volume 1054.592490
_symmetry_space_group_name_H-M "P 2/C"
_symmetry_group_IT_number 13
_symmetry_cell_setting 'monoclinic'
loop_
_space_group_symop_operation_xyz
x,y,z
-x,y,1/2-z
-x,-y,-z
x,-y,1/2+z
loop_
_atom_site_type_symbol
_atom_site_label
_atom_site_fract_x
_atom_site_fract_y
_atom_site_fract_z
Si Si1 0.267859 0.324165 0.805161
Si Si2 0.681568 0.824517 0.821664
Si Si3 0.845535 0.210929 0.575626
Si Si4 0.000000 0.068821 0.750000
Si Si5 0.000000 0.419294 0.250000
Si Si6 0.408448 0.172678 0.504929
Si Si7 0.850334 0.868005 0.605225
O O1 0.500000 0.318668 0.750000
O O2 0.297631 0.307550 0.871664
O O3 0.094571 0.179366 0.795879
O O4 0.112998 0.472693 0.795024
O O5 0.777877 0.683293 0.785093
O O6 0.362429 0.825448 0.840311
O O7 0.851819 0.836653 0.876744
O O8 0.772918 0.965084 0.782973
O O9 0.684205 0.242966 0.521384
O O10 0.169849 0.214445 0.556198
O O11 0.811502 0.039815 0.593265
O O12 0.265070 0.207050 0.448707
O O13 0.500000 0.000000 0.500000
#
# Coordination Sequence:
#
# PCOD9232207 Si02
#       7
#     4   4   4   2   2   4   4
#     4  11  24  40  64  88 128 167 214 254 320 373
#     4  11  23  39  64  91 126 163 207 258 314 369
#     4  11  21  37  63  97 129 164 199 264 316 373
#     4  10  22  36  58  96 118 152 212 260 310 372
#     4  10  28  42  60  90 126 176 210 256 314 382
#     4  10  21  35  60  97 134 157 201 257 327 371
#     4  11  20  37  64  92 127 159 205 254 316 365
#
# _framework density 22.757605000000002
#
# number of rings (size 3 to 8) (size 9 to 14) (size 15 to 20)
#    0.000    1.333    1.667    6.000    7.000    1.333 
#    0.000    0.000    0.000    6.000    0.000    0.000 
#    0.000    0.000    0.000    0.000    0.000    0.000 
#
# Total GULP energy -133987.218858 kJ/mol
# GULP energy per Si atom -5582.800786 kJ/mol
# Density = 2.270581 g / cm^3
# Si number density = 22.757605 Si / 1000 Ang^3
#
#
#
# Elastic Constant Matrix: (Units=GPa)
#
#
# Indices 1 2 3 4 5 6 
#
# 1 91.2237 6.6271 13.5727 0.0000 -1.1975 0.0000
# 2 6.6271 71.6639 5.3630 0.0000 -1.4159 0.0000
# 3 13.5727 5.3630 67.7222 0.0000 10.1640 0.0000
# 4 0.0000 0.0000 0.0000 28.7288 0.0000 23.7340
# 5 -1.1975 -1.4159 10.1640 0.0000 61.1562 0.0000
# 6 0.0000 0.0000 0.0000 23.7340 0.0000 22.4099
#
#
#
# Elastic Compliance Matrix: (Units=1/GPa)
#
#
# Indices 1 2 3 4 5 6 
#
# 1 0.011375 -0.000868 -0.002299 0.000000 0.000585 0.000000
# 2 -0.000868 0.014120 -0.001016 0.000000 0.000479 0.000000
# 3 -0.002299 -0.001016 0.015709 0.000000 -0.002679 0.000000
# 4 0.000000 0.000000 0.000000 0.278373 0.000000 -0.294821
# 5 0.000585 0.000479 -0.002679 0.000000 0.016819 0.000000
# 6 0.000000 0.000000 0.000000 -0.294821 0.000000 0.356865
#
#
# Mechanical properties :
#
#
# Convention : Reuss Voigt Hill
#
# Bulk Modulus (GPa) = 30.45241 31.30395 30.87818
# Shear Modulus (GPa) = 7.01682 36.12876 21.57279
#
# Velocity S-wave (km/s) = 1.75783 3.98873 3.08220
# Velocity P-wave (km/s) = 4.18691 5.91595 5.12488
#
# Compressibility (1/GPa) = 0.03283812
#
# Stress axis : x y z
#
# Youngs Moduli (GPa) = 87.91335 70.82246 63.65578
#
# Poissons Ratio (x) = 0.06150 0.14633
# Poissons Ratio (y) = 0.07634 0.06467
# Poissons Ratio (z) = 0.20209 0.07196
#
# Static dielectric constant tensor:
#      x y z
#    x 1.886830 0.000000 0.002370 
#    y 0.000000 1.790900 0.000000 
#    z 0.002370 0.000000 1.907690 
# 
# From -- ./inp_files/83334.got.cif
#   From: 2010.05.17/outbox.cif.g08.bks.cpg/sg13_42_cif.got.tgz:83334.got - 2010.06.03 16:44:36.
