data_PCOD9232052
_publ_section_title
;
Structure prediction by ZEFSAII (Michael W. Deem and Ramdas Pophale) SiO2 
 PCOD9232052
Probable space group: P 2/C
;
_chemical_formula_sum "Si O2"
_cell_formula_units_Z 28
_cell_length_a 15.792359
_cell_length_b 17.840596
_cell_length_c 5.328171
_cell_angle_alpha 90.000000
_cell_angle_beta 120.740641
_cell_angle_gamma 90.000000
_cell_volume 1290.254278
_symmetry_space_group_name_H-M "P 2/C"
_symmetry_group_IT_number 13
_symmetry_cell_setting 'monoclinic'
loop_
_space_group_symop_operation_xyz
x,y,z
-x,y,1/2-z
-x,-y,-z
x,-y,1/2+z
loop_
_atom_site_type_symbol
_atom_site_label
_atom_site_fract_x
_atom_site_fract_y
_atom_site_fract_z
Si Si1 0.659753 0.296240 0.682360
Si Si2 0.608668 0.966699 0.642436
Si Si3 0.387946 0.468198 0.844507
Si Si4 0.869392 0.813787 0.986910
Si Si5 0.103192 0.271302 0.468061
Si Si6 0.362998 0.205995 0.359055
Si Si7 0.110639 0.973308 0.223120
O O1 0.617808 0.379952 0.625715
O O2 0.626315 0.255182 0.376037
O O3 0.781535 0.299496 0.883659
O O4 0.615948 0.250550 0.852855
O O5 0.595365 0.877642 0.600600
O O6 0.500000 0.000000 0.500000
O O7 0.656829 0.005445 0.473419
O O8 0.340179 0.490922 0.509311
O O9 0.500000 0.500000 0.000000
O O10 0.901959 0.755314 0.251446
O O11 0.891020 0.893677 0.142151
O O12 0.903480 0.793782 0.757527
O O13 0.752792 0.809672 0.798889
O O14 0.000000 0.315437 0.250000
O O15 0.153149 0.027550 0.505088
O O16 0.000000 0.000000 0.000000
#
# Coordination Sequence:
#
# PCOD9232052 Si02
#       7
#     4   4   4   4   4   4   4
#     4  10  21  40  61  91 122 152 203 240 288 370
#     4  10  21  38  56  79 111 151 202 252 308 358
#     4  10  21  40  65  97 130 161 183 226 300 360
#     4  10  21  34  50  75 103 142 195 244 298 344
#     4  10  21  34  58  78 108 152 188 242 283 333
#     4  10  21  38  59  82 113 159 201 254 299 342
#     4  10  21  30  41  64  95 134 179 240 296 344
#
# _framework density 21.701149000000001
#
# number of rings (size 3 to 8) (size 9 to 14) (size 15 to 20)
#    0.000    2.000    0.000    3.000    6.000    1.143 
#    0.000   17.143    0.000    0.857    0.000    0.000 
#    0.000    0.000    0.000    0.000    0.000    0.000 
#
# Total GULP energy -156135.456855 kJ/mol
# GULP energy per Si atom -5576.266316 kJ/mol
# Density = 2.165176 g / cm^3
# Si number density = 21.701149 Si / 1000 Ang^3
#
#
#
# Elastic Constant Matrix: (Units=GPa)
#
#
# Indices 1 2 3 4 5 6 
#
# 1 88.7850 42.5474 55.0037 0.0000 -20.8925 0.0000
# 2 42.5474 149.6050 33.5419 0.0000 -29.3600 0.0000
# 3 55.0037 33.5419 118.3819 0.0000 -50.9222 0.0000
# 4 0.0000 0.0000 0.0000 56.1024 0.0000 49.5510
# 5 -20.8925 -29.3600 -50.9222 0.0000 52.8614 0.0000
# 6 0.0000 0.0000 0.0000 49.5510 0.0000 123.9991
#
#
#
# Elastic Compliance Matrix: (Units=1/GPa)
#
#
# Indices 1 2 3 4 5 6 
#
# 1 0.017557 -0.003738 -0.008549 0.000000 -0.003373 0.000000
# 2 -0.003738 0.008321 0.001250 0.000000 0.004348 0.000000
# 3 -0.008549 0.001250 0.018630 0.000000 0.015262 0.000000
# 4 0.000000 0.000000 0.000000 0.027547 0.000000 -0.011008
# 5 -0.003373 0.004348 0.015262 0.000000 0.034701 0.000000
# 6 0.000000 0.000000 0.000000 -0.011008 0.000000 0.012463
#
#
# Mechanical properties :
#
#
# Convention : Reuss Voigt Hill
#
# Bulk Modulus (GPa) = 44.57888 68.77311 56.67600
# Shear Modulus (GPa) = 33.60805 61.63784 47.62294
#
# Velocity S-wave (km/s) = 3.93959 5.33523 4.68962
# Velocity P-wave (km/s) = 6.42500 8.34941 7.44961
#
# Compressibility (1/GPa) = 0.02243215
#
# Stress axis : x y z
#
# Youngs Moduli (GPa) = 56.95595 120.18484 53.67554
#
# Poissons Ratio (x) = 0.44930 0.45889
# Poissons Ratio (y) = 0.21293 -0.06707
# Poissons Ratio (z) = 0.48693 -0.15018
#
# Static dielectric constant tensor:
#      x y z
#    x 1.729710 0.000000 -0.069120 
#    y 0.000000 1.732880 0.000000 
#    z -0.069120 0.000000 1.913490 
# 
# From -- ./inp_files/6288.got.cif
#   From: 2010.05.17/outbox.cif.g08.bks.cpg/sg13_4_cif.got.tgz:6288.got - 2010.06.03 16:44:36.
