data_PCOD9232550
_publ_section_title
;
Structure prediction by ZEFSAII (Michael W. Deem and Ramdas Pophale) SiO2 
 PCOD9232550
Probable space group: P 2/C
;
_chemical_formula_sum "Si O2"
_cell_formula_units_Z 32
_cell_length_a 9.935433
_cell_length_b 27.008342
_cell_length_c 5.300541
_cell_angle_alpha 90.000000
_cell_angle_beta 103.421677
_cell_angle_gamma 90.000000
_cell_volume 1383.498007
_symmetry_space_group_name_H-M "P 2/C"
_symmetry_group_IT_number 13
_symmetry_cell_setting 'monoclinic'
loop_
_space_group_symop_operation_xyz
x,y,z
-x,y,1/2-z
-x,-y,-z
x,-y,1/2+z
loop_
_atom_site_type_symbol
_atom_site_label
_atom_site_fract_x
_atom_site_fract_y
_atom_site_fract_z
Si Si1 0.352782 0.651014 0.601678
Si Si2 0.145239 0.699309 0.909729
Si Si3 0.850901 0.826140 0.125690
Si Si4 0.860723 0.597907 0.307602
Si Si5 0.666377 0.026622 0.290647
Si Si6 0.359181 0.752750 0.312125
Si Si7 0.637339 0.467320 0.905207
Si Si8 0.147243 0.109228 0.363107
O O1 0.500000 0.631237 0.750000
O O2 0.252540 0.674925 0.763742
O O3 0.259416 0.608719 0.443923
O O4 0.387009 0.698311 0.439375
O O5 0.000000 0.718266 0.750000
O O6 0.106425 0.652545 0.070513
O O7 0.234120 0.742466 0.067546
O O8 0.714871 0.792151 0.044622
O O9 0.835243 0.866649 0.349534
O O10 0.000000 0.800799 0.250000
O O11 0.865495 0.849049 0.856439
O O12 0.779866 0.563133 0.463685
O O13 0.000000 0.576853 0.250000
O O14 0.500000 0.029117 0.250000
O O15 0.728392 0.075149 0.184582
O O16 0.710116 0.014743 0.598785
O O17 0.500000 0.770754 0.250000
O O18 0.500000 0.437000 0.750000
O O19 0.634242 0.507996 0.678624
O O20 0.000000 0.081151 0.250000
#
# Coordination Sequence:
#
# PCOD9232550 Si02
#       8
#     4   4   4   4   4   4   4   4
#     4  11  24  41  64  92 129 163 208 268 316 377
#     4  11  24  41  64  92 129 164 206 264 322 377
#     4  10  24  40  62  87 124 168 211 261 316 374
#     4  11  25  41  65  99 125 164 213 258 318 381
#     4  10  21  37  61  91 123 158 201 255 318 378
#     4  11  25  40  60  94 121 165 221 264 313 380
#     4  10  25  45  68  97 130 169 211 256 315 381
#     4  10  22  41  60  90 123 162 212 257 313 381
#
# _framework density 23.129774999999999
#
# number of rings (size 3 to 8) (size 9 to 14) (size 15 to 20)
#    0.000    1.500    2.500    0.750    7.000    3.000 
#    0.000    0.000    0.000    0.000    0.000    0.000 
#    0.000    0.000    0.000    0.000    0.000    0.000 
#
# Total GULP energy -178573.281871 kJ/mol
# GULP energy per Si atom -5580.415058 kJ/mol
# Density = 2.307713 g / cm^3
# Si number density = 23.129775 Si / 1000 Ang^3
#
#
#
# Elastic Constant Matrix: (Units=GPa)
#
#
# Indices 1 2 3 4 5 6 
#
# 1 130.2573 21.6233 24.5065 0.0000 -14.7706 0.0000
# 2 21.6233 28.5483 7.9646 0.0000 -1.4248 0.0000
# 3 24.5065 7.9646 90.6240 0.0000 -11.2139 0.0000
# 4 0.0000 0.0000 0.0000 31.6903 0.0000 -17.6879
# 5 -14.7706 -1.4248 -11.2139 0.0000 38.4218 0.0000
# 6 0.0000 0.0000 0.0000 -17.6879 0.0000 39.4244
#
#
#
# Elastic Compliance Matrix: (Units=1/GPa)
#
#
# Indices 1 2 3 4 5 6 
#
# 1 0.009391 -0.006519 -0.001608 0.000000 0.002899 0.000000
# 2 -0.006519 0.040442 -0.001988 0.000000 -0.001587 0.000000
# 3 -0.001608 -0.001988 0.011992 0.000000 0.002808 0.000000
# 4 0.000000 0.000000 0.000000 0.042097 0.000000 0.018887
# 5 0.002899 -0.001587 0.002808 0.000000 0.027902 0.000000
# 6 0.000000 0.000000 0.000000 0.018887 0.000000 0.033839
#
#
# Mechanical properties :
#
#
# Convention : Reuss Voigt Hill
#
# Bulk Modulus (GPa) = 24.04181 39.73539 31.88860
# Shear Modulus (GPa) = 25.03055 34.92966 29.98011
#
# Velocity S-wave (km/s) = 3.29322 3.89029 3.60414
# Velocity P-wave (km/s) = 4.98771 6.11521 5.58001
#
# Compressibility (1/GPa) = 0.04159421
#
# Stress axis : x y z
#
# Youngs Moduli (GPa) = 106.48969 24.72696 83.39226
#
# Poissons Ratio (x) = 0.16121 0.13407
# Poissons Ratio (y) = 0.69426 0.16575
# Poissons Ratio (z) = 0.17120 0.04915
#
# Static dielectric constant tensor:
#      x y z
#    x 1.881340 0.000000 -0.095080 
#    y 0.000000 1.959380 0.000000 
#    z -0.095080 0.000000 2.040400 
# 
# From -- ./inp_files/2727.got.cif
#   From: 2010.05.17/outbox.cif.g08.bks.cpg/sg13_2_cif.got.tgz:2727.got - 2010.06.03 16:44:36.
