data_PCOD9232514
_publ_section_title
;
Structure prediction by ZEFSAII (Michael W. Deem and Ramdas Pophale) SiO2 
 PCOD9232514
Probable space group: P 2/C
;
_chemical_formula_sum "Si O2"
_cell_formula_units_Z 18
_cell_length_a 10.551765
_cell_length_b 6.107662
_cell_length_c 12.703580
_cell_angle_alpha 90.000000
_cell_angle_beta 86.906665
_cell_angle_gamma 90.000000
_cell_volume 817.509831
_symmetry_space_group_name_H-M "P 2/C"
_symmetry_group_IT_number 13
_symmetry_cell_setting 'monoclinic'
loop_
_space_group_symop_operation_xyz
x,y,z
-x,y,1/2-z
-x,-y,-z
x,-y,1/2+z
loop_
_atom_site_type_symbol
_atom_site_label
_atom_site_fract_x
_atom_site_fract_y
_atom_site_fract_z
Si Si1 0.711738 0.001255 0.611612
Si Si2 0.131841 0.962867 0.210382
Si Si3 0.684013 0.295135 0.418286
Si Si4 0.122704 0.650181 0.018671
Si Si5 0.500000 0.738415 0.750000
O O1 0.789999 0.137745 0.695398
O O2 0.819348 0.830369 0.564535
O O3 0.600287 0.882130 0.679726
O O4 0.651703 0.137966 0.518506
O O5 0.219494 0.145279 0.153169
O O6 0.000000 0.068518 0.250000
O O7 0.096456 0.782862 0.126293
O O8 0.759258 0.493709 0.464347
O O9 0.577749 0.376352 0.340789
O O10 0.000000 0.500000 0.000000
#
# Coordination Sequence:
#
# PCOD9232514 Si02
#       5
#     4   4   4   4   2
#     4  10  22  41  61  86 121 160 201 247 300 358
#     4  10  21  37  60  89 120 156 196 245 303 361
#     4  10  22  40  60  87 121 158 202 250 301 356
#     4  11  23  39  63  93 123 157 199 250 305 359
#     4  10  22  40  62  86 118 162 206 248 298 358
#
# _framework density 22.018080999999999
#
# number of rings (size 3 to 8) (size 9 to 14) (size 15 to 20)
#    0.000    1.778    0.000    3.333    0.000   12.444 
#    0.000   11.111    0.000    0.000    0.000    0.000 
#    0.000    0.000    0.000    0.000    0.000    0.000 
#
# Total GULP energy -100443.029530 kJ/mol
# GULP energy per Si atom -5580.168307 kJ/mol
# Density = 2.196797 g / cm^3
# Si number density = 22.018081 Si / 1000 Ang^3
#
#
#
# Elastic Constant Matrix: (Units=GPa)
#
#
# Indices 1 2 3 4 5 6 
#
# 1 70.1177 2.7047 43.8078 0.0000 16.4388 0.0000
# 2 2.7047 44.2830 20.8426 0.0000 9.0277 0.0000
# 3 43.8078 20.8426 122.3387 0.0000 10.5824 0.0000
# 4 0.0000 0.0000 0.0000 -24.6823 0.0000 29.5718
# 5 16.4388 9.0277 10.5824 0.0000 38.5236 0.0000
# 6 0.0000 0.0000 0.0000 29.5718 0.0000 4.1919
#
#
#
# Elastic Compliance Matrix: (Units=1/GPa)
#
#
# Indices 1 2 3 4 5 6 
#
# 1 0.020466 0.003739 -0.007308 0.000000 -0.007602 0.000000
# 2 0.003739 0.026100 -0.005243 0.000000 -0.006272 0.000000
# 3 -0.007308 -0.005243 0.011583 0.000000 0.001165 0.000000
# 4 0.000000 0.000000 0.000000 -0.004286 0.000000 0.030238
# 5 -0.007602 -0.006272 0.001165 0.000000 0.030352 0.000000
# 6 0.000000 0.000000 0.000000 0.030238 0.000000 0.025239
#
#
# Mechanical properties :
#
#
# Convention : Reuss Voigt Hill
#
# Bulk Modulus (GPa) = 24.67577 41.27217 32.97397
# Shear Modulus (GPa) = 35.56572 14.89892 25.23232
#
# Velocity S-wave (km/s) = 4.02343 2.60411 3.38891
# Velocity P-wave (km/s) = 5.72847 5.27515 5.50648
#
# Compressibility (1/GPa) = 0.04052558
#
# Stress axis : x y z
#
# Youngs Moduli (GPa) = 48.86260 38.31414 86.33061
#
# Poissons Ratio (x) = -0.14327 0.63090
# Poissons Ratio (y) = -0.18272 0.45264
# Poissons Ratio (z) = 0.35709 0.20089
#
# Static dielectric constant tensor:
#      x y z
#    x 1.838670 0.000000 0.006870 
#    y 0.000000 1.831550 0.000000 
#    z 0.006870 0.000000 1.891970 
# 
# From -- ./inp_files/31319.got.cif
#   From: 2010.05.17/outbox.cif.g08.bks.cpg/sg13_16_cif.got.tgz:31319.got - 2010.06.03 16:44:36.
