data_PCOD9232106
_publ_section_title
;
Structure prediction by ZEFSAII (Michael W. Deem and Ramdas Pophale) SiO2 
 PCOD9232106
Probable space group: P 2/C
;
_chemical_formula_sum "Si O2"
_cell_formula_units_Z 30
_cell_length_a 11.079062
_cell_length_b 6.401196
_cell_length_c 30.262009
_cell_angle_alpha 90.000000
_cell_angle_beta 130.925018
_cell_angle_gamma 90.000000
_cell_volume 1621.567931
_symmetry_space_group_name_H-M "P 2/C"
_symmetry_group_IT_number 13
_symmetry_cell_setting 'monoclinic'
loop_
_space_group_symop_operation_xyz
x,y,z
-x,y,1/2-z
-x,-y,-z
x,-y,1/2+z
loop_
_atom_site_type_symbol
_atom_site_label
_atom_site_fract_x
_atom_site_fract_y
_atom_site_fract_z
Si Si1 0.640633 0.616184 0.060711
Si Si2 0.087767 0.417984 0.977654
Si Si3 0.049088 0.642328 0.877324
Si Si4 0.713538 0.487571 0.278586
Si Si5 0.500000 0.110032 0.250000
Si Si6 0.819265 0.971078 0.047689
Si Si7 0.574252 0.732163 0.326968
Si Si8 0.373431 0.300872 0.558887
O O1 0.786662 0.455972 0.101088
O O2 0.710072 0.814244 0.050468
O O3 0.553485 0.681362 0.084733
O O4 0.500000 0.500000 0.000000
O O5 0.026387 0.545986 0.920844
O O6 0.080795 0.176683 0.961748
O O7 0.273117 0.486307 0.027298
O O8 0.000000 0.500000 0.000000
O O9 0.898410 0.556071 0.814229
O O10 0.074852 0.887351 0.893706
O O11 0.633400 0.261009 0.262476
O O12 0.681753 0.595067 0.319038
O O13 0.603031 0.627861 0.219982
O O14 0.566790 0.959955 0.303811
O O15 0.713904 0.127635 0.992504
O O16 0.632324 0.741203 0.390630
#
# Coordination Sequence:
#
# PCOD9232106 Si02
#       8
#     4   4   4   4   2   4   4   4
#     4  11  20  39  55  79 111 149 189 220 277 326
#     4  10  21  34  50  81 115 139 175 222 282 334
#     4  10  21  34  56  80 106 149 181 227 275 325
#     4   9  19  38  57  79 113 141 184 225 280 331
#     4   8  18  36  56  80 106 142 188 224 274 340
#     4  10  21  34  55  79 113 145 185 227 272 335
#     4   9  20  36  59  81 109 146 181 227 277 327
#     4  11  21  34  57  82 109 145 187 229 270 329
#
# _framework density 18.500612
#
# number of rings (size 3 to 8) (size 9 to 14) (size 15 to 20)
#    0.000    2.400    4.000    1.200    0.000   10.667 
#    0.000    0.667    0.000    0.000    0.000    0.000 
#    0.000    0.000    0.000    0.000    0.000    0.000 
#
# Total GULP energy -167156.858106 kJ/mol
# GULP energy per Si atom -5571.895270 kJ/mol
# Density = 1.845850 g / cm^3
# Si number density = 18.500612 Si / 1000 Ang^3
#
#
#
# Elastic Constant Matrix: (Units=GPa)
#
#
# Indices 1 2 3 4 5 6 
#
# 1 63.9275 13.2527 -1.6126 0.0000 15.9765 0.0000
# 2 13.2527 76.8563 -9.4966 0.0000 2.2284 0.0000
# 3 -1.6126 -9.4966 23.1154 0.0000 5.9332 0.0000
# 4 0.0000 0.0000 0.0000 -0.0355 0.0000 -3.0102
# 5 15.9765 2.2284 5.9332 0.0000 35.1147 0.0000
# 6 0.0000 0.0000 0.0000 -3.0102 0.0000 9.9950
#
#
#
# Elastic Compliance Matrix: (Units=1/GPa)
#
#
# Indices 1 2 3 4 5 6 
#
# 1 0.018400 -0.002625 0.002416 0.000000 -0.008614 0.000000
# 2 -0.002625 0.014204 0.005830 0.000000 -0.000692 0.000000
# 3 0.002416 0.005830 0.048297 0.000000 -0.009630 0.000000
# 4 0.000000 0.000000 0.000000 -1.061480 0.000000 -0.319685
# 5 -0.008614 -0.000692 -0.009630 0.000000 0.034068 0.000000
# 6 0.000000 0.000000 0.000000 -0.319685 0.000000 0.003771
#
#
# Mechanical properties :
#
#
# Convention : Reuss Voigt Hill
#
# Bulk Modulus (GPa) = 10.85239 18.68736 14.76987
# Shear Modulus (GPa) = -5.41554 19.79855 7.19151
#
# Velocity S-wave (km/s) = -1.71277 3.27487 1.97373
# Velocity P-wave (km/s) = 1.40259 4.94192 3.63248
#
# Compressibility (1/GPa) = 0.09214564
#
# Stress axis : x y z
#
# Youngs Moduli (GPa) = 54.34658 70.40105 20.70527
#
# Poissons Ratio (x) = 0.18477 -0.05003
# Poissons Ratio (y) = 0.14264 -0.12072
# Poissons Ratio (z) = -0.13132 -0.41046
#
# Static dielectric constant tensor:
#      x y z
#    x 1.684130 0.000000 0.009120 
#    y 0.000000 1.656620 0.000000 
#    z 0.009120 0.000000 1.691660 
# 
# From -- ./inp_files/96445.got.cif
#   From: 2010.05.17/outbox.cif.g08.bks.cpg/sg13_49_cif.got.tgz:96445.got - 2010.06.03 16:44:36.
