data_PCOD9232204
_publ_section_title
;
Structure prediction by ZEFSAII (Michael W. Deem and Ramdas Pophale) SiO2 
 PCOD9232204
Probable space group: P 2/C
;
_chemical_formula_sum "Si O2"
_cell_formula_units_Z 24
_cell_length_a 15.639129
_cell_length_b 5.732643
_cell_length_c 19.161750
_cell_angle_alpha 90.000000
_cell_angle_beta 143.536414
_cell_angle_gamma 90.000000
_cell_volume 1020.979371
_symmetry_space_group_name_H-M "P 2/C"
_symmetry_group_IT_number 13
_symmetry_cell_setting 'monoclinic'
loop_
_space_group_symop_operation_xyz
x,y,z
-x,y,1/2-z
-x,-y,-z
x,-y,1/2+z
loop_
_atom_site_type_symbol
_atom_site_label
_atom_site_fract_x
_atom_site_fract_y
_atom_site_fract_z
Si Si1 0.259376 0.458486 0.590129
Si Si2 0.717004 0.847579 0.004755
Si Si3 0.946634 0.089429 0.078521
Si Si4 0.562440 0.132902 0.695672
Si Si5 0.582633 0.746641 0.059122
Si Si6 0.188786 0.824780 0.643155
O O1 0.322510 0.654562 0.579894
O O2 0.134676 0.331897 0.464832
O O3 0.374497 0.285523 0.700210
O O4 0.176816 0.572290 0.601939
O O5 0.605446 0.065845 0.920645
O O6 0.692420 0.757005 0.066642
O O7 0.879962 0.924941 0.093861
O O8 0.111484 0.128740 0.165865
O O9 0.878565 0.989684 0.961343
O O10 0.626192 0.252820 0.668287
O O11 0.643111 0.883990 0.747147
O O12 0.500000 0.500000 0.000000
O O13 0.500000 0.000000 0.000000
#
# Coordination Sequence:
#
# PCOD9232204 Si02
#       6
#     4   4   4   4   4   4
#     4  10  21  35  60  92 127 155 218 264 333 383
#     4  10  23  39  60  90 123 164 210 268 317 387
#     4   9  19  36  57  86 123 161 201 258 326 386
#     4  10  23  39  60  90 123 164 210 268 317 387
#     4  10  24  44  63  86 129 174 213 252 327 390
#     4   9  19  36  57  86 123 161 201 258 326 386
#
# _framework density 23.50684
#
# number of rings (size 3 to 8) (size 9 to 14) (size 15 to 20)
#    0.000    2.333    0.000    0.500    9.333    8.667 
#    0.000    0.833    0.000    0.000    0.000    0.000 
#    0.000    0.000    0.000    0.000    0.000    0.000 
#
# Total GULP energy -133704.714747 kJ/mol
# GULP energy per Si atom -5571.029781 kJ/mol
# Density = 2.345334 g / cm^3
# Si number density = 23.506840 Si / 1000 Ang^3
#
#
#
# Elastic Constant Matrix: (Units=GPa)
#
#
# Indices 1 2 3 4 5 6 
#
# 1 187.8447 31.3367 10.7707 0.0000 4.2356 0.0000
# 2 31.3367 85.1058 -1.6039 0.0000 1.6968 0.0000
# 3 10.7707 -1.6039 8.9650 0.0000 0.8900 0.0000
# 4 0.0000 0.0000 0.0000 13.2693 0.0000 -4.8420
# 5 4.2356 1.6968 0.8900 0.0000 43.6325 0.0000
# 6 0.0000 0.0000 0.0000 -4.8420 0.0000 21.5356
#
#
#
# Elastic Compliance Matrix: (Units=1/GPa)
#
#
# Indices 1 2 3 4 5 6 
#
# 1 0.006183 -0.002417 -0.007827 0.000000 -0.000347 0.000000
# 2 -0.002417 0.012746 0.005221 0.000000 -0.000368 0.000000
# 3 -0.007827 0.005221 0.122074 0.000000 -0.001933 0.000000
# 4 0.000000 0.000000 0.000000 0.082097 0.000000 0.018458
# 5 -0.000347 -0.000368 -0.001933 0.000000 0.023006 0.000000
# 6 0.000000 0.000000 0.000000 0.018458 0.000000 0.050585
#
#
# Mechanical properties :
#
#
# Convention : Reuss Voigt Hill
#
# Bulk Modulus (GPa) = 7.63608 40.32473 23.98040
# Shear Modulus (GPa) = 14.26979 31.78163 23.02571
#
# Velocity S-wave (km/s) = 2.46651 3.68097 3.13314
# Velocity P-wave (km/s) = 3.37151 5.93782 4.82829
#
# Compressibility (1/GPa) = 0.13095731
#
# Stress axis : x y z
#
# Youngs Moduli (GPa) = 161.72270 78.45656 8.19173
#
# Poissons Ratio (x) = 0.18966 0.06412
# Poissons Ratio (y) = 0.39095 -0.04277
# Poissons Ratio (z) = 1.26580 -0.40963
#
# Static dielectric constant tensor:
#      x y z
#    x 1.981600 0.000000 0.002820 
#    y 0.000000 1.988540 0.000000 
#    z 0.002820 0.000000 1.942250 
# 
# From -- ./inp_files/79391.got.cif
#   From: 2010.05.17/outbox.cif.g08.bks.cpg/sg13_40_cif.got.tgz:79391.got - 2010.06.03 16:44:36.
