data_PCOD9232951
_publ_section_title
;
Structure prediction by ZEFSAII (Michael W. Deem and Ramdas Pophale) SiO2 
 PCOD9232951
Probable space group: P 2/C
;
_chemical_formula_sum "Si O2"
_cell_formula_units_Z 28
_cell_length_a 6.792497
_cell_length_b 15.511320
_cell_length_c 13.659139
_cell_angle_alpha 90.000000
_cell_angle_beta 108.284047
_cell_angle_gamma 90.000000
_cell_volume 1366.477205
_symmetry_space_group_name_H-M "P 2/C"
_symmetry_group_IT_number 13
_symmetry_cell_setting 'monoclinic'
loop_
_space_group_symop_operation_xyz
x,y,z
-x,y,1/2-z
-x,-y,-z
x,-y,1/2+z
loop_
_atom_site_type_symbol
_atom_site_label
_atom_site_fract_x
_atom_site_fract_y
_atom_site_fract_z
Si Si1 0.330461 0.708755 0.993402
Si Si2 0.000000 0.505100 0.750000
Si Si3 0.748253 0.639506 0.097821
Si Si4 0.051896 0.587223 0.568383
Si Si5 0.000000 0.786160 0.250000
Si Si6 0.394746 0.138824 0.027928
Si Si7 0.460179 0.035991 0.630148
Si Si8 0.084601 0.857103 0.063686
O O1 0.503236 0.648633 0.069740
O O2 0.213056 0.775567 0.044767
O O3 0.468868 0.773852 0.947811
O O4 0.148715 0.644376 0.933742
O O5 0.156759 0.443060 0.833348
O O6 0.126948 0.557732 0.687285
O O7 0.846387 0.722283 0.167323
O O8 0.811957 0.636196 0.992614
O O9 0.000000 0.500000 0.500000
O O10 0.909573 0.845848 0.319286
O O11 0.494076 0.063765 0.109366
O O12 0.408231 0.098529 0.919985
O O13 0.150263 0.147277 0.011381
O O14 0.500000 0.051252 0.750000
O O15 0.222829 0.059446 0.562690
#
# Coordination Sequence:
#
# PCOD9232951 Si02
#       8
#     4   2   4   4   2   4   4   4
#     4  11  21  38  62  84 121 162 201 251 310 359
#     4   9  22  40  62  84 121 162 200 247 318 370
#     4  10  21  39  59  90 123 151 200 256 304 372
#     4  10  21  42  59  86 122 158 199 255 309 365
#     4  11  18  34  58  94 119 148 200 253 308 356
#     4  10  21  40  57  87 124 156 204 253 302 364
#     4  10  22  37  60  87 120 163 202 245 307 365
#     4  11  21  35  59  90 125 158 194 257 310 360
#
# _framework density 20.490646999999999
#
# number of rings (size 3 to 8) (size 9 to 14) (size 15 to 20)
#    0.000    1.714    2.857    1.286    2.000    2.286 
#    0.000    6.429    0.000    0.000    0.000    0.000 
#    0.000    0.000    0.000    0.000    0.000    0.000 
#
# Total GULP energy -155977.075307 kJ/mol
# GULP energy per Si atom -5570.609832 kJ/mol
# Density = 2.044401 g / cm^3
# Si number density = 20.490647 Si / 1000 Ang^3
#
#
#
# Elastic Constant Matrix: (Units=GPa)
#
#
# Indices 1 2 3 4 5 6 
#
# 1 99.5437 26.6282 14.8393 0.0000 9.9514 0.0000
# 2 26.6282 79.6516 6.3262 0.0000 4.9060 0.0000
# 3 14.8393 6.3262 49.4665 0.0000 -8.7974 0.0000
# 4 0.0000 0.0000 0.0000 18.8491 0.0000 -4.5604
# 5 9.9514 4.9060 -8.7974 0.0000 16.3227 0.0000
# 6 0.0000 0.0000 0.0000 -4.5604 0.0000 26.0235
#
#
#
# Elastic Compliance Matrix: (Units=1/GPa)
#
#
# Indices 1 2 3 4 5 6 
#
# 1 0.012606 -0.003232 -0.005046 0.000000 -0.009433 0.000000
# 2 -0.003232 0.013922 -0.001332 0.000000 -0.002932 0.000000
# 3 -0.005046 -0.001332 0.024905 0.000000 0.016900 0.000000
# 4 0.000000 0.000000 0.000000 0.055402 0.000000 0.009709
# 5 -0.009433 -0.002932 0.016900 0.000000 0.077005 0.000000
# 6 0.000000 0.000000 0.000000 0.009709 0.000000 0.040128
#
#
# Mechanical properties :
#
#
# Convention : Reuss Voigt Hill
#
# Bulk Modulus (GPa) = 31.04433 36.02769 33.53601
# Shear Modulus (GPa) = 19.69077 24.29693 21.99385
#
# Velocity S-wave (km/s) = 3.10330 3.44722 3.27977
# Velocity P-wave (km/s) = 5.29377 5.78490 5.54478
#
# Compressibility (1/GPa) = 0.03221200
#
# Stress axis : x y z
#
# Youngs Moduli (GPa) = 79.32872 71.83041 40.15203
#
# Poissons Ratio (x) = 0.23219 0.20260
# Poissons Ratio (y) = 0.25643 0.05349
# Poissons Ratio (z) = 0.40028 0.09569
#
# Static dielectric constant tensor:
#      x y z
#    x 1.787910 0.000000 -0.004120 
#    y 0.000000 1.783020 0.000000 
#    z -0.004120 0.000000 1.745220 
# 
# From -- ./inp_files/44331.got.cif
#   From: 2010.05.17/outbox.cif.g08.bks.cpg/sg13_23_cif.got.tgz:44331.got - 2010.06.03 16:44:36.
