data_PCOD9232236
_publ_section_title
;
Structure prediction by ZEFSAII (Michael W. Deem and Ramdas Pophale) SiO2 
 PCOD9232236
Probable space group: P 2/C
;
_chemical_formula_sum "Si O2"
_cell_formula_units_Z 22
_cell_length_a 8.988468
_cell_length_b 17.240069
_cell_length_c 7.759180
_cell_angle_alpha 90.000000
_cell_angle_beta 82.950328
_cell_angle_gamma 90.000000
_cell_volume 1193.286749
_symmetry_space_group_name_H-M "P 2/C"
_symmetry_group_IT_number 13
_symmetry_cell_setting 'monoclinic'
loop_
_space_group_symop_operation_xyz
x,y,z
-x,y,1/2-z
-x,-y,-z
x,-y,1/2+z
loop_
_atom_site_type_symbol
_atom_site_label
_atom_site_fract_x
_atom_site_fract_y
_atom_site_fract_z
Si Si1 0.328883 0.242636 0.827317
Si Si2 0.884920 0.102776 0.625779
Si Si3 0.725852 0.609956 0.365737
Si Si4 0.000000 0.046565 0.250000
Si Si5 0.167165 0.537248 0.800697
Si Si6 0.583526 0.362391 0.413636
O O1 0.500000 0.231777 0.750000
O O2 0.252631 0.160157 0.855364
O O3 0.254665 0.301729 0.699132
O O4 0.336609 0.291615 0.002266
O O5 0.000000 0.137427 0.750000
O O6 0.949351 0.093879 0.423799
O O7 0.872428 0.014316 0.700222
O O8 0.817928 0.580560 0.518708
O O9 0.779103 0.552171 0.207667
O O10 0.549622 0.604340 0.445047
O O11 0.292376 0.576684 0.662341
O O12 0.000000 0.543230 0.750000
O O13 0.500000 0.337050 0.250000
#
# Coordination Sequence:
#
# PCOD9232236 Si02
#       6
#     4   4   4   2   4   4
#     4  10  21  38  57  83 115 149 189 238 285 335
#     4   9  18  38  65  87 122 148 186 227 280 346
#     4  10  21  36  54  72 110 154 191 233 295 339
#     4   8  18  40  64  92 116 154 186 214 280 366
#     4  11  21  34  53  78 108 144 202 251 279 326
#     4   9  20  38  52  74 107 154 195 233 286 349
#
# _framework density 18.436472999999999
#
# number of rings (size 3 to 8) (size 9 to 14) (size 15 to 20)
#    0.545    1.818    0.000    2.182    0.000    7.273 
#   11.455    0.909    0.000    0.000    0.000    0.000 
#    0.000    0.000    0.000    0.000    0.000    0.000 
#
# Total GULP energy -122559.837280 kJ/mol
# GULP energy per Si atom -5570.901695 kJ/mol
# Density = 1.839451 g / cm^3
# Si number density = 18.436473 Si / 1000 Ang^3
#
#
#
# Elastic Constant Matrix: (Units=GPa)
#
#
# Indices 1 2 3 4 5 6 
#
# 1 55.6179 42.2755 27.9019 0.0000 7.9418 0.0000
# 2 42.2755 99.1877 42.0049 0.0000 -5.3309 0.0000
# 3 27.9019 42.0049 116.4677 0.0000 18.2591 0.0000
# 4 0.0000 0.0000 0.0000 -4.5609 0.0000 41.8624
# 5 7.9418 -5.3309 18.2591 0.0000 17.1325 0.0000
# 6 0.0000 0.0000 0.0000 41.8624 0.0000 -903.1722
#
#
#
# Elastic Compliance Matrix: (Units=1/GPa)
#
#
# Indices 1 2 3 4 5 6 
#
# 1 0.031923 -0.015163 0.001057 0.000000 -0.020643 0.000000
# 2 -0.015163 0.020700 -0.007137 0.000000 0.021077 0.000000
# 3 0.001057 -0.007137 0.013605 0.000000 -0.017211 0.000000
# 4 0.000000 0.000000 0.000000 -0.381597 0.000000 -0.017687
# 5 -0.020643 0.021077 -0.017211 0.000000 0.092838 0.000000
# 6 0.000000 0.000000 0.000000 -0.017687 0.000000 -0.001927
#
#
# Mechanical properties :
#
#
# Convention : Reuss Voigt Hill
#
# Bulk Modulus (GPa) = 42.12025 55.07087 48.59556
# Shear Modulus (GPa) = -28.72609 -167.51406 -98.12008
#
# Velocity S-wave (km/s) = -3.95158 -9.54240 -7.30316
# Velocity P-wave (km/s) = 1.44077 9.56423 6.68575
#
# Compressibility (1/GPa) = 0.02374155
#
# Stress axis : x y z
#
# Youngs Moduli (GPa) = 31.32563 48.30905 73.50210
#
# Poissons Ratio (x) = 0.73252 -0.07772
# Poissons Ratio (y) = 0.47500 0.52460
# Poissons Ratio (z) = -0.03312 0.34479
#
# Static dielectric constant tensor:
#      x y z
#    x 1.639440 0.000000 0.028570 
#    y 0.000000 1.607980 0.000000 
#    z 0.028570 0.000000 1.698100 
# 
# From -- ./inp_files/12419.got.cif
#   From: 2010.05.17/outbox.cif.g08.bks.cpg/sg13_7_cif.got.tgz:12419.got - 2010.06.03 16:44:36.
