data_PCOD9232366
_publ_section_title
;
Structure prediction by ZEFSAII (Michael W. Deem and Ramdas Pophale) SiO2 
 PCOD9232366
Probable space group: P 2/C
;
_chemical_formula_sum "Si O2"
_cell_formula_units_Z 16
_cell_length_a 7.392141
_cell_length_b 20.146328
_cell_length_c 7.749758
_cell_angle_alpha 90.000000
_cell_angle_beta 38.317873
_cell_angle_gamma 90.000000
_cell_volume 715.587341
_symmetry_space_group_name_H-M "P 2/C"
_symmetry_group_IT_number 13
_symmetry_cell_setting 'monoclinic'
loop_
_space_group_symop_operation_xyz
x,y,z
-x,y,1/2-z
-x,-y,-z
x,-y,1/2+z
loop_
_atom_site_type_symbol
_atom_site_label
_atom_site_fract_x
_atom_site_fract_y
_atom_site_fract_z
Si Si1 0.619426 0.070761 0.852494
Si Si2 0.120038 0.853233 0.857934
Si Si3 0.216019 0.547825 0.739503
Si Si4 0.000000 0.750491 0.250000
Si Si5 0.500000 0.338985 0.250000
O O1 0.500000 0.079949 0.750000
O O2 0.960601 0.083936 0.571140
O O3 0.458546 0.127476 0.084663
O O4 0.500000 0.000000 0.000000
O O5 0.000000 0.844119 0.750000
O O6 0.036436 0.793760 0.047831
O O7 0.500000 0.500000 0.500000
O O8 0.312066 0.611854 0.772932
O O9 0.000000 0.571031 0.750000
O O10 0.000000 0.500000 0.000000
O O11 0.711936 0.704949 0.472312
#
# Coordination Sequence:
#
# PCOD9232366 Si02
#       5
#     4   4   4   2   2
#     4  10  21  36  61  93 126 163 225 294 354 427
#     4  10  23  42  61  90 130 179 227 286 355 411
#     4  12  23  44  74 106 147 185 225 299 362 410
#     4  12  26  44  70  92 144 194 232 288 340 444
#     4  12  26  44  70 112 140 184 256 272 354 446
#
# _framework density 22.359255999999998
#
# number of rings (size 3 to 8) (size 9 to 14) (size 15 to 20)
#    0.000    1.000    2.500    3.750    3.500    1.000 
#    0.000    2.500    0.000    0.000    0.000    0.000 
#    0.000    0.000    0.000    0.000    0.000    0.000 
#
# Total GULP energy -89339.571860 kJ/mol
# GULP energy per Si atom -5583.723241 kJ/mol
# Density = 2.230837 g / cm^3
# Si number density = 22.359256 Si / 1000 Ang^3
#
#
#
# Elastic Constant Matrix: (Units=GPa)
#
#
# Indices 1 2 3 4 5 6 
#
# 1 122.1319 40.7624 40.6196 0.0000 19.2277 0.0000
# 2 40.7624 128.4267 69.9661 0.0000 13.5895 0.0000
# 3 40.6196 69.9661 186.1332 0.0000 -5.3259 0.0000
# 4 0.0000 0.0000 0.0000 44.5115 0.0000 -5.4056
# 5 19.2277 13.5895 -5.3259 0.0000 41.2648 0.0000
# 6 0.0000 0.0000 0.0000 -5.4056 0.0000 17.4409
#
#
#
# Elastic Compliance Matrix: (Units=1/GPa)
#
#
# Indices 1 2 3 4 5 6 
#
# 1 0.010012 -0.001848 -0.001612 0.000000 -0.004265 0.000000
# 2 -0.001848 0.010735 -0.003722 0.000000 -0.003154 0.000000
# 3 -0.001612 -0.003722 0.007207 0.000000 0.002907 0.000000
# 4 0.000000 0.000000 0.000000 0.023345 0.000000 0.007236
# 5 -0.004265 -0.003154 0.002907 0.000000 0.027635 0.000000
# 6 0.000000 0.000000 0.000000 0.007236 0.000000 0.059579
#
#
# Mechanical properties :
#
#
# Convention : Reuss Voigt Hill
#
# Bulk Modulus (GPa) = 73.59123 82.15422 77.87272
# Shear Modulus (GPa) = 31.76477 39.66637 35.71557
#
# Velocity S-wave (km/s) = 3.77325 4.21651 4.00102
# Velocity P-wave (km/s) = 7.20886 7.77997 7.49985
#
# Compressibility (1/GPa) = 0.01358858
#
# Stress axis : x y z
#
# Youngs Moduli (GPa) = 99.87641 93.15594 138.76186
#
# Poissons Ratio (x) = 0.17218 0.22372
# Poissons Ratio (y) = 0.18460 0.51647
# Poissons Ratio (z) = 0.16103 0.34673
#
# Static dielectric constant tensor:
#      x y z
#    x 1.589150 0.000000 -0.025830 
#    y 0.000000 1.691390 0.000000 
#    z -0.025830 0.000000 1.828550 
# 
# From -- ./inp_files/13005.got.cif
#   From: 2010.05.17/outbox.cif.g08.bks.cpg/sg13_7_cif.got.tgz:13005.got - 2010.06.03 16:44:36.
