data_PCOD9232205
_publ_section_title
;
Structure prediction by ZEFSAII (Michael W. Deem and Ramdas Pophale) SiO2 
 PCOD9232205
Probable space group: P 2/C
;
_chemical_formula_sum "Si O2"
_cell_formula_units_Z 30
_cell_length_a 9.350618
_cell_length_b 13.860197
_cell_length_c 12.862757
_cell_angle_alpha 90.000000
_cell_angle_beta 118.957254
_cell_angle_gamma 90.000000
_cell_volume 1458.621079
_symmetry_space_group_name_H-M "P 2/C"
_symmetry_group_IT_number 13
_symmetry_cell_setting 'monoclinic'
loop_
_space_group_symop_operation_xyz
x,y,z
-x,y,1/2-z
-x,-y,-z
x,-y,1/2+z
loop_
_atom_site_type_symbol
_atom_site_label
_atom_site_fract_x
_atom_site_fract_y
_atom_site_fract_z
Si Si1 0.000000 0.032817 0.250000
Si Si2 0.133733 0.275876 0.976152
Si Si3 0.473883 0.567350 0.362062
Si Si4 0.167468 0.133900 0.681677
Si Si5 0.783655 0.479269 0.581323
Si Si6 0.249754 0.849707 0.981226
Si Si7 0.966061 0.326346 0.119760
Si Si8 0.588034 0.223496 0.564155
O O1 0.877120 0.094740 0.136287
O O2 0.896893 0.962850 0.288130
O O3 0.304043 0.228417 0.001879
O O4 0.987231 0.205593 0.889673
O O5 0.135093 0.377027 0.914670
O O6 0.107628 0.301528 0.087764
O O7 0.500000 0.585039 0.250000
O O8 0.624036 0.501225 0.453825
O O9 0.299731 0.519645 0.333456
O O10 0.467558 0.668657 0.422111
O O11 0.244306 0.111738 0.596586
O O12 0.295057 0.185580 0.802766
O O13 0.910894 0.563280 0.602569
O O14 0.184723 0.739938 0.968375
O O15 0.430875 0.843833 0.000612
O O16 0.000000 0.299272 0.250000
#
# Coordination Sequence:
#
# PCOD9232205 Si02
#       8
#     2   4   4   4   4   4   4   4
#     4  12  24  46  70  98 134 170 222 278 350 400
#     4  10  23  41  66  94 136 168 225 278 320 392
#     4  10  21  35  60  92 134 173 219 278 317 376
#     4  11  23  44  69 100 129 172 223 282 334 392
#     4  10  22  38  58  96 130 175 228 262 321 394
#     4  11  24  42  71  94 135 171 220 273 336 407
#     4  11  23  41  62  93 132 179 213 264 335 397
#     4  11  21  43  69  98 129 176 223 275 333 395
#
# _framework density 20.56737
#
# number of rings (size 3 to 8) (size 9 to 14) (size 15 to 20)
#    0.000    1.333    3.333    2.000    3.733    2.667 
#    0.000    0.667    0.000    0.000    0.000    0.000 
#    0.000    0.000    0.000    0.000    0.000    0.000 
#
# Total GULP energy -167602.858831 kJ/mol
# GULP energy per Si atom -5586.761961 kJ/mol
# Density = 2.052056 g / cm^3
# Si number density = 20.567370 Si / 1000 Ang^3
#
#
#
# Elastic Constant Matrix: (Units=GPa)
#
#
# Indices 1 2 3 4 5 6 
#
# 1 147.7390 37.0418 58.6087 0.0000 -26.1574 0.0000
# 2 37.0418 78.9063 12.0761 0.0000 3.0843 0.0000
# 3 58.6087 12.0761 59.5239 0.0000 -28.2325 0.0000
# 4 0.0000 0.0000 0.0000 3.2514 0.0000 2.0531
# 5 -26.1574 3.0843 -28.2325 0.0000 29.3767 0.0000
# 6 0.0000 0.0000 0.0000 2.0531 0.0000 9.0177
#
#
#
# Elastic Compliance Matrix: (Units=1/GPa)
#
#
# Indices 1 2 3 4 5 6 
#
# 1 0.012247 -0.004147 -0.010729 0.000000 0.001029 0.000000
# 2 -0.004147 0.015371 -0.002852 0.000000 -0.008048 0.000000
# 3 -0.010729 -0.002852 0.043284 0.000000 0.032344 0.000000
# 4 0.000000 0.000000 0.000000 0.359196 0.000000 -0.081778
# 5 0.001029 -0.008048 0.032344 0.000000 0.066886 0.000000
# 6 0.000000 0.000000 0.000000 -0.081778 0.000000 0.129511
#
#
# Mechanical properties :
#
#
# Convention : Reuss Voigt Hill
#
# Bulk Modulus (GPa) = 28.21279 55.73584 41.97432
# Shear Modulus (GPa) = 7.42096 20.22533 13.82315
#
# Velocity S-wave (km/s) = 1.90157 3.13927 2.59528
# Velocity P-wave (km/s) = 4.30910 6.34807 5.42524
#
# Compressibility (1/GPa) = 0.03544491
#
# Stress axis : x y z
#
# Youngs Moduli (GPa) = 81.65184 65.05641 23.10340
#
# Poissons Ratio (x) = 0.26982 0.24788
# Poissons Ratio (y) = 0.33865 0.06589
# Poissons Ratio (z) = 0.87607 0.18553
#
# Static dielectric constant tensor:
#      x y z
#    x 1.754560 0.000000 -0.014860 
#    y 0.000000 1.732700 0.000000 
#    z -0.014860 0.000000 1.751040 
# 
# From -- ./inp_files/30443.got.cif
#   From: 2010.05.17/outbox.cif.g08.bks.cpg/sg13_16_cif.got.tgz:30443.got - 2010.06.03 16:44:36.
