data_PCOD9232474
_publ_section_title
;
Structure prediction by ZEFSAII (Michael W. Deem and Ramdas Pophale) SiO2 
 PCOD9232474
Probable space group: P 2/C
;
_chemical_formula_sum "Si O2"
_cell_formula_units_Z 20
_cell_length_a 7.475830
_cell_length_b 24.337740
_cell_length_c 8.626481
_cell_angle_alpha 90.000000
_cell_angle_beta 36.783594
_cell_angle_gamma 90.000000
_cell_volume 939.833643
_symmetry_space_group_name_H-M "P 2/C"
_symmetry_group_IT_number 13
_symmetry_cell_setting 'monoclinic'
loop_
_space_group_symop_operation_xyz
x,y,z
-x,y,1/2-z
-x,-y,-z
x,-y,1/2+z
loop_
_atom_site_type_symbol
_atom_site_label
_atom_site_fract_x
_atom_site_fract_y
_atom_site_fract_z
Si Si1 0.634959 0.055011 0.830067
Si Si2 0.854053 0.551858 0.019481
Si Si3 0.858232 0.890894 0.678050
Si Si4 0.144892 0.326196 0.978873
Si Si5 0.144325 0.777478 0.984481
O O1 0.500000 0.058720 0.750000
O O2 0.983688 0.066971 0.553140
O O3 0.491563 0.099996 0.045416
O O4 0.500000 0.000000 0.000000
O O5 0.500000 0.544026 0.250000
O O6 0.905067 0.612559 0.055757
O O7 0.000000 0.554560 0.750000
O O8 0.000000 0.500000 0.000000
O O9 0.920930 0.829683 0.579109
O O10 0.000000 0.899867 0.750000
O O11 0.500000 0.318389 0.750000
O O12 0.000000 0.324348 0.250000
O O13 0.001256 0.277815 0.980291
O O14 0.500000 0.771004 0.750000
O O15 0.000000 0.788883 0.250000
#
# Coordination Sequence:
#
# PCOD9232474 Si02
#       5
#     4   4   4   4   4
#     4  10  21  37  59  85 112 147 191 237 287 345
#     4  10  21  37  60  89 121 159 202 245 297 353
#     4  10  22  40  59  81 114 156 193 231 291 362
#     4  10  22  41  62  85 119 165 203 238 296 367
#     4  12  25  39  60  92 120 151 200 257 303 341
#
# _framework density 21.280362
#
# number of rings (size 3 to 8) (size 9 to 14) (size 15 to 20)
#    0.000    1.600    0.000    4.200    0.000    6.400 
#    0.000    0.000    0.000    0.000    0.000    0.000 
#    0.000    0.000    0.000    0.000    0.000    0.000 
#
# Total GULP energy -111731.088972 kJ/mol
# GULP energy per Si atom -5586.554449 kJ/mol
# Density = 2.123193 g / cm^3
# Si number density = 21.280362 Si / 1000 Ang^3
#
#
#
# Elastic Constant Matrix: (Units=GPa)
#
#
# Indices 1 2 3 4 5 6 
#
# 1 21.4596 26.9128 47.4772 0.0000 -4.1326 0.0000
# 2 26.9128 155.4603 59.6329 0.0000 4.1482 0.0000
# 3 47.4772 59.6329 197.3553 0.0000 -9.0993 0.0000
# 4 0.0000 0.0000 0.0000 38.5282 0.0000 10.2098
# 5 -4.1326 4.1482 -9.0993 0.0000 26.8943 0.0000
# 6 0.0000 0.0000 0.0000 10.2098 0.0000 54.0587
#
#
#
# Elastic Compliance Matrix: (Units=1/GPa)
#
#
# Indices 1 2 3 4 5 6 
#
# 1 0.115802 -0.011161 -0.023960 0.000000 0.011409 0.000000
# 2 -0.011161 0.008448 -0.000007 0.000000 -0.003020 0.000000
# 3 -0.023960 -0.000007 0.010832 0.000000 -0.000016 0.000000
# 4 0.000000 0.000000 0.000000 0.027322 0.000000 -0.005160
# 5 0.011409 -0.003020 -0.000016 0.000000 0.039396 0.000000
# 6 0.000000 0.000000 0.000000 -0.005160 0.000000 0.019473
#
#
# Mechanical properties :
#
#
# Convention : Reuss Voigt Hill
#
# Bulk Modulus (GPa) = 15.42568 71.36900 43.39734
# Shear Modulus (GPa) = 15.96738 39.91308 27.94023
#
# Velocity S-wave (km/s) = 2.74219 4.33550 3.62741
# Velocity P-wave (km/s) = 4.15821 7.65979 6.16292
#
# Compressibility (1/GPa) = 0.06482697
#
# Stress axis : x y z
#
# Youngs Moduli (GPa) = 8.63542 118.37241 92.31662
#
# Poissons Ratio (x) = 1.32116 2.21188
# Poissons Ratio (y) = 0.09638 0.00064
# Poissons Ratio (z) = 0.20690 0.00082
#
# Static dielectric constant tensor:
#      x y z
#    x 1.741560 0.000000 -0.035830 
#    y 0.000000 1.805750 0.000000 
#    z -0.035830 0.000000 1.749290 
# 
# From -- ./inp_files/13761.got.cif
#   From: 2010.05.17/outbox.cif.g08.bks.cpg/sg13_7_cif.got.tgz:13761.got - 2010.06.03 16:44:36.
