data_PCOD9232557
_publ_section_title
;
Structure prediction by ZEFSAII (Michael W. Deem and Ramdas Pophale) SiO2 
 PCOD9232557
Probable space group: P 2/C
;
_chemical_formula_sum "Si O2"
_cell_formula_units_Z 26
_cell_length_a 7.556607
_cell_length_b 31.199236
_cell_length_c 5.105666
_cell_angle_alpha 90.000000
_cell_angle_beta 73.202388
_cell_angle_gamma 90.000000
_cell_volume 1152.353075
_symmetry_space_group_name_H-M "P 2/C"
_symmetry_group_IT_number 13
_symmetry_cell_setting 'monoclinic'
loop_
_space_group_symop_operation_xyz
x,y,z
-x,y,1/2-z
-x,-y,-z
x,-y,1/2+z
loop_
_atom_site_type_symbol
_atom_site_label
_atom_site_fract_x
_atom_site_fract_y
_atom_site_fract_z
Si Si1 0.313824 0.888574 0.972705
Si Si2 0.778819 0.025506 0.800792
Si Si3 0.500000 0.407740 0.250000
Si Si4 0.380756 0.728183 0.064835
Si Si5 0.500000 0.353427 0.750000
Si Si6 0.000000 0.146014 0.250000
Si Si7 0.197081 0.191576 0.766125
Si Si8 0.221444 0.526667 0.143663
O O1 0.500000 0.900335 0.750000
O O2 0.132642 0.885122 0.863993
O O3 0.275054 0.924982 0.201372
O O4 0.341089 0.841539 0.087196
O O5 0.000000 0.024524 0.750000
O O6 0.711731 0.996816 0.592947
O O7 0.571572 0.380053 0.469190
O O8 0.340680 0.435701 0.461927
O O9 0.500000 0.748832 0.250000
O O10 0.352172 0.679862 0.184986
O O11 0.215786 0.761139 0.139713
O O12 0.500000 0.726123 0.750000
O O13 0.840497 0.180229 0.417714
O O14 0.000000 0.174794 0.750000
O O15 0.264451 0.512674 0.423425
O O16 0.000000 0.534952 0.250000
#
# Coordination Sequence:
#
# PCOD9232557 Si02
#       8
#     4   4   2   4   2   2   4   4
#     4  11  25  41  65  97 127 165 213 264 326 389
#     4  10  23  42  67  92 130 174 209 255 314 383
#     4  12  20  39  64  90 130 180 216 267 336 398
#     4  10  22  41  65  88 125 163 215 266 323 383
#     4  10  22  37  62  88 126 168 220 261 318 400
#     4  10  24  42  62  98 130 156 214 270 324 396
#     4  10  23  39  65  92 125 161 210 270 330 383
#     4  10  21  37  61  95 130 168 222 282 328 382
#
# _framework density 22.562526999999999
#
# number of rings (size 3 to 8) (size 9 to 14) (size 15 to 20)
#    0.462    1.231    0.769    3.231   11.846    0.615 
#    0.000    0.769    3.385    0.000    0.000    0.000 
#    0.000    0.000    0.000    0.000    0.000    0.000 
#
# Total GULP energy -144753.012476 kJ/mol
# GULP energy per Si atom -5567.423557 kJ/mol
# Density = 2.251117 g / cm^3
# Si number density = 22.562527 Si / 1000 Ang^3
#
#
#
# Elastic Constant Matrix: (Units=GPa)
#
#
# Indices 1 2 3 4 5 6 
#
# 1 48.1230 16.2979 37.0310 0.0000 -8.6666 0.0000
# 2 16.2979 111.5728 48.4560 0.0000 -7.6787 0.0000
# 3 37.0310 48.4560 135.3123 0.0000 -0.9483 0.0000
# 4 0.0000 0.0000 0.0000 -114.8034 0.0000 -46.2548
# 5 -8.6666 -7.6787 -0.9483 0.0000 31.2391 0.0000
# 6 0.0000 0.0000 0.0000 -46.2548 0.0000 3.3106
#
#
#
# Elastic Compliance Matrix: (Units=1/GPa)
#
#
# Indices 1 2 3 4 5 6 
#
# 1 0.028001 -0.000321 -0.007496 0.000000 0.007462 0.000000
# 2 -0.000321 0.010815 -0.003768 0.000000 0.002455 0.000000
# 3 -0.007496 -0.003768 0.010772 0.000000 -0.002679 0.000000
# 4 0.000000 0.000000 0.000000 -0.001314 0.000000 -0.018358
# 5 0.007462 0.002455 -0.002679 0.000000 0.034603 0.000000
# 6 0.000000 0.000000 0.000000 -0.018358 0.000000 0.045564
#
#
# Mechanical properties :
#
#
# Convention : Reuss Voigt Hill
#
# Bulk Modulus (GPa) = 37.85241 55.39754 46.62497
# Shear Modulus (GPa) = 31.16878 -3.16919 13.99980
#
# Velocity S-wave (km/s) = 3.72081 -1.18645 2.49366
# Velocity P-wave (km/s) = 5.93905 4.76753 5.38524
#
# Compressibility (1/GPa) = 0.02641840
#
# Stress axis : x y z
#
# Youngs Moduli (GPa) = 35.71352 92.46435 92.83225
#
# Poissons Ratio (x) = 0.02971 0.69583
# Poissons Ratio (y) = 0.01147 0.34977
# Poissons Ratio (z) = 0.26769 0.34838
#
# Static dielectric constant tensor:
#      x y z
#    x 1.821120 0.000000 -1.383070 
#    y 0.000000 1.843560 0.000000 
#    z -1.383070 0.000000 0.759320 
# 
# From -- ./inp_files/2619.got.cif
#   From: 2010.05.17/outbox.cif.g08.bks.cpg/sg13_2_cif.got.tgz:2619.got - 2010.06.03 16:44:36.
