data_PCOD9232324
_publ_section_title
;
Structure prediction by ZEFSAII (Michael W. Deem and Ramdas Pophale) SiO2 
 PCOD9232324
Probable space group: P 2/C
;
_chemical_formula_sum "Si O2"
_cell_formula_units_Z 30
_cell_length_a 9.579159
_cell_length_b 6.192910
_cell_length_c 25.960163
_cell_angle_alpha 90.000000
_cell_angle_beta 77.804958
_cell_angle_gamma 90.000000
_cell_volume 1505.279289
_symmetry_space_group_name_H-M "P 2/C"
_symmetry_group_IT_number 13
_symmetry_cell_setting 'monoclinic'
loop_
_space_group_symop_operation_xyz
x,y,z
-x,y,1/2-z
-x,-y,-z
x,-y,1/2+z
loop_
_atom_site_type_symbol
_atom_site_label
_atom_site_fract_x
_atom_site_fract_y
_atom_site_fract_z
Si Si1 0.088655 0.286616 0.500528
Si Si2 0.311022 0.925318 0.834521
Si Si3 0.455971 0.164745 0.917146
Si Si4 0.337921 0.566416 0.507259
Si Si5 0.520705 0.552173 0.837061
Si Si6 0.500000 0.223995 0.750000
Si Si7 0.708852 0.834922 0.891947
Si Si8 0.991616 0.018719 0.096137
O O1 0.251116 0.366629 0.491574
O O2 0.054089 0.158256 0.450986
O O3 0.000000 0.500000 0.500000
O O4 0.039290 0.190664 0.559339
O O5 0.380257 0.685289 0.829225
O O6 0.143076 0.960969 0.855208
O O7 0.375020 0.025734 0.881516
O O8 0.380007 0.067838 0.783624
O O9 0.345488 0.221407 0.970875
O O10 0.488776 0.395961 0.888018
O O11 0.598084 0.025523 0.918028
O O12 0.500000 0.500000 0.500000
O O13 0.283397 0.646529 0.566046
O O14 0.560513 0.383204 0.789312
O O15 0.639529 0.725623 0.846366
O O16 0.869193 0.921459 0.881118
#
# Coordination Sequence:
#
# PCOD9232324 Si02
#       8
#     4   4   4   4   4   2   4   4
#     4  11  23  39  54  87 137 179 218 243 296 368
#     4  10  22  40  67  91 118 156 209 262 319 377
#     4  10  21  36  58  89 124 167 212 250 297 358
#     4  12  21  35  58  87 130 177 215 247 295 356
#     4  10  21  42  67  92 116 154 205 266 321 372
#     4  10  22  44  72  94 110 146 212 280 320 380
#     4  11  23  37  57  94 131 168 206 258 303 376
#     4  11  24  38  59  91 133 175 205 254 310 376
#
# _framework density 19.929856000000001
#
# number of rings (size 3 to 8) (size 9 to 14) (size 15 to 20)
#    0.000    1.333    2.667    3.200    3.733    1.067 
#    0.000    0.000    0.000   19.200    0.000    0.000 
#    0.000    0.000    0.000    0.000    0.000    0.000 
#
# Total GULP energy -167213.086102 kJ/mol
# GULP energy per Si atom -5573.769537 kJ/mol
# Density = 1.988449 g / cm^3
# Si number density = 19.929856 Si / 1000 Ang^3
#
#
#
# Elastic Constant Matrix: (Units=GPa)
#
#
# Indices 1 2 3 4 5 6 
#
# 1 104.5328 18.3951 1.0399 0.0000 -10.0679 0.0000
# 2 18.3951 73.8391 5.8074 0.0000 -1.2540 0.0000
# 3 1.0399 5.8074 61.0396 0.0000 -1.0484 0.0000
# 4 0.0000 0.0000 0.0000 24.4688 0.0000 1.1978
# 5 -10.0679 -1.2540 -1.0484 0.0000 22.3092 0.0000
# 6 0.0000 0.0000 0.0000 1.1978 0.0000 27.3927
#
#
#
# Elastic Compliance Matrix: (Units=1/GPa)
#
#
# Indices 1 2 3 4 5 6 
#
# 1 0.010453 -0.002537 0.000142 0.000000 0.004581 0.000000
# 2 -0.002537 0.014272 -0.001322 0.000000 -0.000405 0.000000
# 3 0.000142 -0.001322 0.016519 0.000000 0.000766 0.000000
# 4 0.000000 0.000000 0.000000 0.040956 0.000000 -0.001791
# 5 0.004581 -0.000405 0.000766 0.000000 0.046905 0.000000
# 6 0.000000 0.000000 0.000000 -0.001791 0.000000 0.036584
#
#
# Mechanical properties :
#
#
# Convention : Reuss Voigt Hill
#
# Bulk Modulus (GPa) = 29.57688 32.21071 30.89379
# Shear Modulus (GPa) = 27.11587 29.11207 28.11397
#
# Velocity S-wave (km/s) = 3.69259 3.82609 3.75993
# Velocity P-wave (km/s) = 5.74917 5.97627 5.86382
#
# Compressibility (1/GPa) = 0.03381019
#
# Stress axis : x y z
#
# Youngs Moduli (GPa) = 95.66902 70.06648 60.53528
#
# Poissons Ratio (x) = 0.17779 -0.00860
# Poissons Ratio (y) = 0.24275 0.08000
# Poissons Ratio (z) = -0.01359 0.09260
#
# Static dielectric constant tensor:
#      x y z
#    x 1.758200 0.000000 0.016210 
#    y 0.000000 1.800260 0.000000 
#    z 0.016210 0.000000 1.753200 
# 
# From -- ./inp_files/95626.got.cif
#   From: 2010.05.17/outbox.cif.g08.bks.cpg/sg13_48_cif.got.tgz:95626.got - 2010.06.03 16:44:36.
