data_PCOD9232637
_publ_section_title
;
Structure prediction by ZEFSAII (Michael W. Deem and Ramdas Pophale) SiO2 
 PCOD9232637
Probable space group: P 2/C
;
_chemical_formula_sum "Si O2"
_cell_formula_units_Z 22
_cell_length_a 5.761946
_cell_length_b 11.989298
_cell_length_c 15.322962
_cell_angle_alpha 90.000000
_cell_angle_beta 80.371865
_cell_angle_gamma 90.000000
_cell_volume 1043.625564
_symmetry_space_group_name_H-M "P 2/C"
_symmetry_group_IT_number 13
_symmetry_cell_setting 'monoclinic'
loop_
_space_group_symop_operation_xyz
x,y,z
-x,y,1/2-z
-x,-y,-z
x,-y,1/2+z
loop_
_atom_site_type_symbol
_atom_site_label
_atom_site_fract_x
_atom_site_fract_y
_atom_site_fract_z
Si Si1 0.959829 0.004750 0.608583
Si Si2 0.181638 0.487267 0.565464
Si Si3 0.281302 0.780278 0.320907
Si Si4 0.468834 0.924936 0.589940
Si Si5 0.000000 0.586366 0.250000
Si Si6 0.515603 0.302831 0.508153
O O1 0.922431 0.128784 0.649210
O O2 0.696768 0.952332 0.635016
O O3 0.000000 0.000000 0.500000
O O4 0.197680 0.951116 0.634135
O O5 0.273977 0.360121 0.552296
O O6 0.357173 0.589890 0.541034
O O7 0.000000 0.500000 0.500000
O O8 0.079904 0.491875 0.667396
O O9 0.500000 0.825985 0.250000
O O10 0.194724 0.670366 0.276227
O O11 0.364641 0.743862 0.411947
O O12 0.494431 0.797626 0.558335
O O13 0.500000 0.000000 0.500000
#
# Coordination Sequence:
#
# PCOD9232637 Si02
#       6
#     4   4   4   4   2   4
#     4  10  22  37  64 100 134 176 220 275 352 427
#     4  11  25  41  67  99 135 184 239 294 362 417
#     4  12  24  39  67 103 140 174 234 305 353 414
#     4  10  21  37  68  97 132 170 229 267 345 428
#     4  12  26  40  70  98 134 178 242 308 346 412
#     4  11  23  42  65  98 135 184 232 287 356 432
#
# _framework density 21.080358
#
# number of rings (size 3 to 8) (size 9 to 14) (size 15 to 20)
#    0.000    1.091    7.273    0.000   10.182    0.000 
#    0.000    0.000    4.000    0.000    0.000    0.000 
#    0.000    0.000    0.000    0.000    0.000    0.000 
#
# Total GULP energy -122771.193205 kJ/mol
# GULP energy per Si atom -5580.508782 kJ/mol
# Density = 2.103238 g / cm^3
# Si number density = 21.080358 Si / 1000 Ang^3
#
#
#
# Elastic Constant Matrix: (Units=GPa)
#
#
# Indices 1 2 3 4 5 6 
#
# 1 114.6542 21.7843 21.9860 0.0000 2.0588 0.0000
# 2 21.7843 105.9360 26.6324 0.0000 -7.1380 0.0000
# 3 21.9860 26.6324 92.6342 0.0000 -10.1546 0.0000
# 4 0.0000 0.0000 0.0000 21.4202 0.0000 -11.0565
# 5 2.0588 -7.1380 -10.1546 0.0000 28.2983 0.0000
# 6 0.0000 0.0000 0.0000 -11.0565 0.0000 5.8857
#
#
#
# Elastic Compliance Matrix: (Units=1/GPa)
#
#
# Indices 1 2 3 4 5 6 
#
# 1 0.009432 -0.001561 -0.001986 0.000000 -0.001793 0.000000
# 2 -0.001561 0.010502 -0.002442 0.000000 0.001886 0.000000
# 3 -0.001986 -0.002442 0.012405 0.000000 0.003980 0.000000
# 4 0.000000 0.000000 0.000000 1.537452 0.000000 2.888133
# 5 -0.001793 0.001886 0.003980 0.000000 0.037372 0.000000
# 6 0.000000 0.000000 0.000000 2.888133 0.000000 5.595313
#
#
# Mechanical properties :
#
#
# Convention : Reuss Voigt Hill
#
# Bulk Modulus (GPa) = 49.11638 50.44775 49.78206
# Shear Modulus (GPa) = 0.69240 27.30896 14.00068
#
# Velocity S-wave (km/s) = 0.57373 3.60317 2.57992
# Velocity P-wave (km/s) = 4.87740 6.42600 5.70450
#
# Compressibility (1/GPa) = 0.02035981
#
# Stress axis : x y z
#
# Youngs Moduli (GPa) = 106.02738 95.22305 80.61311
#
# Poissons Ratio (x) = 0.14863 0.16012
# Poissons Ratio (y) = 0.16550 0.19686
# Poissons Ratio (z) = 0.21060 0.23253
#
# Static dielectric constant tensor:
#      x y z
#    x 1.835610 0.000000 0.016450 
#    y 0.000000 1.767740 0.000000 
#    z 0.016450 0.000000 1.634520 
# 
# From -- ./inp_files/43609.got.cif
#   From: 2010.05.17/outbox.cif.g08.bks.cpg/sg13_22_cif.got.tgz:43609.got - 2010.06.03 16:44:36.
