data_PCOD9232437
_publ_section_title
;
Structure prediction by ZEFSAII (Michael W. Deem and Ramdas Pophale) SiO2 
 PCOD9232437
Probable space group: P 2/C
;
_chemical_formula_sum "Si O2"
_cell_formula_units_Z 30
_cell_length_a 11.936692
_cell_length_b 7.691351
_cell_length_c 15.195616
_cell_angle_alpha 90.000000
_cell_angle_beta 116.249966
_cell_angle_gamma 90.000000
_cell_volume 1251.226348
_symmetry_space_group_name_H-M "P 2/C"
_symmetry_group_IT_number 13
_symmetry_cell_setting 'monoclinic'
loop_
_space_group_symop_operation_xyz
x,y,z
-x,y,1/2-z
-x,-y,-z
x,-y,1/2+z
loop_
_atom_site_type_symbol
_atom_site_label
_atom_site_fract_x
_atom_site_fract_y
_atom_site_fract_z
Si Si1 0.777625 0.209063 0.841343
Si Si2 0.196669 0.186377 0.162423
Si Si3 0.037329 0.343980 0.358929
Si Si4 0.792828 0.828212 0.146961
Si Si5 0.045340 0.698194 0.451994
Si Si6 0.500000 0.248007 0.750000
Si Si7 0.712510 0.236249 0.125767
Si Si8 0.524885 0.188997 0.551110
O O1 0.817056 0.238555 0.753589
O O2 0.647358 0.310331 0.813021
O O3 0.910058 0.230355 0.937287
O O4 0.747981 0.002435 0.839111
O O5 0.275571 0.281215 0.266280
O O6 0.056514 0.183239 0.156997
O O7 0.159959 0.280334 0.059861
O O8 0.017051 0.501984 0.416151
O O9 0.181398 0.308556 0.400258
O O10 0.000000 0.410180 0.250000
O O11 0.901543 0.795529 0.116122
O O12 0.661310 0.741937 0.073856
O O13 0.751273 0.030518 0.140152
O O14 0.515799 0.173629 0.654560
O O15 0.584584 0.289798 0.036168
O O16 0.500000 0.000000 0.500000
#
# Coordination Sequence:
#
# PCOD9232437 Si02
#       8
#     4   4   4   4   4   2   4   4
#     4  10  21  37  59  89 122 151 194 252 301 349
#     4  10  22  36  54  89 117 155 199 238 300 357
#     4  10  21  37  57  83 120 164 200 242 301 359
#     4   9  19  36  57  91 119 152 200 246 301 354
#     4  12  22  35  60  91 122 152 201 253 292 351
#     4  10  22  36  62  94 116 154 200 242 306 360
#     4   9  19  38  59  81 123 161 195 241 304 357
#     4   9  19  36  59  88 122 157 194 249 299 353
#
# _framework density 23.976479000000001
#
# number of rings (size 3 to 8) (size 9 to 14) (size 15 to 20)
#    0.000    2.133    0.000    3.600    5.600    2.133 
#    0.000    0.667    0.000    0.800    0.000    0.000 
#    0.000    0.000    0.000    0.000    0.000    0.000 
#
# Total GULP energy -167036.747421 kJ/mol
# GULP energy per Si atom -5567.891581 kJ/mol
# Density = 2.392191 g / cm^3
# Si number density = 23.976479 Si / 1000 Ang^3
#
#
#
# Elastic Constant Matrix: (Units=GPa)
#
#
# Indices 1 2 3 4 5 6 
#
# 1 112.1973 6.0416 43.1221 0.0000 20.1273 0.0000
# 2 6.0416 24.4686 -10.2229 0.0000 -0.8071 0.0000
# 3 43.1221 -10.2229 99.4199 0.0000 11.6359 0.0000
# 4 0.0000 0.0000 0.0000 13.9841 0.0000 -5.1625
# 5 20.1273 -0.8071 11.6359 0.0000 51.1508 0.0000
# 6 0.0000 0.0000 0.0000 -5.1625 0.0000 6.0698
#
#
#
# Elastic Compliance Matrix: (Units=1/GPa)
#
#
# Indices 1 2 3 4 5 6 
#
# 1 0.011856 -0.005245 -0.005266 0.000000 -0.003550 0.000000
# 2 -0.005245 0.045029 0.006760 0.000000 0.001236 0.000000
# 3 -0.005266 0.006760 0.013132 0.000000 -0.000808 0.000000
# 4 0.000000 0.000000 0.000000 0.104240 0.000000 0.088658
# 5 -0.003550 0.001236 -0.000808 0.000000 0.021150 0.000000
# 6 0.000000 0.000000 0.000000 0.088658 0.000000 0.240156
#
#
# Mechanical properties :
#
#
# Convention : Reuss Voigt Hill
#
# Bulk Modulus (GPa) = 15.99594 34.88526 25.44060
# Shear Modulus (GPa) = 10.77809 27.38393 19.08101
#
# Velocity S-wave (km/s) = 2.12251 3.38319 2.82409
# Velocity P-wave (km/s) = 3.56268 5.46284 4.61169
#
# Compressibility (1/GPa) = 0.06251587
#
# Stress axis : x y z
#
# Youngs Moduli (GPa) = 84.34414 22.20794 76.14827
#
# Poissons Ratio (x) = 0.11648 0.40102
# Poissons Ratio (y) = 0.44236 -0.51478
# Poissons Ratio (z) = 0.44418 -0.15013
#
# Static dielectric constant tensor:
#      x y z
#    x 2.048920 0.000000 -0.013600 
#    y 0.000000 1.980270 0.000000 
#    z -0.013600 0.000000 2.039400 
# 
# From -- ./inp_files/50398.got.cif
#   From: 2010.05.17/outbox.cif.g08.bks.cpg/sg13_26_cif.got.tgz:50398.got - 2010.06.03 16:44:36.
