data_PCOD9232255
_publ_section_title
;
Structure prediction by ZEFSAII (Michael W. Deem and Ramdas Pophale) SiO2 
 PCOD9232255
Probable space group: P 2/C
;
_chemical_formula_sum "Si O2"
_cell_formula_units_Z 24
_cell_length_a 8.355592
_cell_length_b 17.763798
_cell_length_c 8.110575
_cell_angle_alpha 90.000000
_cell_angle_beta 93.120942
_cell_angle_gamma 90.000000
_cell_volume 1202.043235
_symmetry_space_group_name_H-M "P 2/C"
_symmetry_group_IT_number 13
_symmetry_cell_setting 'monoclinic'
loop_
_space_group_symop_operation_xyz
x,y,z
-x,y,1/2-z
-x,-y,-z
x,-y,1/2+z
loop_
_atom_site_type_symbol
_atom_site_label
_atom_site_fract_x
_atom_site_fract_y
_atom_site_fract_z
Si Si1 0.316771 0.413462 0.196901
Si Si2 0.313965 0.039857 0.734460
Si Si3 0.816249 0.253609 0.290978
Si Si4 0.111552 0.843472 0.415884
Si Si5 0.878326 0.540490 0.117045
Si Si6 0.183698 0.101472 0.391357
O O1 0.500000 0.430872 0.250000
O O2 0.281919 0.328189 0.249292
O O3 0.212718 0.474937 0.289056
O O4 0.252817 0.417958 0.003992
O O5 0.500000 0.020030 0.750000
O O6 0.251603 0.101430 0.862573
O O7 0.283703 0.075267 0.554645
O O8 0.207274 0.966623 0.765733
O O9 0.820112 0.227730 0.482052
O O10 0.762702 0.180233 0.185012
O O11 0.000000 0.269695 0.250000
O O12 0.000000 0.826579 0.250000
O O13 0.992285 0.883241 0.541621
O O14 0.000000 0.583337 0.250000
O O15 0.000000 0.500000 0.000000
#
# Coordination Sequence:
#
# PCOD9232255 Si02
#       6
#     4   4   4   4   4   4
#     4  11  22  37  61  92 123 149 185 240 293 337
#     4  11  21  34  54  79 109 144 187 241 294 343
#     4  10  21  38  58  81 110 150 192 232 282 345
#     4   9  20  37  56  78 106 146 195 238 276 335
#     4   9  19  38  63  87 115 154 193 225 269 343
#     4  10  21  36  55  77 107 147 191 234 280 341
#
# _framework density 19.966004999999999
#
# number of rings (size 3 to 8) (size 9 to 14) (size 15 to 20)
#    0.000    2.000    0.000    4.000    0.000    7.333 
#    0.000    5.000    0.000    2.000    0.000    0.000 
#    0.000    0.000    0.000    0.000    0.000    0.000 
#
# Total GULP energy -133876.735976 kJ/mol
# GULP energy per Si atom -5578.197332 kJ/mol
# Density = 1.992056 g / cm^3
# Si number density = 19.966005 Si / 1000 Ang^3
#
#
#
# Elastic Constant Matrix: (Units=GPa)
#
#
# Indices 1 2 3 4 5 6 
#
# 1 85.8725 27.2657 37.4462 0.0000 12.3242 0.0000
# 2 27.2657 79.3258 37.4950 0.0000 -1.9243 0.0000
# 3 37.4462 37.4950 96.9607 0.0000 8.6033 0.0000
# 4 0.0000 0.0000 0.0000 25.8768 0.0000 9.8416
# 5 12.3242 -1.9243 8.6033 0.0000 24.3387 0.0000
# 6 0.0000 0.0000 0.0000 9.8416 0.0000 43.2326
#
#
#
# Elastic Compliance Matrix: (Units=1/GPa)
#
#
# Indices 1 2 3 4 5 6 
#
# 1 0.015495 -0.003600 -0.003996 0.000000 -0.006718 0.000000
# 2 -0.003600 0.016546 -0.005457 0.000000 0.005060 0.000000
# 3 -0.003996 -0.005457 0.014273 0.000000 -0.003453 0.000000
# 4 0.000000 0.000000 0.000000 0.042308 0.000000 -0.009631
# 5 -0.006718 0.005060 -0.003453 0.000000 0.046110 0.000000
# 6 0.000000 0.000000 0.000000 -0.009631 0.000000 0.025323
#
#
# Mechanical properties :
#
#
# Convention : Reuss Voigt Hill
#
# Bulk Modulus (GPa) = 49.48489 51.84141 50.66315
# Shear Modulus (GPa) = 25.92072 29.35310 27.63691
#
# Velocity S-wave (km/s) = 3.60702 3.83842 3.72452
# Velocity P-wave (km/s) = 6.49506 6.75765 6.62766
#
# Compressibility (1/GPa) = 0.02020819
#
# Stress axis : x y z
#
# Youngs Moduli (GPa) = 64.53737 60.43854 70.06108
#
# Poissons Ratio (x) = 0.21759 0.27995
# Poissons Ratio (y) = 0.23234 0.38232
# Poissons Ratio (z) = 0.25788 0.32981
#
# Static dielectric constant tensor:
#      x y z
#    x 1.703000 0.000000 0.038260 
#    y 0.000000 1.679730 0.000000 
#    z 0.038260 0.000000 1.774930 
# 
# From -- ./inp_files/12837.got.cif
#   From: 2010.05.17/outbox.cif.g08.bks.cpg/sg13_7_cif.got.tgz:12837.got - 2010.06.03 16:44:36.
