data_PCOD9232636
_publ_section_title
;
Structure prediction by ZEFSAII (Michael W. Deem and Ramdas Pophale) SiO2 
 PCOD9232636
Probable space group: P 2/C
;
_chemical_formula_sum "Si O2"
_cell_formula_units_Z 32
_cell_length_a 10.946151
_cell_length_b 9.861059
_cell_length_c 19.092998
_cell_angle_alpha 90.000000
_cell_angle_beta 50.209202
_cell_angle_gamma 90.000000
_cell_volume 1583.575386
_symmetry_space_group_name_H-M "P 2/C"
_symmetry_group_IT_number 13
_symmetry_cell_setting 'monoclinic'
loop_
_space_group_symop_operation_xyz
x,y,z
-x,y,1/2-z
-x,-y,-z
x,-y,1/2+z
loop_
_atom_site_type_symbol
_atom_site_label
_atom_site_fract_x
_atom_site_fract_y
_atom_site_fract_z
Si Si1 0.459888 0.383155 0.847295
Si Si2 0.050852 0.756744 0.659276
Si Si3 0.249516 0.087035 0.273941
Si Si4 0.828242 0.156575 0.040046
Si Si5 0.508806 0.688431 0.662502
Si Si6 0.728564 0.010637 0.454202
Si Si7 0.079930 0.363857 0.999734
Si Si8 0.597655 0.873059 0.371359
O O1 0.500000 0.365264 0.750000
O O2 0.510281 0.533834 0.853805
O O3 0.545296 0.274300 0.865564
O O4 0.268957 0.367163 0.921574
O O5 0.045851 0.658822 0.594605
O O6 0.000000 0.687317 0.750000
O O7 0.917345 0.871779 0.697408
O O8 0.210629 0.846137 0.598820
O O9 0.229959 0.094507 0.364659
O O10 0.372527 0.201017 0.199412
O O11 0.312390 0.944267 0.225492
O O12 0.680981 0.257013 0.075814
O O13 0.988786 0.239699 0.995200
O O14 0.840778 0.047718 0.974005
O O15 0.500000 0.678329 0.750000
O O16 0.702103 0.900961 0.402545
O O17 0.562506 0.043051 0.552941
O O18 0.000000 0.500000 0.000000
#
# Coordination Sequence:
#
# PCOD9232636 Si02
#       8
#     4   4   4   4   4   4   4   4
#     4  11  24  39  65  97 134 171 216 278 339 388
#     4  11  23  42  66  94 129 176 219 267 336 401
#     4  10  21  37  68  94 123 172 223 267 317 401
#     4  10  21  37  68  91 126 169 215 270 324 393
#     4   9  18  37  59  92 123 163 212 260 325 387
#     4  11  23  40  60  92 130 166 215 270 327 387
#     4  11  23  43  68  96 129 168 227 276 322 395
#     4  11  23  39  61  93 132 167 210 274 325 387
#
# _framework density 20.207436999999999
#
# number of rings (size 3 to 8) (size 9 to 14) (size 15 to 20)
#    0.000    1.500    5.000    0.000    3.500    3.000 
#    0.000    1.875    0.000    0.000    0.000    0.000 
#    0.000    0.000    0.000    0.000    0.000    0.000 
#
# Total GULP energy -178638.698510 kJ/mol
# GULP energy per Si atom -5582.459328 kJ/mol
# Density = 2.016144 g / cm^3
# Si number density = 20.207437 Si / 1000 Ang^3
#
#
#
# Elastic Constant Matrix: (Units=GPa)
#
#
# Indices 1 2 3 4 5 6 
#
# 1 52.1371 11.1585 19.9387 0.0000 5.4455 0.0000
# 2 11.1585 63.9807 27.0622 0.0000 6.8208 0.0000
# 3 19.9387 27.0622 78.7523 0.0000 3.3017 0.0000
# 4 0.0000 0.0000 0.0000 20.3535 0.0000 3.2270
# 5 5.4455 6.8208 3.3017 0.0000 35.1021 0.0000
# 6 0.0000 0.0000 0.0000 3.2270 0.0000 24.7744
#
#
#
# Elastic Compliance Matrix: (Units=1/GPa)
#
#
# Indices 1 2 3 4 5 6 
#
# 1 0.021624 -0.001431 -0.004873 0.000000 -0.002618 0.000000
# 2 -0.001431 0.018697 -0.005943 0.000000 -0.002852 0.000000
# 3 -0.004873 -0.005943 0.015957 0.000000 0.000410 0.000000
# 4 0.000000 0.000000 0.000000 0.050168 0.000000 -0.006535
# 5 -0.002618 -0.002852 0.000410 0.000000 0.029410 0.000000
# 6 0.000000 0.000000 0.000000 -0.006535 0.000000 0.041215
#
#
# Mechanical properties :
#
#
# Convention : Reuss Voigt Hill
#
# Bulk Modulus (GPa) = 31.46332 34.57657 33.01994
# Shear Modulus (GPa) = 23.56715 25.16005 24.36360
#
# Velocity S-wave (km/s) = 3.41876 3.53241 3.47605
# Velocity P-wave (km/s) = 5.58461 5.81250 5.69970
#
# Compressibility (1/GPa) = 0.03178305
#
# Stress axis : x y z
#
# Youngs Moduli (GPa) = 46.24589 53.48413 62.66852
#
# Poissons Ratio (x) = 0.07653 0.30540
# Poissons Ratio (y) = 0.06617 0.37245
# Poissons Ratio (z) = 0.22537 0.31787
#
# Static dielectric constant tensor:
#      x y z
#    x 1.745540 0.000000 0.000680 
#    y 0.000000 1.729110 0.000000 
#    z 0.000680 0.000000 1.725910 
# 
# From -- ./inp_files/78260.got.cif
#   From: 2010.05.17/outbox.cif.g08.bks.cpg/sg13_40_cif.got.tgz:78260.got - 2010.06.03 16:44:36.
