data_PCOD9232633
_publ_section_title
;
Structure prediction by ZEFSAII (Michael W. Deem and Ramdas Pophale) SiO2 
 PCOD9232633
Probable space group: P 2/C
;
_chemical_formula_sum "Si O2"
_cell_formula_units_Z 28
_cell_length_a 11.241920
_cell_length_b 8.447720
_cell_length_c 14.578893
_cell_angle_alpha 90.000000
_cell_angle_beta 115.830898
_cell_angle_gamma 90.000000
_cell_volume 1246.199460
_symmetry_space_group_name_H-M "P 2/C"
_symmetry_group_IT_number 13
_symmetry_cell_setting 'monoclinic'
loop_
_space_group_symop_operation_xyz
x,y,z
-x,y,1/2-z
-x,-y,-z
x,-y,1/2+z
loop_
_atom_site_type_symbol
_atom_site_label
_atom_site_fract_x
_atom_site_fract_y
_atom_site_fract_z
Si Si1 0.000000 0.745239 0.250000
Si Si2 0.828570 0.894169 0.481962
Si Si3 0.738621 0.787611 0.268790
Si Si4 0.847152 0.192258 0.187173
Si Si5 0.769198 0.419286 0.317112
Si Si6 0.500000 0.231870 0.250000
Si Si7 0.427252 0.992334 0.879456
Si Si8 0.909346 0.245393 0.527039
O O1 0.128169 0.825973 0.245338
O O2 0.062782 0.674826 0.364955
O O3 0.731494 0.878207 0.363483
O O4 0.817058 0.789581 0.569203
O O5 0.961533 0.826757 0.479380
O O6 0.832281 0.077861 0.515042
O O7 0.754227 0.604383 0.297930
O O8 0.608263 0.833566 0.169220
O O9 0.839313 0.342650 0.251625
O O10 0.000000 0.132630 0.250000
O O11 0.719444 0.087596 0.172562
O O12 0.626679 0.340192 0.279068
O O13 0.845957 0.365809 0.434264
O O14 0.488708 0.117577 0.159095
O O15 0.500000 0.000000 0.000000
#
# Coordination Sequence:
#
# PCOD9232633 Si02
#       8
#     2   4   4   4   4   2   4   4
#     4  10  24  38  68 108 146 178 234 296 354 442
#     4  10  21  37  67 102 135 179 242 298 351 427
#     4  11  26  43  70 108 142 190 231 298 378 438
#     4  11  23  43  73 104 138 186 248 303 356 436
#     4  11  25  46  68 100 148 189 230 299 379 432
#     4  10  26  50  68  96 142 184 250 296 340 440
#     4  11  27  47  75 107 137 194 249 308 356 428
#     4  10  21  37  66  98 138 183 230 296 355 412
#
# _framework density 22.468313999999999
#
# number of rings (size 3 to 8) (size 9 to 14) (size 15 to 20)
#    0.000    1.429    1.429    2.571   13.000    4.000 
#    0.000    1.429    0.000    0.000    0.000    0.000 
#    0.000    0.000    0.000    0.000    0.000    0.000 
#
# Total GULP energy -156223.498276 kJ/mol
# GULP energy per Si atom -5579.410653 kJ/mol
# Density = 2.241718 g / cm^3
# Si number density = 22.468314 Si / 1000 Ang^3
#
#
#
# Elastic Constant Matrix: (Units=GPa)
#
#
# Indices 1 2 3 4 5 6 
#
# 1 93.3517 38.0601 26.2879 0.0000 -3.5407 0.0000
# 2 38.0601 107.6379 54.4289 0.0000 5.2669 0.0000
# 3 26.2879 54.4289 179.9010 0.0000 -17.4718 0.0000
# 4 0.0000 0.0000 0.0000 21.0115 0.0000 3.0405
# 5 -3.5407 5.2669 -17.4718 0.0000 44.0249 0.0000
# 6 0.0000 0.0000 0.0000 3.0405 0.0000 22.7747
#
#
#
# Elastic Compliance Matrix: (Units=1/GPa)
#
#
# Indices 1 2 3 4 5 6 
#
# 1 0.012645 -0.004335 -0.000403 0.000000 0.001376 0.000000
# 2 -0.004335 0.012781 -0.003553 0.000000 -0.003288 0.000000
# 3 -0.000403 -0.003553 0.007000 0.000000 0.003171 0.000000
# 4 0.000000 0.000000 0.000000 0.048530 0.000000 -0.006479
# 5 0.001376 -0.003288 0.003171 0.000000 0.024477 0.000000
# 6 0.000000 0.000000 0.000000 -0.006479 0.000000 0.044773
#
#
# Mechanical properties :
#
#
# Convention : Reuss Voigt Hill
#
# Bulk Modulus (GPa) = 63.10915 68.71603 65.91259
# Shear Modulus (GPa) = 29.05818 35.03646 32.04732
#
# Velocity S-wave (km/s) = 3.60014 3.95317 3.78078
# Velocity P-wave (km/s) = 6.74021 7.17542 6.96122
#
# Compressibility (1/GPa) = 0.01584556
#
# Stress axis : x y z
#
# Youngs Moduli (GPa) = 79.08182 78.24415 142.85289
#
# Poissons Ratio (x) = 0.33919 0.05751
# Poissons Ratio (y) = 0.34282 0.50749
# Poissons Ratio (z) = 0.03184 0.27797
#
# Static dielectric constant tensor:
#      x y z
#    x 1.896220 0.000000 0.026500 
#    y 0.000000 1.832050 0.000000 
#    z 0.026500 0.000000 1.834280 
# 
# From -- ./inp_files/50484.got.cif
#   From: 2010.05.17/outbox.cif.g08.bks.cpg/sg13_26_cif.got.tgz:50484.got - 2010.06.03 16:44:36.
