data_PCOD9232885
_publ_section_title
;
Structure prediction by ZEFSAII (Michael W. Deem and Ramdas Pophale) SiO2 
 PCOD9232885
Probable space group: P 2/C
;
_chemical_formula_sum "Si O2"
_cell_formula_units_Z 28
_cell_length_a 7.837737
_cell_length_b 7.934505
_cell_length_c 28.884702
_cell_angle_alpha 90.000000
_cell_angle_beta 46.411731
_cell_angle_gamma 90.000000
_cell_volume 1301.082157
_symmetry_space_group_name_H-M "P 2/C"
_symmetry_group_IT_number 13
_symmetry_cell_setting 'monoclinic'
loop_
_space_group_symop_operation_xyz
x,y,z
-x,y,1/2-z
-x,-y,-z
x,-y,1/2+z
loop_
_atom_site_type_symbol
_atom_site_label
_atom_site_fract_x
_atom_site_fract_y
_atom_site_fract_z
Si Si1 0.845315 0.769709 0.982570
Si Si2 0.291858 0.764615 0.388893
Si Si3 0.629460 0.190014 0.432197
Si Si4 0.181282 0.388335 0.549199
Si Si5 0.616631 0.878238 0.616333
Si Si6 0.613930 0.460943 0.304466
Si Si7 0.933372 0.533309 0.835358
O O1 0.720080 0.877118 0.964889
O O2 0.868334 0.574462 0.962046
O O3 0.106978 0.838669 0.942588
O O4 0.698028 0.761405 0.057172
O O5 0.016873 0.740647 0.430143
O O6 0.422347 0.607645 0.341484
O O7 0.394841 0.944374 0.355254
O O8 0.512410 0.104419 0.409439
O O9 0.858085 0.284418 0.368832
O O10 0.433555 0.327307 0.484512
O O11 0.150046 0.404136 0.609952
O O12 0.503765 0.720860 0.664656
O O13 0.779178 0.492189 0.318410
O O14 0.791778 0.469850 0.228185
#
# Coordination Sequence:
#
# PCOD9232885 Si02
#       7
#     4   4   4   4   4   4   4
#     4  11  20  38  61  92 126 162 203 253 317 363
#     4  12  23  37  64  94 126 165 204 257 315 372
#     4  10  21  38  65  95 123 161 210 260 308 375
#     4  11  20  37  66  93 126 158 210 258 312 376
#     4  11  23  41  61  94 126 163 211 253 310 376
#     4  10  21  43  65  84 126 167 207 261 308 368
#     4   9  20  39  66  91 116 169 213 251 318 370
#
# _framework density 21.520547000000001
#
# number of rings (size 3 to 8) (size 9 to 14) (size 15 to 20)
#    0.000    1.429    2.857    5.143    0.000    1.143 
#    2.571    5.714    9.429    0.000    0.000    0.000 
#    0.000    0.000    0.000    0.000    0.000    0.000 
#
# Total GULP energy -156400.404116 kJ/mol
# GULP energy per Si atom -5585.728718 kJ/mol
# Density = 2.147157 g / cm^3
# Si number density = 21.520547 Si / 1000 Ang^3
#
#
#
# Elastic Constant Matrix: (Units=GPa)
#
#
# Indices 1 2 3 4 5 6 
#
# 1 68.8296 16.3703 10.1729 0.0000 -8.6622 0.0000
# 2 16.3703 85.0258 30.8921 0.0000 -2.6936 0.0000
# 3 10.1729 30.8921 112.8037 0.0000 -14.3312 0.0000
# 4 0.0000 0.0000 0.0000 3.8714 0.0000 -1.1915
# 5 -8.6622 -2.6936 -14.3312 0.0000 25.3290 0.0000
# 6 0.0000 0.0000 0.0000 -1.1915 0.0000 22.5327
#
#
#
# Elastic Compliance Matrix: (Units=1/GPa)
#
#
# Indices 1 2 3 4 5 6 
#
# 1 0.015860 -0.002896 0.000014 0.000000 0.005124 0.000000
# 2 -0.002896 0.013601 -0.003669 0.000000 -0.001620 0.000000
# 3 0.000014 -0.003669 0.010580 0.000000 0.005601 0.000000
# 4 0.000000 0.000000 0.000000 0.262579 0.000000 0.013885
# 5 0.005124 -0.001620 0.005601 0.000000 0.044229 0.000000
# 6 0.000000 0.000000 0.000000 0.013885 0.000000 0.045114
#
#
# Mechanical properties :
#
#
# Convention : Reuss Voigt Hill
#
# Bulk Modulus (GPa) = 37.12302 42.39217 39.75759
# Shear Modulus (GPa) = 12.07595 24.29489 18.18542
#
# Velocity S-wave (km/s) = 2.37140 3.36358 2.91009
# Velocity P-wave (km/s) = 4.97851 5.90137 5.45947
#
# Compressibility (1/GPa) = 0.02693747
#
# Stress axis : x y z
#
# Youngs Moduli (GPa) = 63.05052 73.52630 94.51698
#
# Poissons Ratio (x) = 0.21296 -0.00131
# Poissons Ratio (y) = 0.18262 0.34681
# Poissons Ratio (z) = -0.00087 0.26979
#
# Static dielectric constant tensor:
#      x y z
#    x 1.837120 0.000000 0.018010 
#    y 0.000000 1.801090 0.000000 
#    z 0.018010 0.000000 1.759860 
# 
# From -- ./inp_files/95929.got.cif
#   From: 2010.05.17/outbox.cif.g08.bks.cpg/sg13_48_cif.got.tgz:95929.got - 2010.06.03 16:44:36.
