data_PCOD9232093
_publ_section_title
;
Structure prediction by ZEFSAII (Michael W. Deem and Ramdas Pophale) SiO2 
 PCOD9232093
Probable space group: P 2/C
;
_chemical_formula_sum "Si O2"
_cell_formula_units_Z 26
_cell_length_a 5.161178
_cell_length_b 11.353707
_cell_length_c 24.885198
_cell_angle_alpha 90.000000
_cell_angle_beta 58.392214
_cell_angle_gamma 90.000000
_cell_volume 1241.914474
_symmetry_space_group_name_H-M "P 2/C"
_symmetry_group_IT_number 13
_symmetry_cell_setting 'monoclinic'
loop_
_space_group_symop_operation_xyz
x,y,z
-x,y,1/2-z
-x,-y,-z
x,-y,1/2+z
loop_
_atom_site_type_symbol
_atom_site_label
_atom_site_fract_x
_atom_site_fract_y
_atom_site_fract_z
Si Si1 0.536940 0.053926 0.128189
Si Si2 0.121477 0.174808 0.952448
Si Si3 0.229698 0.750374 0.815119
Si Si4 0.044610 0.550319 0.583228
Si Si5 0.560099 0.132999 0.476904
Si Si6 0.575544 0.409515 0.567521
Si Si7 0.000000 0.070193 0.250000
O O1 0.659308 0.160776 0.150550
O O2 0.273690 0.997993 0.194074
O O3 0.763999 0.948709 0.085562
O O4 0.398956 0.117867 0.090598
O O5 0.172112 0.166434 0.011610
O O6 0.342547 0.283559 0.915410
O O7 0.765946 0.197749 0.978873
O O8 0.500000 0.691217 0.750000
O O9 0.099269 0.840940 0.785790
O O10 0.023714 0.653701 0.867113
O O11 0.232229 0.447738 0.593090
O O12 0.255381 0.586573 0.509284
O O13 0.737756 0.505111 0.588246
O O14 0.500000 0.000000 0.500000
#
# Coordination Sequence:
#
# PCOD9232093 Si02
#       7
#     4   4   4   4   4   4   2
#     4  10  22  36  60  88 126 156 200 252 303 378
#     4  11  22  38  61  92 131 157 203 244 313 383
#     4  10  23  40  62  91 117 165 208 261 308 358
#     4  10  22  39  63  86 129 151 211 254 305 362
#     4  10  21  33  58  92 124 162 191 242 301 360
#     4  10  22  38  61  95 117 169 191 254 319 365
#     4  10  24  38  60  90 116 166 208 242 322 344
#
# _framework density 20.935419
#
# number of rings (size 3 to 8) (size 9 to 14) (size 15 to 20)
#    0.000    1.846    0.000    3.692   12.923    1.231 
#    0.000    0.000    3.385    0.000    0.000    0.000 
#    0.000    0.000    0.000    0.000    0.000    0.000 
#
# Total GULP energy -144948.871904 kJ/mol
# GULP energy per Si atom -5574.956612 kJ/mol
# Density = 2.088777 g / cm^3
# Si number density = 20.935419 Si / 1000 Ang^3
#
#
#
# Elastic Constant Matrix: (Units=GPa)
#
#
# Indices 1 2 3 4 5 6 
#
# 1 81.6014 10.2100 38.0531 0.0000 9.1637 0.0000
# 2 10.2100 74.3644 21.4056 0.0000 5.1383 0.0000
# 3 38.0531 21.4056 112.1882 0.0000 5.6985 0.0000
# 4 0.0000 0.0000 0.0000 27.8869 0.0000 -6.7346
# 5 9.1637 5.1383 5.6985 0.0000 33.9307 0.0000
# 6 0.0000 0.0000 0.0000 -6.7346 0.0000 19.1843
#
#
#
# Elastic Compliance Matrix: (Units=1/GPa)
#
#
# Indices 1 2 3 4 5 6 
#
# 1 0.014908 -0.000444 -0.004812 0.000000 -0.003151 0.000000
# 2 -0.000444 0.014341 -0.002503 0.000000 -0.001632 0.000000
# 3 -0.004812 -0.002503 0.011032 0.000000 -0.000174 0.000000
# 4 0.000000 0.000000 0.000000 0.039181 0.000000 0.013754
# 5 -0.003151 -0.001632 -0.000174 0.000000 0.030599 0.000000
# 6 0.000000 0.000000 0.000000 0.013754 0.000000 0.056955
#
#
# Mechanical properties :
#
#
# Convention : Reuss Voigt Hill
#
# Bulk Modulus (GPa) = 40.38114 45.27680 42.82897
# Shear Modulus (GPa) = 26.20706 29.43273 27.81989
#
# Velocity S-wave (km/s) = 3.54192 3.75358 3.64929
# Velocity P-wave (km/s) = 6.00477 6.36079 6.18534
#
# Compressibility (1/GPa) = 0.02476404
#
# Stress axis : x y z
#
# Youngs Moduli (GPa) = 67.07812 69.72797 90.64428
#
# Poissons Ratio (x) = 0.03096 0.43617
# Poissons Ratio (y) = 0.02978 0.22687
# Poissons Ratio (z) = 0.32277 0.17452
#
# Static dielectric constant tensor:
#      x y z
#    x 1.757920 0.000000 -0.105950 
#    y 0.000000 1.781260 0.000000 
#    z -0.105950 0.000000 1.773500 
# 
# From -- ./inp_files/83652.got.cif
#   From: 2010.05.17/outbox.cif.g08.bks.cpg/sg13_42_cif.got.tgz:83652.got - 2010.06.03 16:44:36.
