data_PCOD9232486
_publ_section_title
;
Structure prediction by ZEFSAII (Michael W. Deem and Ramdas Pophale) SiO2 
 PCOD9232486
Probable space group: P 2/C
;
_chemical_formula_sum "Si O2"
_cell_formula_units_Z 20
_cell_length_a 8.434449
_cell_length_b 13.779239
_cell_length_c 10.998634
_cell_angle_alpha 90.000000
_cell_angle_beta 127.919105
_cell_angle_gamma 90.000000
_cell_volume 1008.396225
_symmetry_space_group_name_H-M "P 2/C"
_symmetry_group_IT_number 13
_symmetry_cell_setting 'monoclinic'
loop_
_space_group_symop_operation_xyz
x,y,z
-x,y,1/2-z
-x,-y,-z
x,-y,1/2+z
loop_
_atom_site_type_symbol
_atom_site_label
_atom_site_fract_x
_atom_site_fract_y
_atom_site_fract_z
Si Si1 0.619762 0.307736 0.934815
Si Si2 0.613556 0.904342 0.429174
Si Si3 0.632626 0.298750 0.434303
Si Si4 0.122489 0.502789 0.433453
Si Si5 0.216892 0.899786 0.415963
O O1 0.500000 0.314518 0.750000
O O2 0.720550 0.200811 0.980046
O O3 0.486680 0.303251 0.994080
O O4 0.751503 0.403491 0.008843
O O5 0.500000 0.917665 0.250000
O O6 0.423412 0.900690 0.432568
O O7 0.763097 0.994166 0.514973
O O8 0.500000 0.298487 0.250000
O O9 0.755013 0.398010 0.496599
O O10 0.758634 0.198394 0.494234
O O11 0.000000 0.507198 0.250000
O O12 0.000000 0.500000 0.500000
O O13 0.000000 0.893415 0.250000
#
# Coordination Sequence:
#
# PCOD9232486 Si02
#       5
#     4   4   4   4   4
#     4  10  21  40  61  81 115 158 194 234 292 355
#     4   9  20  38  58  84 117 156 196 239 296 355
#     4  11  22  39  61  84 117 158 197 238 295 357
#     4  12  24  38  59  89 119 148 196 249 295 350
#     4  10  21  37  59  87 118 153 197 246 293 349
#
# _framework density 19.833475
#
# number of rings (size 3 to 8) (size 9 to 14) (size 15 to 20)
#    0.000    1.600    0.000    4.800    0.000    4.800 
#    0.000    2.000    0.000    0.000    0.000    0.000 
#    0.000    0.000    0.000    0.000    0.000    0.000 
#
# Total GULP energy -111448.244845 kJ/mol
# GULP energy per Si atom -5572.412242 kJ/mol
# Density = 1.978833 g / cm^3
# Si number density = 19.833475 Si / 1000 Ang^3
#
#
#
# Elastic Constant Matrix: (Units=GPa)
#
#
# Indices 1 2 3 4 5 6 
#
# 1 52.9093 49.9646 37.2952 0.0000 -13.2023 0.0000
# 2 49.9646 272.4860 122.6892 0.0000 20.4221 0.0000
# 3 37.2952 122.6892 161.8965 0.0000 -5.9110 0.0000
# 4 0.0000 0.0000 0.0000 34.6167 0.0000 -28.4585
# 5 -13.2023 20.4221 -5.9110 0.0000 30.4524 0.0000
# 6 0.0000 0.0000 0.0000 -28.4585 0.0000 -46.7741
#
#
#
# Elastic Compliance Matrix: (Units=1/GPa)
#
#
# Indices 1 2 3 4 5 6 
#
# 1 0.029887 -0.005912 -0.001799 0.000000 0.016573 0.000000
# 2 -0.005912 0.007459 -0.004599 0.000000 -0.008458 0.000000
# 3 -0.001799 -0.004599 0.010233 0.000000 0.004291 0.000000
# 4 0.000000 0.000000 0.000000 0.019256 0.000000 -0.011716
# 5 0.016573 -0.008458 0.004291 0.000000 0.046528 0.000000
# 6 0.000000 0.000000 0.000000 -0.011716 0.000000 -0.014251
#
#
# Mechanical properties :
#
#
# Convention : Reuss Voigt Hill
#
# Bulk Modulus (GPa) = 43.55870 100.79885 72.17877
# Shear Modulus (GPa) = 38.05557 22.14851 30.10204
#
# Velocity S-wave (km/s) = 4.38511 3.34537 3.90004
# Velocity P-wave (km/s) = 6.90281 8.11510 7.53338
#
# Compressibility (1/GPa) = 0.02295753
#
# Stress axis : x y z
#
# Youngs Moduli (GPa) = 33.45920 134.07026 97.71878
#
# Poissons Ratio (x) = 0.79264 0.17584
# Poissons Ratio (y) = 0.19782 0.44944
# Poissons Ratio (z) = 0.06021 0.61663
#
# Static dielectric constant tensor:
#      x y z
#    x 1.773010 0.000000 -0.010710 
#    y 0.000000 1.766410 0.000000 
#    z -0.010710 0.000000 1.657280 
# 
# From -- ./inp_files/29256.got.cif
#   From: 2010.05.17/outbox.cif.g08.bks.cpg/sg13_15_cif.got.tgz:29256.got - 2010.06.03 16:44:36.
