data_PCOD9232142
_publ_section_title
;
Structure prediction by ZEFSAII (Michael W. Deem and Ramdas Pophale) SiO2 
 PCOD9232142
Probable space group: P 2/C
;
_chemical_formula_sum "Si O2"
_cell_formula_units_Z 28
_cell_length_a 9.310932
_cell_length_b 7.292689
_cell_length_c 27.322808
_cell_angle_alpha 90.000000
_cell_angle_beta 138.722902
_cell_angle_gamma 90.000000
_cell_volume 1223.921415
_symmetry_space_group_name_H-M "P 2/C"
_symmetry_group_IT_number 13
_symmetry_cell_setting 'monoclinic'
loop_
_space_group_symop_operation_xyz
x,y,z
-x,y,1/2-z
-x,-y,-z
x,-y,1/2+z
loop_
_atom_site_type_symbol
_atom_site_label
_atom_site_fract_x
_atom_site_fract_y
_atom_site_fract_z
Si Si1 0.022767 0.271580 0.910631
Si Si2 0.567132 0.864001 0.449683
Si Si3 0.502563 0.262847 0.041007
Si Si4 0.925747 0.797995 0.181206
Si Si5 0.002180 0.717866 0.988253
Si Si6 0.246120 0.361303 0.169732
Si Si7 0.040708 0.380502 0.313355
O O1 0.026561 0.143435 0.863045
O O2 0.838111 0.427511 0.859607
O O3 0.269061 0.358931 0.972921
O O4 0.012747 0.186494 0.962190
O O5 0.591379 0.815905 0.512879
O O6 0.331518 0.786291 0.377081
O O7 0.765267 0.775388 0.472667
O O8 0.545418 0.082886 0.439125
O O9 0.700666 0.375251 0.112698
O O10 0.026714 0.594091 0.206331
O O11 0.000000 0.894358 0.250000
O O12 0.823346 0.738627 0.898980
O O13 0.000000 0.500000 0.000000
O O14 0.500000 0.350959 0.250000
O O15 0.096565 0.296656 0.177211
O O16 0.000000 0.297693 0.250000
#
# Coordination Sequence:
#
# PCOD9232142 Si02
#       7
#     4   4   4   4   4   4   4
#     4   9  21  35  58  87 117 158 201 252 305 372
#     4  10  21  38  60  85 120 162 201 251 310 369
#     4  10  21  38  60  87 120 158 207 254 303 371
#     4   9  20  36  59  88 119 154 204 262 306 358
#     4  10  21  35  58  89 118 158 199 252 307 364
#     4  10  21  36  55  87 124 155 195 255 315 369
#     4  10  21  34  60  90 118 153 204 258 307 362
#
# _framework density 22.877285000000001
#
# number of rings (size 3 to 8) (size 9 to 14) (size 15 to 20)
#    0.000    2.286    1.429    0.000    6.000    8.571 
#    0.000    0.000    0.000    0.857    0.000    0.000 
#    0.000    0.000    0.000    0.000    0.000    0.000 
#
# Total GULP energy -156073.366995 kJ/mol
# GULP energy per Si atom -5574.048821 kJ/mol
# Density = 2.282522 g / cm^3
# Si number density = 22.877285 Si / 1000 Ang^3
#
#
#
# Elastic Constant Matrix: (Units=GPa)
#
#
# Indices 1 2 3 4 5 6 
#
# 1 161.6092 24.2477 70.6184 0.0000 -16.1328 0.0000
# 2 24.2477 67.6155 17.3452 0.0000 0.1392 0.0000
# 3 70.6184 17.3452 147.4793 0.0000 -19.3593 0.0000
# 4 0.0000 0.0000 0.0000 446.6374 0.0000 133.7968
# 5 -16.1328 0.1392 -19.3593 0.0000 44.4063 0.0000
# 6 0.0000 0.0000 0.0000 133.7968 0.0000 44.3787
#
#
#
# Elastic Compliance Matrix: (Units=1/GPa)
#
#
# Indices 1 2 3 4 5 6 
#
# 1 0.008157 -0.002037 -0.003475 0.000000 0.001455 0.000000
# 2 -0.002037 0.015791 -0.001045 0.000000 -0.001245 0.000000
# 3 -0.003475 -0.001045 0.008912 0.000000 0.002626 0.000000
# 4 0.000000 0.000000 0.000000 0.023119 0.000000 -0.069701
# 5 0.001455 -0.001245 0.002626 0.000000 0.024197 0.000000
# 6 0.000000 0.000000 0.000000 -0.069701 0.000000 0.232674
#
#
# Mechanical properties :
#
#
# Convention : Reuss Voigt Hill
#
# Bulk Modulus (GPa) = 50.64513 66.79186 58.71850
# Shear Modulus (GPa) = 15.03550 124.71732 69.87641
#
# Velocity S-wave (km/s) = 2.56642 7.39149 5.53266
# Velocity P-wave (km/s) = 5.56487 10.10468 8.15697
#
# Compressibility (1/GPa) = 0.01974523
#
# Stress axis : x y z
#
# Youngs Moduli (GPa) = 122.59017 63.32872 112.20236
#
# Poissons Ratio (x) = 0.12898 0.38996
# Poissons Ratio (y) = 0.24968 0.11729
# Poissons Ratio (z) = 0.42606 0.06620
#
# Static dielectric constant tensor:
#      x y z
#    x 1.909920 0.000000 -0.095280 
#    y 0.000000 1.899930 0.000000 
#    z -0.095280 0.000000 1.901280 
# 
# From -- ./inp_files/91336.got.cif
#   From: 2010.05.17/outbox.cif.g08.bks.cpg/sg13_46_cif.got.tgz:91336.got - 2010.06.03 16:44:36.
