data_PCOD9232580
_publ_section_title
;
Structure prediction by ZEFSAII (Michael W. Deem and Ramdas Pophale) SiO2 
 PCOD9232580
Probable space group: P 2/C
;
_chemical_formula_sum "Si O2"
_cell_formula_units_Z 22
_cell_length_a 8.249217
_cell_length_b 9.175276
_cell_length_c 16.823994
_cell_angle_alpha 90.000000
_cell_angle_beta 130.091457
_cell_angle_gamma 90.000000
_cell_volume 974.164506
_symmetry_space_group_name_H-M "P 2/C"
_symmetry_group_IT_number 13
_symmetry_cell_setting 'monoclinic'
loop_
_space_group_symop_operation_xyz
x,y,z
-x,y,1/2-z
-x,-y,-z
x,-y,1/2+z
loop_
_atom_site_type_symbol
_atom_site_label
_atom_site_fract_x
_atom_site_fract_y
_atom_site_fract_z
Si Si1 0.682336 0.582593 0.468334
Si Si2 0.939001 0.690083 0.813666
Si Si3 0.184148 0.802430 0.129626
Si Si4 0.766374 0.397072 0.706154
Si Si5 0.749474 0.745651 0.924165
Si Si6 0.500000 0.064568 0.250000
O O1 0.742289 0.705981 0.422416
O O2 0.438814 0.612546 0.413873
O O3 0.717470 0.422605 0.440304
O O4 0.846349 0.607279 0.590739
O O5 0.777678 0.561405 0.741355
O O6 0.850829 0.756158 0.867094
O O7 0.000000 0.769806 0.750000
O O8 0.258812 0.708441 0.227687
O O9 0.301521 0.954813 0.177652
O O10 0.928569 0.811907 0.039008
O O11 0.000000 0.361667 0.750000
O O12 0.532875 0.834545 0.839398
#
# Coordination Sequence:
#
# PCOD9232580 Si02
#       6
#     4   4   4   4   4   2
#     4  11  20  40  69  90 123 162 208 260 311 363
#     4  10  21  37  62  98 126 154 200 269 314 362
#     4  11  21  42  64  91 124 166 212 253 304 371
#     4  11  21  35  61  95 122 158 200 259 311 366
#     4  11  22  40  65  97 122 162 212 260 303 365
#     4  12  24  36  66  90 126 170 214 246 304 370
#
# _framework density 22.583452999999999
#
# number of rings (size 3 to 8) (size 9 to 14) (size 15 to 20)
#    0.000    1.091    5.455    2.727    0.000    2.909 
#    3.273    0.909    0.000    4.364    0.000    0.000 
#    0.000    0.000    0.000    0.000    0.000    0.000 
#
# Total GULP energy -122723.665613 kJ/mol
# GULP energy per Si atom -5578.348437 kJ/mol
# Density = 2.253205 g / cm^3
# Si number density = 22.583453 Si / 1000 Ang^3
#
#
#
# Elastic Constant Matrix: (Units=GPa)
#
#
# Indices 1 2 3 4 5 6 
#
# 1 54.7533 23.0004 17.3044 0.0000 4.7016 0.0000
# 2 23.0004 81.6777 31.3981 0.0000 1.1757 0.0000
# 3 17.3044 31.3981 141.6156 0.0000 32.4960 0.0000
# 4 0.0000 0.0000 0.0000 26.4748 0.0000 17.7069
# 5 4.7016 1.1757 32.4960 0.0000 50.3217 0.0000
# 6 0.0000 0.0000 0.0000 17.7069 0.0000 9.4172
#
#
#
# Elastic Compliance Matrix: (Units=1/GPa)
#
#
# Indices 1 2 3 4 5 6 
#
# 1 0.021008 -0.005479 -0.001093 0.000000 -0.001129 0.000000
# 2 -0.005479 0.014967 -0.003153 0.000000 0.002199 0.000000
# 3 -0.001093 -0.003153 0.009220 0.000000 -0.005778 0.000000
# 4 0.000000 0.000000 0.000000 -0.146649 0.000000 0.275740
# 5 -0.001129 0.002199 -0.005778 0.000000 0.023658 0.000000
# 6 0.000000 0.000000 0.000000 0.275740 0.000000 -0.412277
#
#
# Mechanical properties :
#
#
# Convention : Reuss Voigt Hill
#
# Bulk Modulus (GPa) = 38.84544 46.82803 42.83673
# Shear Modulus (GPa) = -10.82154 30.99901 10.08874
#
# Velocity S-wave (km/s) = -2.19139 3.70894 2.11590
# Velocity P-wave (km/s) = 3.29169 6.25477 4.99787
#
# Compressibility (1/GPa) = 0.02574305
#
# Stress axis : x y z
#
# Youngs Moduli (GPa) = 47.60127 66.81486 108.46046
#
# Poissons Ratio (x) = 0.36610 0.11856
# Poissons Ratio (y) = 0.26082 0.34201
# Poissons Ratio (z) = 0.05203 0.21069
#
# Static dielectric constant tensor:
#      x y z
#    x 1.971520 0.000000 0.046600 
#    y 0.000000 1.860550 0.000000 
#    z 0.046600 0.000000 1.860630 
# 
# From -- ./inp_files/63972.got.cif
#   From: 2010.05.17/outbox.cif.g08.bks.cpg/sg13_32_cif.got.tgz:63972.got - 2010.06.03 16:44:36.
