data_PCOD9232882
_publ_section_title
;
Structure prediction by ZEFSAII (Michael W. Deem and Ramdas Pophale) SiO2 
 PCOD9232882
Probable space group: P 2/C
;
_chemical_formula_sum "Si O2"
_cell_formula_units_Z 18
_cell_length_a 4.795830
_cell_length_b 8.669203
_cell_length_c 18.745251
_cell_angle_alpha 90.000000
_cell_angle_beta 124.231622
_cell_angle_gamma 90.000000
_cell_volume 644.345861
_symmetry_space_group_name_H-M "P 2/C"
_symmetry_group_IT_number 13
_symmetry_cell_setting 'monoclinic'
loop_
_space_group_symop_operation_xyz
x,y,z
-x,y,1/2-z
-x,-y,-z
x,-y,1/2+z
loop_
_atom_site_type_symbol
_atom_site_label
_atom_site_fract_x
_atom_site_fract_y
_atom_site_fract_z
Si Si1 0.156953 0.381640 0.154180
Si Si2 0.476749 0.908153 0.070354
Si Si3 0.489906 0.565585 0.082310
Si Si4 0.000000 0.612031 0.250000
Si Si5 0.851936 0.035029 0.340770
O O1 0.500000 0.377953 0.250000
O O2 0.263127 0.440359 0.092509
O O3 0.015619 0.211195 0.146031
O O4 0.924836 0.509181 0.163485
O O5 0.361181 0.735707 0.041859
O O6 0.249324 0.997319 0.093502
O O7 0.874061 0.916997 0.149403
O O8 0.500000 0.000000 0.000000
O O9 0.625051 0.662228 0.188460
O O10 0.500000 0.500000 0.000000
O O11 0.500000 0.028149 0.250000
#
# Coordination Sequence:
#
# PCOD9232882 Si02
#       5
#     4   4   4   2   4
#     4  10  21  39  67 101 132 167 223 299 336 399
#     4  12  28  48  66  99 151 188 223 281 349 412
#     4  10  21  38  65  93 130 177 223 266 348 399
#     4   8  20  32  68  86 140 148 234 270 350 356
#     4  12  26  43  74 105 134 174 237 293 346 398
#
# _framework density 27.935307000000002
#
# number of rings (size 3 to 8) (size 9 to 14) (size 15 to 20)
#    1.333    0.000    0.000    6.000    6.222    0.000 
#    0.000    6.667    0.000    0.000    0.000    0.000 
#    0.000    0.000    0.000    0.000    0.000    0.000 
#
# Total GULP energy -100322.618481 kJ/mol
# GULP energy per Si atom -5573.478805 kJ/mol
# Density = 2.787172 g / cm^3
# Si number density = 27.935307 Si / 1000 Ang^3
#
#
#
# Elastic Constant Matrix: (Units=GPa)
#
#
# Indices 1 2 3 4 5 6 
#
# 1 121.1986 11.5100 19.6597 0.0000 -24.8197 0.0000
# 2 11.5100 114.7787 13.2229 0.0000 -27.1951 0.0000
# 3 19.6597 13.2229 177.7508 0.0000 0.3271 0.0000
# 4 0.0000 0.0000 0.0000 29.5809 0.0000 0.0043
# 5 -24.8197 -27.1951 0.3271 0.0000 76.2628 0.0000
# 6 0.0000 0.0000 0.0000 0.0043 0.0000 47.9473
#
#
#
# Elastic Compliance Matrix: (Units=1/GPa)
#
#
# Indices 1 2 3 4 5 6 
#
# 1 0.009016 -0.000102 -0.000995 0.000000 0.002902 0.000000
# 2 -0.000102 0.009609 -0.000710 0.000000 0.003396 0.000000
# 3 -0.000995 -0.000710 0.005790 0.000000 -0.000602 0.000000
# 4 0.000000 0.000000 0.000000 0.033806 0.000000 -0.000003
# 5 0.002902 0.003396 -0.000602 0.000000 0.015271 0.000000
# 6 0.000000 0.000000 0.000000 -0.000003 0.000000 0.020856
#
#
# Mechanical properties :
#
#
# Convention : Reuss Voigt Hill
#
# Bulk Modulus (GPa) = 48.07240 55.83481 51.95361
# Shear Modulus (GPa) = 47.66653 55.38055 51.52354
#
# Velocity S-wave (km/s) = 4.13524 4.45731 4.29929
# Velocity P-wave (km/s) = 6.32820 6.82061 6.57901
#
# Compressibility (1/GPa) = 0.02080196
#
# Stress axis : x y z
#
# Youngs Moduli (GPa) = 110.90964 104.06747 172.71713
#
# Poissons Ratio (x) = 0.01060 0.17185
# Poissons Ratio (y) = 0.01130 0.12260
# Poissons Ratio (z) = 0.11035 0.07387
#
# Static dielectric constant tensor:
#      x y z
#    x 2.298580 0.000000 0.093510 
#    y 0.000000 2.490650 0.000000 
#    z 0.093510 0.000000 2.368900 
# 
# From -- ./inp_files/60773.got.cif
#   From: 2010.05.17/outbox.cif.g08.bks.cpg/sg13_31_cif.got.tgz:60773.got - 2010.06.03 16:44:36.
