data_PCOD9232530
_publ_section_title
;
Structure prediction by ZEFSAII (Michael W. Deem and Ramdas Pophale) SiO2 
 PCOD9232530
Probable space group: P 2/C
;
_chemical_formula_sum "Si O2"
_cell_formula_units_Z 24
_cell_length_a 14.323804
_cell_length_b 10.499960
_cell_length_c 21.940256
_cell_angle_alpha 90.000000
_cell_angle_beta 163.713007
_cell_angle_gamma 90.000000
_cell_volume 925.425173
_symmetry_space_group_name_H-M "P 2/C"
_symmetry_group_IT_number 13
_symmetry_cell_setting 'monoclinic'
loop_
_space_group_symop_operation_xyz
x,y,z
-x,y,1/2-z
-x,-y,-z
x,-y,1/2+z
loop_
_atom_site_type_symbol
_atom_site_label
_atom_site_fract_x
_atom_site_fract_y
_atom_site_fract_z
Si Si1 0.541552 0.233085 0.090884
Si Si2 0.259560 0.138493 0.542221
Si Si3 0.131590 0.574920 0.490153
Si Si4 0.425687 0.509866 0.054818
Si Si5 0.245948 0.145142 0.033666
Si Si6 0.615547 0.205079 0.007626
O O1 0.409178 0.377437 0.008863
O O2 0.411238 0.167794 0.070909
O O3 0.452036 0.169357 0.969885
O O4 0.943222 0.231005 0.345682
O O5 0.500000 0.158609 0.750000
O O6 0.478771 0.156438 0.618616
O O7 0.104261 0.996717 0.445632
O O8 0.500000 0.569204 0.750000
O O9 0.174939 0.503484 0.453385
O O10 0.056190 0.723486 0.428428
O O11 0.806483 0.519507 0.318366
O O12 0.370602 0.640924 0.985585
O O13 0.500000 0.140231 0.250000
O O14 0.000000 0.158673 0.250000
#
# Coordination Sequence:
#
# PCOD9232530 Si02
#       6
#     4   4   4   4   4   4
#     4  10  22  40  60  86 123 158 199 256 303 359
#     4  10  22  39  61  88 118 159 205 250 306 363
#     4  10  21  37  60  92 126 160 203 256 307 363
#     4  11  22  38  62  90 123 163 204 249 310 370
#     4   9  21  39  59  86 120 159 203 250 302 362
#     4  10  22  40  63  91 124 161 202 251 308 369
#
# _framework density 25.934025999999999
#
# number of rings (size 3 to 8) (size 9 to 14) (size 15 to 20)
#    0.000    2.000    0.000    3.000    0.000   11.333 
#    0.000    5.833    0.000    0.000    0.000    0.000 
#    0.000    0.000    0.000    0.000    0.000    0.000 
#
# Total GULP energy -134235.234572 kJ/mol
# GULP energy per Si atom -5593.134774 kJ/mol
# Density = 2.587500 g / cm^3
# Si number density = 25.934026 Si / 1000 Ang^3
#
#
#
# Elastic Constant Matrix: (Units=GPa)
#
#
# Indices 1 2 3 4 5 6 
#
# 1 139.7656 34.3833 40.1909 0.0000 -24.9810 0.0000
# 2 34.3833 99.2671 11.8730 0.0000 -0.0449 0.0000
# 3 40.1909 11.8730 107.8772 0.0000 -11.7690 0.0000
# 4 0.0000 0.0000 0.0000 20.6156 0.0000 15.6273
# 5 -24.9810 -0.0449 -11.7690 0.0000 51.3529 0.0000
# 6 0.0000 0.0000 0.0000 15.6273 0.0000 14.8910
#
#
#
# Elastic Compliance Matrix: (Units=1/GPa)
#
#
# Indices 1 2 3 4 5 6 
#
# 1 0.009360 -0.002913 -0.002739 0.000000 0.003923 0.000000
# 2 -0.002913 0.011118 -0.000299 0.000000 -0.001476 0.000000
# 3 -0.002739 -0.000299 0.010439 0.000000 0.001060 0.000000
# 4 0.000000 0.000000 0.000000 0.237207 0.000000 -0.248935
# 5 0.003923 -0.001476 0.001060 0.000000 0.021623 0.000000
# 6 0.000000 0.000000 0.000000 -0.248935 0.000000 0.328397
#
#
# Mechanical properties :
#
#
# Convention : Reuss Voigt Hill
#
# Bulk Modulus (GPa) = 52.59014 57.75603 55.17308
# Shear Modulus (GPa) = 7.85689 34.73609 21.29649
#
# Velocity S-wave (km/s) = 1.74245 3.66375 2.86873
# Velocity P-wave (km/s) = 4.93666 6.34162 5.68273
#
# Compressibility (1/GPa) = 0.01901497
#
# Stress axis : x y z
#
# Youngs Moduli (GPa) = 106.83644 89.94528 95.79745
#
# Poissons Ratio (x) = 0.26199 0.26235
# Poissons Ratio (y) = 0.31119 0.02869
# Poissons Ratio (z) = 0.29259 0.02694
#
# Static dielectric constant tensor:
#      x y z
#    x 1.986680 0.000000 -0.006100 
#    y 0.000000 1.965390 0.000000 
#    z -0.006100 0.000000 2.115520 
# 
# From -- ./inp_files/80197.got.cif
#   From: 2010.05.17/outbox.cif.g08.bks.cpg/sg13_41_cif.got.tgz:80197.got - 2010.06.03 16:44:36.
