data_PCOD9232425
_publ_section_title
;
Structure prediction by ZEFSAII (Michael W. Deem and Ramdas Pophale) SiO2 
 PCOD9232425
Probable space group: P 2/C
;
_chemical_formula_sum "Si O2"
_cell_formula_units_Z 30
_cell_length_a 14.048488
_cell_length_b 18.497594
_cell_length_c 5.347809
_cell_angle_alpha 90.000000
_cell_angle_beta 81.958833
_cell_angle_gamma 90.000000
_cell_volume 1376.035132
_symmetry_space_group_name_H-M "P 2/C"
_symmetry_group_IT_number 13
_symmetry_cell_setting 'monoclinic'
loop_
_space_group_symop_operation_xyz
x,y,z
-x,y,1/2-z
-x,-y,-z
x,-y,1/2+z
loop_
_atom_site_type_symbol
_atom_site_label
_atom_site_fract_x
_atom_site_fract_y
_atom_site_fract_z
Si Si1 0.827733 0.836986 0.847539
Si Si2 0.000000 0.048861 0.250000
Si Si3 0.162515 0.677947 0.567228
Si Si4 0.719587 0.665467 0.474391
Si Si5 0.698487 0.824282 0.395470
Si Si6 0.391392 0.030525 0.540593
Si Si7 0.459636 0.582465 0.014962
Si Si8 0.893097 0.475187 0.309153
O O1 0.876497 0.757863 0.868447
O O2 0.768967 0.835955 0.608209
O O3 0.906295 0.899633 0.805671
O O4 0.755903 0.838951 0.114547
O O5 0.000000 0.000000 0.500000
O O6 0.197811 0.669095 0.268208
O O7 0.098039 0.609002 0.642828
O O8 0.245130 0.668854 0.751687
O O9 0.665685 0.741287 0.432104
O O10 0.653202 0.596260 0.450778
O O11 0.615132 0.883654 0.443592
O O12 0.500000 0.000000 0.500000
O O13 0.343598 0.002978 0.303964
O O14 0.500000 0.616893 0.250000
O O15 0.500000 0.617531 0.750000
O O16 0.500000 0.500000 0.000000
O O17 0.843193 0.510439 0.565289
O O18 0.000000 0.509112 0.250000
#
# Coordination Sequence:
#
# PCOD9232425 Si02
#       8
#     4   2   4   4   4   4   4   4
#     4  10  23  40  64  89 123 165 202 246 302 362
#     4  12  26  42  62 100 132 160 210 250 302 370
#     4  10  21  40  63  89 118 161 210 244 300 359
#     4  10  21  40  60  88 119 154 208 252 292 363
#     4  10  21  40  62  88 120 159 203 251 302 355
#     4  10  21  37  56  86 116 146 195 243 298 366
#     4  10  21  40  57  83 117 155 194 243 308 365
#     4  10  21  38  57  89 126 157 196 248 304 349
#
# _framework density 21.801769
#
# number of rings (size 3 to 8) (size 9 to 14) (size 15 to 20)
#    0.000    1.867    0.000    3.200    0.933    3.200 
#   19.200    0.000    0.000    0.000    0.000    0.000 
#    0.000    0.000    0.000    0.000    0.000    0.000 
#
# Total GULP energy -167256.720392 kJ/mol
# GULP energy per Si atom -5575.224013 kJ/mol
# Density = 2.175215 g / cm^3
# Si number density = 21.801769 Si / 1000 Ang^3
#
#
#
# Elastic Constant Matrix: (Units=GPa)
#
#
# Indices 1 2 3 4 5 6 
#
# 1 34.5264 26.3997 10.0891 0.0000 -2.4933 0.0000
# 2 26.3997 121.6806 18.6086 0.0000 -13.9473 0.0000
# 3 10.0891 18.6086 162.3748 0.0000 27.8290 0.0000
# 4 0.0000 0.0000 0.0000 10.6584 0.0000 -5.7329
# 5 -2.4933 -13.9473 27.8290 0.0000 19.4475 0.0000
# 6 0.0000 0.0000 0.0000 -5.7329 0.0000 37.9874
#
#
#
# Elastic Compliance Matrix: (Units=1/GPa)
#
#
# Indices 1 2 3 4 5 6 
#
# 1 0.035039 -0.007151 -0.001654 0.000000 0.001732 0.000000
# 2 -0.007151 0.011505 -0.002824 0.000000 0.011376 0.000000
# 3 -0.001654 -0.002824 0.009233 0.000000 -0.015449 0.000000
# 4 0.000000 0.000000 0.000000 0.102112 0.000000 0.015410
# 5 0.001732 0.011376 -0.015449 0.000000 0.081908 0.000000
# 6 0.000000 0.000000 0.000000 0.015410 0.000000 0.028650
#
#
# Mechanical properties :
#
#
# Convention : Reuss Voigt Hill
#
# Bulk Modulus (GPa) = 30.75057 47.64186 39.19622
# Shear Modulus (GPa) = 16.52643 31.18429 23.85536
#
# Velocity S-wave (km/s) = 2.75622 3.78611 3.31145
# Velocity P-wave (km/s) = 4.92588 6.40410 5.71300
#
# Compressibility (1/GPa) = 0.03251972
#
# Stress axis : x y z
#
# Youngs Moduli (GPa) = 28.53931 86.91595 108.30901
#
# Poissons Ratio (x) = 0.62150 0.17919
# Poissons Ratio (y) = 0.20407 0.30585
# Poissons Ratio (z) = 0.04722 0.24544
#
# Static dielectric constant tensor:
#      x y z
#    x 1.801440 0.000000 0.019830 
#    y 0.000000 1.822300 0.000000 
#    z 0.019830 0.000000 1.861940 
# 
# From -- ./inp_files/5339.got.cif
#   From: 2010.05.17/outbox.cif.g08.bks.cpg/sg13_3_cif.got.tgz:5339.got - 2010.06.03 16:44:36.
