data_PCOD9232540
_publ_section_title
;
Structure prediction by ZEFSAII (Michael W. Deem and Ramdas Pophale) SiO2 
 PCOD9232540
Probable space group: P 2/C
;
_chemical_formula_sum "Si O2"
_cell_formula_units_Z 20
_cell_length_a 10.588060
_cell_length_b 8.868289
_cell_length_c 14.250210
_cell_angle_alpha 90.000000
_cell_angle_beta 35.693013
_cell_angle_gamma 90.000000
_cell_volume 780.684068
_symmetry_space_group_name_H-M "P 2/C"
_symmetry_group_IT_number 13
_symmetry_cell_setting 'monoclinic'
loop_
_space_group_symop_operation_xyz
x,y,z
-x,y,1/2-z
-x,-y,-z
x,-y,1/2+z
loop_
_atom_site_type_symbol
_atom_site_label
_atom_site_fract_x
_atom_site_fract_y
_atom_site_fract_z
Si Si1 0.500000 0.010929 0.250000
Si Si2 0.372372 0.295710 0.000902
Si Si3 0.169880 0.256324 0.479449
Si Si4 0.500000 0.517941 0.250000
Si Si5 0.249445 0.111035 0.721834
Si Si6 0.069159 0.785256 0.823989
O O1 0.340358 0.124779 0.401690
O O2 0.647841 0.922286 0.235556
O O3 0.511681 0.391094 0.841386
O O4 0.543902 0.187812 0.948710
O O5 0.214419 0.341342 0.182703
O O6 0.181908 0.226583 0.050895
O O7 0.294351 0.413259 0.399379
O O8 0.102303 0.227986 0.413094
O O9 0.947943 0.227998 0.666471
O O10 0.156306 0.951406 0.745176
#
# Coordination Sequence:
#
# PCOD9232540 Si02
#       6
#     2   4   4   2   4   4
#     4   9  17  32  58  90 115 145 196 252 302 345
#     4  11  23  38  59  87 124 160 201 252 298 366
#     4  10  21  37  61  87 120 161 203 247 296 370
#     4  11  25  42  58  86 125 173 210 232 294 375
#     4  11  19  36  64  92 118 152 200 258 312 353
#     4  10  22  39  61  90 119 155 202 261 315 346
#
# _framework density 25.618559999999999
#
# number of rings (size 3 to 8) (size 9 to 14) (size 15 to 20)
#    0.000    1.600    0.000    7.200    0.000    4.000 
#    0.000    2.000    0.000    0.000    0.000    0.000 
#    0.000    0.000    0.000    0.000    0.000    0.000 
#
# Total GULP energy -111620.546997 kJ/mol
# GULP energy per Si atom -5581.027350 kJ/mol
# Density = 2.556025 g / cm^3
# Si number density = 25.618560 Si / 1000 Ang^3
#
#
#
# Elastic Constant Matrix: (Units=GPa)
#
#
# Indices 1 2 3 4 5 6 
#
# 1 90.2169 19.7748 9.6957 0.0000 -8.2784 0.0000
# 2 19.7748 75.2867 36.4687 0.0000 -19.2525 0.0000
# 3 9.6957 36.4687 123.0992 0.0000 -26.1969 0.0000
# 4 0.0000 0.0000 0.0000 23.3158 0.0000 0.1218
# 5 -8.2784 -19.2525 -26.1969 0.0000 38.7830 0.0000
# 6 0.0000 0.0000 0.0000 0.1218 0.0000 -1.0120
#
#
#
# Elastic Compliance Matrix: (Units=1/GPa)
#
#
# Indices 1 2 3 4 5 6 
#
# 1 0.011807 -0.002879 0.000181 0.000000 0.001214 0.000000
# 2 -0.002879 0.017229 -0.003723 0.000000 0.005423 0.000000
# 3 0.000181 -0.003723 0.010309 0.000000 0.005154 0.000000
# 4 0.000000 0.000000 0.000000 0.042862 0.000000 0.005161
# 5 0.001214 0.005423 0.005154 0.000000 0.032217 0.000000
# 6 0.000000 0.000000 0.000000 0.005161 0.000000 -0.987545
#
#
# Mechanical properties :
#
#
# Convention : Reuss Voigt Hill
#
# Bulk Modulus (GPa) = 37.73053 46.72011 42.22532
# Shear Modulus (GPa) = -5.87238 27.06162 10.59462
#
# Velocity S-wave (km/s) = -1.51566 3.25365 2.03581
# Velocity P-wave (km/s) = 3.42006 5.69134 4.69511
#
# Compressibility (1/GPa) = 0.02650374
#
# Stress axis : x y z
#
# Youngs Moduli (GPa) = 84.69351 58.04132 97.00148
#
# Poissons Ratio (x) = 0.16708 -0.01757
# Poissons Ratio (y) = 0.24381 0.36117
# Poissons Ratio (z) = -0.01534 0.21611
#
# Static dielectric constant tensor:
#      x y z
#    x 1.992940 0.000000 0.036980 
#    y 0.000000 2.140590 0.000000 
#    z 0.036980 0.000000 2.006930 
# 
# From -- ./inp_files/32470.got.cif
#   From: 2010.05.17/outbox.cif.g08.bks.cpg/sg13_17_cif.got.tgz:32470.got - 2010.06.03 16:44:36.
