data_PCOD9232819
_publ_section_title
;
Structure prediction by ZEFSAII (Michael W. Deem and Ramdas Pophale) SiO2 
 PCOD9232819
Probable space group: P 2/C
;
_chemical_formula_sum "Si O2"
_cell_formula_units_Z 22
_cell_length_a 6.079015
_cell_length_b 8.997065
_cell_length_c 16.918254
_cell_angle_alpha 90.000000
_cell_angle_beta 105.527218
_cell_angle_gamma 90.000000
_cell_volume 891.544167
_symmetry_space_group_name_H-M "P 2/C"
_symmetry_group_IT_number 13
_symmetry_cell_setting 'monoclinic'
loop_
_space_group_symop_operation_xyz
x,y,z
-x,y,1/2-z
-x,-y,-z
x,-y,1/2+z
loop_
_atom_site_type_symbol
_atom_site_label
_atom_site_fract_x
_atom_site_fract_y
_atom_site_fract_z
Si Si1 0.500000 0.483399 0.250000
Si Si2 0.954743 0.679336 0.855606
Si Si3 0.994460 0.241669 0.529399
Si Si4 0.000000 0.039874 0.250000
Si Si5 0.813538 0.389223 0.668425
Si Si6 0.652540 0.996372 0.436383
Si Si7 0.500000 0.993154 0.250000
O O1 0.294121 0.380562 0.196802
O O2 0.428052 0.598340 0.312512
O O3 0.015918 0.841494 0.825209
O O4 0.135038 0.563474 0.838900
O O5 0.990284 0.655862 0.952281
O O6 0.867941 0.303994 0.593758
O O7 0.240382 0.166885 0.568327
O O8 0.845411 0.109661 0.479599
O O9 0.232412 0.949602 0.250285
O O10 0.000000 0.339786 0.750000
O O11 0.500000 0.000000 0.500000
O O12 0.553755 0.053651 0.343523
#
# Coordination Sequence:
#
# PCOD9232819 Si02
#       7
#     2   4   4   2   4   4   2
#     4  10  21  38  63 104 138 193 238 281 352 444
#     4  11  21  39  69 100 140 179 238 293 357 431
#     4  11  25  44  65 100 141 178 240 300 361 419
#     4  12  22  42  78 110 136 188 236 304 352 430
#     4  10  23  41  65  95 142 186 233 288 358 435
#     4  11  27  46  69 101 136 187 246 300 358 430
#     4  12  27  46  81 102 144 193 246 303 366 424
#
# _framework density 24.676288
#
# number of rings (size 3 to 8) (size 9 to 14) (size 15 to 20)
#    0.000    1.091    4.545    2.182    2.545    6.545 
#    0.000    0.909    0.000    0.000    0.000    0.000 
#    0.000    0.000    0.000    0.000    0.000    0.000 
#
# Total GULP energy -122484.027953 kJ/mol
# GULP energy per Si atom -5567.455816 kJ/mol
# Density = 2.462012 g / cm^3
# Si number density = 24.676288 Si / 1000 Ang^3
#
#
#
# Elastic Constant Matrix: (Units=GPa)
#
#
# Indices 1 2 3 4 5 6 
#
# 1 118.4367 27.1017 29.0689 0.0000 -37.5245 0.0000
# 2 27.1017 51.9900 35.3648 0.0000 -5.0373 0.0000
# 3 29.0689 35.3648 184.4776 0.0000 -47.0758 0.0000
# 4 0.0000 0.0000 0.0000 -27.8597 0.0000 -14.3400
# 5 -37.5245 -5.0373 -47.0758 0.0000 45.3152 0.0000
# 6 0.0000 0.0000 0.0000 -14.3400 0.0000 24.2482
#
#
#
# Elastic Compliance Matrix: (Units=1/GPa)
#
#
# Indices 1 2 3 4 5 6 
#
# 1 0.013790 -0.007748 0.002730 0.000000 0.013394 0.000000
# 2 -0.007748 0.026708 -0.006503 0.000000 -0.010202 0.000000
# 3 0.002730 -0.006503 0.009021 0.000000 0.010910 0.000000
# 4 0.000000 0.000000 0.000000 -0.027518 0.000000 -0.016274
# 5 0.013394 -0.010202 0.010910 0.000000 0.043359 0.000000
# 6 0.000000 0.000000 0.000000 -0.016274 0.000000 0.031616
#
#
# Mechanical properties :
#
#
# Convention : Reuss Voigt Hill
#
# Bulk Modulus (GPa) = 37.76629 59.77502 48.77066
# Shear Modulus (GPa) = 38.80706 25.89864 32.35285
#
# Velocity S-wave (km/s) = 3.96996 3.24317 3.62483
# Velocity P-wave (km/s) = 6.02927 6.18874 6.10952
#
# Compressibility (1/GPa) = 0.02647864
#
# Stress axis : x y z
#
# Youngs Moduli (GPa) = 72.51703 37.44184 110.85258
#
# Poissons Ratio (x) = 0.29010 -0.30267
# Poissons Ratio (y) = 0.56186 0.72083
# Poissons Ratio (z) = -0.19800 0.24347
#
# Static dielectric constant tensor:
#      x y z
#    x 2.269030 0.000000 -0.312740 
#    y 0.000000 2.138000 0.000000 
#    z -0.312740 0.000000 2.525190 
# 
# From -- ./inp_files/43650.got.cif
#   From: 2010.05.17/outbox.cif.g08.bks.cpg/sg13_22_cif.got.tgz:43650.got - 2010.06.03 16:44:36.
