data_PCOD9232919
_publ_section_title
;
Structure prediction by ZEFSAII (Michael W. Deem and Ramdas Pophale) SiO2 
 PCOD9232919
Probable space group: P 2/C
;
_chemical_formula_sum "Si O2"
_cell_formula_units_Z 30
_cell_length_a 16.460862
_cell_length_b 8.815085
_cell_length_c 17.179755
_cell_angle_alpha 90.000000
_cell_angle_beta 142.707842
_cell_angle_gamma 90.000000
_cell_volume 1510.366403
_symmetry_space_group_name_H-M "P 2/C"
_symmetry_group_IT_number 13
_symmetry_cell_setting 'monoclinic'
loop_
_space_group_symop_operation_xyz
x,y,z
-x,y,1/2-z
-x,-y,-z
x,-y,1/2+z
loop_
_atom_site_type_symbol
_atom_site_label
_atom_site_fract_x
_atom_site_fract_y
_atom_site_fract_z
Si Si1 0.699969 0.337745 0.795214
Si Si2 0.612084 0.882298 0.108018
Si Si3 0.500000 0.489104 0.250000
Si Si4 0.325948 0.327568 0.990847
Si Si5 0.341935 0.547303 0.878991
Si Si6 0.851648 0.946365 0.101119
Si Si7 0.213632 0.863544 0.802648
Si Si8 0.061981 0.886715 0.982395
O O1 0.602466 0.215533 0.678237
O O2 0.620812 0.409659 0.807144
O O3 0.717885 0.469505 0.743920
O O4 0.837579 0.247511 0.915368
O O5 0.743829 0.987169 0.213384
O O6 0.624596 0.772827 0.043998
O O7 0.500000 0.000000 0.000000
O O8 0.439673 0.384750 0.135807
O O9 0.275085 0.475371 0.905617
O O10 0.222509 0.215081 0.953123
O O11 0.313237 0.725237 0.861786
O O12 0.500000 0.500000 0.000000
O O13 0.000000 0.925122 0.250000
O O14 0.785331 0.071807 0.108350
O O15 0.860102 0.010658 0.021223
O O16 0.065436 0.819266 0.662027
O O17 0.000000 0.000000 0.000000
#
# Coordination Sequence:
#
# PCOD9232919 Si02
#       8
#     4   4   2   4   4   4   4   4
#     4  11  25  41  63  94 134 171 206 276 322 390
#     4  10  21  38  69  93 117 171 226 261 317 372
#     4  12  26  40  60  96 144 166 214 260 340 390
#     4  10  23  41  61  89 132 166 205 268 317 381
#     4  11  22  42  66  92 132 167 210 260 327 391
#     4   9  22  43  66  91 123 165 221 266 316 378
#     4  10  21  41  68  92 124 167 215 265 315 386
#     4  11  23  43  67  94 129 165 219 270 318 376
#
# _framework density 19.862731
#
# number of rings (size 3 to 8) (size 9 to 14) (size 15 to 20)
#    0.000    1.600    2.667    1.600    3.733    3.733 
#    2.400    0.000    0.000    0.000    0.000    0.000 
#    0.000    0.000    0.000    0.000    0.000    0.000 
#
# Total GULP energy -167276.109219 kJ/mol
# GULP energy per Si atom -5575.870307 kJ/mol
# Density = 1.981752 g / cm^3
# Si number density = 19.862731 Si / 1000 Ang^3
#
#
#
# Elastic Constant Matrix: (Units=GPa)
#
#
# Indices 1 2 3 4 5 6 
#
# 1 59.9954 43.5268 26.4813 0.0000 2.3617 0.0000
# 2 43.5268 124.6364 42.4268 0.0000 1.5919 0.0000
# 3 26.4813 42.4268 81.9380 0.0000 2.6411 0.0000
# 4 0.0000 0.0000 0.0000 35.6764 0.0000 6.5740
# 5 2.3617 1.5919 2.6411 0.0000 24.2218 0.0000
# 6 0.0000 0.0000 0.0000 6.5740 0.0000 33.7600
#
#
#
# Elastic Compliance Matrix: (Units=1/GPa)
#
#
# Indices 1 2 3 4 5 6 
#
# 1 0.023423 -0.006799 -0.004004 0.000000 -0.001400 0.000000
# 2 -0.006799 0.011714 -0.003878 0.000000 0.000316 0.000000
# 3 -0.004004 -0.003878 0.015540 0.000000 -0.001049 0.000000
# 4 0.000000 0.000000 0.000000 0.029073 0.000000 -0.005661
# 5 -0.001400 0.000316 -0.001049 0.000000 0.041515 0.000000
# 6 0.000000 0.000000 0.000000 -0.005661 0.000000 0.030723
#
#
# Mechanical properties :
#
#
# Convention : Reuss Voigt Hill
#
# Bulk Modulus (GPa) = 46.91704 54.60440 50.76072
# Shear Modulus (GPa) = 26.53120 29.00731 27.76926
#
# Velocity S-wave (km/s) = 3.65873 3.82565 3.74312
# Velocity P-wave (km/s) = 6.44362 6.86037 6.65526
#
# Compressibility (1/GPa) = 0.02131422
#
# Stress axis : x y z
#
# Youngs Moduli (GPa) = 42.69243 85.36868 64.34827
#
# Poissons Ratio (x) = 0.58043 0.25768
# Poissons Ratio (y) = 0.29027 0.24955
# Poissons Ratio (z) = 0.17096 0.33107
#
# Static dielectric constant tensor:
#      x y z
#    x 1.751540 0.000000 0.023540 
#    y 0.000000 1.749560 0.000000 
#    z 0.023540 0.000000 1.752380 
# 
# From -- ./inp_files/69485.got.cif
#   From: 2010.05.17/outbox.cif.g08.bks.cpg/sg13_35_cif.got.tgz:69485.got - 2010.06.03 16:44:36.
