data_PCOD9232329
_publ_section_title
;
Structure prediction by ZEFSAII (Michael W. Deem and Ramdas Pophale) SiO2 
 PCOD9232329
Probable space group: P 2/C
;
_chemical_formula_sum "Si O2"
_cell_formula_units_Z 32
_cell_length_a 15.088169
_cell_length_b 21.494053
_cell_length_c 9.262830
_cell_angle_alpha 90.000000
_cell_angle_beta 148.643577
_cell_angle_gamma 90.000000
_cell_volume 1563.157384
_symmetry_space_group_name_H-M "P 2/C"
_symmetry_group_IT_number 13
_symmetry_cell_setting 'monoclinic'
loop_
_space_group_symop_operation_xyz
x,y,z
-x,y,1/2-z
-x,-y,-z
x,-y,1/2+z
loop_
_atom_site_type_symbol
_atom_site_label
_atom_site_fract_x
_atom_site_fract_y
_atom_site_fract_z
Si Si1 0.678970 0.200629 0.083905
Si Si2 0.034518 0.228990 0.454544
Si Si3 0.691444 0.946274 0.564529
Si Si4 0.100486 0.454354 0.745274
Si Si5 0.156842 0.633930 0.069263
Si Si6 0.813223 0.045224 0.538326
Si Si7 0.400170 0.455070 0.753653
Si Si8 0.317803 0.823181 0.568470
O O1 0.716887 0.127920 0.099609
O O2 0.674608 0.201670 0.254037
O O3 0.845382 0.237797 0.259552
O O4 0.500000 0.216038 0.750000
O O5 0.130743 0.292817 0.545329
O O6 0.000000 0.196193 0.250000
O O7 0.159933 0.199673 0.749095
O O8 0.820533 0.984555 0.645960
O O9 0.714468 0.971198 0.756428
O O10 0.500000 0.958687 0.250000
O O11 0.145195 0.394908 0.712081
O O12 0.000000 0.437760 0.750000
O O13 0.000000 0.500000 0.500000
O O14 0.256736 0.497170 0.003959
O O15 0.322772 0.604670 0.226326
O O16 0.000000 0.611184 0.750000
O O17 0.712857 0.102570 0.467866
O O18 0.000000 0.067434 0.750000
O O19 0.500000 0.435142 0.750000
O O20 0.500000 0.500000 0.000000
O O21 0.500000 0.808826 0.750000
#
# Coordination Sequence:
#
# PCOD9232329 Si02
#       8
#     4   4   4   4   4   4   4   4
#     4  10  22  43  72  98 129 175 230 285 347 405
#     4  11  25  45  68  93 133 179 229 280 332 401
#     4  10  21  36  58  95 129 163 213 276 345 413
#     4  12  20  38  67  91 130 173 207 246 323 386
#     4  11  24  44  65  97 132 170 216 262 323 398
#     4  11  22  37  59  92 132 170 220 281 341 405
#     4  12  22  38  67 102 135 167 207 263 323 382
#     4  11  23  43  67  93 133 184 232 284 337 402
#
# _framework density 20.471387
#
# number of rings (size 3 to 8) (size 9 to 14) (size 15 to 20)
#    0.000    1.000    3.750    3.750    0.000    4.500 
#    2.250    5.000    0.000    0.000    0.000    0.000 
#    0.000    0.000    0.000    0.000    0.000    0.000 
#
# Total GULP energy -178572.515224 kJ/mol
# GULP energy per Si atom -5580.391101 kJ/mol
# Density = 2.042479 g / cm^3
# Si number density = 20.471387 Si / 1000 Ang^3
#
#
#
# Elastic Constant Matrix: (Units=GPa)
#
#
# Indices 1 2 3 4 5 6 
#
# 1 156.4065 35.7606 52.5465 0.0000 -6.7513 0.0000
# 2 35.7606 44.3672 24.2938 0.0000 -10.0397 0.0000
# 3 52.5465 24.2938 155.8404 0.0000 -17.1803 0.0000
# 4 0.0000 0.0000 0.0000 -54.7337 0.0000 -28.2776
# 5 -6.7513 -10.0397 -17.1803 0.0000 36.8150 0.0000
# 6 0.0000 0.0000 0.0000 -28.2776 0.0000 19.9099
#
#
#
# Elastic Compliance Matrix: (Units=1/GPa)
#
#
# Indices 1 2 3 4 5 6 
#
# 1 0.008370 -0.005869 -0.002018 0.000000 -0.001008 0.000000
# 2 -0.005869 0.029738 -0.001983 0.000000 0.006108 0.000000
# 3 -0.002018 -0.001983 0.007702 0.000000 0.002683 0.000000
# 4 0.000000 0.000000 0.000000 -0.010538 0.000000 -0.014967
# 5 -0.001008 0.006108 0.002683 0.000000 0.029896 0.000000
# 6 0.000000 0.000000 0.000000 -0.014967 0.000000 0.028969
#
#
# Mechanical properties :
#
#
# Convention : Reuss Voigt Hill
#
# Bulk Modulus (GPa) = 38.36064 64.64621 51.50342
# Shear Modulus (GPa) = 40.79312 16.66580 28.72946
#
# Velocity S-wave (km/s) = 4.46880 2.85634 3.75026
# Velocity P-wave (km/s) = 6.73841 6.52117 6.63068
#
# Compressibility (1/GPa) = 0.02606839
#
# Stress axis : x y z
#
# Youngs Moduli (GPa) = 119.47232 33.62694 129.82943
#
# Poissons Ratio (x) = 0.19736 0.26205
# Poissons Ratio (y) = 0.70121 0.25751
# Poissons Ratio (z) = 0.24114 0.06670
#
# Static dielectric constant tensor:
#      x y z
#    x 1.763500 0.000000 0.013140 
#    y 0.000000 1.723100 0.000000 
#    z 0.013140 0.000000 1.737500 
# 
# From -- ./inp_files/20239.got.cif
#   From: 2010.05.17/outbox.cif.g08.bks.cpg/sg13_11_cif.got.tgz:20239.got - 2010.06.03 16:44:36.
