data_PCOD9232828
_publ_section_title
;
Structure prediction by ZEFSAII (Michael W. Deem and Ramdas Pophale) SiO2 
 PCOD9232828
Probable space group: P 2/C
;
_chemical_formula_sum "Si O2"
_cell_formula_units_Z 28
_cell_length_a 16.200266
_cell_length_b 15.152069
_cell_length_c 8.327446
_cell_angle_alpha 90.000000
_cell_angle_beta 45.274066
_cell_angle_gamma 90.000000
_cell_volume 1452.306868
_symmetry_space_group_name_H-M "P 2/C"
_symmetry_group_IT_number 13
_symmetry_cell_setting 'monoclinic'
loop_
_space_group_symop_operation_xyz
x,y,z
-x,y,1/2-z
-x,-y,-z
x,-y,1/2+z
loop_
_atom_site_type_symbol
_atom_site_label
_atom_site_fract_x
_atom_site_fract_y
_atom_site_fract_z
Si Si1 0.079852 0.125132 0.854044
Si Si2 0.495048 0.292418 0.432488
Si Si3 0.232525 0.580302 0.619460
Si Si4 0.000000 0.032364 0.250000
Si Si5 0.842760 0.398173 0.645031
Si Si6 0.050791 0.699050 0.004569
Si Si7 0.500000 0.599023 0.250000
Si Si8 0.701932 0.242751 0.985946
O O1 0.194716 0.175244 0.645556
O O2 0.065667 0.035453 0.775536
O O3 0.974697 0.196099 0.976234
O O4 0.081846 0.095457 0.035138
O O5 0.500000 0.343979 0.250000
O O6 0.482153 0.346186 0.610193
O O7 0.386818 0.228955 0.542104
O O8 0.618578 0.244408 0.253604
O O9 0.161279 0.495773 0.778418
O O10 0.204733 0.598297 0.470958
O O11 0.370198 0.558657 0.452393
O O12 0.179554 0.662699 0.793492
O O13 0.759657 0.336830 0.867481
O O14 0.967227 0.351242 0.492280
O O15 0.000000 0.674253 0.250000
#
# Coordination Sequence:
#
# PCOD9232828 Si02
#       8
#     4   4   4   2   4   4   2   4
#     4  10  21  38  63  91 122 158 187 251 318 381
#     4   8  19  37  59  85 119 159 210 256 293 362
#     4  12  26  39  58  90 125 165 220 259 311 363
#     4  10  22  36  58  98 124 142 194 244 320 396
#     4  11  23  40  59  87 122 165 209 270 307 357
#     4  11  24  41  65  87 120 168 207 253 315 375
#     4  12  24  36  60  90 124 172 220 262 314 362
#     4   8  19  39  61  78 121 165 200 249 311 351
#
# _framework density 19.279674
#
# number of rings (size 3 to 8) (size 9 to 14) (size 15 to 20)
#    0.857    0.857    2.143    1.714   10.000    1.714 
#    0.000    1.429    0.000    3.429    0.000    8.000 
#    0.000    0.000    0.000    0.000    0.000    0.000 
#
# Total GULP energy -155880.997150 kJ/mol
# GULP energy per Si atom -5567.178470 kJ/mol
# Density = 1.923579 g / cm^3
# Si number density = 19.279674 Si / 1000 Ang^3
#
#
#
# Elastic Constant Matrix: (Units=GPa)
#
#
# Indices 1 2 3 4 5 6 
#
# 1 62.2976 -0.1521 10.2925 0.0000 2.4818 0.0000
# 2 -0.1521 53.6635 18.7793 0.0000 -5.6999 0.0000
# 3 10.2925 18.7793 56.5673 0.0000 -5.2188 0.0000
# 4 0.0000 0.0000 0.0000 3.9663 0.0000 6.1139
# 5 2.4818 -5.6999 -5.2188 0.0000 38.4183 0.0000
# 6 0.0000 0.0000 0.0000 6.1139 0.0000 18.0068
#
#
#
# Elastic Compliance Matrix: (Units=1/GPa)
#
#
# Indices 1 2 3 4 5 6 
#
# 1 0.016696 0.001140 -0.003545 0.000000 -0.001391 0.000000
# 2 0.001140 0.021348 -0.007098 0.000000 0.002129 0.000000
# 3 -0.003545 -0.007098 0.020865 0.000000 0.002010 0.000000
# 4 0.000000 0.000000 0.000000 0.528981 0.000000 -0.179607
# 5 -0.001391 0.002129 0.002010 0.000000 0.026708 0.000000
# 6 0.000000 0.000000 0.000000 -0.179607 0.000000 0.116517
#
#
# Mechanical properties :
#
#
# Convention : Reuss Voigt Hill
#
# Bulk Modulus (GPa) = 25.06059 25.59642 25.32850
# Shear Modulus (GPa) = 6.54946 21.65220 14.10083
#
# Velocity S-wave (km/s) = 1.84512 3.35484 2.70734
# Velocity P-wave (km/s) = 4.19117 5.32088 4.78946
#
# Compressibility (1/GPa) = 0.03990329
#
# Stress axis : x y z
#
# Youngs Moduli (GPa) = 59.89527 46.84282 47.92736
#
# Poissons Ratio (x) = -0.05340 0.16988
# Poissons Ratio (y) = -0.06828 0.34019
# Poissons Ratio (z) = 0.21231 0.33250
#
# Static dielectric constant tensor:
#      x y z
#    x 1.787020 0.000000 -0.001420 
#    y 0.000000 1.649130 0.000000 
#    z -0.001420 0.000000 1.756270 
# 
# From -- ./inp_files/21964.got.cif
#   From: 2010.05.17/outbox.cif.g08.bks.cpg/sg13_11_cif.got.tgz:21964.got - 2010.06.03 16:44:36.
