data_PCOD9232250
_publ_section_title
;
Structure prediction by ZEFSAII (Michael W. Deem and Ramdas Pophale) SiO2 
 PCOD9232250
Probable space group: P 2/C
;
_chemical_formula_sum "Si O2"
_cell_formula_units_Z 24
_cell_length_a 11.998312
_cell_length_b 9.000331
_cell_length_c 12.256144
_cell_angle_alpha 90.000000
_cell_angle_beta 85.003987
_cell_angle_gamma 90.000000
_cell_volume 1318.497639
_symmetry_space_group_name_H-M "P 2/C"
_symmetry_group_IT_number 13
_symmetry_cell_setting 'monoclinic'
loop_
_space_group_symop_operation_xyz
x,y,z
-x,y,1/2-z
-x,-y,-z
x,-y,1/2+z
loop_
_atom_site_type_symbol
_atom_site_label
_atom_site_fract_x
_atom_site_fract_y
_atom_site_fract_z
Si Si1 0.506407 0.073005 0.375828
Si Si2 0.104974 0.941640 0.060671
Si Si3 0.186838 0.541716 0.491838
Si Si4 0.754409 0.794790 0.846546
Si Si5 0.275707 0.247930 0.397670
Si Si6 0.998508 0.646256 0.366864
O O1 0.500000 0.999204 0.250000
O O2 0.628173 0.146099 0.365277
O O3 0.401120 0.184633 0.384118
O O4 0.500000 0.000000 0.500000
O O5 0.053011 0.810105 0.137435
O O6 0.161853 0.076497 0.120010
O O7 0.199596 0.861300 0.978303
O O8 0.000000 0.000000 0.000000
O O9 0.234005 0.652255 0.577466
O O10 0.270778 0.417826 0.439182
O O11 0.088570 0.442540 0.552091
O O12 0.122101 0.639521 0.406891
O O13 0.775463 0.755727 0.719112
O O14 0.000000 0.570938 0.250000
#
# Coordination Sequence:
#
# PCOD9232250 Si02
#       6
#     4   4   4   4   4   4
#     4  10  21  42  65  91 122 160 204 259 314 363
#     4  11  22  36  56  90 118 152 204 242 297 365
#     4  10  21  39  55  84 121 158 200 242 300 364
#     4  11  22  38  65  86 121 160 200 256 306 361
#     4  10  23  40  61  88 121 158 203 250 308 369
#     4  10  21  36  54  80 123 159 195 241 293 360
#
# _framework density 18.202535999999998
#
# number of rings (size 3 to 8) (size 9 to 14) (size 15 to 20)
#    0.000    1.667    3.333    1.000    2.333    0.667 
#    0.000    1.667    0.000    0.000    0.000    0.000 
#    0.000    0.000    0.000    0.000    0.000    0.000 
#
# Total GULP energy -133612.435665 kJ/mol
# GULP energy per Si atom -5567.184819 kJ/mol
# Density = 1.816111 g / cm^3
# Si number density = 18.202536 Si / 1000 Ang^3
#
#
#
# Elastic Constant Matrix: (Units=GPa)
#
#
# Indices 1 2 3 4 5 6 
#
# 1 66.6466 22.3366 2.2722 0.0000 19.0150 0.0000
# 2 22.3366 98.9016 38.5064 0.0000 15.2598 0.0000
# 3 2.2722 38.5064 100.9635 0.0000 17.5946 0.0000
# 4 0.0000 0.0000 0.0000 -16.7023 0.0000 31.4197
# 5 19.0150 15.2598 17.5946 0.0000 31.7316 0.0000
# 6 0.0000 0.0000 0.0000 31.4197 0.0000 -6.5236
#
#
#
# Elastic Compliance Matrix: (Units=1/GPa)
#
#
# Indices 1 2 3 4 5 6 
#
# 1 0.019455 -0.003792 0.003013 0.000000 -0.011506 0.000000
# 2 -0.003792 0.012984 -0.004621 0.000000 -0.001410 0.000000
# 3 0.003013 -0.004621 0.012760 0.000000 -0.006658 0.000000
# 4 0.000000 0.000000 0.000000 0.007428 0.000000 0.035776
# 5 -0.011506 -0.001410 -0.006658 0.000000 0.042779 0.000000
# 6 0.000000 0.000000 0.000000 0.035776 0.000000 0.019018
#
#
# Mechanical properties :
#
#
# Convention : Reuss Voigt Hill
#
# Bulk Modulus (GPa) = 29.06976 43.63802 36.35389
# Shear Modulus (GPa) = 36.57921 15.26091 25.92006
#
# Velocity S-wave (km/s) = 4.48768 2.89865 3.77766
# Velocity P-wave (km/s) = 6.54654 5.93536 6.24843
#
# Compressibility (1/GPa) = 0.03440000
#
# Stress axis : x y z
#
# Youngs Moduli (GPa) = 51.39961 77.01738 78.37290
#
# Poissons Ratio (x) = 0.29204 -0.23617
# Poissons Ratio (y) = 0.19490 0.36216
# Poissons Ratio (z) = -0.15489 0.35590
#
# Static dielectric constant tensor:
#      x y z
#    x 1.567130 0.000000 0.095520 
#    y 0.000000 1.656780 0.000000 
#    z 0.095520 0.000000 1.294750 
# 
# From -- ./inp_files/32578.got.cif
#   From: 2010.05.17/outbox.cif.g08.bks.cpg/sg13_17_cif.got.tgz:32578.got - 2010.06.03 16:44:36.
