data_PCOD9232806
_publ_section_title
;
Structure prediction by ZEFSAII (Michael W. Deem and Ramdas Pophale) SiO2 
 PCOD9232806
Probable space group: P 2/C
;
_chemical_formula_sum "Si O2"
_cell_formula_units_Z 16
_cell_length_a 7.830462
_cell_length_b 17.270480
_cell_length_c 8.960713
_cell_angle_alpha 90.000000
_cell_angle_beta 33.413312
_cell_angle_gamma 90.000000
_cell_volume 667.312838
_symmetry_space_group_name_H-M "P 2/C"
_symmetry_group_IT_number 13
_symmetry_cell_setting 'monoclinic'
loop_
_space_group_symop_operation_xyz
x,y,z
-x,y,1/2-z
-x,-y,-z
x,-y,1/2+z
loop_
_atom_site_type_symbol
_atom_site_label
_atom_site_fract_x
_atom_site_fract_y
_atom_site_fract_z
Si Si1 0.690467 0.831439 0.877492
Si Si2 0.857706 0.426170 0.687298
Si Si3 0.939644 0.918132 0.121162
Si Si4 0.649805 0.661792 0.807938
O O1 0.595932 0.742377 0.928833
O O2 0.000000 0.839631 0.750000
O O3 0.809488 0.859822 0.630045
O O4 0.405969 0.883240 0.142537
O O5 0.000000 0.426127 0.750000
O O6 0.000000 0.500000 0.500000
O O7 0.994469 0.356037 0.488219
O O8 0.500916 0.406889 0.982160
O O9 0.000000 0.928222 0.250000
O O10 0.000000 0.000000 0.000000
O O11 0.500000 0.663198 0.750000
#
# Coordination Sequence:
#
# PCOD9232806 Si02
#       4
#     4   4   4   4
#     4  12  26  45  70 104 138 176 227 284 339 402
#     4  10  21  38  62  92 129 171 221 277 332 394
#     4  12  26  47  72 100 137 182 226 276 338 408
#     4  10  21  40  65  94 129 175 223 273 335 400
#
# _framework density 23.976758
#
# number of rings (size 3 to 8) (size 9 to 14) (size 15 to 20)
#    0.000    1.000    0.000    6.750    0.000    5.000 
#    0.000    2.500    0.000    0.000    0.000    0.000 
#    0.000    0.000    0.000    0.000    0.000    0.000 
#
# Total GULP energy -89509.942302 kJ/mol
# GULP energy per Si atom -5594.371394 kJ/mol
# Density = 2.392219 g / cm^3
# Si number density = 23.976758 Si / 1000 Ang^3
#
#
#
# Elastic Constant Matrix: (Units=GPa)
#
#
# Indices 1 2 3 4 5 6 
#
# 1 67.1721 31.8899 49.8623 0.0000 5.0280 0.0000
# 2 31.8899 143.5541 78.5984 0.0000 4.0709 0.0000
# 3 49.8623 78.5984 200.6206 0.0000 -8.5886 0.0000
# 4 0.0000 0.0000 0.0000 52.0849 0.0000 -3.6278
# 5 5.0280 4.0709 -8.5886 0.0000 36.0245 0.0000
# 6 0.0000 0.0000 0.0000 -3.6278 0.0000 9.1773
#
#
#
# Elastic Compliance Matrix: (Units=1/GPa)
#
#
# Indices 1 2 3 4 5 6 
#
# 1 0.019128 -0.001868 -0.004170 0.000000 -0.003453 0.000000
# 2 -0.001868 0.009174 -0.003196 0.000000 -0.001538 0.000000
# 3 -0.004170 -0.003196 0.007389 0.000000 0.002705 0.000000
# 4 0.000000 0.000000 0.000000 0.019743 0.000000 0.007804
# 5 -0.003453 -0.001538 0.002705 0.000000 0.029059 0.000000
# 6 0.000000 0.000000 0.000000 0.007804 0.000000 0.112049
#
#
# Mechanical properties :
#
#
# Convention : Reuss Voigt Hill
#
# Bulk Modulus (GPa) = 58.06135 81.33865 69.70000
# Shear Modulus (GPa) = 22.64990 36.19043 29.42017
#
# Velocity S-wave (km/s) = 3.07687 3.88931 3.50670
# Velocity P-wave (km/s) = 6.07380 7.35979 6.74751
#
# Compressibility (1/GPa) = 0.01722316
#
# Stress axis : x y z
#
# Youngs Moduli (GPa) = 52.27978 108.99892 135.34025
#
# Poissons Ratio (x) = 0.20362 0.56436
# Poissons Ratio (y) = 0.09767 0.43253
# Poissons Ratio (z) = 0.21801 0.34834
#
# Static dielectric constant tensor:
#      x y z
#    x 1.922050 0.000000 -0.004710 
#    y 0.000000 1.962510 0.000000 
#    z -0.004710 0.000000 1.875250 
# 
# From -- ./inp_files/12951.got.cif
#   From: 2010.05.17/outbox.cif.g08.bks.cpg/sg13_7_cif.got.tgz:12951.got - 2010.06.03 16:44:36.
