data_PCOD9232579
_publ_section_title
;
Structure prediction by ZEFSAII (Michael W. Deem and Ramdas Pophale) SiO2 
 PCOD9232579
Probable space group: P 2/C
;
_chemical_formula_sum "Si O2"
_cell_formula_units_Z 24
_cell_length_a 12.433389
_cell_length_b 14.970818
_cell_length_c 15.274209
_cell_angle_alpha 90.000000
_cell_angle_beta 160.695067
_cell_angle_gamma 90.000000
_cell_volume 939.920054
_symmetry_space_group_name_H-M "P 2/C"
_symmetry_group_IT_number 13
_symmetry_cell_setting 'monoclinic'
loop_
_space_group_symop_operation_xyz
x,y,z
-x,y,1/2-z
-x,-y,-z
x,-y,1/2+z
loop_
_atom_site_type_symbol
_atom_site_label
_atom_site_fract_x
_atom_site_fract_y
_atom_site_fract_z
Si Si1 0.724179 0.059877 0.103553
Si Si2 0.277666 0.302376 0.511409
Si Si3 0.125472 0.506901 0.943684
Si Si4 0.055534 0.103994 0.521022
Si Si5 0.665142 0.637208 0.143155
Si Si6 0.676452 0.268668 0.292384
O O1 0.000000 0.015404 0.250000
O O2 0.965068 0.113612 0.351026
O O3 0.432738 0.117429 0.836211
O O4 0.500000 0.000000 0.000000
O O5 0.500000 0.253478 0.750000
O O6 0.144916 0.386416 0.467369
O O7 0.439838 0.352344 0.554130
O O8 0.000000 0.249610 0.250000
O O9 0.000000 0.483582 0.750000
O O10 0.831944 0.461283 0.770538
O O11 0.500000 0.475706 0.250000
O O12 0.779306 0.166643 0.351136
O O13 0.000000 0.000000 0.500000
O O14 0.976405 0.691970 0.414585
O O15 0.507066 0.680308 0.931302
O O16 0.500000 0.272592 0.250000
#
# Coordination Sequence:
#
# PCOD9232579 Si02
#       6
#     4   4   4   4   4   4
#     4  10  21  39  67 103 140 178 225 288 351 415
#     4  10  23  41  64  96 134 182 234 289 347 416
#     4  10  21  37  62  96 131 173 227 284 338 404
#     4  10  23  43  68 100 134 177 232 291 353 424
#     4  12  24  43  68 100 140 182 232 289 355 425
#     4  12  26  45  71 101 138 184 232 294 367 429
#
# _framework density 25.534085999999999
#
# number of rings (size 3 to 8) (size 9 to 14) (size 15 to 20)
#    0.000    1.333    0.000    5.500    0.000   10.667 
#    0.000    8.333    0.000    1.000    0.000    0.000 
#    0.000    0.000    0.000    0.000    0.000    0.000 
#
# Total GULP energy -133677.323661 kJ/mol
# GULP energy per Si atom -5569.888486 kJ/mol
# Density = 2.547597 g / cm^3
# Si number density = 25.534086 Si / 1000 Ang^3
#
#
#
# Elastic Constant Matrix: (Units=GPa)
#
#
# Indices 1 2 3 4 5 6 
#
# 1 517.9910 136.9875 569.7204 0.0000 281.4122 0.0000
# 2 136.9875 122.8490 165.0079 0.0000 66.4433 0.0000
# 3 569.7204 165.0079 914.9526 0.0000 339.2075 0.0000
# 4 0.0000 0.0000 0.0000 42.1395 0.0000 14.3959
# 5 281.4122 66.4433 339.2075 0.0000 295.2939 0.0000
# 6 0.0000 0.0000 0.0000 14.3959 0.0000 45.9175
#
#
#
# Elastic Compliance Matrix: (Units=1/GPa)
#
#
# Indices 1 2 3 4 5 6 
#
# 1 0.008123 -0.002802 -0.003338 0.000000 -0.003276 0.000000
# 2 -0.002802 0.011728 -0.000665 0.000000 0.000796 0.000000
# 3 -0.003338 -0.000665 0.003582 0.000000 -0.000784 0.000000
# 4 0.000000 0.000000 0.000000 0.026577 0.000000 -0.008332
# 5 -0.003276 0.000796 -0.000784 0.000000 0.007230 0.000000
# 6 0.000000 0.000000 0.000000 -0.008332 0.000000 0.024391
#
#
# Mechanical properties :
#
#
# Convention : Reuss Voigt Hill
#
# Bulk Modulus (GPa) = 101.81317 366.58046 234.19681
# Shear Modulus (GPa) = 50.75384 122.27531 86.51457
#
# Velocity S-wave (km/s) = 4.46319 6.92756 5.82714
# Velocity P-wave (km/s) = 8.15598 14.41752 11.71292
#
# Compressibility (1/GPa) = 0.00982191
#
# Stress axis : x y z
#
# Youngs Moduli (GPa) = 123.11476 85.26661 279.17403
#
# Poissons Ratio (x) = 0.23894 0.93183
# Poissons Ratio (y) = 0.34500 0.18571
# Poissons Ratio (z) = 0.41093 0.05672
#
# Static dielectric constant tensor:
#      x y z
#    x 2.054270 0.000000 0.024940 
#    y 0.000000 2.226070 0.000000 
#    z 0.024940 0.000000 2.162230 
# 
# From -- ./inp_files/51697.got.cif
#   From: 2010.05.17/outbox.cif.g08.bks.cpg/sg13_26_cif.got.tgz:51697.got - 2010.06.03 16:44:36.
