data_PCOD9232057
_publ_section_title
;
Structure prediction by ZEFSAII (Michael W. Deem and Ramdas Pophale) SiO2 
 PCOD9232057
Probable space group: P 2/C
;
_chemical_formula_sum "Si O2"
_cell_formula_units_Z 28
_cell_length_a 19.423793
_cell_length_b 5.735821
_cell_length_c 19.042296
_cell_angle_alpha 90.000000
_cell_angle_beta 34.098335
_cell_angle_gamma 90.000000
_cell_volume 1189.360752
_symmetry_space_group_name_H-M "P 2/C"
_symmetry_group_IT_number 13
_symmetry_cell_setting 'monoclinic'
loop_
_space_group_symop_operation_xyz
x,y,z
-x,y,1/2-z
-x,-y,-z
x,-y,1/2+z
loop_
_atom_site_type_symbol
_atom_site_label
_atom_site_fract_x
_atom_site_fract_y
_atom_site_fract_z
Si Si1 0.703053 0.447904 0.788287
Si Si2 0.888736 0.941868 0.189206
Si Si3 0.725672 0.746800 0.907398
Si Si4 0.092140 0.308666 0.453340
Si Si5 0.348562 0.464602 0.889486
Si Si6 0.632801 0.960376 0.675805
Si Si7 0.519321 0.911445 0.406239
O O1 0.781153 0.239796 0.759462
O O2 0.692943 0.631218 0.859918
O O3 0.781513 0.550606 0.657916
O O4 0.576993 0.345805 0.865246
O O5 0.847235 0.102233 0.289679
O O6 0.895130 0.110805 0.116554
O O7 0.019214 0.806267 0.080055
O O8 0.707447 0.562545 0.984661
O O9 0.612796 0.919210 0.018070
O O10 0.000000 0.500000 0.500000
O O11 0.500000 0.466034 0.750000
O O12 0.307014 0.720283 0.899488
O O13 0.309173 0.214916 0.888628
O O14 0.500000 0.966582 0.750000
O O15 0.610143 0.952305 0.778629
O O16 0.500000 0.000000 0.500000
#
# Coordination Sequence:
#
# PCOD9232057 Si02
#       7
#     4   4   4   4   4   4   4
#     4  10  21  31  51  83 119 156 198 250 318 370
#     4   9  17  32  52  78 114 150 194 247 311 361
#     4  11  21  34  53  85 116 169 204 256 303 375
#     4   8  16  33  51  73 112 155 185 248 309 373
#     4  10  21  36  58  72 113 170 209 243 286 359
#     4  10  22  40  55  74 111 177 205 246 292 365
#     4  12  23  35  54  85 124 167 204 257 314 379
#
# _framework density 23.542059999999999
#
# number of rings (size 3 to 8) (size 9 to 14) (size 15 to 20)
#    0.000    2.000    4.286    0.429    6.000    1.143 
#    0.000    0.000    0.000    0.000    0.000    0.000 
#    0.000   52.571    0.000    0.000    0.000    0.000 
#
# Total GULP energy -156094.811358 kJ/mol
# GULP energy per Si atom -5574.814691 kJ/mol
# Density = 2.348848 g / cm^3
# Si number density = 23.542060 Si / 1000 Ang^3
#
#
#
# Elastic Constant Matrix: (Units=GPa)
#
#
# Indices 1 2 3 4 5 6 
#
# 1 35.7169 17.6240 25.5554 0.0000 19.2291 0.0000
# 2 17.6240 135.6089 54.2579 0.0000 6.7182 0.0000
# 3 25.5554 54.2579 146.9435 0.0000 15.1108 0.0000
# 4 0.0000 0.0000 0.0000 55.3592 0.0000 -4.8385
# 5 19.2291 6.7182 15.1108 0.0000 31.0085 0.0000
# 6 0.0000 0.0000 0.0000 -4.8385 0.0000 28.0860
#
#
#
# Elastic Compliance Matrix: (Units=1/GPa)
#
#
# Indices 1 2 3 4 5 6 
#
# 1 0.046679 -0.003049 -0.004299 0.000000 -0.026191 0.000000
# 2 -0.003049 0.008855 -0.002881 0.000000 0.001376 0.000000
# 3 -0.004299 -0.002881 0.008715 0.000000 -0.000957 0.000000
# 4 0.000000 0.000000 0.000000 0.018340 0.000000 0.003159
# 5 -0.026191 0.001376 -0.000957 0.000000 0.048659 0.000000
# 6 0.000000 0.000000 0.000000 0.003159 0.000000 0.036149
#
#
# Mechanical properties :
#
#
# Convention : Reuss Voigt Hill
#
# Bulk Modulus (GPa) = 22.83547 57.01597 39.92572
# Shear Modulus (GPa) = 24.69721 37.61287 31.15504
#
# Velocity S-wave (km/s) = 3.24245 4.00145 3.64177
# Velocity P-wave (km/s) = 4.87225 6.75427 5.88893
#
# Compressibility (1/GPa) = 0.04379152
#
# Stress axis : x y z
#
# Youngs Moduli (GPa) = 21.42292 112.93227 114.74303
#
# Poissons Ratio (x) = 0.34432 0.49327
# Poissons Ratio (y) = 0.06532 0.33056
# Poissons Ratio (z) = 0.09210 0.32534
#
# Static dielectric constant tensor:
#      x y z
#    x 1.913230 0.000000 0.009700 
#    y 0.000000 2.100150 0.000000 
#    z 0.009700 0.000000 2.009020 
# 
# From -- ./inp_files/81931.got.cif
#   From: 2010.05.17/outbox.cif.g08.bks.cpg/sg13_41_cif.got.tgz:81931.got - 2010.06.03 16:44:36.
