data_PCOD9232543
_publ_section_title
;
Structure prediction by ZEFSAII (Michael W. Deem and Ramdas Pophale) SiO2 
 PCOD9232543
Probable space group: P 2/C
;
_chemical_formula_sum "Si O2"
_cell_formula_units_Z 28
_cell_length_a 6.402299
_cell_length_b 10.993677
_cell_length_c 21.507054
_cell_angle_alpha 90.000000
_cell_angle_beta 67.173662
_cell_angle_gamma 90.000000
_cell_volume 1395.218842
_symmetry_space_group_name_H-M "P 2/C"
_symmetry_group_IT_number 13
_symmetry_cell_setting 'monoclinic'
loop_
_space_group_symop_operation_xyz
x,y,z
-x,y,1/2-z
-x,-y,-z
x,-y,1/2+z
loop_
_atom_site_type_symbol
_atom_site_label
_atom_site_fract_x
_atom_site_fract_y
_atom_site_fract_z
Si Si1 0.056708 0.419831 0.911308
Si Si2 0.536011 0.080966 0.578623
Si Si3 0.834084 0.649315 0.967792
Si Si4 0.291843 0.219159 0.820631
Si Si5 0.037125 0.000652 0.674021
Si Si6 0.140146 0.128068 0.425090
Si Si7 0.379447 0.269098 0.492092
O O1 0.191852 0.352798 0.842090
O O2 0.998604 0.560587 0.910991
O O3 0.831063 0.338983 0.952193
O O4 0.188479 0.407241 0.961256
O O5 0.610757 0.172541 0.624607
O O6 0.452584 0.155710 0.527971
O O7 0.755931 0.990631 0.551136
O O8 0.305019 0.011232 0.627151
O O9 0.921130 0.787958 0.965220
O O10 0.593965 0.646323 0.963941
O O11 0.500000 0.212419 0.750000
O O12 0.088740 0.130150 0.822536
O O13 0.907821 0.914468 0.639324
O O14 0.000000 0.965603 0.750000
O O15 0.322930 0.224082 0.429548
#
# Coordination Sequence:
#
# PCOD9232543 Si02
#       7
#     4   4   4   4   4   4   4
#     4  10  21  37  61  89 119 162 203 249 303 359
#     4  11  21  35  58  87 122 156 193 251 306 361
#     4  10  21  39  58  87 128 159 200 249 300 367
#     4  11  21  37  61  89 115 153 206 251 301 360
#     4  11  22  39  60  84 117 157 201 251 305 363
#     4  10  24  35  58  89 120 159 196 240 304 374
#     4  11  20  36  59  91 123 156 195 251 311 361
#
# _framework density 20.068536999999999
#
# number of rings (size 3 to 8) (size 9 to 14) (size 15 to 20)
#    0.000    1.429    4.286    1.714    0.000    1.143 
#    0.000    0.000    3.143    0.857    0.000    0.000 
#    0.000    0.000    0.000    0.000    0.000    0.000 
#
# Total GULP energy -155981.848873 kJ/mol
# GULP energy per Si atom -5570.780317 kJ/mol
# Density = 2.002286 g / cm^3
# Si number density = 20.068537 Si / 1000 Ang^3
#
#
#
# Elastic Constant Matrix: (Units=GPa)
#
#
# Indices 1 2 3 4 5 6 
#
# 1 113.5961 37.8980 27.8530 0.0000 7.8351 0.0000
# 2 37.8980 71.2963 29.5712 0.0000 -3.7523 0.0000
# 3 27.8530 29.5712 50.6828 0.0000 8.1025 0.0000
# 4 0.0000 0.0000 0.0000 18.8563 0.0000 -2.1512
# 5 7.8351 -3.7523 8.1025 0.0000 36.8993 0.0000
# 6 0.0000 0.0000 0.0000 -2.1512 0.0000 19.5050
#
#
#
# Elastic Compliance Matrix: (Units=1/GPa)
#
#
# Indices 1 2 3 4 5 6 
#
# 1 0.011328 -0.004889 -0.003015 0.000000 -0.002241 0.000000
# 2 -0.004889 0.021332 -0.010646 0.000000 0.005545 0.000000
# 3 -0.003015 -0.010646 0.028676 0.000000 -0.006739 0.000000
# 4 0.000000 0.000000 0.000000 0.053709 0.000000 0.005923
# 5 -0.002241 0.005545 -0.006739 0.000000 0.029620 0.000000
# 6 0.000000 0.000000 0.000000 0.005923 0.000000 0.051922
#
#
# Mechanical properties :
#
#
# Convention : Reuss Voigt Hill
#
# Bulk Modulus (GPa) = 41.25947 47.35772 44.30859
# Shear Modulus (GPa) = 20.68119 24.40231 22.54175
#
# Velocity S-wave (km/s) = 3.21367 3.49083 3.35511
# Velocity P-wave (km/s) = 5.86294 6.31641 6.09390
#
# Compressibility (1/GPa) = 0.02423686
#
# Stress axis : x y z
#
# Youngs Moduli (GPa) = 88.27781 46.87746 34.87218
#
# Poissons Ratio (x) = 0.22918 0.10513
# Poissons Ratio (y) = 0.43159 0.37125
# Poissons Ratio (z) = 0.26612 0.49906
#
# Static dielectric constant tensor:
#      x y z
#    x 1.750250 0.000000 -0.013560 
#    y 0.000000 1.766170 0.000000 
#    z -0.013560 0.000000 1.685380 
# 
# From -- ./inp_files/73587.got.cif
#   From: 2010.05.17/outbox.cif.g08.bks.cpg/sg13_37_cif.got.tgz:73587.got - 2010.06.03 16:44:36.
