data_PCOD9232129
_publ_section_title
;
Structure prediction by ZEFSAII (Michael W. Deem and Ramdas Pophale) SiO2 
 PCOD9232129
Probable space group: P 2/C
;
_chemical_formula_sum "Si O2"
_cell_formula_units_Z 30
_cell_length_a 5.873519
_cell_length_b 11.755912
_cell_length_c 22.085692
_cell_angle_alpha 90.000000
_cell_angle_beta 71.995622
_cell_angle_gamma 90.000000
_cell_volume 1450.311390
_symmetry_space_group_name_H-M "P 2/C"
_symmetry_group_IT_number 13
_symmetry_cell_setting 'monoclinic'
loop_
_space_group_symop_operation_xyz
x,y,z
-x,y,1/2-z
-x,-y,-z
x,-y,1/2+z
loop_
_atom_site_type_symbol
_atom_site_label
_atom_site_fract_x
_atom_site_fract_y
_atom_site_fract_z
Si Si1 0.868155 0.823180 0.497319
Si Si2 0.498348 0.365899 0.993073
Si Si3 0.500000 0.190360 0.750000
Si Si4 0.846925 0.002773 0.209574
Si Si5 0.625278 0.780131 0.106516
Si Si6 0.717823 0.977870 0.409851
Si Si7 0.265366 0.795852 0.855480
Si Si8 0.259986 0.756050 0.620002
O O1 0.730413 0.705552 0.494326
O O2 0.744424 0.932375 0.476009
O O3 0.849694 0.834105 0.570684
O O4 0.119542 0.808983 0.443771
O O5 0.459547 0.324995 0.927803
O O6 0.500000 0.500000 0.000000
O O7 0.303222 0.317890 0.056327
O O8 0.409797 0.247845 0.819485
O O9 0.287178 0.103491 0.751133
O O10 0.682642 0.092401 0.188219
O O11 0.000000 0.060519 0.250000
O O12 0.031058 0.957045 0.144785
O O13 0.471586 0.893351 0.104917
O O14 0.685043 0.111947 0.402348
O O15 0.518375 0.733709 0.850651
O O16 0.025157 0.743261 0.842785
#
# Coordination Sequence:
#
# PCOD9232129 Si02
#       8
#     4   4   2   4   4   4   4   4
#     4  10  21  38  60  92 121 163 204 262 320 378
#     4  10  23  42  61  88 120 160 213 277 324 375
#     4  12  22  34  56  86 132 164 206 246 312 396
#     4  11  22  35  52  83 130 177 203 241 301 389
#     4  11  21  37  58  93 124 167 205 252 322 388
#     4  10  21  34  56  85 129 162 196 244 310 386
#     4  10  22  37  55  85 122 163 208 249 304 368
#     4  10  21  38  58  92 123 161 201 255 317 373
#
# _framework density 20.685213000000001
#
# number of rings (size 3 to 8) (size 9 to 14) (size 15 to 20)
#    0.000    1.600    4.000    0.800    3.733    8.533 
#    0.000    0.000    0.000    0.000   13.867    0.000 
#    0.000    0.000    0.000    0.000    0.000    0.000 
#
# Total GULP energy -167239.209468 kJ/mol
# GULP energy per Si atom -5574.640316 kJ/mol
# Density = 2.063813 g / cm^3
# Si number density = 20.685213 Si / 1000 Ang^3
#
#
#
# Elastic Constant Matrix: (Units=GPa)
#
#
# Indices 1 2 3 4 5 6 
#
# 1 93.5168 11.6826 30.0135 0.0000 -3.1663 0.0000
# 2 11.6826 97.0647 27.2249 0.0000 3.1929 0.0000
# 3 30.0135 27.2249 89.5102 0.0000 14.1937 0.0000
# 4 0.0000 0.0000 0.0000 12.1121 0.0000 0.0403
# 5 -3.1663 3.1929 14.1937 0.0000 43.6679 0.0000
# 6 0.0000 0.0000 0.0000 0.0403 0.0000 3.6290
#
#
#
# Elastic Compliance Matrix: (Units=1/GPa)
#
#
# Indices 1 2 3 4 5 6 
#
# 1 0.012214 -0.000322 -0.004367 0.000000 0.002328 0.000000
# 2 -0.000322 0.011276 -0.003360 0.000000 0.000244 0.000000
# 3 -0.004367 -0.003360 0.014412 0.000000 -0.004755 0.000000
# 4 0.000000 0.000000 0.000000 0.082565 0.000000 -0.000918
# 5 0.002328 0.000244 -0.004755 0.000000 0.024597 0.000000
# 6 0.000000 0.000000 0.000000 -0.000918 0.000000 0.275569
#
#
# Mechanical properties :
#
#
# Convention : Reuss Voigt Hill
#
# Bulk Modulus (GPa) = 45.86361 46.43707 46.15034
# Shear Modulus (GPa) = 11.26130 25.95985 18.61058
#
# Velocity S-wave (km/s) = 2.33580 3.54644 3.00276
# Velocity P-wave (km/s) = 5.43092 6.26640 5.86356
#
# Compressibility (1/GPa) = 0.02180378
#
# Stress axis : x y z
#
# Youngs Moduli (GPa) = 81.87475 88.68687 69.38540
#
# Poissons Ratio (x) = 0.02854 0.30299
# Poissons Ratio (y) = 0.02635 0.23316
# Poissons Ratio (z) = 0.35752 0.29802
#
# Static dielectric constant tensor:
#      x y z
#    x 1.912990 0.000000 0.017060 
#    y 0.000000 1.683870 0.000000 
#    z 0.017060 0.000000 1.787830 
# 
# From -- ./inp_files/83663.got.cif
#   From: 2010.05.17/outbox.cif.g08.bks.cpg/sg13_42_cif.got.tgz:83663.got - 2010.06.03 16:44:36.
