data_PCOD9232404
_publ_section_title
;
Structure prediction by ZEFSAII (Michael W. Deem and Ramdas Pophale) SiO2 
 PCOD9232404
Probable space group: P 2/C
;
_chemical_formula_sum "Si O2"
_cell_formula_units_Z 18
_cell_length_a 5.531480
_cell_length_b 16.348108
_cell_length_c 8.981739
_cell_angle_alpha 90.000000
_cell_angle_beta 80.187565
_cell_angle_gamma 90.000000
_cell_volume 800.329865
_symmetry_space_group_name_H-M "P 2/C"
_symmetry_group_IT_number 13
_symmetry_cell_setting 'monoclinic'
loop_
_space_group_symop_operation_xyz
x,y,z
-x,y,1/2-z
-x,-y,-z
x,-y,1/2+z
loop_
_atom_site_type_symbol
_atom_site_label
_atom_site_fract_x
_atom_site_fract_y
_atom_site_fract_z
Si Si1 0.742601 0.391333 0.280109
Si Si2 0.682343 0.068893 0.543907
Si Si3 0.500000 0.211984 0.750000
Si Si4 0.271085 0.438456 0.882403
Si Si5 0.000000 0.974212 0.750000
Si Si6 0.000000 0.311673 0.750000
O O1 0.500000 0.346094 0.250000
O O2 0.676843 0.427067 0.449781
O O3 0.784816 0.470262 0.167938
O O4 0.000000 0.345034 0.250000
O O5 0.562400 0.152971 0.605295
O O6 0.873193 0.079097 0.390216
O O7 0.500000 0.000000 0.500000
O O8 0.815226 0.031927 0.676174
O O9 0.750682 0.259181 0.768712
O O10 0.500000 0.414599 0.750000
O O11 0.044758 0.376838 0.877386
#
# Coordination Sequence:
#
# PCOD9232404 Si02
#       6
#     4   4   2   4   2   2
#     4  11  23  37  69 102 128 164 227 290 330 369
#     4  11  21  40  68 104 128 165 220 280 323 385
#     4  12  26  44  68  98 132 184 218 260 340 410
#     4  11  23  43  67 101 130 173 226 281 328 388
#     4  10  21  36  68 108 131 158 206 296 326 367
#     4  12  27  42  66  94 139 182 220 258 332 427
#
# _framework density 22.490725999999999
#
# number of rings (size 3 to 8) (size 9 to 14) (size 15 to 20)
#    0.000    0.889    4.444    4.000    6.222    0.000 
#    0.000    0.000    2.444    5.333    0.000    0.000 
#    0.000    0.000    0.000    0.000    0.000    0.000 
#
# Total GULP energy -100497.263197 kJ/mol
# GULP energy per Si atom -5583.181289 kJ/mol
# Density = 2.243954 g / cm^3
# Si number density = 22.490726 Si / 1000 Ang^3
#
#
#
# Elastic Constant Matrix: (Units=GPa)
#
#
# Indices 1 2 3 4 5 6 
#
# 1 182.1572 45.9773 35.8033 0.0000 12.3180 0.0000
# 2 45.9773 66.6962 10.6857 0.0000 -2.2678 0.0000
# 3 35.8033 10.6857 136.4018 0.0000 3.3616 0.0000
# 4 0.0000 0.0000 0.0000 4.6872 0.0000 4.4081
# 5 12.3180 -2.2678 3.3616 0.0000 47.5066 0.0000
# 6 0.0000 0.0000 0.0000 4.4081 0.0000 29.3757
#
#
#
# Elastic Compliance Matrix: (Units=1/GPa)
#
#
# Indices 1 2 3 4 5 6 
#
# 1 0.007100 -0.004730 -0.001445 0.000000 -0.001965 0.000000
# 2 -0.004730 0.018366 -0.000250 0.000000 0.002121 0.000000
# 3 -0.001445 -0.000250 0.007735 0.000000 -0.000185 0.000000
# 4 0.000000 0.000000 0.000000 0.248400 0.000000 -0.037274
# 5 -0.001965 0.002121 -0.000185 0.000000 0.021673 0.000000
# 6 0.000000 0.000000 0.000000 -0.037274 0.000000 0.039635
#
#
# Mechanical properties :
#
#
# Convention : Reuss Voigt Hill
#
# Bulk Modulus (GPa) = 49.13403 63.35421 56.24412
# Shear Modulus (GPa) = 13.79149 35.83317 24.81233
#
# Velocity S-wave (km/s) = 2.47899 3.99587 3.32509
# Velocity P-wave (km/s) = 5.48522 7.03701 6.30901
#
# Compressibility (1/GPa) = 0.02035249
#
# Stress axis : x y z
#
# Youngs Moduli (GPa) = 140.83539 54.44803 129.28902
#
# Poissons Ratio (x) = 0.25754 0.18680
# Poissons Ratio (y) = 0.66616 0.03226
# Poissons Ratio (z) = 0.20348 0.01359
#
# Static dielectric constant tensor:
#      x y z
#    x 1.990500 0.000000 -0.004790 
#    y 0.000000 1.832470 0.000000 
#    z -0.004790 0.000000 1.852810 
# 
# From -- ./inp_files/9450.got.cif
#   From: 2010.05.17/outbox.cif.g08.bks.cpg/sg13_5_cif.got.tgz:9450.got - 2010.06.03 16:44:36.
