data_PCOD9232408
_publ_section_title
;
Structure prediction by ZEFSAII (Michael W. Deem and Ramdas Pophale) SiO2 
 PCOD9232408
Probable space group: P 2/C
;
_chemical_formula_sum "Si O2"
_cell_formula_units_Z 30
_cell_length_a 20.526833
_cell_length_b 13.351450
_cell_length_c 8.865492
_cell_angle_alpha 90.000000
_cell_angle_beta 44.586842
_cell_angle_gamma 90.000000
_cell_volume 1705.626174
_symmetry_space_group_name_H-M "P 2/C"
_symmetry_group_IT_number 13
_symmetry_cell_setting 'monoclinic'
loop_
_space_group_symop_operation_xyz
x,y,z
-x,y,1/2-z
-x,-y,-z
x,-y,1/2+z
loop_
_atom_site_type_symbol
_atom_site_label
_atom_site_fract_x
_atom_site_fract_y
_atom_site_fract_z
Si Si1 0.000000 0.005284 0.750000
Si Si2 0.059804 0.686946 0.293242
Si Si3 0.610324 0.417773 0.208514
Si Si4 0.406704 0.371889 0.606369
Si Si5 0.232347 0.717339 0.517495
Si Si6 0.920370 0.861109 0.625840
Si Si7 0.217849 0.627942 0.866268
Si Si8 0.894785 0.421538 0.481286
O O1 0.953054 0.934528 0.704225
O O2 0.071801 0.076135 0.541604
O O3 0.092135 0.608024 0.365360
O O4 0.000000 0.648585 0.250000
O O5 0.996580 0.771444 0.476599
O O6 0.154197 0.713398 0.049820
O O7 0.516542 0.356241 0.402257
O O8 0.596745 0.534360 0.273092
O O9 0.693239 0.382896 0.176615
O O10 0.628496 0.407081 0.000857
O O11 0.336070 0.286241 0.778067
O O12 0.178057 0.816028 0.661486
O O13 0.237970 0.653575 0.661369
O O14 0.163679 0.662822 0.511707
O O15 0.161299 0.523559 0.952609
O O16 0.000000 0.424915 0.250000
#
# Coordination Sequence:
#
# PCOD9232408 Si02
#       8
#     2   4   4   4   4   4   4   4
#     4  10  22  38  64  74 112 142 178 224 308 368
#     4  12  22  38  51  75 115 150 190 241 266 329
#     4  10  21  37  53  74 107 154 203 233 276 310
#     4  10  21  37  54  74 107 151 198 247 271 312
#     4  12  22  36  54  81 112 144 196 243 269 327
#     4  11  21  40  55  85 105 146 179 232 288 352
#     4  12  23  33  51  76 112 157 199 228 266 318
#     4  12  23  33  48  73 110 161 198 228 269 307
#
# _framework density 17.588847999999999
#
# number of rings (size 3 to 8) (size 9 to 14) (size 15 to 20)
#    0.000    0.800    4.667    3.600    0.000    3.200 
#    0.000    0.000    0.000    0.000    0.000    0.000 
#    0.000   36.267    0.000    0.000    0.000    0.000 
#
# Total GULP energy -167355.147066 kJ/mol
# GULP energy per Si atom -5578.504902 kJ/mol
# Density = 1.754882 g / cm^3
# Si number density = 17.588848 Si / 1000 Ang^3
#
#
#
# Elastic Constant Matrix: (Units=GPa)
#
#
# Indices 1 2 3 4 5 6 
#
# 1 117.4012 29.6972 39.7003 0.0000 6.6678 0.0000
# 2 29.6972 52.1167 34.9573 0.0000 -0.3652 0.0000
# 3 39.7003 34.9573 116.3941 0.0000 3.6620 0.0000
# 4 0.0000 0.0000 0.0000 20.0898 0.0000 -2.3646
# 5 6.6678 -0.3652 3.6620 0.0000 38.9044 0.0000
# 6 0.0000 0.0000 0.0000 -2.3646 0.0000 15.6285
#
#
#
# Elastic Compliance Matrix: (Units=1/GPa)
#
#
# Indices 1 2 3 4 5 6 
#
# 1 0.010490 -0.004538 -0.002164 0.000000 -0.001637 0.000000
# 2 -0.004538 0.026023 -0.006319 0.000000 0.001617 0.000000
# 3 -0.002164 -0.006319 0.011251 0.000000 -0.000747 0.000000
# 4 0.000000 0.000000 0.000000 0.050679 0.000000 0.007668
# 5 -0.001637 0.001617 -0.000747 0.000000 0.026070 0.000000
# 6 0.000000 0.000000 0.000000 0.007668 0.000000 0.065146
#
#
# Mechanical properties :
#
#
# Convention : Reuss Voigt Hill
#
# Bulk Modulus (GPa) = 46.03277 54.95796 50.49537
# Shear Modulus (GPa) = 22.42746 27.02834 24.72790
#
# Velocity S-wave (km/s) = 3.57472 3.92430 3.75358
# Velocity P-wave (km/s) = 6.57773 7.20050 6.89615
#
# Compressibility (1/GPa) = 0.02172365
#
# Stress axis : x y z
#
# Youngs Moduli (GPa) = 95.32621 38.42750 88.88258
#
# Poissons Ratio (x) = 0.17437 0.19232
# Poissons Ratio (y) = 0.43256 0.56163
# Poissons Ratio (z) = 0.20626 0.24281
#
# Static dielectric constant tensor:
#      x y z
#    x 1.625040 0.000000 0.008440 
#    y 0.000000 1.604680 0.000000 
#    z 0.008440 0.000000 1.678190 
# 
# From -- ./inp_files/23497.got.cif
#   From: 2010.05.17/outbox.cif.g08.bks.cpg/sg13_12_cif.got.tgz:23497.got - 2010.06.03 16:44:36.
