data_PCOD9232660
_publ_section_title
;
Structure prediction by ZEFSAII (Michael W. Deem and Ramdas Pophale) SiO2 
 PCOD9232660
Probable space group: P 2/C
;
_chemical_formula_sum "Si O2"
_cell_formula_units_Z 32
_cell_length_a 22.959122
_cell_length_b 11.741517
_cell_length_c 11.143673
_cell_angle_alpha 90.000000
_cell_angle_beta 147.522367
_cell_angle_gamma 90.000000
_cell_volume 1613.088270
_symmetry_space_group_name_H-M "P 2/C"
_symmetry_group_IT_number 13
_symmetry_cell_setting 'monoclinic'
loop_
_space_group_symop_operation_xyz
x,y,z
-x,y,1/2-z
-x,-y,-z
x,-y,1/2+z
loop_
_atom_site_type_symbol
_atom_site_label
_atom_site_fract_x
_atom_site_fract_y
_atom_site_fract_z
Si Si1 0.933142 0.470342 0.260321
Si Si2 0.820005 0.850188 0.909194
Si Si3 0.417071 0.912785 0.000577
Si Si4 0.078677 0.760197 0.647262
Si Si5 0.684095 0.223472 0.590975
Si Si6 0.880696 0.101009 0.071671
Si Si7 0.502409 0.161262 0.413139
Si Si8 0.834375 0.304765 0.659644
O O1 0.883351 0.347603 0.206574
O O2 0.851953 0.576550 0.121032
O O3 0.000000 0.466889 0.250000
O O4 0.000000 0.500000 0.500000
O O5 0.701884 0.886804 0.660356
O O6 0.879823 0.771051 0.916579
O O7 0.804116 0.787083 0.007293
O O8 0.880610 0.968390 0.039998
O O9 0.500000 0.901094 0.250000
O O10 0.430713 0.041962 0.974970
O O11 0.453131 0.828687 0.957904
O O12 0.123597 0.871177 0.794309
O O13 0.948934 0.741872 0.412306
O O14 0.591809 0.254281 0.528487
O O15 0.601975 0.156456 0.356870
O O16 0.746972 0.311483 0.614452
O O17 0.782022 0.157193 0.826866
O O18 0.000000 0.150432 0.250000
#
# Coordination Sequence:
#
# PCOD9232660 Si02
#       8
#     4   4   4   4   4   4   4   4
#     4  10  22  43  69  90 125 171 224 272 301 378
#     4  12  25  38  59  93 133 173 203 259 328 389
#     4  11  21  36  57  82 118 163 216 263 300 366
#     4  11  25  40  61  93 132 172 213 253 320 392
#     4  11  21  38  59  87 122 164 212 260 312 374
#     4  12  24  36  56  90 137 169 197 246 322 405
#     4  10  21  38  57  80 119 165 220 258 302 368
#     4  11  22  41  63  92 126 167 217 263 322 380
#
# _framework density 19.837723
#
# number of rings (size 3 to 8) (size 9 to 14) (size 15 to 20)
#    0.000    1.000    5.000    3.000    5.250    1.000 
#    0.000    0.000    0.000    0.000    3.250    5.250 
#    0.000    0.000    0.000    0.000    0.000    0.000 
#
# Total GULP energy -178239.069343 kJ/mol
# GULP energy per Si atom -5569.970917 kJ/mol
# Density = 1.979257 g / cm^3
# Si number density = 19.837723 Si / 1000 Ang^3
#
#
#
# Elastic Constant Matrix: (Units=GPa)
#
#
# Indices 1 2 3 4 5 6 
#
# 1 119.9426 23.4355 18.7293 0.0000 11.6973 0.0000
# 2 23.4355 52.4790 21.9786 0.0000 4.0344 0.0000
# 3 18.7293 21.9786 87.6900 0.0000 20.2169 0.0000
# 4 0.0000 0.0000 0.0000 10.2579 0.0000 -6.8667
# 5 11.6973 4.0344 20.2169 0.0000 31.8337 0.0000
# 6 0.0000 0.0000 0.0000 -6.8667 0.0000 27.9858
#
#
#
# Elastic Compliance Matrix: (Units=1/GPa)
#
#
# Indices 1 2 3 4 5 6 
#
# 1 0.009414 -0.003815 -0.000431 0.000000 -0.002701 0.000000
# 2 -0.003815 0.022854 -0.005352 0.000000 0.001905 0.000000
# 3 -0.000431 -0.005352 0.014814 0.000000 -0.008571 0.000000
# 4 0.000000 0.000000 0.000000 0.116645 0.000000 0.028621
# 5 -0.002701 0.001905 -0.008571 0.000000 0.037608 0.000000
# 6 0.000000 0.000000 0.000000 0.028621 0.000000 0.042755
#
#
# Mechanical properties :
#
#
# Convention : Reuss Voigt Hill
#
# Bulk Modulus (GPa) = 35.86446 43.15536 39.50991
# Shear Modulus (GPa) = 18.34310 27.08002 22.71156
#
# Velocity S-wave (km/s) = 3.04412 3.69870 3.38726
# Velocity P-wave (km/s) = 5.52030 6.32787 5.93783
#
# Compressibility (1/GPa) = 0.02788275
#
# Stress axis : x y z
#
# Youngs Moduli (GPa) = 106.22862 43.75541 67.50593
#
# Poissons Ratio (x) = 0.16695 0.02913
# Poissons Ratio (y) = 0.40531 0.36132
# Poissons Ratio (z) = 0.04584 0.23420
#
# Static dielectric constant tensor:
#      x y z
#    x 1.777770 0.000000 -0.025640 
#    y 0.000000 1.756100 0.000000 
#    z -0.025640 0.000000 1.735000 
# 
# From -- ./inp_files/41868.got.cif
#   From: 2010.05.17/outbox.cif.g08.bks.cpg/sg13_21_cif.got.tgz:41868.got - 2010.06.03 16:44:36.
