data_PCOD9232244
_publ_section_title
;
Structure prediction by ZEFSAII (Michael W. Deem and Ramdas Pophale) SiO2 
 PCOD9232244
Probable space group: P 2/C
;
_chemical_formula_sum "Si O2"
_cell_formula_units_Z 30
_cell_length_a 21.663816
_cell_length_b 11.587886
_cell_length_c 8.538671
_cell_angle_alpha 90.000000
_cell_angle_beta 137.386348
_cell_angle_gamma 90.000000
_cell_volume 1451.279484
_symmetry_space_group_name_H-M "P 2/C"
_symmetry_group_IT_number 13
_symmetry_cell_setting 'monoclinic'
loop_
_space_group_symop_operation_xyz
x,y,z
-x,y,1/2-z
-x,-y,-z
x,-y,1/2+z
loop_
_atom_site_type_symbol
_atom_site_label
_atom_site_fract_x
_atom_site_fract_y
_atom_site_fract_z
Si Si1 0.710691 0.662526 0.883520
Si Si2 0.119482 0.399154 0.604853
Si Si3 0.440217 0.844290 0.892859
Si Si4 0.385843 0.923988 0.140913
Si Si5 0.233878 0.767654 0.841463
Si Si6 0.368212 0.584837 0.250930
Si Si7 0.924703 0.645176 0.839779
Si Si8 0.500000 0.463417 0.250000
O O1 0.616461 0.729059 0.745060
O O2 0.753371 0.727723 0.814209
O O3 0.685358 0.530910 0.797878
O O4 0.785334 0.652436 0.159217
O O5 0.109553 0.535464 0.623067
O O6 0.103576 0.378856 0.392397
O O7 0.033756 0.347112 0.541406
O O8 0.410174 0.944165 0.718181
O O9 0.408984 0.887377 0.007469
O O10 0.549012 0.848994 0.121216
O O11 0.281075 0.889548 0.964416
O O12 0.130659 0.753644 0.701060
O O13 0.296351 0.676834 0.055697
O O14 0.437070 0.545708 0.240726
O O15 0.433200 0.611435 0.518008
#
# Coordination Sequence:
#
# PCOD9232244 Si02
#       8
#     4   4   4   4   4   4   4   2
#     4  11  22  35  56  80 111 143 181 224 271 325
#     4  10  21  36  54  79 111 144 180 223 271 327
#     4   9  20  38  56  78 107 144 184 225 268 314
#     4   9  20  38  56  78 107 144 184 225 268 314
#     4  11  22  35  56  80 111 143 181 224 271 325
#     4  11  22  36  47  78 108 146 183 214 265 322
#     4  10  21  36  54  79 111 144 180 223 271 327
#     4  10  24  34  48  66 116 150 178 216 260 324
#
# _framework density 20.671413999999999
#
# number of rings (size 3 to 8) (size 9 to 14) (size 15 to 20)
#    0.000    1.867    2.667    0.800    5.600    2.667 
#    0.000    0.000    0.000    0.800    0.000    0.000 
#    0.000    0.000    0.000    0.000    0.000    0.000 
#
# Total GULP energy -167647.532549 kJ/mol
# GULP energy per Si atom -5588.251085 kJ/mol
# Density = 2.062437 g / cm^3
# Si number density = 20.671414 Si / 1000 Ang^3
#
#
#
# Elastic Constant Matrix: (Units=GPa)
#
#
# Indices 1 2 3 4 5 6 
#
# 1 46.5622 -6.6759 -7.8270 0.0000 7.5128 0.0000
# 2 -6.6759 28.4766 2.7299 0.0000 0.9513 0.0000
# 3 -7.8270 2.7299 71.5004 0.0000 0.2054 0.0000
# 4 0.0000 0.0000 0.0000 9.3084 0.0000 12.9695
# 5 7.5128 0.9513 0.2054 0.0000 30.4027 0.0000
# 6 0.0000 0.0000 0.0000 12.9695 0.0000 16.9605
#
#
#
# Elastic Compliance Matrix: (Units=1/GPa)
#
#
# Indices 1 2 3 4 5 6 
#
# 1 0.023643 0.005515 0.002395 0.000000 -0.006031 0.000000
# 2 0.005515 0.036568 -0.000785 0.000000 -0.002502 0.000000
# 3 0.002395 -0.000785 0.014280 0.000000 -0.000664 0.000000
# 4 0.000000 0.000000 0.000000 -1.641459 0.000000 1.255201
# 5 -0.006031 -0.002502 -0.000664 0.000000 0.034465 0.000000
# 6 0.000000 0.000000 0.000000 1.255201 0.000000 -0.900875
#
#
# Mechanical properties :
#
#
# Convention : Reuss Voigt Hill
#
# Bulk Modulus (GPa) = 11.26889 13.66589 12.46739
# Shear Modulus (GPa) = -2.06779 21.88847 9.91034
#
# Velocity S-wave (km/s) = -1.00124 3.25757 2.19195
# Velocity P-wave (km/s) = 2.03141 4.55789 3.52853
#
# Compressibility (1/GPa) = 0.08873985
#
# Stress axis : x y z
#
# Youngs Moduli (GPa) = 42.29571 27.34617 70.02800
#
# Poissons Ratio (x) = -0.15080 -0.16771
# Poissons Ratio (y) = -0.23325 0.05499
# Poissons Ratio (z) = -0.10130 0.02148
#
# Static dielectric constant tensor:
#      x y z
#    x 1.801000 0.000000 0.005280 
#    y 0.000000 1.744400 0.000000 
#    z 0.005280 0.000000 1.746130 
# 
# From -- ./inp_files/24155.got.cif
#   From: 2010.05.17/outbox.cif.g08.bks.cpg/sg13_13_cif.got.tgz:24155.got - 2010.06.03 16:44:36.
