data_PCOD9232468
_publ_section_title
;
Structure prediction by ZEFSAII (Michael W. Deem and Ramdas Pophale) SiO2 
 PCOD9232468
Probable space group: P 2/C
;
_chemical_formula_sum "Si O2"
_cell_formula_units_Z 30
_cell_length_a 22.946939
_cell_length_b 8.122903
_cell_length_c 15.188137
_cell_angle_alpha 90.000000
_cell_angle_beta 27.755073
_cell_angle_gamma 90.000000
_cell_volume 1318.378550
_symmetry_space_group_name_H-M "P 2/C"
_symmetry_group_IT_number 13
_symmetry_cell_setting 'monoclinic'
loop_
_space_group_symop_operation_xyz
x,y,z
-x,y,1/2-z
-x,-y,-z
x,-y,1/2+z
loop_
_atom_site_type_symbol
_atom_site_label
_atom_site_fract_x
_atom_site_fract_y
_atom_site_fract_z
Si Si1 0.779857 0.942969 0.819220
Si Si2 0.357525 0.615588 0.129864
Si Si3 0.000000 0.360666 0.250000
Si Si4 0.870302 0.858949 0.048114
Si Si5 0.640005 0.381714 0.537390
Si Si6 0.481586 0.899061 0.875534
Si Si7 0.740013 0.447308 0.073138
Si Si8 0.248780 0.059349 0.452032
O O1 0.876597 0.005193 0.616300
O O2 0.747911 0.755621 0.884907
O O3 0.645040 0.998178 0.958710
O O4 0.803655 0.034290 0.879666
O O5 0.229159 0.720160 0.288283
O O6 0.348538 0.536085 0.237195
O O7 0.367670 0.474569 0.044382
O O8 0.462764 0.749780 0.967797
O O9 0.985437 0.244318 0.355587
O O10 0.876146 0.469819 0.404484
O O11 0.817031 0.952089 0.033579
O O12 0.500000 0.318590 0.750000
O O13 0.684211 0.509502 0.552805
O O14 0.500000 0.837655 0.750000
O O15 0.605884 0.995348 0.735488
O O16 0.752455 0.252211 0.068656
#
# Coordination Sequence:
#
# PCOD9232468 Si02
#       8
#     4   4   2   4   4   4   4   4
#     4  10  21  37  59  90 124 163 205 246 302 370
#     4  10  21  37  58  90 126 165 205 248 309 371
#     4  10  24  46  64  88 122 162 212 270 316 358
#     4  10  22  41  63  85 120 161 210 261 304 365
#     4  12  23  39  64  97 134 166 202 251 309 371
#     4   9  18  34  55  85 126 161 198 245 298 370
#     4  11  24  41  62  89 124 162 208 262 313 366
#     4  11  21  38  61  88 120 160 203 251 310 369
#
# _framework density 22.755224999999999
#
# number of rings (size 3 to 8) (size 9 to 14) (size 15 to 20)
#    0.000    1.600    0.000    7.200    0.000    5.867 
#    0.000    8.667    0.000    0.000    0.000    0.000 
#    0.000    0.000    0.000    0.000    0.000    0.000 
#
# Total GULP energy -167795.594111 kJ/mol
# GULP energy per Si atom -5593.186470 kJ/mol
# Density = 2.270343 g / cm^3
# Si number density = 22.755225 Si / 1000 Ang^3
#
#
#
# Elastic Constant Matrix: (Units=GPa)
#
#
# Indices 1 2 3 4 5 6 
#
# 1 82.2640 10.6361 31.7312 0.0000 -5.2122 0.0000
# 2 10.6361 77.1452 11.8653 0.0000 -2.2784 0.0000
# 3 31.7312 11.8653 77.7066 0.0000 6.5535 0.0000
# 4 0.0000 0.0000 0.0000 23.2873 0.0000 1.5936
# 5 -5.2122 -2.2784 6.5535 0.0000 30.5747 0.0000
# 6 0.0000 0.0000 0.0000 1.5936 0.0000 33.9663
#
#
#
# Elastic Compliance Matrix: (Units=1/GPa)
#
#
# Indices 1 2 3 4 5 6 
#
# 1 0.014945 -0.000983 -0.006275 0.000000 0.003820 0.000000
# 2 -0.000983 0.013402 -0.001747 0.000000 0.001206 0.000000
# 3 -0.006275 -0.001747 0.016090 0.000000 -0.004649 0.000000
# 4 0.000000 0.000000 0.000000 0.043080 0.000000 -0.002021
# 5 0.003820 0.001206 -0.004649 0.000000 0.034444 0.000000
# 6 0.000000 0.000000 0.000000 -0.002021 0.000000 0.029536
#
#
# Mechanical properties :
#
#
# Convention : Reuss Voigt Hill
#
# Bulk Modulus (GPa) = 37.83745 38.39791 38.11768
# Shear Modulus (GPa) = 28.04001 29.75788 28.89894
#
# Velocity S-wave (km/s) = 3.51414 3.62019 3.56756
# Velocity P-wave (km/s) = 5.75584 5.86390 5.81012
#
# Compressibility (1/GPa) = 0.02642884
#
# Stress axis : x y z
#
# Youngs Moduli (GPa) = 66.90991 74.61388 62.15008
#
# Poissons Ratio (x) = 0.07332 0.38999
# Poissons Ratio (y) = 0.06575 0.10857
# Poissons Ratio (z) = 0.41986 0.13034
#
# Static dielectric constant tensor:
#      x y z
#    x 1.814280 0.000000 -0.016530 
#    y 0.000000 1.836640 0.000000 
#    z -0.016530 0.000000 1.882920 
# 
# From -- ./inp_files/58671.got.cif
#   From: 2010.05.17/outbox.cif.g08.bks.cpg/sg13_30_cif.got.tgz:58671.got - 2010.06.03 16:44:36.
