data_PCOD9232450
_publ_section_title
;
Structure prediction by ZEFSAII (Michael W. Deem and Ramdas Pophale) SiO2 
 PCOD9232450
Probable space group: P 2/C
;
_chemical_formula_sum "Si O2"
_cell_formula_units_Z 20
_cell_length_a 10.933758
_cell_length_b 6.775059
_cell_length_c 13.378040
_cell_angle_alpha 90.000000
_cell_angle_beta 75.890053
_cell_angle_gamma 90.000000
_cell_volume 961.104282
_symmetry_space_group_name_H-M "P 2/C"
_symmetry_group_IT_number 13
_symmetry_cell_setting 'monoclinic'
loop_
_space_group_symop_operation_xyz
x,y,z
-x,y,1/2-z
-x,-y,-z
x,-y,1/2+z
loop_
_atom_site_type_symbol
_atom_site_label
_atom_site_fract_x
_atom_site_fract_y
_atom_site_fract_z
Si Si1 0.883318 0.325364 0.412981
Si Si2 0.167792 0.043765 0.700256
Si Si3 0.454509 0.009024 0.656948
Si Si4 0.004981 0.751113 0.097577
Si Si5 0.588181 0.314618 0.504736
O O1 0.953373 0.231072 0.495903
O O2 0.737027 0.365154 0.473389
O O3 0.965112 0.523383 0.381531
O O4 0.868281 0.182437 0.319722
O O5 0.311631 0.078450 0.696372
O O6 0.089189 0.141561 0.805896
O O7 0.136693 0.145988 0.599927
O O8 0.500000 0.915078 0.750000
O O9 0.544646 0.191719 0.610696
O O10 0.444370 0.843107 0.574959
O O11 0.500000 0.500000 0.500000
#
# Coordination Sequence:
#
# PCOD9232450 Si02
#       5
#     4   4   4   4   4
#     4  10  21  39  60  84 117 152 192 238 285 342
#     4  10  21  37  58  84 116 149 190 240 285 337
#     4  10  21  38  59  85 115 150 193 237 285 339
#     4  10  21  37  59  86 115 153 191 232 289 343
#     4  10  21  38  60  85 115 152 192 237 286 340
#
# _framework density 20.809398000000002
#
# number of rings (size 3 to 8) (size 9 to 14) (size 15 to 20)
#    0.000    2.000    0.000    3.000    0.000    4.000 
#    0.000   16.000    0.000    0.000    0.000    0.000 
#    0.000    0.000    0.000    0.000    0.000    0.000 
#
# Total GULP energy -111483.080053 kJ/mol
# GULP energy per Si atom -5574.154003 kJ/mol
# Density = 2.076204 g / cm^3
# Si number density = 20.809398 Si / 1000 Ang^3
#
#
#
# Elastic Constant Matrix: (Units=GPa)
#
#
# Indices 1 2 3 4 5 6 
#
# 1 121.2299 18.9346 35.4781 0.0000 0.2693 0.0000
# 2 18.9346 61.7251 3.8048 0.0000 -9.6415 0.0000
# 3 35.4781 3.8048 42.9845 0.0000 4.4608 0.0000
# 4 0.0000 0.0000 0.0000 24.9593 0.0000 0.4381
# 5 0.2693 -9.6415 4.4608 0.0000 34.8091 0.0000
# 6 0.0000 0.0000 0.0000 0.4381 0.0000 28.5664
#
#
#
# Elastic Compliance Matrix: (Units=1/GPa)
#
#
# Indices 1 2 3 4 5 6 
#
# 1 0.011381 -0.002881 -0.009169 0.000000 0.000289 0.000000
# 2 -0.002881 0.017836 0.000288 0.000000 0.004926 0.000000
# 3 -0.009169 0.000288 0.031206 0.000000 -0.003848 0.000000
# 4 0.000000 0.000000 0.000000 0.040076 0.000000 -0.000615
# 5 0.000289 0.004926 -0.003848 0.000000 0.030583 0.000000
# 6 0.000000 0.000000 0.000000 -0.000615 0.000000 0.035016
#
#
# Mechanical properties :
#
#
# Convention : Reuss Voigt Hill
#
# Bulk Modulus (GPa) = 27.10057 38.04162 32.57110
# Shear Modulus (GPa) = 24.76203 28.84843 26.80523
#
# Velocity S-wave (km/s) = 3.45330 3.72737 3.59295
# Velocity P-wave (km/s) = 5.38070 6.07001 5.73572
#
# Compressibility (1/GPa) = 0.03689959
#
# Stress axis : x y z
#
# Youngs Moduli (GPa) = 87.86267 56.06552 32.04540
#
# Poissons Ratio (x) = 0.16153 0.29382
# Poissons Ratio (y) = 0.25313 -0.00923
# Poissons Ratio (z) = 0.80560 -0.01614
#
# Static dielectric constant tensor:
#      x y z
#    x 1.567400 0.000000 -0.374180 
#    y 0.000000 1.821400 0.000000 
#    z -0.374180 0.000000 1.241290 
# 
# From -- ./inp_files/48818.got.cif
#   From: 2010.05.17/outbox.cif.g08.bks.cpg/sg13_25_cif.got.tgz:48818.got - 2010.06.03 16:44:36.
