data_PCOD9232500
_publ_section_title
;
Structure prediction by ZEFSAII (Michael W. Deem and Ramdas Pophale) SiO2 
 PCOD9232500
Probable space group: P 2/C
;
_chemical_formula_sum "Si O2"
_cell_formula_units_Z 20
_cell_length_a 11.672135
_cell_length_b 14.740014
_cell_length_c 8.924968
_cell_angle_alpha 90.000000
_cell_angle_beta 139.041783
_cell_angle_gamma 90.000000
_cell_volume 1006.544966
_symmetry_space_group_name_H-M "P 2/C"
_symmetry_group_IT_number 13
_symmetry_cell_setting 'monoclinic'
loop_
_space_group_symop_operation_xyz
x,y,z
-x,y,1/2-z
-x,-y,-z
x,-y,1/2+z
loop_
_atom_site_type_symbol
_atom_site_label
_atom_site_fract_x
_atom_site_fract_y
_atom_site_fract_z
Si Si1 0.838526 0.935231 0.295131
Si Si2 0.289522 0.735305 0.352282
Si Si3 0.995985 0.400319 0.563969
Si Si4 0.325681 0.931650 0.675497
Si Si5 0.310024 0.737902 0.736927
O O1 0.813512 0.827328 0.295921
O O2 0.677732 0.979860 0.227124
O O3 0.000000 0.000000 0.500000
O O4 0.811816 0.945237 0.092546
O O5 0.300184 0.734120 0.544897
O O6 0.492533 0.725990 0.508265
O O7 0.170269 0.652224 0.186436
O O8 0.830509 0.337115 0.353127
O O9 0.000000 0.405190 0.750000
O O10 0.000000 0.500000 0.500000
O O11 0.500000 0.913200 0.750000
O O12 0.273259 0.844871 0.724147
#
# Coordination Sequence:
#
# PCOD9232500 Si02
#       5
#     4   4   4   4   4
#     4  11  21  34  55  84 116 152 195 236 279 334
#     4   9  18  35  55  81 108 149 189 221 277 343
#     4  10  21  37  60  82 107 140 184 237 288 342
#     4  11  20  35  56  83 115 151 196 233 278 336
#     4   9  17  35  58  79 108 147 191 229 266 339
#
# _framework density 19.869952000000001
#
# number of rings (size 3 to 8) (size 9 to 14) (size 15 to 20)
#    0.000    2.000    4.000    2.400    0.000    4.000 
#    0.000    4.000    0.000    0.000    0.000    0.000 
#    0.000    0.000    0.000    0.000    0.000    0.000 
#
# Total GULP energy -111356.378662 kJ/mol
# GULP energy per Si atom -5567.818933 kJ/mol
# Density = 1.982473 g / cm^3
# Si number density = 19.869952 Si / 1000 Ang^3
#
#
#
# Elastic Constant Matrix: (Units=GPa)
#
#
# Indices 1 2 3 4 5 6 
#
# 1 34.0327 39.3258 25.2453 0.0000 15.1015 0.0000
# 2 39.3258 183.2233 73.9230 0.0000 17.2534 0.0000
# 3 25.2453 73.9230 124.9707 0.0000 38.9463 0.0000
# 4 0.0000 0.0000 0.0000 26.7616 0.0000 1.3308
# 5 15.1015 17.2534 38.9463 0.0000 20.1253 0.0000
# 6 0.0000 0.0000 0.0000 1.3308 0.0000 36.5735
#
#
#
# Elastic Compliance Matrix: (Units=1/GPa)
#
#
# Indices 1 2 3 4 5 6 
#
# 1 0.062921 -0.013779 0.016308 0.000000 -0.066960 0.000000
# 2 -0.013779 0.010408 -0.009611 0.000000 0.020015 0.000000
# 3 0.016308 -0.009611 0.029322 0.000000 -0.060742 0.000000
# 4 0.000000 0.000000 0.000000 0.037435 0.000000 -0.001362
# 5 -0.066960 0.020015 -0.060742 0.000000 0.200322 0.000000
# 6 0.000000 0.000000 0.000000 -0.001362 0.000000 0.027392
#
#
# Mechanical properties :
#
#
# Convention : Reuss Voigt Hill
#
# Bulk Modulus (GPa) = 11.30102 68.80165 40.05134
# Shear Modulus (GPa) = 12.15182 30.27426 21.21304
#
# Velocity S-wave (km/s) = 2.47567 3.90759 3.27095
# Velocity P-wave (km/s) = 3.72448 7.42026 5.87077
#
# Compressibility (1/GPa) = 0.08848759
#
# Stress axis : x y z
#
# Youngs Moduli (GPa) = 15.89284 96.07952 34.10361
#
# Poissons Ratio (x) = 1.32389 -0.55615
# Poissons Ratio (y) = 0.21899 0.32776
# Poissons Ratio (z) = -0.25918 0.92339
#
# Static dielectric constant tensor:
#      x y z
#    x 1.739780 0.000000 0.076320 
#    y 0.000000 1.684200 0.000000 
#    z 0.076320 0.000000 1.769080 
# 
# From -- ./inp_files/37080.got.cif
#   From: 2010.05.17/outbox.cif.g08.bks.cpg/sg13_19_cif.got.tgz:37080.got - 2010.06.03 16:44:36.
