data_PCOD9232588
_publ_section_title
;
Structure prediction by ZEFSAII (Michael W. Deem and Ramdas Pophale) SiO2 
 PCOD9232588
Probable space group: P 2/C
;
_chemical_formula_sum "Si O2"
_cell_formula_units_Z 30
_cell_length_a 5.432555
_cell_length_b 17.629446
_cell_length_c 16.944499
_cell_angle_alpha 90.000000
_cell_angle_beta 110.292500
_cell_angle_gamma 90.000000
_cell_volume 1522.102735
_symmetry_space_group_name_H-M "P 2/C"
_symmetry_group_IT_number 13
_symmetry_cell_setting 'monoclinic'
loop_
_space_group_symop_operation_xyz
x,y,z
-x,y,1/2-z
-x,-y,-z
x,-y,1/2+z
loop_
_atom_site_type_symbol
_atom_site_label
_atom_site_fract_x
_atom_site_fract_y
_atom_site_fract_z
Si Si1 0.790621 0.340775 0.062922
Si Si2 0.599365 0.390130 0.349643
Si Si3 0.500000 0.959442 0.250000
Si Si4 0.231925 0.456102 0.570845
Si Si5 0.795656 0.154129 0.666091
Si Si6 0.893852 0.947439 0.419314
Si Si7 0.812904 0.669408 0.305897
Si Si8 0.290019 0.783026 0.067135
O O1 0.596899 0.343724 0.115482
O O2 0.092937 0.365485 0.112000
O O3 0.664355 0.397725 0.983423
O O4 0.797029 0.260070 0.020177
O O5 0.500000 0.383679 0.250000
O O6 0.582506 0.477776 0.376400
O O7 0.339651 0.903552 0.287848
O O8 0.708260 0.993157 0.335918
O O9 0.137560 0.403875 0.632576
O O10 0.000000 0.500000 0.500000
O O11 0.602297 0.218534 0.613915
O O12 0.000000 0.189119 0.750000
O O13 0.893591 0.097804 0.609234
O O14 0.755458 0.873217 0.441196
O O15 0.000000 0.000000 0.500000
O O16 0.500000 0.668738 0.250000
O O17 0.836191 0.741330 0.370431
O O18 0.000000 0.661792 0.250000
#
# Coordination Sequence:
#
# PCOD9232588 Si02
#       8
#     4   4   2   4   4   4   4   4
#     4  10  23  40  60  91 121 161 209 258 317 378
#     4  11  22  39  66  85 117 164 214 262 311 367
#     4   8  18  34  54  92 120 156 198 256 312 380
#     4   9  21  40  60  87 124 162 205 258 311 372
#     4   9  19  35  61  87 124 160 203 252 319 384
#     4  10  21  37  63  91 122 164 213 259 323 397
#     4  11  26  38  59  94 130 163 208 256 320 380
#     4  10  24  36  59  88 127 166 203 261 320 387
#
# _framework density 19.709576999999999
#
# number of rings (size 3 to 8) (size 9 to 14) (size 15 to 20)
#    0.000    2.133    0.000    1.200    9.333   11.733 
#    0.000    0.000    1.467    3.200    0.000    0.000 
#    0.000    0.000    0.000    0.000    0.000    0.000 
#
# Total GULP energy -167099.386632 kJ/mol
# GULP energy per Si atom -5569.979554 kJ/mol
# Density = 1.966472 g / cm^3
# Si number density = 19.709577 Si / 1000 Ang^3
#
#
#
# Elastic Constant Matrix: (Units=GPa)
#
#
# Indices 1 2 3 4 5 6 
#
# 1 99.2224 17.7965 59.9500 0.0000 -7.2754 0.0000
# 2 17.7965 78.2469 60.5532 0.0000 6.1839 0.0000
# 3 59.9500 60.5532 165.7489 0.0000 -4.0719 0.0000
# 4 0.0000 0.0000 0.0000 39.6905 0.0000 -0.2323
# 5 -7.2754 6.1839 -4.0719 0.0000 33.4883 0.0000
# 6 0.0000 0.0000 0.0000 -0.2323 0.0000 18.4479
#
#
#
# Elastic Compliance Matrix: (Units=1/GPa)
#
#
# Indices 1 2 3 4 5 6 
#
# 1 0.013091 0.000667 -0.004927 0.000000 0.002122 0.000000
# 2 0.000667 0.018429 -0.007075 0.000000 -0.004118 0.000000
# 3 -0.004927 -0.007075 0.010437 0.000000 0.001505 0.000000
# 4 0.000000 0.000000 0.000000 0.025197 0.000000 0.000317
# 5 0.002122 -0.004118 0.001505 0.000000 0.031266 0.000000
# 6 0.000000 0.000000 0.000000 0.000317 0.000000 0.054211
#
#
# Mechanical properties :
#
#
# Convention : Reuss Voigt Hill
#
# Bulk Modulus (GPa) = 51.84552 68.86862 60.35707
# Shear Modulus (GPa) = 27.51359 31.98657 29.75008
#
# Velocity S-wave (km/s) = 3.74030 4.03289 3.88934
# Velocity P-wave (km/s) = 6.70932 7.53015 7.13155
#
# Compressibility (1/GPa) = 0.01928807
#
# Stress axis : x y z
#
# Youngs Moduli (GPa) = 76.38918 54.26193 95.81346
#
# Poissons Ratio (x) = -0.03622 0.47203
# Poissons Ratio (y) = -0.05099 0.67791
# Poissons Ratio (z) = 0.37634 0.38392
#
# Static dielectric constant tensor:
#      x y z
#    x 1.812640 0.000000 0.054240 
#    y 0.000000 1.700190 0.000000 
#    z 0.054240 0.000000 1.696660 
# 
# From -- ./inp_files/44499.got.cif
#   From: 2010.05.17/outbox.cif.g08.bks.cpg/sg13_23_cif.got.tgz:44499.got - 2010.06.03 16:44:36.
