data_PCOD9232627
_publ_section_title
;
Structure prediction by ZEFSAII (Michael W. Deem and Ramdas Pophale) SiO2 
 PCOD9232627
Probable space group: P 2/C
;
_chemical_formula_sum "Si O2"
_cell_formula_units_Z 28
_cell_length_a 12.818187
_cell_length_b 7.532190
_cell_length_c 13.547473
_cell_angle_alpha 90.000000
_cell_angle_beta 116.228474
_cell_angle_gamma 90.000000
_cell_volume 1173.322541
_symmetry_space_group_name_H-M "P 2/C"
_symmetry_group_IT_number 13
_symmetry_cell_setting 'monoclinic'
loop_
_space_group_symop_operation_xyz
x,y,z
-x,y,1/2-z
-x,-y,-z
x,-y,1/2+z
loop_
_atom_site_type_symbol
_atom_site_label
_atom_site_fract_x
_atom_site_fract_y
_atom_site_fract_z
Si Si1 0.500000 0.954806 0.250000
Si Si2 0.649511 0.149827 0.986497
Si Si3 0.663882 0.747687 0.991943
Si Si4 0.899267 0.704613 0.010204
Si Si5 0.236512 0.570517 0.269679
Si Si6 0.000000 0.589707 0.250000
Si Si7 0.137157 0.283184 0.540516
Si Si8 0.583358 0.284409 0.168535
O O1 0.582638 0.095715 0.225567
O O2 0.433447 0.835508 0.143191
O O3 0.778916 0.198544 0.004642
O O4 0.615619 0.260212 0.067163
O O5 0.631553 0.945764 0.009633
O O6 0.771138 0.780314 0.962312
O O7 0.705293 0.645950 0.106640
O O8 0.552770 0.660991 0.892495
O O9 0.949919 0.709838 0.142024
O O10 0.003293 0.780900 0.987793
O O11 0.878508 0.494721 0.983376
O O12 0.111370 0.488182 0.251550
O O13 0.200302 0.719070 0.174103
O O14 0.324798 0.430811 0.259065
#
# Coordination Sequence:
#
# PCOD9232627 Si02
#       8
#     2   4   4   4   4   2   4   4
#     4  10  24  42  62  90 132 166 208 266 322 386
#     4  11  24  40  64  90 129 171 205 257 326 380
#     4  10  21  39  61  86 126 165 203 265 307 376
#     4   9  19  39  61  90 126 156 214 256 307 364
#     4  10  21  37  66  89 125 162 219 261 316 371
#     4   8  16  36  60  84 120 164 192 260 316 352
#     4  10  22  37  64  94 121 167 206 264 310 377
#     4  11  24  42  63  93 125 169 210 262 319 375
#
# _framework density 23.863855999999998
#
# number of rings (size 3 to 8) (size 9 to 14) (size 15 to 20)
#    0.000    2.000    0.000    3.857    8.000    0.571 
#    0.000    0.000    3.143    3.429    0.000    0.000 
#    0.000    0.000    0.000    0.000    0.000    0.000 
#
# Total GULP energy -156356.137206 kJ/mol
# GULP energy per Si atom -5584.147757 kJ/mol
# Density = 2.380954 g / cm^3
# Si number density = 23.863856 Si / 1000 Ang^3
#
#
#
# Elastic Constant Matrix: (Units=GPa)
#
#
# Indices 1 2 3 4 5 6 
#
# 1 187.0727 17.1514 26.9002 0.0000 14.8951 0.0000
# 2 17.1514 41.3932 4.8473 0.0000 6.5956 0.0000
# 3 26.9002 4.8473 81.6848 0.0000 -0.1033 0.0000
# 4 0.0000 0.0000 0.0000 5.1714 0.0000 -7.1251
# 5 14.8951 6.5956 -0.1033 0.0000 36.5277 0.0000
# 6 0.0000 0.0000 0.0000 -7.1251 0.0000 31.7577
#
#
#
# Elastic Compliance Matrix: (Units=1/GPa)
#
#
# Indices 1 2 3 4 5 6 
#
# 1 0.005953 -0.001918 -0.001849 0.000000 -0.002087 0.000000
# 2 -0.001918 0.025673 -0.000897 0.000000 -0.003856 0.000000
# 3 -0.001849 -0.000897 0.012906 0.000000 0.000953 0.000000
# 4 0.000000 0.000000 0.000000 0.279890 0.000000 0.062795
# 5 -0.002087 -0.003856 0.000953 0.000000 0.028926 0.000000
# 6 0.000000 0.000000 0.000000 0.062795 0.000000 0.045577
#
#
# Mechanical properties :
#
#
# Convention : Reuss Voigt Hill
#
# Bulk Modulus (GPa) = 28.40600 45.32761 36.86680
# Shear Modulus (GPa) = 11.90512 32.10813 22.00662
#
# Velocity S-wave (km/s) = 2.23598 3.67205 3.04003
# Velocity P-wave (km/s) = 4.31223 6.08392 5.27301
#
# Compressibility (1/GPa) = 0.03520384
#
# Stress axis : x y z
#
# Youngs Moduli (GPa) = 167.97083 38.95195 77.48547
#
# Poissons Ratio (x) = 0.07470 0.14330
# Poissons Ratio (y) = 0.32213 0.06949
# Poissons Ratio (z) = 0.31065 0.03493
#
# Static dielectric constant tensor:
#      x y z
#    x 1.991110 0.000000 -0.002830 
#    y 0.000000 1.871240 0.000000 
#    z -0.002830 0.000000 1.969260 
# 
# From -- ./inp_files/50201.got.cif
#   From: 2010.05.17/outbox.cif.g08.bks.cpg/sg13_26_cif.got.tgz:50201.got - 2010.06.03 16:44:36.
