data_PCOD9232903
_publ_section_title
;
Structure prediction by ZEFSAII (Michael W. Deem and Ramdas Pophale) SiO2 
 PCOD9232903
Probable space group: P 2/C
;
_chemical_formula_sum "Si O2"
_cell_formula_units_Z 24
_cell_length_a 8.463302
_cell_length_b 8.988206
_cell_length_c 18.442155
_cell_angle_alpha 90.000000
_cell_angle_beta 51.385655
_cell_angle_gamma 90.000000
_cell_volume 1096.170373
_symmetry_space_group_name_H-M "P 2/C"
_symmetry_group_IT_number 13
_symmetry_cell_setting 'monoclinic'
loop_
_space_group_symop_operation_xyz
x,y,z
-x,y,1/2-z
-x,-y,-z
x,-y,1/2+z
loop_
_atom_site_type_symbol
_atom_site_label
_atom_site_fract_x
_atom_site_fract_y
_atom_site_fract_z
Si Si1 0.161200 0.151544 0.504491
Si Si2 0.208171 0.376054 0.922393
Si Si3 0.733342 0.369006 0.210073
Si Si4 0.837942 0.039213 0.151788
Si Si5 0.709169 0.570893 0.463517
Si Si6 0.000000 0.478572 0.750000
Si Si7 0.500000 0.183063 0.750000
O O1 0.224994 0.062396 0.415026
O O2 0.319229 0.267600 0.491076
O O3 0.974884 0.260186 0.534107
O O4 0.058784 0.034531 0.588173
O O5 0.192277 0.512351 0.870830
O O6 0.406977 0.287303 0.839037
O O7 0.221026 0.450339 0.996628
O O8 0.500000 0.350575 0.250000
O O9 0.825703 0.204367 0.184466
O O10 0.814785 0.436314 0.262252
O O11 0.678009 0.922338 0.228550
O O12 0.500000 0.500000 0.500000
O O13 0.875011 0.596021 0.352202
#
# Coordination Sequence:
#
# PCOD9232903 Si02
#       7
#     4   4   4   4   4   2   2
#     4  10  21  40  65  94 133 180 231 297 358 437
#     4  11  21  41  68  95 130 186 235 291 362 425
#     4  12  22  42  73 100 139 186 237 302 363 436
#     4  10  21  38  67  97 132 179 235 291 369 432
#     4  12  25  41  68 106 143 186 241 305 362 433
#     4  12  28  42  66 114 144 180 250 306 352 432
#     4  10  22  36  66 104 124 174 250 290 346 450
#
# _framework density 21.894407999999999
#
# number of rings (size 3 to 8) (size 9 to 14) (size 15 to 20)
#    0.000    1.000    5.000    2.500    0.000    0.000 
#    0.000    2.500    0.000    7.000    0.000    0.000 
#    0.000    0.000    0.000    0.000    0.000    0.000 
#
# Total GULP energy -133878.983535 kJ/mol
# GULP energy per Si atom -5578.290981 kJ/mol
# Density = 2.184458 g / cm^3
# Si number density = 21.894408 Si / 1000 Ang^3
#
#
#
# Elastic Constant Matrix: (Units=GPa)
#
#
# Indices 1 2 3 4 5 6 
#
# 1 78.0347 26.8094 7.4525 0.0000 -0.9027 0.0000
# 2 26.8094 114.2380 25.1301 0.0000 -4.7189 0.0000
# 3 7.4525 25.1301 77.6419 0.0000 -3.1329 0.0000
# 4 0.0000 0.0000 0.0000 29.5008 0.0000 -13.3439
# 5 -0.9027 -4.7189 -3.1329 0.0000 24.4938 0.0000
# 6 0.0000 0.0000 0.0000 -13.3439 0.0000 25.4545
#
#
#
# Elastic Compliance Matrix: (Units=1/GPa)
#
#
# Indices 1 2 3 4 5 6 
#
# 1 0.013946 -0.003212 -0.000305 0.000000 -0.000144 0.000000
# 2 -0.003212 0.010215 -0.002938 0.000000 0.001474 0.000000
# 3 -0.000305 -0.002938 0.013908 0.000000 0.001202 0.000000
# 4 0.000000 0.000000 0.000000 0.044433 0.000000 0.023293
# 5 -0.000144 0.001474 0.001202 0.000000 0.041259 0.000000
# 6 0.000000 0.000000 0.000000 0.023293 0.000000 0.051497
#
#
# Mechanical properties :
#
#
# Convention : Reuss Voigt Hill
#
# Bulk Modulus (GPa) = 39.74739 43.18876 41.46807
# Shear Modulus (GPa) = 25.43829 29.92465 27.68147
#
# Velocity S-wave (km/s) = 3.41231 3.70100 3.55958
# Velocity P-wave (km/s) = 5.80678 6.16700 5.98960
#
# Compressibility (1/GPa) = 0.02515888
#
# Stress axis : x y z
#
# Youngs Moduli (GPa) = 71.70695 97.89882 71.89869
#
# Poissons Ratio (x) = 0.31442 0.02192
# Poissons Ratio (y) = 0.23030 0.21127
# Poissons Ratio (z) = 0.02186 0.28767
#
# Static dielectric constant tensor:
#      x y z
#    x 1.852340 0.000000 -0.048920 
#    y 0.000000 1.783810 0.000000 
#    z -0.048920 0.000000 1.894200 
# 
# From -- ./inp_files/71271.got.cif
#   From: 2010.05.17/outbox.cif.g08.bks.cpg/sg13_36_cif.got.tgz:71271.got - 2010.06.03 16:44:36.
