data_PCOD9232352
_publ_section_title
;
Structure prediction by ZEFSAII (Michael W. Deem and Ramdas Pophale) SiO2 
 PCOD9232352
Probable space group: P 2/C
;
_chemical_formula_sum "Si O2"
_cell_formula_units_Z 32
_cell_length_a 11.365886
_cell_length_b 15.535288
_cell_length_c 14.662196
_cell_angle_alpha 90.000000
_cell_angle_beta 148.713884
_cell_angle_gamma 90.000000
_cell_volume 1344.466605
_symmetry_space_group_name_H-M "P 2/C"
_symmetry_group_IT_number 13
_symmetry_cell_setting 'monoclinic'
loop_
_space_group_symop_operation_xyz
x,y,z
-x,y,1/2-z
-x,-y,-z
x,-y,1/2+z
loop_
_atom_site_type_symbol
_atom_site_label
_atom_site_fract_x
_atom_site_fract_y
_atom_site_fract_z
Si Si1 0.049031 0.542912 0.157427
Si Si2 0.620043 0.439766 0.476971
Si Si3 0.192785 0.889217 0.453521
Si Si4 0.459420 0.736347 0.832486
Si Si5 0.099821 0.903071 0.068792
Si Si6 0.579761 0.053927 0.964921
Si Si7 0.300630 0.580255 0.168666
Si Si8 0.910442 0.191429 0.280065
O O1 0.251658 0.511774 0.356492
O O2 0.167658 0.610985 0.168740
O O3 0.841308 0.588993 0.066663
O O4 0.910058 0.460731 0.026317
O O5 0.513182 0.349243 0.425485
O O6 0.449892 0.500357 0.308946
O O7 0.373992 0.817317 0.545942
O O8 0.000000 0.895534 0.250000
O O9 0.070620 0.864427 0.467207
O O10 0.314826 0.982235 0.533167
O O11 0.500000 0.715600 0.750000
O O12 0.229270 0.762120 0.732291
O O13 0.355919 0.903945 0.274247
O O14 0.088209 0.858778 0.962291
O O15 0.000000 0.000000 0.000000
O O16 0.754589 0.121652 0.124022
O O17 0.500000 0.000000 0.000000
O O18 0.500000 0.631528 0.250000
O O19 0.000000 0.243727 0.250000
#
# Coordination Sequence:
#
# PCOD9232352 Si02
#       8
#     4   4   4   4   4   4   4   4
#     4   9  18  34  60  91 120 163 198 244 306 345
#     4  10  21  36  60  93 125 161 209 250 297 364
#     4  12  23  38  60  92 121 158 218 275 328 391
#     4  12  24  42  65  88 124 173 220 258 309 393
#     4  12  22  38  63  87 120 159 202 272 335 385
#     4  12  22  39  59  94 120 150 213 275 338 389
#     4   9  17  34  61  94 132 156 198 253 302 359
#     4  12  26  44  63  87 126 167 210 272 334 389
#
# _framework density 23.801259999999999
#
# number of rings (size 3 to 8) (size 9 to 14) (size 15 to 20)
#    0.000    1.000    5.000    2.625    1.750    1.500 
#    0.000    0.000   13.750    0.000    0.000    0.000 
#    0.000    0.000    0.000    0.000    0.000    0.000 
#
# Total GULP energy -178331.866117 kJ/mol
# GULP energy per Si atom -5572.870816 kJ/mol
# Density = 2.374709 g / cm^3
# Si number density = 23.801260 Si / 1000 Ang^3
#
#
#
# Elastic Constant Matrix: (Units=GPa)
#
#
# Indices 1 2 3 4 5 6 
#
# 1 143.1447 -12.0646 29.5734 0.0000 -12.6360 0.0000
# 2 -12.0646 22.3524 15.0941 0.0000 -2.4264 0.0000
# 3 29.5734 15.0941 145.4271 0.0000 -13.1440 0.0000
# 4 0.0000 0.0000 0.0000 9.6444 0.0000 -0.0173
# 5 -12.6360 -2.4264 -13.1440 0.0000 27.9802 0.0000
# 6 0.0000 0.0000 0.0000 -0.0173 0.0000 -10.7227
#
#
#
# Elastic Compliance Matrix: (Units=1/GPa)
#
#
# Indices 1 2 3 4 5 6 
#
# 1 0.008210 0.006146 -0.002010 0.000000 0.003297 0.000000
# 2 0.006146 0.052809 -0.006335 0.000000 0.004379 0.000000
# 3 -0.002010 -0.006335 0.008157 0.000000 0.002375 0.000000
# 4 0.000000 0.000000 0.000000 0.103686 0.000000 -0.000168
# 5 0.003297 0.004379 0.002375 0.000000 0.038724 0.000000
# 6 0.000000 0.000000 0.000000 -0.000168 0.000000 -0.093259
#
#
# Mechanical properties :
#
#
# Convention : Reuss Voigt Hill
#
# Bulk Modulus (GPa) = 15.43709 41.79221 28.61465
# Shear Modulus (GPa) = 34.64602 23.93513 29.29058
#
# Velocity S-wave (km/s) = 3.81942 3.17460 3.51184
# Velocity P-wave (km/s) = 5.09417 5.57085 5.33783
#
# Compressibility (1/GPa) = 0.06477905
#
# Stress axis : x y z
#
# Youngs Moduli (GPa) = 121.80046 18.93629 122.59185
#
# Poissons Ratio (x) = -0.11639 0.24635
# Poissons Ratio (y) = -0.74862 0.77664
# Poissons Ratio (z) = 0.24476 0.11996
#
# Static dielectric constant tensor:
#      x y z
#    x 2.204400 0.000000 -0.024940 
#    y 0.000000 1.892070 0.000000 
#    z -0.024940 0.000000 1.925950 
# 
# From -- ./inp_files/51677.got.cif
#   From: 2010.05.17/outbox.cif.g08.bks.cpg/sg13_26_cif.got.tgz:51677.got - 2010.06.03 16:44:36.
