data_PCOD9232042
_publ_section_title
;
Structure prediction by ZEFSAII (Michael W. Deem and Ramdas Pophale) SiO2 
 PCOD9232042
Probable space group: P 2/C
;
_chemical_formula_sum "Si O2"
_cell_formula_units_Z 18
_cell_length_a 9.661698
_cell_length_b 6.866614
_cell_length_c 19.175643
_cell_angle_alpha 90.000000
_cell_angle_beta 138.965042
_cell_angle_gamma 90.000000
_cell_volume 835.205949
_symmetry_space_group_name_H-M "P 2/C"
_symmetry_group_IT_number 13
_symmetry_cell_setting 'monoclinic'
loop_
_space_group_symop_operation_xyz
x,y,z
-x,y,1/2-z
-x,-y,-z
x,-y,1/2+z
loop_
_atom_site_type_symbol
_atom_site_label
_atom_site_fract_x
_atom_site_fract_y
_atom_site_fract_z
Si Si1 0.463519 0.218965 0.462387
Si Si2 0.023953 0.771570 0.998605
Si Si3 0.576159 0.448645 0.914594
Si Si4 0.172346 0.491448 0.674337
Si Si5 0.000000 0.651371 0.750000
O O1 0.512458 0.341950 0.550545
O O2 0.589905 0.326690 0.447450
O O3 0.217100 0.235094 0.346914
O O4 0.500000 0.000000 0.500000
O O5 0.224175 0.680326 0.032417
O O6 0.061696 0.676954 0.088236
O O7 0.835899 0.676195 0.881659
O O8 0.000000 0.000000 0.000000
O O9 0.405526 0.443965 0.788640
O O10 0.044583 0.532532 0.696578
#
# Coordination Sequence:
#
# PCOD9232042 Si02
#       5
#     4   4   4   4   2
#     4  10  22  41  69 103 136 183 229 291 354 425
#     4  11  24  45  69 103 140 185 234 286 362 429
#     4  10  22  45  65 100 139 177 237 289 349 425
#     4  10  23  43  71  96 137 185 224 297 351 419
#     4  10  20  46  70  98 136 176 234 288 358 422
#
# _framework density 21.551572
#
# number of rings (size 3 to 8) (size 9 to 14) (size 15 to 20)
#    0.000    1.778    2.222    0.667    0.000    7.111 
#    4.000    5.556    0.000    0.000    0.000    0.000 
#    0.000    0.000    0.000    0.000    0.000    0.000 
#
# Total GULP energy -100415.353206 kJ/mol
# GULP energy per Si atom -5578.630734 kJ/mol
# Density = 2.150252 g / cm^3
# Si number density = 21.551572 Si / 1000 Ang^3
#
#
#
# Elastic Constant Matrix: (Units=GPa)
#
#
# Indices 1 2 3 4 5 6 
#
# 1 97.8491 46.9868 50.0805 0.0000 -11.7592 0.0000
# 2 46.9868 189.4687 65.9628 0.0000 -17.8444 0.0000
# 3 50.0805 65.9628 174.1114 0.0000 -20.8020 0.0000
# 4 0.0000 0.0000 0.0000 20.4494 0.0000 -0.6727
# 5 -11.7592 -17.8444 -20.8020 0.0000 44.8274 0.0000
# 6 0.0000 0.0000 0.0000 -0.6727 0.0000 23.3619
#
#
#
# Elastic Compliance Matrix: (Units=1/GPa)
#
#
# Indices 1 2 3 4 5 6 
#
# 1 0.012776 -0.002100 -0.002730 0.000000 0.001248 0.000000
# 2 -0.002100 0.006513 -0.001714 0.000000 0.001246 0.000000
# 3 -0.002730 -0.001714 0.007423 0.000000 0.002046 0.000000
# 4 0.000000 0.000000 0.000000 0.048947 0.000000 0.001409
# 5 0.001248 0.001246 0.002046 0.000000 0.024081 0.000000
# 6 0.000000 0.000000 0.000000 0.001409 0.000000 0.042845
#
#
# Mechanical properties :
#
#
# Convention : Reuss Voigt Hill
#
# Bulk Modulus (GPa) = 73.41072 87.49882 80.45477
# Shear Modulus (GPa) = 31.20815 37.62103 34.41459
#
# Velocity S-wave (km/s) = 3.80948 4.18260 4.00039
# Velocity P-wave (km/s) = 7.31343 8.00084 7.66485
#
# Compressibility (1/GPa) = 0.01362199
#
# Stress axis : x y z
#
# Youngs Moduli (GPa) = 78.27440 153.53853 134.72340
#
# Poissons Ratio (x) = 0.32247 0.36777
# Poissons Ratio (y) = 0.16440 0.23098
# Poissons Ratio (z) = 0.21368 0.26324
#
# Static dielectric constant tensor:
#      x y z
#    x 1.902050 0.000000 0.049270 
#    y 0.000000 1.797120 0.000000 
#    z 0.049270 0.000000 1.796670 
# 
# From -- ./inp_files/77060.got.cif
#   From: 2010.05.17/outbox.cif.g08.bks.cpg/sg13_39_cif.got.tgz:77060.got - 2010.06.03 16:44:36.
