data_PCOD9232362
_publ_section_title
;
Structure prediction by ZEFSAII (Michael W. Deem and Ramdas Pophale) SiO2 
 PCOD9232362
Probable space group: P 2/C
;
_chemical_formula_sum "Si O2"
_cell_formula_units_Z 28
_cell_length_a 13.966342
_cell_length_b 8.423059
_cell_length_c 10.032551
_cell_angle_alpha 90.000000
_cell_angle_beta 104.288121
_cell_angle_gamma 90.000000
_cell_volume 1143.714588
_symmetry_space_group_name_H-M "P 2/C"
_symmetry_group_IT_number 13
_symmetry_cell_setting 'monoclinic'
loop_
_space_group_symop_operation_xyz
x,y,z
-x,y,1/2-z
-x,-y,-z
x,-y,1/2+z
loop_
_atom_site_type_symbol
_atom_site_label
_atom_site_fract_x
_atom_site_fract_y
_atom_site_fract_z
Si Si1 0.891768 0.636178 0.522953
Si Si2 0.292973 0.936211 0.259510
Si Si3 0.396092 0.564959 0.014418
Si Si4 0.930355 0.692211 0.105105
Si Si5 0.117321 0.013065 0.505858
Si Si6 0.286291 0.436607 0.734002
Si Si7 0.401986 0.938006 0.036892
O O1 0.890168 0.484630 0.619214
O O2 0.818512 0.582228 0.378027
O O3 0.001024 0.662637 0.500273
O O4 0.866184 0.815359 0.560171
O O5 0.308789 0.747000 0.278346
O O6 0.185896 0.970181 0.159629
O O7 0.315379 0.016664 0.405806
O O8 0.371337 0.994676 0.173420
O O9 0.313264 0.536104 0.873421
O O10 0.408627 0.749912 0.045546
O O11 0.500000 0.500000 0.000000
O O12 0.357817 0.497758 0.141576
O O13 0.000000 0.740748 0.250000
O O14 0.860885 0.842209 0.053954
O O15 0.000000 0.000000 0.500000
O O16 0.500000 0.000000 0.000000
#
# Coordination Sequence:
#
# PCOD9232362 Si02
#       7
#     4   4   4   4   4   4   4
#     4   9  21  40  56  88 128 160 202 268 315 360
#     4  10  23  42  63  95 129 168 213 265 323 386
#     4  11  24  41  63  93 123 166 213 263 326 387
#     4  10  21  36  61  91 120 165 217 249 312 389
#     4   9  20  40  61  89 129 168 209 264 321 374
#     4  10  23  41  63  89 128 161 211 266 316 380
#     4  11  24  42  64  93 129 168 212 269 328 386
#
# _framework density 24.481631
#
# number of rings (size 3 to 8) (size 9 to 14) (size 15 to 20)
#    0.000    2.000    0.000    1.714    4.000    9.714 
#    0.000    0.000    0.000    0.000    0.000    0.000 
#    0.000    0.000    0.000    0.000    0.000    0.000 
#
# Total GULP energy -156499.173654 kJ/mol
# GULP energy per Si atom -5589.256202 kJ/mol
# Density = 2.442591 g / cm^3
# Si number density = 24.481631 Si / 1000 Ang^3
#
#
#
# Elastic Constant Matrix: (Units=GPa)
#
#
# Indices 1 2 3 4 5 6 
#
# 1 111.9119 9.2661 -6.3603 0.0000 8.0716 0.0000
# 2 9.2661 125.5483 18.2609 0.0000 2.1387 0.0000
# 3 -6.3603 18.2609 45.0307 0.0000 -6.3268 0.0000
# 4 0.0000 0.0000 0.0000 39.5414 0.0000 14.8274
# 5 8.0716 2.1387 -6.3268 0.0000 36.8932 0.0000
# 6 0.0000 0.0000 0.0000 14.8274 0.0000 31.0629
#
#
#
# Elastic Compliance Matrix: (Units=1/GPa)
#
#
# Indices 1 2 3 4 5 6 
#
# 1 0.009211 -0.000855 0.001405 0.000000 -0.001725 0.000000
# 2 -0.000855 0.008588 -0.003737 0.000000 -0.000952 0.000000
# 3 0.001405 -0.003737 0.024499 0.000000 0.004110 0.000000
# 4 0.000000 0.000000 0.000000 0.030804 0.000000 -0.014704
# 5 -0.001725 -0.000952 0.004110 0.000000 0.028243 0.000000
# 6 0.000000 0.000000 0.000000 -0.014704 0.000000 0.039211
#
#
# Mechanical properties :
#
#
# Convention : Reuss Voigt Hill
#
# Bulk Modulus (GPa) = 27.83661 36.09161 31.96411
# Shear Modulus (GPa) = 31.46584 38.92109 35.19346
#
# Velocity S-wave (km/s) = 3.58897 3.99157 3.79561
# Velocity P-wave (km/s) = 5.34504 6.00148 5.68275
#
# Compressibility (1/GPa) = 0.03592392
#
# Stress axis : x y z
#
# Youngs Moduli (GPa) = 108.57019 116.44274 40.81880
#
# Poissons Ratio (x) = 0.09954 -0.05736
# Poissons Ratio (y) = 0.09281 0.15254
# Poissons Ratio (z) = -0.15257 0.43515
#
# Static dielectric constant tensor:
#      x y z
#    x 2.048180 0.000000 -0.013330 
#    y 0.000000 1.944280 0.000000 
#    z -0.013330 0.000000 1.903530 
# 
# From -- ./inp_files/36503.got.cif
#   From: 2010.05.17/outbox.cif.g08.bks.cpg/sg13_19_cif.got.tgz:36503.got - 2010.06.03 16:44:36.
