data_PCOD9232838
_publ_section_title
;
Structure prediction by ZEFSAII (Michael W. Deem and Ramdas Pophale) SiO2 
 PCOD9232838
Probable space group: P 2/C
;
_chemical_formula_sum "Si O2"
_cell_formula_units_Z 30
_cell_length_a 11.648651
_cell_length_b 9.680418
_cell_length_c 20.566515
_cell_angle_alpha 90.000000
_cell_angle_beta 35.208632
_cell_angle_gamma 90.000000
_cell_volume 1337.123460
_symmetry_space_group_name_H-M "P 2/C"
_symmetry_group_IT_number 13
_symmetry_cell_setting 'monoclinic'
loop_
_space_group_symop_operation_xyz
x,y,z
-x,y,1/2-z
-x,-y,-z
x,-y,1/2+z
loop_
_atom_site_type_symbol
_atom_site_label
_atom_site_fract_x
_atom_site_fract_y
_atom_site_fract_z
Si Si1 0.500000 0.039507 0.750000
Si Si2 0.758584 0.540880 0.681273
Si Si3 0.580718 0.820920 0.808663
Si Si4 0.345022 0.337379 0.522129
Si Si5 0.583311 0.320808 0.863925
Si Si6 0.031662 0.843417 0.299651
Si Si7 0.228452 0.571461 0.470765
Si Si8 0.111256 0.030849 0.883065
O O1 0.442523 0.929121 0.833321
O O2 0.306116 0.117805 0.816230
O O3 0.628208 0.677723 0.750733
O O4 0.695425 0.432340 0.766232
O O5 0.733488 0.475988 0.621097
O O6 0.990331 0.582369 0.584562
O O7 0.788323 0.905263 0.703988
O O8 0.486560 0.775238 0.920581
O O9 0.432758 0.367388 0.553151
O O10 0.303874 0.456383 0.487928
O O11 0.123823 0.279949 0.638987
O O12 0.736679 0.193628 0.798710
O O13 0.369020 0.301452 0.928568
O O14 0.970030 0.897817 0.397756
O O15 0.000000 0.934259 0.250000
O O16 0.000000 0.000000 0.000000
#
# Coordination Sequence:
#
# PCOD9232838 Si02
#       8
#     2   4   4   4   4   4   4   4
#     4   8  20  38  64  94 118 160 212 258 322 376
#     4  11  23  38  59  95 131 167 210 266 324 379
#     4  10  21  38  63  94 123 166 208 263 326 374
#     4  11  21  40  67  88 126 174 217 254 320 395
#     4  11  23  40  62  94 125 177 211 261 322 386
#     4  10  23  44  65  88 131 169 210 261 327 393
#     4  11  23  37  59  95 130 166 214 261 313 383
#     4  10  22  41  68  96 117 164 217 265 318 381
#
# _framework density 22.436223999999999
#
# number of rings (size 3 to 8) (size 9 to 14) (size 15 to 20)
#    0.800    0.800    2.667    2.400    1.867    0.000 
#    4.800    4.000    0.000    0.000    0.000    0.000 
#    0.000    0.000    0.000    0.000    0.000    0.000 
#
# Total GULP energy -167021.877403 kJ/mol
# GULP energy per Si atom -5567.395913 kJ/mol
# Density = 2.238516 g / cm^3
# Si number density = 22.436224 Si / 1000 Ang^3
#
#
#
# Elastic Constant Matrix: (Units=GPa)
#
#
# Indices 1 2 3 4 5 6 
#
# 1 186.2383 19.0648 63.1011 0.0000 13.5655 0.0000
# 2 19.0648 18.3094 3.9839 0.0000 4.1008 0.0000
# 3 63.1011 3.9839 130.5645 0.0000 8.9434 0.0000
# 4 0.0000 0.0000 0.0000 8.9109 0.0000 11.6987
# 5 13.5655 4.1008 8.9434 0.0000 40.6003 0.0000
# 6 0.0000 0.0000 0.0000 11.6987 0.0000 22.1634
#
#
#
# Elastic Compliance Matrix: (Units=1/GPa)
#
#
# Indices 1 2 3 4 5 6 
#
# 1 0.007206 -0.006572 -0.003211 0.000000 -0.001036 0.000000
# 2 -0.006572 0.062107 0.001584 0.000000 -0.004426 0.000000
# 3 -0.003211 0.001584 0.009239 0.000000 -0.001122 0.000000
# 4 0.000000 0.000000 0.000000 0.365522 0.000000 -0.192937
# 5 -0.001036 -0.004426 -0.001122 0.000000 0.025671 0.000000
# 6 0.000000 0.000000 0.000000 -0.192937 0.000000 0.146959
#
#
# Mechanical properties :
#
#
# Convention : Reuss Voigt Hill
#
# Bulk Modulus (GPa) = 16.08894 56.37909 36.23402
# Shear Modulus (GPa) = 7.64737 30.93242 19.28989
#
# Velocity S-wave (km/s) = 1.84821 3.71709 2.93536
# Velocity P-wave (km/s) = 3.42652 6.60344 5.26054
#
# Compressibility (1/GPa) = 0.06215449
#
# Stress axis : x y z
#
# Youngs Moduli (GPa) = 138.77984 16.10130 108.23205
#
# Poissons Ratio (x) = 0.10582 0.34752
# Poissons Ratio (y) = 0.91208 -0.17148
# Poissons Ratio (z) = 0.44561 -0.02551
#
# Static dielectric constant tensor:
#      x y z
#    x 1.877620 0.000000 0.014660 
#    y 0.000000 1.900120 0.000000 
#    z 0.014660 0.000000 1.852490 
# 
# From -- ./inp_files/78398.got.cif
#   From: 2010.05.17/outbox.cif.g08.bks.cpg/sg13_40_cif.got.tgz:78398.got - 2010.06.03 16:44:36.
