data_PCOD9232601
_publ_section_title
;
Structure prediction by ZEFSAII (Michael W. Deem and Ramdas Pophale) SiO2 
 PCOD9232601
Probable space group: P 2/C
;
_chemical_formula_sum "Si O2"
_cell_formula_units_Z 24
_cell_length_a 11.287355
_cell_length_b 4.801920
_cell_length_c 23.866975
_cell_angle_alpha 90.000000
_cell_angle_beta 47.733934
_cell_angle_gamma 90.000000
_cell_volume 957.312110
_symmetry_space_group_name_H-M "P 2/C"
_symmetry_group_IT_number 13
_symmetry_cell_setting 'monoclinic'
loop_
_space_group_symop_operation_xyz
x,y,z
-x,y,1/2-z
-x,-y,-z
x,-y,1/2+z
loop_
_atom_site_type_symbol
_atom_site_label
_atom_site_fract_x
_atom_site_fract_y
_atom_site_fract_z
Si Si1 0.218240 0.052916 0.102519
Si Si2 0.500000 0.525136 0.250000
Si Si3 0.646997 0.476646 0.592677
Si Si4 0.213287 0.390603 0.775194
Si Si5 0.000000 0.667743 0.250000
Si Si6 0.115059 0.586084 0.066315
Si Si7 0.555882 0.006526 0.869187
O O1 0.151518 0.333617 0.097267
O O2 0.361449 0.097833 0.100150
O O3 0.233499 0.836665 0.046345
O O4 0.090909 0.874576 0.179367
O O5 0.394386 0.658270 0.333822
O O6 0.653276 0.420784 0.237136
O O7 0.826779 0.497377 0.513709
O O8 0.562266 0.776865 0.618885
O O9 0.547604 0.279925 0.582640
O O10 0.126252 0.505144 0.746769
O O11 0.069828 0.334434 0.864574
O O12 0.310180 0.128985 0.717317
#
# Coordination Sequence:
#
# PCOD9232601 Si02
#       7
#     4   2   4   4   2   4   4
#     4  10  21  37  63  96 136 172 211 264 327 386
#     4  10  24  44  68  90 128 180 222 264 324 398
#     4  11  24  41  63  93 129 172 221 269 325 386
#     4   9  21  42  67  94 127 168 217 265 319 383
#     4   8  18  36  64  96 128 166 212 264 320 386
#     4  11  23  38  62  98 131 165 216 277 325 375
#     4  10  22  41  65  94 133 178 216 259 324 400
#
# _framework density 25.070194000000001
#
# number of rings (size 3 to 8) (size 9 to 14) (size 15 to 20)
#    0.000    2.000    0.000    2.000    0.000   20.667 
#    0.000    0.000    0.000   11.000    0.000    0.000 
#    0.000    0.000    0.000    0.000    0.000    0.000 
#
# Total GULP energy -133682.671974 kJ/mol
# GULP energy per Si atom -5570.111332 kJ/mol
# Density = 2.501313 g / cm^3
# Si number density = 25.070194 Si / 1000 Ang^3
#
#
#
# Elastic Constant Matrix: (Units=GPa)
#
#
# Indices 1 2 3 4 5 6 
#
# 1 135.9473 17.0914 34.1669 0.0000 -11.4646 0.0000
# 2 17.0914 103.1061 4.8064 0.0000 -3.6723 0.0000
# 3 34.1669 4.8064 183.8772 0.0000 -21.9426 0.0000
# 4 0.0000 0.0000 0.0000 26.6346 0.0000 -11.5060
# 5 -11.4646 -3.6723 -21.9426 0.0000 24.1660 0.0000
# 6 0.0000 0.0000 0.0000 -11.5060 0.0000 -13.2474
#
#
#
# Elastic Compliance Matrix: (Units=1/GPa)
#
#
# Indices 1 2 3 4 5 6 
#
# 1 0.008011 -0.001183 -0.001150 0.000000 0.002576 0.000000
# 2 -0.001183 0.009927 0.000082 0.000000 0.001022 0.000000
# 3 -0.001150 0.000082 0.006265 0.000000 0.005156 0.000000
# 4 0.000000 0.000000 0.000000 0.027301 0.000000 -0.023713
# 5 0.002576 0.001022 0.005156 0.000000 0.047439 0.000000
# 6 0.000000 0.000000 0.000000 -0.023713 0.000000 -0.054891
#
#
# Mechanical properties :
#
#
# Convention : Reuss Voigt Hill
#
# Bulk Modulus (GPa) = 50.75521 59.45112 55.10316
# Shear Modulus (GPa) = 90.70866 31.96837 61.33851
#
# Velocity S-wave (km/s) = 6.02166 3.57480 4.95175
# Velocity P-wave (km/s) = 8.28471 6.38783 7.39732
#
# Compressibility (1/GPa) = 0.01970241
#
# Stress axis : x y z
#
# Youngs Moduli (GPa) = 124.83159 100.73192 159.61135
#
# Poissons Ratio (x) = 0.11912 0.18358
# Poissons Ratio (y) = 0.14762 -0.01312
# Poissons Ratio (z) = 0.14358 -0.00828
#
# Static dielectric constant tensor:
#      x y z
#    x 2.042550 0.000000 0.056670 
#    y 0.000000 1.961470 0.000000 
#    z 0.056670 0.000000 2.120000 
# 
# From -- ./inp_files/85529.got.cif
#   From: 2010.05.17/outbox.cif.g08.bks.cpg/sg13_43_cif.got.tgz:85529.got - 2010.06.03 16:44:36.
