data_PCOD9232711
_publ_section_title
;
Structure prediction by ZEFSAII (Michael W. Deem and Ramdas Pophale) SiO2 
 PCOD9232711
Probable space group: P 2/C
;
_chemical_formula_sum "Si O2"
_cell_formula_units_Z 30
_cell_length_a 14.399311
_cell_length_b 21.379936
_cell_length_c 13.261393
_cell_angle_alpha 90.000000
_cell_angle_beta 159.486030
_cell_angle_gamma 90.000000
_cell_volume 1430.690410
_symmetry_space_group_name_H-M "P 2/C"
_symmetry_group_IT_number 13
_symmetry_cell_setting 'monoclinic'
loop_
_space_group_symop_operation_xyz
x,y,z
-x,y,1/2-z
-x,-y,-z
x,-y,1/2+z
loop_
_atom_site_type_symbol
_atom_site_label
_atom_site_fract_x
_atom_site_fract_y
_atom_site_fract_z
Si Si1 0.796371 0.723392 0.836266
Si Si2 0.013767 0.465122 0.883867
Si Si3 0.242186 0.115036 0.873808
Si Si4 0.279097 0.357731 0.790735
Si Si5 0.258506 0.986671 0.830529
Si Si6 0.000000 0.215164 0.750000
Si Si7 0.278255 0.141254 0.287556
Si Si8 0.482758 0.459029 0.612371
O O1 0.533985 0.681700 0.587375
O O2 0.727307 0.784905 0.700486
O O3 0.035447 0.688698 0.022037
O O4 0.907899 0.744616 0.059983
O O5 0.868617 0.405755 0.783777
O O6 0.822345 0.523278 0.719050
O O7 0.000000 0.457755 0.750000
O O8 0.319213 0.483311 0.215274
O O9 0.224724 0.165981 0.943359
O O10 0.973713 0.126461 0.538540
O O11 0.260744 0.041040 0.917309
O O12 0.471079 0.130283 0.028501
O O13 0.399269 0.399197 0.822969
O O14 0.272648 0.912581 0.867651
O O15 0.000000 0.000000 0.500000
O O16 0.500000 0.000000 0.000000
O O17 0.500000 0.451322 0.750000
#
# Coordination Sequence:
#
# PCOD9232711 Si02
#       8
#     4   4   4   4   4   2   4   4
#     4  11  24  35  52  78 121 163 194 224 277 354
#     4  10  21  38  59  87 116 147 183 236 296 338
#     4   9  17  29  49  69  95 142 184 229 267 314
#     4  12  23  38  57  87 116 154 198 229 283 353
#     4   8  14  26  47  69  89 118 174 230 267 298
#     4  10  22  38  48  76 122 164 192 226 272 346
#     4   9  17  32  46  70 102 134 184 227 273 318
#     4  10  21  40  65  85 108 142 192 255 298 328
#
# _framework density 20.968896999999998
#
# number of rings (size 3 to 8) (size 9 to 14) (size 15 to 20)
#    0.000    2.133    0.000    4.000    0.933    4.800 
#    0.000    0.000    0.000    0.000    3.467    0.000 
#    0.000    0.000    0.000    0.000    0.000    0.000 
#
# Total GULP energy -167267.535077 kJ/mol
# GULP energy per Si atom -5575.584503 kJ/mol
# Density = 2.092117 g / cm^3
# Si number density = 20.968897 Si / 1000 Ang^3
#
#
#
# Elastic Constant Matrix: (Units=GPa)
#
#
# Indices 1 2 3 4 5 6 
#
# 1 64.2452 37.9842 9.7944 0.0000 19.8688 0.0000
# 2 37.9842 152.5281 34.0098 0.0000 18.3150 0.0000
# 3 9.7944 34.0098 139.0665 0.0000 37.1016 0.0000
# 4 0.0000 0.0000 0.0000 -68.8829 0.0000 -13.2142
# 5 19.8688 18.3150 37.1016 0.0000 27.3555 0.0000
# 6 0.0000 0.0000 0.0000 -13.2142 0.0000 4.6692
#
#
#
# Elastic Compliance Matrix: (Units=1/GPa)
#
#
# Indices 1 2 3 4 5 6 
#
# 1 0.024111 -0.004578 0.005133 0.000000 -0.021409 0.000000
# 2 -0.004578 0.008047 -0.001716 0.000000 0.000265 0.000000
# 3 0.005133 -0.001716 0.012438 0.000000 -0.019448 0.000000
# 4 0.000000 0.000000 0.000000 -0.009409 0.000000 -0.026628
# 5 -0.021409 0.000265 -0.019448 0.000000 0.078304 0.000000
# 6 0.000000 0.000000 0.000000 -0.026628 0.000000 0.138809
#
#
# Mechanical properties :
#
#
# Convention : Reuss Voigt Hill
#
# Bulk Modulus (GPa) = 23.65602 57.71295 40.68448
# Shear Modulus (GPa) = 18.60723 10.89846 14.75285
#
# Velocity S-wave (km/s) = 2.98211 2.28226 2.65535
# Velocity P-wave (km/s) = 4.81283 5.87604 5.37081
#
# Compressibility (1/GPa) = 0.04227254
#
# Stress axis : x y z
#
# Youngs Moduli (GPa) = 41.47555 124.26820 80.40188
#
# Poissons Ratio (x) = 0.56892 -0.41272
# Poissons Ratio (y) = 0.18988 0.13800
# Poissons Ratio (z) = -0.21290 0.21329
#
# Static dielectric constant tensor:
#      x y z
#    x 1.746590 0.000000 -0.023110 
#    y 0.000000 1.864490 0.000000 
#    z -0.023110 0.000000 1.758140 
# 
# From -- ./inp_files/53968.got.cif
#   From: 2010.05.17/outbox.cif.g08.bks.cpg/sg13_27_cif.got.tgz:53968.got - 2010.06.03 16:44:36.
