data_PCOD9232151
_publ_section_title
;
Structure prediction by ZEFSAII (Michael W. Deem and Ramdas Pophale) SiO2 
 PCOD9232151
Probable space group: P 2/C
;
_chemical_formula_sum "Si O2"
_cell_formula_units_Z 32
_cell_length_a 9.247215
_cell_length_b 21.752814
_cell_length_c 11.936226
_cell_angle_alpha 90.000000
_cell_angle_beta 140.779622
_cell_angle_gamma 90.000000
_cell_volume 1518.168477
_symmetry_space_group_name_H-M "P 2/C"
_symmetry_group_IT_number 13
_symmetry_cell_setting 'monoclinic'
loop_
_space_group_symop_operation_xyz
x,y,z
-x,y,1/2-z
-x,-y,-z
x,-y,1/2+z
loop_
_atom_site_type_symbol
_atom_site_label
_atom_site_fract_x
_atom_site_fract_y
_atom_site_fract_z
Si Si1 0.132350 0.316685 0.212747
Si Si2 0.292589 0.561179 0.712709
Si Si3 0.133199 0.804455 0.212757
Si Si4 0.132828 0.438820 0.712709
Si Si5 0.707202 0.939878 0.787491
Si Si6 0.706858 0.683315 0.287254
Si Si7 0.132219 0.060122 0.712509
Si Si8 0.292315 0.804455 0.712757
O O1 0.285259 0.376584 0.280577
O O2 0.269971 0.253160 0.281481
O O3 0.000000 0.320986 0.250000
O O4 0.937650 0.315936 0.000000
O O5 0.500000 0.560029 0.750000
O O6 0.280621 0.500000 0.780621
O O7 0.062589 0.561344 0.500000
O O8 0.292990 0.746840 0.281480
O O9 0.245108 0.872241 0.280129
O O10 0.000000 0.795853 0.250000
O O11 0.936497 0.805877 0.000000
O O12 0.275895 0.376583 0.780577
O O13 0.000000 0.439971 0.750000
O O14 0.500000 0.945584 0.750000
O O15 0.684850 0.872241 0.719871
O O16 0.716485 1.000000 0.716486
O O17 0.940381 0.939038 0.000000
O O18 0.500000 0.679014 0.250000
O O19 0.000000 0.054415 0.750000
O O20 0.500000 0.795853 0.750000
#
# Coordination Sequence:
#
# PCOD9232151 Si02
#       8
#     4   4   4   4   4   4   4   4
#     4  10  21  35  51  74 102 130 163 202 243 289
#     4  10  21  36  54  77 103 131 165 203 242 287
#     4   9  18  33  51  71  96 127 163 201 242 289
#     4  10  21  36  54  77 103 131 165 203 242 287
#     4   9  18  32  49  70  97 127 160 200 243 288
#     4  10  21  35  51  74 102 130 163 202 243 289
#     4   9  18  32  49  70  97 127 160 200 243 288
#     4   9  18  33  51  71  96 127 163 201 242 289
#
# _framework density 21.078029999999998
#
# number of rings (size 3 to 8) (size 9 to 14) (size 15 to 20)
#    0.000    2.500    0.000    1.500    0.000    4.000 
#    0.000    0.000    0.000    0.000    0.000    0.000 
#    0.000    0.000    0.000    0.000    0.000    0.000 
#
# Total GULP energy -178665.348203 kJ/mol
# GULP energy per Si atom -5583.292131 kJ/mol
# Density = 2.103006 g / cm^3
# Si number density = 21.078030 Si / 1000 Ang^3
#
#
#
# Elastic Constant Matrix: (Units=GPa)
#
#
# Indices 1 2 3 4 5 6 
#
# 1 137.7450 139.9461 -9.1031 0.0000 -6.9360 0.0000
# 2 139.9461 280.4239 16.2926 0.0000 -9.6781 0.0000
# 3 -9.1031 16.2926 53.0579 0.0000 0.3073 0.0000
# 4 0.0000 0.0000 0.0000 -31.2861 0.0000 -6.6695
# 5 -6.9360 -9.6781 0.3073 0.0000 29.6827 0.0000
# 6 0.0000 0.0000 0.0000 -6.6695 0.0000 53.9368
#
#
#
# Elastic Compliance Matrix: (Units=1/GPa)
#
#
# Indices 1 2 3 4 5 6 
#
# 1 0.016105 -0.008311 0.005309 0.000000 0.000998 0.000000
# 2 -0.008311 0.007963 -0.003875 0.000000 0.000694 0.000000
# 3 0.005309 -0.003875 0.020950 0.000000 -0.000240 0.000000
# 4 0.000000 0.000000 0.000000 -0.031142 0.000000 -0.003851
# 5 0.000998 0.000694 -0.000240 0.000000 0.034152 0.000000
# 6 0.000000 0.000000 0.000000 -0.003851 0.000000 0.018064
#
#
# Mechanical properties :
#
#
# Convention : Reuss Voigt Hill
#
# Bulk Modulus (GPa) = 31.98600 85.05535 58.52067
# Shear Modulus (GPa) = 55.39158 32.07274 43.73216
#
# Velocity S-wave (km/s) = 5.13190 3.90503 4.55991
# Velocity P-wave (km/s) = 7.09388 7.79567 7.45304
#
# Compressibility (1/GPa) = 0.03126368
#
# Stress axis : x y z
#
# Youngs Moduli (GPa) = 62.09233 125.58234 47.73356
#
# Poissons Ratio (x) = 1.04375 -0.25344
# Poissons Ratio (y) = 0.51607 0.18498
# Poissons Ratio (z) = -0.32968 0.48665
#
# Static dielectric constant tensor:
#      x y z
#    x 1.676780 0.000000 0.007050 
#    y 0.000000 1.796600 0.000000 
#    z 0.007050 0.000000 1.766860 
# 
# From -- ./inp_files/30819.got.cif
#   From: 2010.05.17/outbox.cif.g08.bks.cpg/sg13_16_cif.got.tgz:30819.got - 2010.06.03 16:44:36.
