data_PCOD9232570
_publ_section_title
;
Structure prediction by ZEFSAII (Michael W. Deem and Ramdas Pophale) SiO2 
 PCOD9232570
Probable space group: P 2/C
;
_chemical_formula_sum "Si O2"
_cell_formula_units_Z 24
_cell_length_a 12.035348
_cell_length_b 5.326851
_cell_length_c 16.205423
_cell_angle_alpha 90.000000
_cell_angle_beta 110.935995
_cell_angle_gamma 90.000000
_cell_volume 970.347366
_symmetry_space_group_name_H-M "P 2/C"
_symmetry_group_IT_number 13
_symmetry_cell_setting 'monoclinic'
loop_
_space_group_symop_operation_xyz
x,y,z
-x,y,1/2-z
-x,-y,-z
x,-y,1/2+z
loop_
_atom_site_type_symbol
_atom_site_label
_atom_site_fract_x
_atom_site_fract_y
_atom_site_fract_z
Si Si1 0.514205 0.014110 0.369659
Si Si2 0.928039 0.748333 0.814021
Si Si3 0.608233 0.687307 0.042506
Si Si4 0.788534 0.513936 0.968043
Si Si5 0.334746 0.785844 0.713451
Si Si6 0.969069 0.760404 0.425172
O O1 0.589469 0.090390 0.470053
O O2 0.611415 0.974319 0.323196
O O3 0.436801 0.243318 0.309796
O O4 0.417125 0.813180 0.375512
O O5 0.973559 0.978273 0.881006
O O6 0.000000 0.756684 0.750000
O O7 0.787863 0.804569 0.770639
O O8 0.945427 0.471385 0.856457
O O9 0.500000 0.500000 0.000000
O O10 0.723792 0.540186 0.039204
O O11 0.698525 0.597976 0.870935
O O12 0.857150 0.263346 0.958236
O O13 0.902490 0.698742 0.002404
#
# Coordination Sequence:
#
# PCOD9232570 Si02
#       6
#     4   4   4   4   4   4
#     4   9  20  41  59  88 126 166 214 269 327 392
#     4  11  24  41  66  96 134 172 224 272 334 392
#     4  10  21  37  62  92 122 163 216 265 327 392
#     4   9  21  40  63  94 126 173 217 272 331 398
#     4   9  20  40  62  88 126 170 215 271 330 395
#     4  10  23  43  65  95 133 175 220 272 330 400
#
# _framework density 24.733411
#
# number of rings (size 3 to 8) (size 9 to 14) (size 15 to 20)
#    0.000    2.333    0.000    0.500    4.667    7.333 
#    9.000    1.667    0.000    0.000    0.000    0.000 
#    0.000    0.000    0.000    0.000    0.000    0.000 
#
# Total GULP energy -133773.775074 kJ/mol
# GULP energy per Si atom -5573.907295 kJ/mol
# Density = 2.467712 g / cm^3
# Si number density = 24.733411 Si / 1000 Ang^3
#
#
#
# Elastic Constant Matrix: (Units=GPa)
#
#
# Indices 1 2 3 4 5 6 
#
# 1 195.3058 49.5222 61.4250 0.0000 -39.2352 0.0000
# 2 49.5222 83.3370 33.8260 0.0000 -11.5898 0.0000
# 3 61.4250 33.8260 59.0369 0.0000 2.7720 0.0000
# 4 0.0000 0.0000 0.0000 27.0211 0.0000 3.7785
# 5 -39.2352 -11.5898 2.7720 0.0000 61.0450 0.0000
# 6 0.0000 0.0000 0.0000 3.7785 0.0000 13.0696
#
#
#
# Elastic Compliance Matrix: (Units=1/GPa)
#
#
# Indices 1 2 3 4 5 6 
#
# 1 0.009821 -0.000838 -0.010048 0.000000 0.006609 0.000000
# 2 -0.000838 0.016437 -0.008685 0.000000 0.002976 0.000000
# 3 -0.010048 -0.008685 0.032820 0.000000 -0.009597 0.000000
# 4 0.000000 0.000000 0.000000 0.038567 0.000000 -0.011150
# 5 0.006609 0.002976 -0.009597 0.000000 0.021630 0.000000
# 6 0.000000 0.000000 0.000000 -0.011150 0.000000 0.079737
#
#
# Mechanical properties :
#
#
# Convention : Reuss Voigt Hill
#
# Bulk Modulus (GPa) = 50.16446 69.69181 59.92813
# Shear Modulus (GPa) = 20.42495 33.08758 26.75627
#
# Velocity S-wave (km/s) = 2.87680 3.66152 3.29262
# Velocity P-wave (km/s) = 5.60006 6.79073 6.22393
#
# Compressibility (1/GPa) = 0.01993443
#
# Stress axis : x y z
#
# Youngs Moduli (GPa) = 101.82761 60.83901 30.46947
#
# Poissons Ratio (x) = 0.05100 0.30615
# Poissons Ratio (y) = 0.08536 0.26464
# Poissons Ratio (z) = 1.02314 0.52840
#
# Static dielectric constant tensor:
#      x y z
#    x 2.006230 0.000000 -0.033520 
#    y 0.000000 2.009560 0.000000 
#    z -0.033520 0.000000 2.102420 
# 
# From -- ./inp_files/65444.got.cif
#   From: 2010.05.17/outbox.cif.g08.bks.cpg/sg13_33_cif.got.tgz:65444.got - 2010.06.03 16:44:36.
