data_PCOD9232034
_publ_section_title
;
Structure prediction by ZEFSAII (Michael W. Deem and Ramdas Pophale) SiO2 
 PCOD9232034
Probable space group: P 2/C
;
_chemical_formula_sum "Si O2"
_cell_formula_units_Z 22
_cell_length_a 8.717813
_cell_length_b 7.535789
_cell_length_c 13.547817
_cell_angle_alpha 90.000000
_cell_angle_beta 100.249274
_cell_angle_gamma 90.000000
_cell_volume 875.829675
_symmetry_space_group_name_H-M "P 2/C"
_symmetry_group_IT_number 13
_symmetry_cell_setting 'monoclinic'
loop_
_space_group_symop_operation_xyz
x,y,z
-x,y,1/2-z
-x,-y,-z
x,-y,1/2+z
loop_
_atom_site_type_symbol
_atom_site_label
_atom_site_fract_x
_atom_site_fract_y
_atom_site_fract_z
Si Si1 0.316507 0.469091 0.886843
Si Si2 0.534071 0.085834 0.608063
Si Si3 0.648995 0.569821 0.878047
Si Si4 0.000000 0.882469 0.250000
Si Si5 0.705813 0.052449 0.301962
Si Si6 0.982916 0.550855 0.382325
O O1 0.357594 0.258284 0.879249
O O2 0.461268 0.550209 0.842566
O O3 0.138845 0.538848 0.851187
O O4 0.338298 0.495867 0.007041
O O5 0.307527 0.775599 0.632358
O O6 0.611591 0.942151 0.688798
O O7 0.500000 0.000000 0.500000
O O8 0.630911 0.112059 0.855213
O O9 0.798121 0.479189 0.840781
O O10 0.873513 0.010418 0.281907
O O11 0.978784 0.747550 0.154557
O O12 0.000000 0.500000 0.500000
#
# Coordination Sequence:
#
# PCOD9232034 Si02
#       6
#     4   4   4   2   4   4
#     4  10  20  45  75 100 142 192 235 307 369 439
#     4  11  22  46  73 104 147 189 249 303 373 449
#     4  10  22  44  70 107 140 185 250 303 368 444
#     4  12  24  48  70 100 154 196 242 316 368 438
#     4  11  25  44  71 109 148 192 248 307 376 443
#     4  10  23  46  72 105 145 193 249 301 373 447
#
# _framework density 25.119038
#
# number of rings (size 3 to 8) (size 9 to 14) (size 15 to 20)
#    0.000    1.455    3.636    1.091    0.000    0.727 
#   13.091    8.182    0.000    0.000    0.000    0.000 
#    0.000    0.000    0.000    0.000    0.000    0.000 
#
# Total GULP energy -122484.680586 kJ/mol
# GULP energy per Si atom -5567.485481 kJ/mol
# Density = 2.506187 g / cm^3
# Si number density = 25.119038 Si / 1000 Ang^3
#
#
#
# Elastic Constant Matrix: (Units=GPa)
#
#
# Indices 1 2 3 4 5 6 
#
# 1 284.4930 54.4531 35.0739 0.0000 -61.1953 0.0000
# 2 54.4531 71.8812 10.1629 0.0000 -9.9497 0.0000
# 3 35.0739 10.1629 129.8059 0.0000 -48.2154 0.0000
# 4 0.0000 0.0000 0.0000 33.6483 0.0000 -12.1839
# 5 -61.1953 -9.9497 -48.2154 0.0000 41.6876 0.0000
# 6 0.0000 0.0000 0.0000 -12.1839 0.0000 35.9170
#
#
#
# Elastic Compliance Matrix: (Units=1/GPa)
#
#
# Indices 1 2 3 4 5 6 
#
# 1 0.006438 -0.003632 0.003039 0.000000 0.012098 0.000000
# 2 -0.003632 0.016441 -0.001453 0.000000 -0.003088 0.000000
# 3 0.003039 -0.001453 0.014945 0.000000 0.021399 0.000000
# 4 0.000000 0.000000 0.000000 0.033881 0.000000 0.011493
# 5 0.012098 -0.003088 0.021399 0.000000 0.065760 0.000000
# 6 0.000000 0.000000 0.000000 0.011493 0.000000 0.031741
#
#
# Mechanical properties :
#
#
# Convention : Reuss Voigt Hill
#
# Bulk Modulus (GPa) = 29.64581 76.17332 52.90956
# Shear Modulus (GPa) = 27.09407 48.01659 37.55533
#
# Velocity S-wave (km/s) = 3.28781 4.37688 3.87084
# Velocity P-wave (km/s) = 5.12256 7.47888 6.40992
#
# Compressibility (1/GPa) = 0.03373158
#
# Stress axis : x y z
#
# Youngs Moduli (GPa) = 155.32958 60.82268 66.91206
#
# Poissons Ratio (x) = 0.22091 -0.20331
# Poissons Ratio (y) = 0.56416 0.09721
# Poissons Ratio (z) = -0.47197 0.08836
#
# Static dielectric constant tensor:
#      x y z
#    x 1.994770 0.000000 0.325330 
#    y 0.000000 2.059760 0.000000 
#    z 0.325330 0.000000 1.785590 
# 
# From -- ./inp_files/46120.got.cif
#   From: 2010.05.17/outbox.cif.g08.bks.cpg/sg13_24_cif.got.tgz:46120.got - 2010.06.03 16:44:36.
