data_PCOD9232833
_publ_section_title
;
Structure prediction by ZEFSAII (Michael W. Deem and Ramdas Pophale) SiO2 
 PCOD9232833
Probable space group: P 2/C
;
_chemical_formula_sum "Si O2"
_cell_formula_units_Z 20
_cell_length_a 10.145547
_cell_length_b 19.884457
_cell_length_c 10.038118
_cell_angle_alpha 90.000000
_cell_angle_beta 150.162557
_cell_angle_gamma 90.000000
_cell_volume 1007.558623
_symmetry_space_group_name_H-M "P 2/C"
_symmetry_group_IT_number 13
_symmetry_cell_setting 'monoclinic'
loop_
_space_group_symop_operation_xyz
x,y,z
-x,y,1/2-z
-x,-y,-z
x,-y,1/2+z
loop_
_atom_site_type_symbol
_atom_site_label
_atom_site_fract_x
_atom_site_fract_y
_atom_site_fract_z
Si Si1 0.421649 0.894073 0.031628
Si Si2 0.713486 0.750675 0.557709
Si Si3 0.080712 0.559050 0.171576
Si Si4 0.412519 0.353085 0.323088
Si Si5 0.154893 0.964854 0.257722
O O1 0.500000 0.879989 0.250000
O O2 0.660562 0.906834 0.139499
O O3 0.256973 0.827115 0.856440
O O4 0.302465 0.968531 0.937881
O O5 0.607450 0.704276 0.583793
O O6 0.000000 0.730911 0.750000
O O7 0.500000 0.746083 0.250000
O O8 0.378680 0.589177 0.443708
O O9 0.000000 0.537183 0.250000
O O10 0.000000 0.500000 0.000000
O O11 0.882146 0.618386 0.955422
O O12 0.500000 0.332055 0.250000
O O13 0.000000 0.938873 0.250000
O O14 0.000000 0.000000 0.000000
#
# Coordination Sequence:
#
# PCOD9232833 Si02
#       5
#     4   4   4   4   4
#     4  10  22  38  59  86 120 158 202 259 312 366
#     4  11  24  42  65  90 121 167 211 255 307 369
#     4  10  21  38  63  92 127 164 202 252 304 356
#     4  10  22  42  61  91 130 163 202 256 307 357
#     4  11  21  38  61  86 119 157 202 258 316 372
#
# _framework density 19.849961
#
# number of rings (size 3 to 8) (size 9 to 14) (size 15 to 20)
#    0.000    1.600    2.000    2.400    2.800    2.400 
#    3.600    1.000    0.000    0.000    0.000    0.000 
#    0.000    0.000    0.000    0.000    0.000    0.000 
#
# Total GULP energy -111379.907253 kJ/mol
# GULP energy per Si atom -5568.995363 kJ/mol
# Density = 1.980478 g / cm^3
# Si number density = 19.849961 Si / 1000 Ang^3
#
#
#
# Elastic Constant Matrix: (Units=GPa)
#
#
# Indices 1 2 3 4 5 6 
#
# 1 122.9011 49.3468 23.0983 0.0000 -9.3001 0.0000
# 2 49.3468 66.8902 8.5442 0.0000 -20.8024 0.0000
# 3 23.0983 8.5442 83.1753 0.0000 -5.1814 0.0000
# 4 0.0000 0.0000 0.0000 23.4837 0.0000 -9.6312
# 5 -9.3001 -20.8024 -5.1814 0.0000 32.1138 0.0000
# 6 0.0000 0.0000 0.0000 -9.6312 0.0000 25.9115
#
#
#
# Elastic Compliance Matrix: (Units=1/GPa)
#
#
# Indices 1 2 3 4 5 6 
#
# 1 0.012289 -0.009713 -0.002611 0.000000 -0.003154 0.000000
# 2 -0.009713 0.026514 0.000877 0.000000 0.014504 0.000000
# 3 -0.002611 0.000877 0.012775 0.000000 0.001873 0.000000
# 4 0.000000 0.000000 0.000000 0.050242 0.000000 0.018675
# 5 -0.003154 0.014504 0.001873 0.000000 0.039923 0.000000
# 6 0.000000 0.000000 0.000000 0.018675 0.000000 0.045534
#
#
# Mechanical properties :
#
#
# Convention : Reuss Voigt Hill
#
# Bulk Modulus (GPa) = 34.86422 48.32727 41.59574
# Shear Modulus (GPa) = 22.75500 29.10027 25.92763
#
# Velocity S-wave (km/s) = 3.38945 3.83301 3.61803
# Velocity P-wave (km/s) = 5.73758 6.63237 6.20114
#
# Compressibility (1/GPa) = 0.02868270
#
# Stress axis : x y z
#
# Youngs Moduli (GPa) = 81.37556 37.71590 78.28059
#
# Poissons Ratio (x) = 0.36634 0.20442
# Poissons Ratio (y) = 0.79041 -0.06867
# Poissons Ratio (z) = 0.21250 -0.03309
#
# Static dielectric constant tensor:
#      x y z
#    x 1.742070 0.000000 0.083450 
#    y 0.000000 1.917180 0.000000 
#    z 0.083450 0.000000 1.748270 
# 
# From -- ./inp_files/13550.got.cif
#   From: 2010.05.17/outbox.cif.g08.bks.cpg/sg13_7_cif.got.tgz:13550.got - 2010.06.03 16:44:36.
