data_PCOD9232900
_publ_section_title
;
Structure prediction by ZEFSAII (Michael W. Deem and Ramdas Pophale) SiO2 
 PCOD9232900
Probable space group: P 2/C
;
_chemical_formula_sum "Si O2"
_cell_formula_units_Z 28
_cell_length_a 13.540889
_cell_length_b 15.540158
_cell_length_c 7.542127
_cell_angle_alpha 90.000000
_cell_angle_beta 49.424376
_cell_angle_gamma 90.000000
_cell_volume 1205.457029
_symmetry_space_group_name_H-M "P 2/C"
_symmetry_group_IT_number 13
_symmetry_cell_setting 'monoclinic'
loop_
_space_group_symop_operation_xyz
x,y,z
-x,y,1/2-z
-x,-y,-z
x,-y,1/2+z
loop_
_atom_site_type_symbol
_atom_site_label
_atom_site_fract_x
_atom_site_fract_y
_atom_site_fract_z
Si Si1 0.386081 0.124551 0.772334
Si Si2 0.853065 0.415715 0.131262
Si Si3 0.133008 0.964915 0.485178
Si Si4 0.260941 0.751062 0.685856
Si Si5 0.150084 0.609608 0.284744
Si Si6 0.357930 0.247138 0.472783
Si Si7 0.030593 0.851124 0.028453
O O1 0.500000 0.078857 0.750000
O O2 0.392215 0.168695 0.569693
O O3 0.267554 0.057824 0.911486
O O4 0.354664 0.202369 0.942799
O O5 0.749243 0.349939 0.331054
O O6 0.809808 0.513756 0.203664
O O7 0.857992 0.395290 0.918009
O O8 0.999171 0.391867 0.028779
O O9 0.000000 0.950743 0.750000
O O10 0.105792 0.892510 0.369327
O O11 0.119874 0.063628 0.447591
O O12 0.295620 0.773596 0.850730
O O13 0.116141 0.788083 0.814355
O O14 0.253699 0.687503 0.190523
O O15 0.500000 0.285451 0.250000
O O16 0.000000 0.806755 0.250000
#
# Coordination Sequence:
#
# PCOD9232900 Si02
#       7
#     4   4   4   4   4   4   4
#     4  12  25  43  66  95 133 173 222 271 322 391
#     4   9  20  37  61  95 125 160 208 272 329 387
#     4  10  21  40  64  98 128 165 217 270 326 390
#     4  11  23  41  66  93 130 169 221 272 323 391
#     4   9  20  38  60  90 129 160 208 267 331 390
#     4  11  24  43  63  90 129 177 216 266 325 393
#     4  10  21  38  67  94 132 164 210 275 329 384
#
# _framework density 23.227706000000001
#
# number of rings (size 3 to 8) (size 9 to 14) (size 15 to 20)
#    0.000    1.714    2.857    0.857    8.000    0.000 
#    0.000    5.000    0.000    0.000    0.000    0.000 
#    0.000    0.000    0.000    0.000    0.000    0.000 
#
# Total GULP energy -156042.741868 kJ/mol
# GULP energy per Si atom -5572.955067 kJ/mol
# Density = 2.317484 g / cm^3
# Si number density = 23.227706 Si / 1000 Ang^3
#
#
#
# Elastic Constant Matrix: (Units=GPa)
#
#
# Indices 1 2 3 4 5 6 
#
# 1 116.2224 39.0206 11.4261 0.0000 -19.4194 0.0000
# 2 39.0206 63.7302 -3.7714 0.0000 -9.2050 0.0000
# 3 11.4261 -3.7714 42.5336 0.0000 -0.4247 0.0000
# 4 0.0000 0.0000 0.0000 11.8899 0.0000 -2.4064
# 5 -19.4194 -9.2050 -0.4247 0.0000 32.7275 0.0000
# 6 0.0000 0.0000 0.0000 -2.4064 0.0000 23.9383
#
#
#
# Elastic Compliance Matrix: (Units=1/GPa)
#
#
# Indices 1 2 3 4 5 6 
#
# 1 0.012182 -0.006930 -0.003835 0.000000 0.005229 0.000000
# 2 -0.006930 0.020394 0.003687 0.000000 0.001672 0.000000
# 3 -0.003835 0.003687 0.024859 0.000000 -0.000916 0.000000
# 4 0.000000 0.000000 0.000000 0.085852 0.000000 0.008630
# 5 0.005229 0.001672 -0.000916 0.000000 0.034117 0.000000
# 6 0.000000 0.000000 0.000000 0.008630 0.000000 0.042642
#
#
# Mechanical properties :
#
#
# Convention : Reuss Voigt Hill
#
# Bulk Modulus (GPa) = 23.10643 35.09296 29.09970
# Shear Modulus (GPa) = 20.11046 25.43187 22.77116
#
# Velocity S-wave (km/s) = 2.94563 3.31251 3.13444
# Velocity P-wave (km/s) = 4.64095 5.45631 5.06506
#
# Compressibility (1/GPa) = 0.04327799
#
# Stress axis : x y z
#
# Youngs Moduli (GPa) = 82.09044 49.03403 40.22731
#
# Poissons Ratio (x) = 0.33982 0.15426
# Poissons Ratio (y) = 0.56890 -0.14831
# Poissons Ratio (z) = 0.31479 -0.18078
#
# Static dielectric constant tensor:
#      x y z
#    x 2.101460 0.000000 0.019400 
#    y 0.000000 1.901470 0.000000 
#    z 0.019400 0.000000 1.964850 
# 
# From -- ./inp_files/19601.got.cif
#   From: 2010.05.17/outbox.cif.g08.bks.cpg/sg13_10_cif.got.tgz:19601.got - 2010.06.03 16:44:36.
