data_PCOD9232150
_publ_section_title
;
Structure prediction by ZEFSAII (Michael W. Deem and Ramdas Pophale) SiO2 
 PCOD9232150
Probable space group: P 2/C
;
_chemical_formula_sum "Si O2"
_cell_formula_units_Z 32
_cell_length_a 14.048352
_cell_length_b 9.821769
_cell_length_c 19.426294
_cell_angle_alpha 90.000000
_cell_angle_beta 45.857927
_cell_angle_gamma 90.000000
_cell_volume 1923.519591
_symmetry_space_group_name_H-M "P 2/C"
_symmetry_group_IT_number 13
_symmetry_cell_setting 'monoclinic'
loop_
_space_group_symop_operation_xyz
x,y,z
-x,y,1/2-z
-x,-y,-z
x,-y,1/2+z
loop_
_atom_site_type_symbol
_atom_site_label
_atom_site_fract_x
_atom_site_fract_y
_atom_site_fract_z
Si Si1 0.861725 0.228459 0.062818
Si Si2 0.352583 0.117790 0.141214
Si Si3 0.540444 0.139178 0.561365
Si Si4 0.148310 0.219582 0.882469
Si Si5 0.421639 0.363941 0.718362
Si Si6 0.085971 0.956744 0.828699
Si Si7 0.201496 0.966309 0.490730
Si Si8 0.606160 0.674785 0.754207
O O1 0.892631 0.136334 0.114265
O O2 0.747506 0.330143 0.143617
O O3 0.805771 0.119963 0.035415
O O4 0.003468 0.285596 0.967496
O O5 0.194016 0.094085 0.220053
O O6 0.384681 0.217768 0.188529
O O7 0.424057 0.973168 0.118186
O O8 0.410812 0.170268 0.040221
O O9 0.489172 0.271540 0.626527
O O10 0.664025 0.071146 0.538989
O O11 0.269493 0.317136 0.804107
O O12 0.185153 0.133485 0.932840
O O13 0.125034 0.107867 0.834376
O O14 0.500000 0.337394 0.750000
O O15 0.429041 0.524841 0.701522
O O16 0.928904 0.950438 0.895523
O O17 0.500000 0.718081 0.750000
#
# Coordination Sequence:
#
# PCOD9232150 Si02
#       8
#     4   4   4   4   4   4   4   4
#     4   8  16  29  50  76 100 130 161 202 255 302
#     4  10  21  35  50  74 103 132 175 208 251 311
#     4  11  21  32  52  76 100 135 172 213 253 300
#     4   9  15  29  50  75 104 124 163 210 247 299
#     4  11  21  32  51  77 103 135 171 212 255 297
#     4   8  15  29  49  74 101 127 160 210 252 298
#     4   9  16  28  51  78 101 128 161 206 263 288
#     4  10  21  35  51  74 103 133 170 209 256 308
#
# _framework density 16.636171000000001
#
# number of rings (size 3 to 8) (size 9 to 14) (size 15 to 20)
#    0.000    2.500    2.500    2.250    0.000    2.000 
#    0.000    0.000    0.000    0.000    0.000    0.000 
#   11.250    0.000    0.000    0.000    0.000    0.000 
#
# Total GULP energy -178276.544143 kJ/mol
# GULP energy per Si atom -5571.142004 kJ/mol
# Density = 1.659831 g / cm^3
# Si number density = 16.636171 Si / 1000 Ang^3
#
#
#
# Elastic Constant Matrix: (Units=GPa)
#
#
# Indices 1 2 3 4 5 6 
#
# 1 33.8653 5.1790 27.0808 0.0000 -5.3285 0.0000
# 2 5.1790 38.9577 37.2401 0.0000 9.9679 0.0000
# 3 27.0808 37.2401 118.7787 0.0000 -6.0126 0.0000
# 4 0.0000 0.0000 0.0000 7.4549 0.0000 0.5591
# 5 -5.3285 9.9679 -6.0126 0.0000 24.7531 0.0000
# 6 0.0000 0.0000 0.0000 0.5591 0.0000 16.6815
#
#
#
# Elastic Compliance Matrix: (Units=1/GPa)
#
#
# Indices 1 2 3 4 5 6 
#
# 1 0.037092 0.002399 -0.008964 0.000000 0.004841 0.000000
# 2 0.002399 0.046590 -0.016278 0.000000 -0.022199 0.000000
# 3 -0.008964 -0.016278 0.015997 0.000000 0.008511 0.000000
# 4 0.000000 0.000000 0.000000 0.134477 0.000000 -0.004508
# 5 0.004841 -0.022199 0.008511 0.000000 0.052448 0.000000
# 6 0.000000 0.000000 0.000000 -0.004508 0.000000 0.060098
#
#
# Mechanical properties :
#
#
# Convention : Reuss Voigt Hill
#
# Bulk Modulus (GPa) = 18.52078 36.73352 27.62715
# Shear Modulus (GPa) = 12.18369 17.91803 15.05086
#
# Velocity S-wave (km/s) = 2.70915 3.28541 3.01110
# Velocity P-wave (km/s) = 4.57635 6.04320 5.36019
#
# Compressibility (1/GPa) = 0.05399341
#
# Stress axis : x y z
#
# Youngs Moduli (GPa) = 26.96030 21.46377 62.51159
#
# Poissons Ratio (x) = -0.05149 0.56034
# Poissons Ratio (y) = -0.06467 1.01755
# Poissons Ratio (z) = 0.24166 0.34938
#
# Static dielectric constant tensor:
#      x y z
#    x 1.551690 0.000000 -0.018800 
#    y 0.000000 1.535230 0.000000 
#    z -0.018800 0.000000 1.586860 
# 
# From -- ./inp_files/79800.got.cif
#   From: 2010.05.17/outbox.cif.g08.bks.cpg/sg13_40_cif.got.tgz:79800.got - 2010.06.03 16:44:36.
