data_PCOD9232225
_publ_section_title
;
Structure prediction by ZEFSAII (Michael W. Deem and Ramdas Pophale) SiO2 
 PCOD9232225
Probable space group: P 2/C
;
_chemical_formula_sum "Si O2"
_cell_formula_units_Z 30
_cell_length_a 9.044379
_cell_length_b 8.939945
_cell_length_c 19.405641
_cell_angle_alpha 90.000000
_cell_angle_beta 99.003135
_cell_angle_gamma 90.000000
_cell_volume 1549.736120
_symmetry_space_group_name_H-M "P 2/C"
_symmetry_group_IT_number 13
_symmetry_cell_setting 'monoclinic'
loop_
_space_group_symop_operation_xyz
x,y,z
-x,y,1/2-z
-x,-y,-z
x,-y,1/2+z
loop_
_atom_site_type_symbol
_atom_site_label
_atom_site_fract_x
_atom_site_fract_y
_atom_site_fract_z
Si Si1 0.576945 0.336816 0.004453
Si Si2 0.674957 0.237134 0.598284
Si Si3 0.064163 0.715203 0.825029
Si Si4 0.247402 0.600456 0.655966
Si Si5 0.500000 0.199688 0.250000
Si Si6 0.833537 0.397604 0.729763
Si Si7 0.352349 0.894350 0.879054
Si Si8 0.174838 0.536471 0.499470
O O1 0.498111 0.272709 0.931131
O O2 0.750228 0.381638 0.019650
O O3 0.500000 0.500000 0.000000
O O4 0.553621 0.215409 0.063303
O O5 0.726848 0.296542 0.676298
O O6 0.780284 0.330697 0.551198
O O7 0.677311 0.059124 0.594642
O O8 0.137809 0.554996 0.809025
O O9 0.190454 0.820012 0.861606
O O10 0.000000 0.783304 0.750000
O O11 0.914286 0.681925 0.855406
O O12 0.373873 0.696963 0.703690
O O13 0.227399 0.451266 0.700888
O O14 0.263543 0.568401 0.577053
O O15 0.574159 0.109175 0.192030
O O16 0.000000 0.330416 0.750000
O O17 0.000000 0.500000 0.500000
#
# Coordination Sequence:
#
# PCOD9232225 Si02
#       8
#     4   4   4   4   2   4   4   4
#     4  10  22  40  65  87 124 171 213 253 317 380
#     4  11  24  40  62  90 133 168 202 256 340 377
#     4   9  17  38  62  87 118 164 205 254 316 376
#     4  10  21  35  66  92 119 153 218 264 301 363
#     4  12  22  36  60  94 120 162 218 260 308 382
#     4   9  18  38  63  89 116 160 210 262 306 378
#     4  12  23  41  61  90 129 173 205 262 323 389
#     4  11  22  41  68  97 120 164 221 268 302 379
#
# _framework density 19.358135000000001
#
# number of rings (size 3 to 8) (size 9 to 14) (size 15 to 20)
#    0.000    1.867    2.667    6.000    1.867    0.533 
#    2.400    4.000    0.000    0.000    0.000    0.000 
#    0.000    0.000    0.000    0.000    0.000    0.000 
#
# Total GULP energy -167036.823504 kJ/mol
# GULP energy per Si atom -5567.894117 kJ/mol
# Density = 1.931408 g / cm^3
# Si number density = 19.358135 Si / 1000 Ang^3
#
#
#
# Elastic Constant Matrix: (Units=GPa)
#
#
# Indices 1 2 3 4 5 6 
#
# 1 90.0091 40.5248 33.6865 0.0000 2.6405 0.0000
# 2 40.5248 88.6884 46.2346 0.0000 13.0344 0.0000
# 3 33.6865 46.2346 103.5019 0.0000 1.7389 0.0000
# 4 0.0000 0.0000 0.0000 14.5375 0.0000 -2.1537
# 5 2.6405 13.0344 1.7389 0.0000 38.1453 0.0000
# 6 0.0000 0.0000 0.0000 -2.1537 0.0000 9.6809
#
#
#
# Elastic Compliance Matrix: (Units=1/GPa)
#
#
# Indices 1 2 3 4 5 6 
#
# 1 0.014424 -0.005583 -0.002217 0.000000 0.001010 0.000000
# 2 -0.005583 0.017764 -0.006027 0.000000 -0.005409 0.000000
# 3 -0.002217 -0.006027 0.013048 0.000000 0.001618 0.000000
# 4 0.000000 0.000000 0.000000 0.071132 0.000000 0.015824
# 5 0.001010 -0.005409 0.001618 0.000000 0.027920 0.000000
# 6 0.000000 0.000000 0.000000 0.015824 0.000000 0.106817
#
#
# Mechanical properties :
#
#
# Convention : Reuss Voigt Hill
#
# Bulk Modulus (GPa) = 56.88121 58.12124 57.50122
# Shear Modulus (GPa) = 17.56727 23.25629 20.41178
#
# Velocity S-wave (km/s) = 3.01572 3.46984 3.25072
# Velocity P-wave (km/s) = 6.44775 6.79282 6.62253
#
# Compressibility (1/GPa) = 0.01758050
#
# Stress axis : x y z
#
# Youngs Moduli (GPa) = 69.32867 56.29520 76.63768
#
# Poissons Ratio (x) = 0.31432 0.16994
# Poissons Ratio (y) = 0.38709 0.46189
# Poissons Ratio (z) = 0.15373 0.33929
#
# Static dielectric constant tensor:
#      x y z
#    x 1.795800 0.000000 -0.044630 
#    y 0.000000 1.691560 0.000000 
#    z -0.044630 0.000000 1.757190 
# 
# From -- ./inp_files/75730.got.cif
#   From: 2010.05.17/outbox.cif.g08.bks.cpg/sg13_38_cif.got.tgz:75730.got - 2010.06.03 16:44:36.
