data_PCOD9232671
_publ_section_title
;
Structure prediction by ZEFSAII (Michael W. Deem and Ramdas Pophale) SiO2 
 PCOD9232671
Probable space group: P 2/C
;
_chemical_formula_sum "Si O2"
_cell_formula_units_Z 30
_cell_length_a 21.109742
_cell_length_b 5.376742
_cell_length_c 14.433821
_cell_angle_alpha 90.000000
_cell_angle_beta 127.508448
_cell_angle_gamma 90.000000
_cell_volume 1299.573808
_symmetry_space_group_name_H-M "P 2/C"
_symmetry_group_IT_number 13
_symmetry_cell_setting 'monoclinic'
loop_
_space_group_symop_operation_xyz
x,y,z
-x,y,1/2-z
-x,-y,-z
x,-y,1/2+z
loop_
_atom_site_type_symbol
_atom_site_label
_atom_site_fract_x
_atom_site_fract_y
_atom_site_fract_z
Si Si1 0.573928 0.322742 0.637490
Si Si2 0.757364 0.318162 0.106182
Si Si3 0.840582 0.843823 0.946973
Si Si4 0.253688 0.322840 0.622413
Si Si5 0.866297 0.292773 0.669795
Si Si6 0.000000 0.668473 0.750000
Si Si7 0.918638 0.084417 0.339527
Si Si8 0.587238 0.179844 0.034970
O O1 0.653713 0.317211 0.768521
O O2 0.487307 0.239810 0.599953
O O3 0.571087 0.607105 0.598407
O O4 0.585007 0.102996 0.569896
O O5 0.781576 0.609817 0.130457
O O6 0.832759 0.185952 0.222522
O O7 0.674466 0.242571 0.075929
O O8 0.751294 0.279308 0.991580
O O9 0.789635 0.586848 0.893372
O O10 0.915512 0.844647 0.943517
O O11 0.790501 0.086425 0.872103
O O12 0.859559 0.876611 0.072957
O O13 0.920311 0.508228 0.673834
O O14 0.913214 0.198366 0.801004
O O15 0.987399 0.808996 0.835258
#
# Coordination Sequence:
#
# PCOD9232671 Si02
#       8
#     4   4   4   4   4   2   4   4
#     4  10  21  38  57  87 131 161 219 260 315 380
#     4  10  22  37  63  88 127 163 218 264 323 369
#     4  11  25  40  69  94 130 167 217 261 323 374
#     4  11  22  40  60  96 126 165 216 273 305 387
#     4  10  23  44  62  98 129 162 218 272 311 398
#     4  10  24  42  66  94 130 166 210 260 324 390
#     4  11  22  42  66  91 126 172 205 262 325 383
#     4  10  22  37  59  90 121 173 209 264 317 379
#
# _framework density 23.084489999999999
#
# number of rings (size 3 to 8) (size 9 to 14) (size 15 to 20)
#    0.000    1.600    1.333    2.800    7.467    1.067 
#    0.000    2.667    0.000    6.400    0.000    0.000 
#    0.000    0.000    0.000    0.000    0.000    0.000 
#
# Total GULP energy -167345.328404 kJ/mol
# GULP energy per Si atom -5578.177613 kJ/mol
# Density = 2.303195 g / cm^3
# Si number density = 23.084490 Si / 1000 Ang^3
#
#
#
# Elastic Constant Matrix: (Units=GPa)
#
#
# Indices 1 2 3 4 5 6 
#
# 1 101.5722 36.4975 13.8555 0.0000 15.6529 0.0000
# 2 36.4975 88.1623 24.1234 0.0000 -2.5705 0.0000
# 3 13.8555 24.1234 83.1450 0.0000 2.7399 0.0000
# 4 0.0000 0.0000 0.0000 23.5863 0.0000 5.0862
# 5 15.6529 -2.5705 2.7399 0.0000 29.1584 0.0000
# 6 0.0000 0.0000 0.0000 5.0862 0.0000 26.6895
#
#
#
# Elastic Compliance Matrix: (Units=1/GPa)
#
#
# Indices 1 2 3 4 5 6 
#
# 1 0.013020 -0.005519 -0.000323 0.000000 -0.007445 0.000000
# 2 -0.005519 0.014719 -0.003502 0.000000 0.004589 0.000000
# 3 -0.000323 -0.003502 0.013142 0.000000 -0.001370 0.000000
# 4 0.000000 0.000000 0.000000 0.044214 0.000000 -0.008426
# 5 -0.007445 0.004589 -0.001370 0.000000 0.038826 0.000000
# 6 0.000000 0.000000 0.000000 -0.008426 0.000000 0.039074
#
#
# Mechanical properties :
#
#
# Convention : Reuss Voigt Hill
#
# Bulk Modulus (GPa) = 45.05825 46.87024 45.96425
# Shear Modulus (GPa) = 26.44372 29.11371 27.77872
#
# Velocity S-wave (km/s) = 3.38822 3.55516 3.47270
# Velocity P-wave (km/s) = 5.90491 6.09919 6.00284
#
# Compressibility (1/GPa) = 0.02219349
#
# Stress axis : x y z
#
# Youngs Moduli (GPa) = 76.80714 67.93760 76.09013
#
# Poissons Ratio (x) = 0.37492 0.02459
# Poissons Ratio (y) = 0.42386 0.26649
# Poissons Ratio (z) = 0.02482 0.23793
#
# Static dielectric constant tensor:
#      x y z
#    x 1.871620 0.000000 0.036620 
#    y 0.000000 2.013990 0.000000 
#    z 0.036620 0.000000 1.928240 
# 
# From -- ./inp_files/56588.got.cif
#   From: 2010.05.17/outbox.cif.g08.bks.cpg/sg13_29_cif.got.tgz:56588.got - 2010.06.03 16:44:36.
