data_PCOD9232370
_publ_section_title
;
Structure prediction by ZEFSAII (Michael W. Deem and Ramdas Pophale) SiO2 
 PCOD9232370
Probable space group: P 2/C
;
_chemical_formula_sum "Si O2"
_cell_formula_units_Z 14
_cell_length_a 12.588431
_cell_length_b 6.839561
_cell_length_c 9.853495
_cell_angle_alpha 90.000000
_cell_angle_beta 37.089346
_cell_angle_gamma 90.000000
_cell_volume 511.623420
_symmetry_space_group_name_H-M "P 2/C"
_symmetry_group_IT_number 13
_symmetry_cell_setting 'monoclinic'
loop_
_space_group_symop_operation_xyz
x,y,z
-x,y,1/2-z
-x,-y,-z
x,-y,1/2+z
loop_
_atom_site_type_symbol
_atom_site_label
_atom_site_fract_x
_atom_site_fract_y
_atom_site_fract_z
Si Si1 0.333884 0.497012 0.827165
Si Si2 0.629299 0.038660 0.242449
Si Si3 0.853064 0.613390 0.231524
Si Si4 0.000000 0.962900 0.250000
O O1 0.500000 0.444902 0.750000
O O2 0.335502 0.727598 0.789818
O O3 0.306996 0.385848 0.713408
O O4 0.186488 0.489732 0.093670
O O5 0.500000 0.997559 0.250000
O O6 0.500000 0.000000 0.500000
O O7 0.824592 0.949528 0.003666
O O8 0.912054 0.824562 0.223829
O O9 0.000000 0.500000 0.000000
#
# Coordination Sequence:
#
# PCOD9232370 Si02
#       4
#     4   4   4   2
#     4  10  21  36  61  96 134 170 210 279 337 407
#     4  10  22  42  66  92 133 183 235 273 325 401
#     4  11  17  35  61  94 134 165 208 263 353 408
#     4  10  22  40  72  98 144 172 214 292 342 396
#
# _framework density 27.363876000000001
#
# number of rings (size 3 to 8) (size 9 to 14) (size 15 to 20)
#    0.000    1.714    5.714    0.857    0.000    1.143 
#    0.000   10.000    0.000    0.000    0.000    0.000 
#    0.000    0.000    0.000    0.000    0.000    0.000 
#
# Total GULP energy -78289.985756 kJ/mol
# GULP energy per Si atom -5592.141840 kJ/mol
# Density = 2.730159 g / cm^3
# Si number density = 27.363876 Si / 1000 Ang^3
#
#
#
# Elastic Constant Matrix: (Units=GPa)
#
#
# Indices 1 2 3 4 5 6 
#
# 1 198.1488 4.6833 76.0426 0.0000 16.0307 0.0000
# 2 4.6833 89.9806 47.9720 0.0000 12.4991 0.0000
# 3 76.0426 47.9720 286.6767 0.0000 8.6504 0.0000
# 4 0.0000 0.0000 0.0000 53.1189 0.0000 9.7043
# 5 16.0307 12.4991 8.6504 0.0000 69.9299 0.0000
# 6 0.0000 0.0000 0.0000 9.7043 0.0000 -1.3858
#
#
#
# Elastic Compliance Matrix: (Units=1/GPa)
#
#
# Indices 1 2 3 4 5 6 
#
# 1 0.005748 0.000733 -0.001610 0.000000 -0.001250 0.000000
# 2 0.000733 0.012562 -0.002232 0.000000 -0.002137 0.000000
# 3 -0.001610 -0.002232 0.004282 0.000000 0.000238 0.000000
# 4 0.000000 0.000000 0.000000 0.008259 0.000000 0.057838
# 5 -0.001250 -0.002137 0.000238 0.000000 0.014939 0.000000
# 6 0.000000 0.000000 0.000000 0.057838 0.000000 -0.316589
#
#
# Mechanical properties :
#
#
# Convention : Reuss Voigt Hill
#
# Bulk Modulus (GPa) = 61.07302 92.46685 76.76994
# Shear Modulus (GPa) = -19.29590 54.07314 17.38862
#
# Velocity S-wave (km/s) = -2.65836 4.45013 2.52357
# Velocity P-wave (km/s) = 3.59788 7.76336 6.05040
#
# Compressibility (1/GPa) = 0.01637384
#
# Stress axis : x y z
#
# Youngs Moduli (GPa) = 173.96730 79.60392 233.56232
#
# Poissons Ratio (x) = -0.05831 0.37595
# Poissons Ratio (y) = -0.12744 0.52130
# Poissons Ratio (z) = 0.28002 0.17767
#
# Static dielectric constant tensor:
#      x y z
#    x 2.233620 0.000000 -0.117970 
#    y 0.000000 2.196850 0.000000 
#    z -0.117970 0.000000 2.161680 
# 
# From -- ./inp_files/14671.got.cif
#   From: 2010.05.17/outbox.cif.g08.bks.cpg/sg13_8_cif.got.tgz:14671.got - 2010.06.03 16:44:36.
