data_PCOD9232705
_publ_section_title
;
Structure prediction by ZEFSAII (Michael W. Deem and Ramdas Pophale) SiO2 
 PCOD9232705
Probable space group: P 2/C
;
_chemical_formula_sum "Si O2"
_cell_formula_units_Z 16
_cell_length_a 13.011649
_cell_length_b 10.135352
_cell_length_c 16.296438
_cell_angle_alpha 90.000000
_cell_angle_beta 15.696955
_cell_angle_gamma 90.000000
_cell_volume 581.447158
_symmetry_space_group_name_H-M "P 2/C"
_symmetry_group_IT_number 13
_symmetry_cell_setting 'monoclinic'
loop_
_space_group_symop_operation_xyz
x,y,z
-x,y,1/2-z
-x,-y,-z
x,-y,1/2+z
loop_
_atom_site_type_symbol
_atom_site_label
_atom_site_fract_x
_atom_site_fract_y
_atom_site_fract_z
Si Si1 0.944728 0.846874 0.701268
Si Si2 0.055273 0.653126 0.298732
Si Si3 0.950515 0.905962 0.117122
Si Si4 0.950515 0.405962 0.117122
O O1 0.109710 0.741407 0.509068
O O2 0.000000 0.794381 0.750000
O O3 0.096378 0.995506 0.575859
O O4 0.497093 0.873417 0.031693
O O5 0.890290 0.758593 0.490932
O O6 0.903622 0.504494 0.424141
O O7 0.000000 0.705619 0.250000
O O8 0.502907 0.626583 0.968306
O O9 0.000000 0.000000 0.000000
O O10 0.000000 0.500000 0.000000
#
# Coordination Sequence:
#
# PCOD9232705 Si02
#       4
#     4   4   4   4
#     4  10  21  38  59  86 120 156 198 249 299 355
#     4  10  21  38  59  86 120 156 198 249 299 355
#     4  10  21  38  59  86 119 154 199 249 298 358
#     4  10  21  38  59  86 119 154 199 249 298 358
#
# _framework density 27.517548999999999
#
# number of rings (size 3 to 8) (size 9 to 14) (size 15 to 20)
#    0.000    2.000    0.000    3.000    0.000    2.000 
#    0.000    5.000    0.000    0.000    0.000    0.000 
#    0.000    0.000    0.000    0.000    0.000    0.000 
#
# Total GULP energy -89296.124259 kJ/mol
# GULP energy per Si atom -5581.007766 kJ/mol
# Density = 2.745492 g / cm^3
# Si number density = 27.517549 Si / 1000 Ang^3
#
#
#
# Elastic Constant Matrix: (Units=GPa)
#
#
# Indices 1 2 3 4 5 6 
#
# 1 98.7096 64.5152 0.6014 0.0000 30.4855 0.0000
# 2 64.5152 287.6189 33.8599 0.0000 31.0476 0.0000
# 3 0.6014 33.8599 110.2917 0.0000 -12.1063 0.0000
# 4 0.0000 0.0000 0.0000 27.0932 0.0000 23.9260
# 5 30.4855 31.0476 -12.1063 0.0000 48.2761 0.0000
# 6 0.0000 0.0000 0.0000 23.9260 0.0000 30.2296
#
#
#
# Elastic Compliance Matrix: (Units=1/GPa)
#
#
# Indices 1 2 3 4 5 6 
#
# 1 0.013907 -0.002306 -0.000174 0.000000 -0.007342 0.000000
# 2 -0.002306 0.004359 -0.001515 0.000000 -0.001727 0.000000
# 3 -0.000174 -0.001515 0.009925 0.000000 0.003573 0.000000
# 4 0.000000 0.000000 0.000000 0.122603 0.000000 -0.097037
# 5 -0.007342 -0.001727 0.003573 0.000000 0.027357 0.000000
# 6 0.000000 0.000000 0.000000 -0.097037 0.000000 0.109883
#
#
# Mechanical properties :
#
#
# Convention : Reuss Voigt Hill
#
# Bulk Modulus (GPa) = 49.50406 77.17483 63.33945
# Shear Modulus (GPa) = 16.51484 47.62937 32.07211
#
# Velocity S-wave (km/s) = 2.45247 4.16489 3.41767
# Velocity P-wave (km/s) = 5.10377 7.15786 6.21625
#
# Compressibility (1/GPa) = 0.02020036
#
# Stress axis : x y z
#
# Youngs Moduli (GPa) = 71.90752 229.41297 100.75381
#
# Poissons Ratio (x) = 0.52912 0.01750
# Poissons Ratio (y) = 0.16585 0.15266
# Poissons Ratio (z) = 0.01249 0.34760
#
# Static dielectric constant tensor:
#      x y z
#    x 2.351430 0.000000 0.090250 
#    y 0.000000 2.159300 0.000000 
#    z 0.090250 0.000000 2.219090 
# 
# From -- ./inp_files/35075.got.cif
#   From: 2010.05.17/outbox.cif.g08.bks.cpg/sg13_18_cif.got.tgz:35075.got - 2010.06.03 16:44:36.
