data_PCOD9232867
_publ_section_title
;
Structure prediction by ZEFSAII (Michael W. Deem and Ramdas Pophale) SiO2 
 PCOD9232867
Probable space group: P 2/C
;
_chemical_formula_sum "Si O2"
_cell_formula_units_Z 28
_cell_length_a 7.567211
_cell_length_b 16.336122
_cell_length_c 10.328949
_cell_angle_alpha 90.000000
_cell_angle_beta 67.213540
_cell_angle_gamma 90.000000
_cell_volume 1177.200746
_symmetry_space_group_name_H-M "P 2/C"
_symmetry_group_IT_number 13
_symmetry_cell_setting 'monoclinic'
loop_
_space_group_symop_operation_xyz
x,y,z
-x,y,1/2-z
-x,-y,-z
x,-y,1/2+z
loop_
_atom_site_type_symbol
_atom_site_label
_atom_site_fract_x
_atom_site_fract_y
_atom_site_fract_z
Si Si1 0.079882 0.813915 0.500685
Si Si2 0.500000 0.057991 0.250000
Si Si3 0.634901 0.497373 0.087904
Si Si4 0.867636 0.362068 0.413806
Si Si5 0.000000 0.078093 0.250000
Si Si6 0.493344 0.162464 0.509918
Si Si7 0.547835 0.679976 0.594930
Si Si8 0.213597 0.936486 0.262131
O O1 0.051555 0.715900 0.527055
O O2 0.299105 0.821916 0.488156
O O3 0.075596 0.870642 0.373113
O O4 0.957552 0.862475 0.643145
O O5 0.521629 0.113751 0.369540
O O6 0.320720 0.997640 0.329775
O O7 0.500000 0.517854 0.250000
O O8 0.676856 0.400247 0.081444
O O9 0.500000 0.500000 0.000000
O O10 0.811607 0.558784 0.016622
O O11 0.657559 0.341088 0.412343
O O12 0.000000 0.378446 0.250000
O O13 0.152335 0.006823 0.175178
O O14 0.377869 0.246034 0.511227
O O15 0.370611 0.115692 0.647450
O O16 0.500000 0.712569 0.750000
#
# Coordination Sequence:
#
# PCOD9232867 Si02
#       8
#     4   2   4   4   2   4   4   4
#     4  11  22  39  59  87 120 159 201 256 303 364
#     4  12  20  36  60  84 116 154 210 252 290 362
#     4   9  19  38  65  93 124 160 202 251 308 377
#     4  10  21  38  64  95 123 158 207 253 310 366
#     4  12  24  40  54  84 122 160 202 252 318 350
#     4  11  21  37  63  87 114 161 209 246 298 362
#     4   9  19  38  61  89 120 159 200 242 300 369
#     4  12  24  39  58  86 120 157 209 256 299 357
#
# _framework density 23.785236999999999
#
# number of rings (size 3 to 8) (size 9 to 14) (size 15 to 20)
#    0.000    1.429    4.286    1.714    0.000    3.429 
#    2.571    6.429    1.571    0.000    0.000    0.000 
#    0.000    0.000    0.000    0.000    0.000    0.000 
#
# Total GULP energy -156067.855031 kJ/mol
# GULP energy per Si atom -5573.851965 kJ/mol
# Density = 2.373110 g / cm^3
# Si number density = 23.785237 Si / 1000 Ang^3
#
#
#
# Elastic Constant Matrix: (Units=GPa)
#
#
# Indices 1 2 3 4 5 6 
#
# 1 19.8027 25.6512 4.4713 0.0000 2.3762 0.0000
# 2 25.6512 189.5793 63.9802 0.0000 -20.0217 0.0000
# 3 4.4713 63.9802 117.9007 0.0000 -6.3122 0.0000
# 4 0.0000 0.0000 0.0000 35.7190 0.0000 -4.0357
# 5 2.3762 -20.0217 -6.3122 0.0000 27.9387 0.0000
# 6 0.0000 0.0000 0.0000 -4.0357 0.0000 77.6650
#
#
#
# Elastic Compliance Matrix: (Units=1/GPa)
#
#
# Indices 1 2 3 4 5 6 
#
# 1 0.066046 -0.011304 0.002931 0.000000 -0.013056 0.000000
# 2 -0.011304 0.008837 -0.004025 0.000000 0.006385 0.000000
# 3 0.002931 -0.004025 0.010514 0.000000 -0.000758 0.000000
# 4 0.000000 0.000000 0.000000 0.028162 0.000000 0.001463
# 5 -0.013056 0.006385 -0.000758 0.000000 0.041307 0.000000
# 6 0.000000 0.000000 0.000000 0.001463 0.000000 0.012952
#
#
# Mechanical properties :
#
#
# Convention : Reuss Voigt Hill
#
# Bulk Modulus (GPa) = 16.50170 57.27646 36.88908
# Shear Modulus (GPa) = 23.49456 43.80986 33.65221
#
# Velocity S-wave (km/s) = 3.14630 4.29638 3.76551
# Velocity P-wave (km/s) = 4.48908 6.98175 5.86927
#
# Compressibility (1/GPa) = 0.06059983
#
# Stress axis : x y z
#
# Youngs Moduli (GPa) = 15.14100 113.15973 95.10961
#
# Poissons Ratio (x) = 1.27919 -0.27873
# Poissons Ratio (y) = 0.17116 0.38281
# Poissons Ratio (z) = -0.04437 0.45547
#
# Static dielectric constant tensor:
#      x y z
#    x 2.219250 0.000000 -0.026450 
#    y 0.000000 1.986100 0.000000 
#    z -0.026450 0.000000 1.843160 
# 
# From -- ./inp_files/30353.got.cif
#   From: 2010.05.17/outbox.cif.g08.bks.cpg/sg13_16_cif.got.tgz:30353.got - 2010.06.03 16:44:36.
