data_PCOD9232130
_publ_section_title
;
Structure prediction by ZEFSAII (Michael W. Deem and Ramdas Pophale) SiO2 
 PCOD9232130
Probable space group: P 2/C
;
_chemical_formula_sum "Si O2"
_cell_formula_units_Z 28
_cell_length_a 14.384504
_cell_length_b 12.046673
_cell_length_c 9.310802
_cell_angle_alpha 90.000000
_cell_angle_beta 120.059892
_cell_angle_gamma 90.000000
_cell_volume 1396.424044
_symmetry_space_group_name_H-M "P 2/C"
_symmetry_group_IT_number 13
_symmetry_cell_setting 'monoclinic'
loop_
_space_group_symop_operation_xyz
x,y,z
-x,y,1/2-z
-x,-y,-z
x,-y,1/2+z
loop_
_atom_site_type_symbol
_atom_site_label
_atom_site_fract_x
_atom_site_fract_y
_atom_site_fract_z
Si Si1 0.071569 0.718879 0.518254
Si Si2 0.376274 0.857760 0.614802
Si Si3 0.875919 0.432433 0.195247
Si Si4 0.074631 0.062809 0.171864
Si Si5 0.717931 0.956885 0.241000
Si Si6 0.227800 0.337163 0.914068
Si Si7 0.175309 0.742763 0.079494
O O1 0.112293 0.608208 0.631512
O O2 0.118094 0.825603 0.634487
O O3 0.117638 0.713709 0.395344
O O4 0.946046 0.737937 0.451287
O O5 0.500000 0.843443 0.750000
O O6 0.362312 0.908394 0.441980
O O7 0.316403 0.737492 0.563550
O O8 0.327167 0.944482 0.694262
O O9 0.795293 0.531878 0.098152
O O10 0.000000 0.461617 0.250000
O O11 0.836620 0.327088 0.073383
O O12 0.000000 0.086504 0.250000
O O13 0.178805 0.989268 0.276847
O O14 0.000000 0.000000 0.000000
O O15 0.769430 0.862503 0.385412
O O16 0.241992 0.315833 0.756639
#
# Coordination Sequence:
#
# PCOD9232130 Si02
#       7
#     4   4   4   4   4   4   4
#     4  11  21  34  56  88 128 161 194 230 287 364
#     4  11  25  44  64  86 114 155 211 268 309 349
#     4  10  21  37  57  85 126 165 198 232 284 358
#     4  12  23  34  56  92 133 162 190 229 288 372
#     4  11  23  39  63  89 122 160 196 242 311 362
#     4  11  22  37  59  84 112 162 207 246 295 348
#     4  10  21  34  56  88 125 157 191 231 286 369
#
# _framework density 20.051217999999999
#
# number of rings (size 3 to 8) (size 9 to 14) (size 15 to 20)
#    0.000    1.143    2.857    4.714    4.000    2.286 
#    0.000    0.000    0.000    8.571    0.000    0.000 
#    0.000    0.000    0.000    0.000    0.000    0.000 
#
# Total GULP energy -156122.689622 kJ/mol
# GULP energy per Si atom -5575.810344 kJ/mol
# Density = 2.000558 g / cm^3
# Si number density = 20.051218 Si / 1000 Ang^3
#
#
#
# Elastic Constant Matrix: (Units=GPa)
#
#
# Indices 1 2 3 4 5 6 
#
# 1 52.5429 32.8169 33.2499 0.0000 15.8584 0.0000
# 2 32.8169 107.4744 44.1079 0.0000 14.1049 0.0000
# 3 33.2499 44.1079 105.7061 0.0000 12.7931 0.0000
# 4 0.0000 0.0000 0.0000 18.6290 0.0000 4.8943
# 5 15.8584 14.1049 12.7931 0.0000 40.3701 0.0000
# 6 0.0000 0.0000 0.0000 4.8943 0.0000 17.3177
#
#
#
# Elastic Compliance Matrix: (Units=1/GPa)
#
#
# Indices 1 2 3 4 5 6 
#
# 1 0.028219 -0.005272 -0.005780 0.000000 -0.007412 0.000000
# 2 -0.005272 0.012467 -0.003398 0.000000 -0.001208 0.000000
# 3 -0.005780 -0.003398 0.012767 0.000000 -0.000588 0.000000
# 4 0.000000 0.000000 0.000000 0.057985 0.000000 -0.016387
# 5 -0.007412 -0.001208 -0.000588 0.000000 0.028291 0.000000
# 6 0.000000 0.000000 0.000000 -0.016387 0.000000 0.062376
#
#
# Mechanical properties :
#
#
# Convention : Reuss Voigt Hill
#
# Bulk Modulus (GPa) = 40.72454 54.00809 47.36631
# Shear Modulus (GPa) = 20.90401 25.63328 23.26864
#
# Velocity S-wave (km/s) = 3.23233 3.57934 3.41025
# Velocity P-wave (km/s) = 5.85533 6.63896 6.25942
#
# Compressibility (1/GPa) = 0.02455522
#
# Stress axis : x y z
#
# Youngs Moduli (GPa) = 35.43693 80.20971 78.32628
#
# Poissons Ratio (x) = 0.42286 0.45269
# Poissons Ratio (y) = 0.18682 0.26613
# Poissons Ratio (z) = 0.20481 0.27253
#
# Static dielectric constant tensor:
#      x y z
#    x 1.686870 0.000000 -0.004520 
#    y 0.000000 1.781690 0.000000 
#    z -0.004520 0.000000 1.769740 
# 
# From -- ./inp_files/19119.got.cif
#   From: 2010.05.17/outbox.cif.g08.bks.cpg/sg13_10_cif.got.tgz:19119.got - 2010.06.03 16:44:36.
