data_PCOD9232852
_publ_section_title
;
Structure prediction by ZEFSAII (Michael W. Deem and Ramdas Pophale) SiO2 
 PCOD9232852
Probable space group: P 2/C
;
_chemical_formula_sum "Si O2"
_cell_formula_units_Z 26
_cell_length_a 7.369637
_cell_length_b 23.892056
_cell_length_c 10.186429
_cell_angle_alpha 90.000000
_cell_angle_beta 137.038437
_cell_angle_gamma 90.000000
_cell_volume 1222.340697
_symmetry_space_group_name_H-M "P 2/C"
_symmetry_group_IT_number 13
_symmetry_cell_setting 'monoclinic'
loop_
_space_group_symop_operation_xyz
x,y,z
-x,y,1/2-z
-x,-y,-z
x,-y,1/2+z
loop_
_atom_site_type_symbol
_atom_site_label
_atom_site_fract_x
_atom_site_fract_y
_atom_site_fract_z
Si Si1 0.500000 0.870283 0.250000
Si Si2 0.500000 0.875707 0.750000
Si Si3 0.306899 0.546751 0.257889
Si Si4 0.682630 0.800948 0.092104
Si Si5 0.000000 0.625030 0.250000
Si Si6 0.515424 0.308332 0.109264
Si Si7 0.741097 0.572541 0.701721
Si Si8 0.002935 0.946204 0.596047
O O1 0.614607 0.833380 0.190210
O O2 0.742379 0.908637 0.429653
O O3 0.377430 0.838915 0.567100
O O4 0.267033 0.912188 0.693854
O O5 0.500000 0.570096 0.250000
O O6 0.477441 0.556919 0.479811
O O7 0.248410 0.481864 0.199105
O O8 0.057094 0.585381 0.155174
O O9 0.000000 0.786181 0.250000
O O10 0.481078 0.747484 0.976117
O O11 0.246133 0.663043 0.416998
O O12 0.500000 0.288138 0.250000
O O13 0.716021 0.361748 0.220666
O O14 0.000000 0.565431 0.750000
O O15 0.000000 0.960439 0.750000
O O16 0.000000 0.000000 0.500000
#
# Coordination Sequence:
#
# PCOD9232852 Si02
#       8
#     2   2   4   4   2   4   4   4
#     4  12  27  48  78 110 146 197 248 294 354 418
#     4  12  25  48  78 106 150 197 246 292 352 424
#     4  10  21  38  64  85 119 170 206 270 349 417
#     4  12  25  49  75 101 140 192 244 301 359 418
#     4  10  22  42  62  94 130 160 226 274 344 434
#     4  11  24  43  66  96 130 177 224 289 355 409
#     4  10  22  40  56  94 125 158 223 275 338 430
#     4  12  28  46  75 117 158 196 244 295 349 415
#
# _framework density 21.270665999999999
#
# number of rings (size 3 to 8) (size 9 to 14) (size 15 to 20)
#    0.000    0.923    5.385    0.923    4.308    1.846 
#   11.077    0.000    0.000    0.000    0.000    0.000 
#    0.000    0.000    0.000    0.000    0.000    0.000 
#
# Total GULP energy -145033.602282 kJ/mol
# GULP energy per Si atom -5578.215472 kJ/mol
# Density = 2.122225 g / cm^3
# Si number density = 21.270666 Si / 1000 Ang^3
#
#
#
# Elastic Constant Matrix: (Units=GPa)
#
#
# Indices 1 2 3 4 5 6 
#
# 1 121.2123 47.2772 16.3645 0.0000 -8.5226 0.0000
# 2 47.2772 129.6084 38.0196 0.0000 -13.6058 0.0000
# 3 16.3645 38.0196 83.7961 0.0000 -13.8414 0.0000
# 4 0.0000 0.0000 0.0000 33.1417 0.0000 -8.0094
# 5 -8.5226 -13.6058 -13.8414 0.0000 41.0177 0.0000
# 6 0.0000 0.0000 0.0000 -8.0094 0.0000 31.8041
#
#
#
# Elastic Compliance Matrix: (Units=1/GPa)
#
#
# Indices 1 2 3 4 5 6 
#
# 1 0.009652 -0.003370 -0.000221 0.000000 0.000813 0.000000
# 2 -0.003370 0.010188 -0.003730 0.000000 0.001421 0.000000
# 3 -0.000221 -0.003730 0.014252 0.000000 0.003526 0.000000
# 4 0.000000 0.000000 0.000000 0.032129 0.000000 0.008091
# 5 0.000813 0.001421 0.003526 0.000000 0.026210 0.000000
# 6 0.000000 0.000000 0.000000 0.008091 0.000000 0.033480
#
#
# Mechanical properties :
#
#
# Convention : Reuss Voigt Hill
#
# Bulk Modulus (GPa) = 51.41797 59.77104 55.59451
# Shear Modulus (GPa) = 34.00537 36.72308 35.36422
#
# Velocity S-wave (km/s) = 4.00271 4.15958 4.08190
# Velocity P-wave (km/s) = 6.75188 7.15757 6.95768
#
# Compressibility (1/GPa) = 0.01944845
#
# Stress axis : x y z
#
# Youngs Moduli (GPa) = 103.61004 98.15335 70.16743
#
# Poissons Ratio (x) = 0.33081 0.01554
# Poissons Ratio (y) = 0.34920 0.26170
# Poissons Ratio (z) = 0.02294 0.36608
#
# Static dielectric constant tensor:
#      x y z
#    x 1.758830 0.000000 0.027240 
#    y 0.000000 1.807030 0.000000 
#    z 0.027240 0.000000 1.866920 
# 
# From -- ./inp_files/30831.got.cif
#   From: 2010.05.17/outbox.cif.g08.bks.cpg/sg13_16_cif.got.tgz:30831.got - 2010.06.03 16:44:36.
