data_PCOD9232772
_publ_section_title
;
Structure prediction by ZEFSAII (Michael W. Deem and Ramdas Pophale) SiO2 
 PCOD9232772
Probable space group: P 2/C
;
_chemical_formula_sum "Si O2"
_cell_formula_units_Z 20
_cell_length_a 5.772066
_cell_length_b 4.932666
_cell_length_c 28.615627
_cell_angle_alpha 90.000000
_cell_angle_beta 77.624369
_cell_angle_gamma 90.000000
_cell_volume 795.803227
_symmetry_space_group_name_H-M "P 2/C"
_symmetry_group_IT_number 13
_symmetry_cell_setting 'monoclinic'
loop_
_space_group_symop_operation_xyz
x,y,z
-x,y,1/2-z
-x,-y,-z
x,-y,1/2+z
loop_
_atom_site_type_symbol
_atom_site_label
_atom_site_fract_x
_atom_site_fract_y
_atom_site_fract_z
Si Si1 0.509111 0.650233 0.848884
Si Si2 0.776273 0.161962 0.851541
Si Si3 0.111808 0.326918 0.548244
Si Si4 0.500000 0.124122 0.250000
Si Si5 0.000000 0.830997 0.250000
Si Si6 0.807088 0.172216 0.050960
O O1 0.537786 0.328766 0.850843
O O2 0.434641 0.711949 0.799423
O O3 0.351907 0.752451 0.898375
O O4 0.744017 0.840145 0.846824
O O5 0.821223 0.240927 0.902796
O O6 0.951344 0.283865 0.804288
O O7 0.039294 0.638988 0.548779
O O8 0.280522 0.253654 0.497148
O O9 0.880762 0.139603 0.548287
O O10 0.743240 0.970503 0.252614
#
# Coordination Sequence:
#
# PCOD9232772 Si02
#       6
#     4   4   4   2   2   4
#     4  11  24  40  63  94 128 171 220 273 331 393
#     4  11  24  40  63  94 128 171 220 273 331 393
#     4  10  21  38  61  89 125 171 220 272 330 393
#     4  10  24  46  70 100 136 176 224 276 334 398
#     4  10  24  46  70 100 136 176 224 276 334 398
#     4  10  21  38  61  89 125 171 220 272 330 393
#
# _framework density 25.131841000000001
#
# number of rings (size 3 to 8) (size 9 to 14) (size 15 to 20)
#    0.000    1.600    0.000    3.600    0.000   12.800 
#    0.000    0.000    0.000    0.000    0.000    0.000 
#    0.000    0.000    0.000    0.000    0.000    0.000 
#
# Total GULP energy -111567.315764 kJ/mol
# GULP energy per Si atom -5578.365788 kJ/mol
# Density = 2.507464 g / cm^3
# Si number density = 25.131841 Si / 1000 Ang^3
#
#
#
# Elastic Constant Matrix: (Units=GPa)
#
#
# Indices 1 2 3 4 5 6 
#
# 1 62.1119 18.3935 36.0720 0.0000 3.1326 0.0000
# 2 18.3935 78.5427 14.4770 0.0000 -0.5504 0.0000
# 3 36.0720 14.4770 275.6312 0.0000 2.9840 0.0000
# 4 0.0000 0.0000 0.0000 60.3752 0.0000 1.2401
# 5 3.1326 -0.5504 2.9840 0.0000 46.3036 0.0000
# 6 0.0000 0.0000 0.0000 1.2401 0.0000 22.1472
#
#
#
# Elastic Compliance Matrix: (Units=1/GPa)
#
#
# Indices 1 2 3 4 5 6 
#
# 1 0.018618 -0.003960 -0.002216 0.000000 -0.001164 0.000000
# 2 -0.003960 0.013700 -0.000206 0.000000 0.000444 0.000000
# 3 -0.002216 -0.000206 0.003930 0.000000 -0.000106 0.000000
# 4 0.000000 0.000000 0.000000 0.016582 0.000000 -0.000928
# 5 -0.001164 0.000444 -0.000106 0.000000 0.021687 0.000000
# 6 0.000000 0.000000 0.000000 -0.000928 0.000000 0.045204
#
#
# Mechanical properties :
#
#
# Convention : Reuss Voigt Hill
#
# Bulk Modulus (GPa) = 42.58095 61.57454 52.07774
# Shear Modulus (GPa) = 35.63415 48.92142 42.27779
#
# Velocity S-wave (km/s) = 3.76957 4.41681 4.10596
# Velocity P-wave (km/s) = 5.99383 7.11089 6.57612
#
# Compressibility (1/GPa) = 0.02348468
#
# Stress axis : x y z
#
# Youngs Moduli (GPa) = 53.71065 72.99077 254.45162
#
# Poissons Ratio (x) = 0.28903 0.56387
# Poissons Ratio (y) = 0.21268 0.05246
# Poissons Ratio (z) = 0.11902 0.01505
#
# Static dielectric constant tensor:
#      x y z
#    x 2.090530 0.000000 -0.002720 
#    y 0.000000 1.956600 0.000000 
#    z -0.002720 0.000000 2.079900 
# 
# From -- ./inp_files/89917.got.cif
#   From: 2010.05.17/outbox.cif.g08.bks.cpg/sg13_45_cif.got.tgz:89917.got - 2010.06.03 16:44:36.
