data_PCOD9232263
_publ_section_title
;
Structure prediction by ZEFSAII (Michael W. Deem and Ramdas Pophale) SiO2 
 PCOD9232263
Probable space group: P 2/C
;
_chemical_formula_sum "Si O2"
_cell_formula_units_Z 26
_cell_length_a 8.204606
_cell_length_b 29.709867
_cell_length_c 5.455450
_cell_angle_alpha 90.000000
_cell_angle_beta 120.243779
_cell_angle_gamma 90.000000
_cell_volume 1148.808299
_symmetry_space_group_name_H-M "P 2/C"
_symmetry_group_IT_number 13
_symmetry_cell_setting 'monoclinic'
loop_
_space_group_symop_operation_xyz
x,y,z
-x,y,1/2-z
-x,-y,-z
x,-y,1/2+z
loop_
_atom_site_type_symbol
_atom_site_label
_atom_site_fract_x
_atom_site_fract_y
_atom_site_fract_z
Si Si1 0.780299 0.980994 0.114200
Si Si2 0.500000 0.350042 0.250000
Si Si3 0.181840 0.695450 0.221976
Si Si4 0.210942 0.484448 0.449174
Si Si5 0.713205 0.615558 0.516141
Si Si6 0.626382 0.785295 0.099134
Si Si7 0.621576 0.112682 0.591693
O O1 0.761927 0.929169 0.179107
O O2 0.000000 0.993453 0.250000
O O3 0.698471 0.009498 0.280724
O O4 0.613330 0.317667 0.513457
O O5 0.332757 0.380010 0.232989
O O6 0.185569 0.660869 0.996894
O O7 0.207579 0.748975 0.230202
O O8 0.000000 0.685443 0.250000
O O9 0.302155 0.507136 0.754068
O O10 0.195812 0.431243 0.485805
O O11 0.000000 0.503958 0.250000
O O12 0.500000 0.613262 0.250000
O O13 0.500000 0.780914 0.250000
O O14 0.701015 0.836538 0.151562
O O15 0.500000 0.779118 0.750000
O O16 0.500000 0.107883 0.750000
O O17 0.500000 0.109943 0.250000
#
# Coordination Sequence:
#
# PCOD9232263 Si02
#       7
#     4   2   4   4   4   4   4
#     4  10  21  36  55  82 120 162 205 261 317 367
#     4  10  22  42  60  92 130 160 208 264 314 366
#     4  11  24  39  66  95 124 171 211 262 319 386
#     4  10  24  42  64  92 127 164 206 260 313 371
#     4  10  24  41  63  92 124 166 206 259 314 373
#     4  10  21  42  63  88 131 165 203 263 323 378
#     4  10  21  36  60  88 117 163 204 256 315 367
#
# _framework density 22.632149999999999
#
# number of rings (size 3 to 8) (size 9 to 14) (size 15 to 20)
#    0.000    1.846    0.769    2.308    6.462    3.692 
#    0.000    0.000    0.000    5.538    0.000    0.000 
#    0.000    0.000    0.000    0.000    0.000    0.000 
#
# Total GULP energy -144880.306298 kJ/mol
# GULP energy per Si atom -5572.319473 kJ/mol
# Density = 2.258064 g / cm^3
# Si number density = 22.632150 Si / 1000 Ang^3
#
#
#
# Elastic Constant Matrix: (Units=GPa)
#
#
# Indices 1 2 3 4 5 6 
#
# 1 92.5331 36.7585 34.1452 0.0000 -21.0856 0.0000
# 2 36.7585 136.7891 20.4975 0.0000 -21.8057 0.0000
# 3 34.1452 20.4975 101.2264 0.0000 -23.4433 0.0000
# 4 0.0000 0.0000 0.0000 20.4720 0.0000 -1.0281
# 5 -21.0856 -21.8057 -23.4433 0.0000 42.5300 0.0000
# 6 0.0000 0.0000 0.0000 -1.0281 0.0000 34.4854
#
#
#
# Elastic Compliance Matrix: (Units=1/GPa)
#
#
# Indices 1 2 3 4 5 6 
#
# 1 0.013927 -0.002654 -0.003297 0.000000 0.003726 0.000000
# 2 -0.002654 0.008519 -0.000141 0.000000 0.002974 0.000000
# 3 -0.003297 -0.000141 0.012179 0.000000 0.005006 0.000000
# 4 0.000000 0.000000 0.000000 0.048920 0.000000 0.001458
# 5 0.003726 0.002974 0.005006 0.000000 0.029645 0.000000
# 6 0.000000 0.000000 0.000000 0.001458 0.000000 0.029041
#
#
# Mechanical properties :
#
#
# Convention : Reuss Voigt Hill
#
# Bulk Modulus (GPa) = 44.56334 57.03901 50.80117
# Shear Modulus (GPa) = 30.88378 35.44063 33.16220
#
# Velocity S-wave (km/s) = 3.69805 3.96149 3.83204
# Velocity P-wave (km/s) = 6.16175 6.79573 6.48649
#
# Compressibility (1/GPa) = 0.02243997
#
# Stress axis : x y z
#
# Youngs Moduli (GPa) = 71.80144 117.38380 82.10821
#
# Poissons Ratio (x) = 0.31159 0.27074
# Poissons Ratio (y) = 0.19059 0.01157
# Poissons Ratio (z) = 0.23676 0.01653
#
# Static dielectric constant tensor:
#      x y z
#    x 1.911080 0.000000 -0.110740 
#    y 0.000000 1.878590 0.000000 
#    z -0.110740 0.000000 2.019300 
# 
# From -- ./inp_files/2660.got.cif
#   From: 2010.05.17/outbox.cif.g08.bks.cpg/sg13_2_cif.got.tgz:2660.got - 2010.06.03 16:44:36.
