data_PCOD9232780
_publ_section_title
;
Structure prediction by ZEFSAII (Michael W. Deem and Ramdas Pophale) SiO2 
 PCOD9232780
Probable space group: P 2/C
;
_chemical_formula_sum "Si O2"
_cell_formula_units_Z 30
_cell_length_a 21.060134
_cell_length_b 6.944115
_cell_length_c 16.588505
_cell_angle_alpha 90.000000
_cell_angle_beta 144.698518
_cell_angle_gamma 90.000000
_cell_volume 1401.916010
_symmetry_space_group_name_H-M "P 2/C"
_symmetry_group_IT_number 13
_symmetry_cell_setting 'monoclinic'
loop_
_space_group_symop_operation_xyz
x,y,z
-x,y,1/2-z
-x,-y,-z
x,-y,1/2+z
loop_
_atom_site_type_symbol
_atom_site_label
_atom_site_fract_x
_atom_site_fract_y
_atom_site_fract_z
Si Si1 0.215238 0.796750 0.398427
Si Si2 0.500000 0.500000 0.500000
Si Si3 0.534245 0.763169 0.874591
Si Si4 0.959070 0.935065 0.871250
Si Si5 0.608951 0.087866 0.688441
Si Si6 0.176785 0.088393 0.491402
Si Si7 0.379096 0.768404 0.928608
Si Si8 0.196594 0.345159 0.355481
O O1 0.340676 0.833270 0.503646
O O2 0.129069 0.912157 0.254259
O O3 0.197266 0.570538 0.370273
O O4 0.199466 0.882962 0.471716
O O5 0.474079 0.607815 0.563996
O O6 0.632614 0.584558 0.639986
O O7 0.500000 0.692802 0.750000
O O8 0.458707 0.944481 0.822967
O O9 0.894172 0.732599 0.801336
O O10 0.063639 0.921556 0.921539
O O11 0.000000 0.000000 0.000000
O O12 0.635079 0.965321 0.634880
O O13 0.516515 0.252585 0.573263
O O14 0.721010 0.143593 0.846078
O O15 0.171957 0.239017 0.413533
O O16 0.311716 0.734471 0.938589
#
# Coordination Sequence:
#
# PCOD9232780 Si02
#       8
#     4   2   4   4   4   4   4   4
#     4  11  23  43  70  96 136 174 218 289 331 406
#     4  10  22  38  58  94 138 168 216 272 322 418
#     4  11  21  39  65  97 135 180 222 273 350 401
#     4  11  26  46  70  95 131 175 229 284 342 403
#     4  10  21  38  63  91 132 179 220 276 336 407
#     4  11  24  43  65  98 128 175 225 280 332 400
#     4  10  21  38  61  92 133 174 216 275 341 400
#     4  11  23  42  68  97 129 173 223 277 341 404
#
# _framework density 21.399286
#
# number of rings (size 3 to 8) (size 9 to 14) (size 15 to 20)
#    0.000    1.333    2.667    4.000    0.000    5.867 
#    0.000    0.000    0.000    0.000    0.000    0.000 
#    0.000    0.000    0.000    0.000    0.000    0.000 
#
# Total GULP energy -167260.490005 kJ/mol
# GULP energy per Si atom -5575.349667 kJ/mol
# Density = 2.135058 g / cm^3
# Si number density = 21.399286 Si / 1000 Ang^3
#
#
#
# Elastic Constant Matrix: (Units=GPa)
#
#
# Indices 1 2 3 4 5 6 
#
# 1 142.4984 29.5165 39.2391 0.0000 10.7900 0.0000
# 2 29.5165 97.5841 17.9656 0.0000 6.8535 0.0000
# 3 39.2391 17.9656 130.4264 0.0000 2.4247 0.0000
# 4 0.0000 0.0000 0.0000 17.6817 0.0000 3.9865
# 5 10.7900 6.8535 2.4247 0.0000 33.1946 0.0000
# 6 0.0000 0.0000 0.0000 3.9865 0.0000 28.3759
#
#
#
# Elastic Compliance Matrix: (Units=1/GPa)
#
#
# Indices 1 2 3 4 5 6 
#
# 1 0.008169 -0.001927 -0.002153 0.000000 -0.002100 0.000000
# 2 -0.001927 0.011112 -0.000921 0.000000 -0.001601 0.000000
# 3 -0.002153 -0.000921 0.008437 0.000000 0.000274 0.000000
# 4 0.000000 0.000000 0.000000 0.058406 0.000000 -0.008205
# 5 -0.002100 -0.001601 0.000274 0.000000 0.031118 0.000000
# 6 0.000000 0.000000 0.000000 -0.008205 0.000000 0.036394
#
#
# Mechanical properties :
#
#
# Convention : Reuss Voigt Hill
#
# Bulk Modulus (GPa) = 56.44812 60.43905 58.44358
# Shear Modulus (GPa) = 29.49096 34.76962 32.13029
#
# Velocity S-wave (km/s) = 3.71634 4.03526 3.87908
# Velocity P-wave (km/s) = 6.69707 7.07219 6.88718
#
# Compressibility (1/GPa) = 0.01771538
#
# Stress axis : x y z
#
# Youngs Moduli (GPa) = 122.41906 89.98934 118.52937
#
# Poissons Ratio (x) = 0.17340 0.25521
# Poissons Ratio (y) = 0.23589 0.10919
# Poissons Ratio (z) = 0.26358 0.08290
#
# Static dielectric constant tensor:
#      x y z
#    x 1.815680 0.000000 -0.014860 
#    y 0.000000 2.084420 0.000000 
#    z -0.014860 0.000000 1.804070 
# 
# From -- ./inp_files/70606.got.cif
#   From: 2010.05.17/outbox.cif.g08.bks.cpg/sg13_36_cif.got.tgz:70606.got - 2010.06.03 16:44:36.
