data_PCOD9232471
_publ_section_title
;
Structure prediction by ZEFSAII (Michael W. Deem and Ramdas Pophale) SiO2 
 PCOD9232471
Probable space group: P 2/C
;
_chemical_formula_sum "Si O2"
_cell_formula_units_Z 32
_cell_length_a 12.337300
_cell_length_b 10.164112
_cell_length_c 24.889796
_cell_angle_alpha 90.000000
_cell_angle_beta 152.164441
_cell_angle_gamma 90.000000
_cell_volume 1457.363324
_symmetry_space_group_name_H-M "P 2/C"
_symmetry_group_IT_number 13
_symmetry_cell_setting 'monoclinic'
loop_
_space_group_symop_operation_xyz
x,y,z
-x,y,1/2-z
-x,-y,-z
x,-y,1/2+z
loop_
_atom_site_type_symbol
_atom_site_label
_atom_site_fract_x
_atom_site_fract_y
_atom_site_fract_z
Si Si1 0.041984 0.245137 0.068638
Si Si2 0.249766 0.753350 0.540420
Si Si3 0.962041 0.110435 0.136512
Si Si4 0.557245 0.170711 0.563595
Si Si5 0.398667 0.546351 0.765654
Si Si6 0.415728 0.870469 0.889803
Si Si7 0.888319 0.820310 0.294788
Si Si8 0.503625 0.741005 0.314361
O O1 0.152280 0.222021 0.057942
O O2 0.174086 0.363782 0.157066
O O3 0.046064 0.124043 0.111738
O O4 0.772499 0.276775 0.944604
O O5 0.412850 0.625525 0.617141
O O6 0.422529 0.862856 0.591727
O O7 0.047517 0.744176 0.407621
O O8 0.159848 0.174924 0.260480
O O9 0.710552 0.176613 0.033061
O O10 0.971466 0.955584 0.154775
O O11 0.535583 0.206448 0.491535
O O12 0.770162 0.237728 0.688936
O O13 0.611689 0.016528 0.598464
O O14 0.500000 0.533753 0.750000
O O15 0.379568 0.396836 0.775318
O O16 0.646830 0.849533 0.221046
O O17 0.500000 0.768033 0.250000
#
# Coordination Sequence:
#
# PCOD9232471 Si02
#       8
#     4   4   4   4   4   4   4   4
#     4  11  22  38  61  88 125 157 196 239 304 370
#     4  11  21  38  55  91 117 157 193 247 299 354
#     4  11  21  38  58  88 122 158 192 241 299 365
#     4  10  21  38  57  85 114 161 201 241 290 348
#     4   9  22  37  61  85 116 157 204 249 292 355
#     4  10  21  37  59  81 119 154 202 246 288 346
#     4  11  23  36  57  89 123 155 200 242 303 356
#     4  11  22  39  58  87 123 161 201 245 297 357
#
# _framework density 21.957463000000001
#
# number of rings (size 3 to 8) (size 9 to 14) (size 15 to 20)
#    0.000    1.500    5.000    0.375    1.750    2.500 
#    4.500    0.000    0.000    0.750    0.000    0.000 
#    0.000    0.000    0.000    0.000    0.000    0.000 
#
# Total GULP energy -178316.022083 kJ/mol
# GULP energy per Si atom -5572.375690 kJ/mol
# Density = 2.190749 g / cm^3
# Si number density = 21.957463 Si / 1000 Ang^3
#
#
#
# Elastic Constant Matrix: (Units=GPa)
#
#
# Indices 1 2 3 4 5 6 
#
# 1 107.4552 16.4444 48.2051 0.0000 1.4247 0.0000
# 2 16.4444 27.1254 23.1279 0.0000 0.5817 0.0000
# 3 48.2051 23.1279 188.0190 0.0000 -15.1403 0.0000
# 4 0.0000 0.0000 0.0000 10.0320 0.0000 0.7429
# 5 1.4247 0.5817 -15.1403 0.0000 41.7541 0.0000
# 6 0.0000 0.0000 0.0000 0.7429 0.0000 4.5124
#
#
#
# Elastic Compliance Matrix: (Units=1/GPa)
#
#
# Indices 1 2 3 4 5 6 
#
# 1 0.011099 -0.004689 -0.002363 0.000000 -0.001170 0.000000
# 2 -0.004689 0.043418 -0.004300 0.000000 -0.002004 0.000000
# 3 -0.002363 -0.004300 0.006659 0.000000 0.002555 0.000000
# 4 0.000000 0.000000 0.000000 0.100912 0.000000 -0.016614
# 5 -0.001170 -0.002004 0.002555 0.000000 0.024944 0.000000
# 6 0.000000 0.000000 0.000000 -0.016614 0.000000 0.224346
#
#
# Mechanical properties :
#
#
# Convention : Reuss Voigt Hill
#
# Bulk Modulus (GPa) = 25.99278 55.35048 40.67163
# Shear Modulus (GPa) = 11.18803 26.91451 19.05127
#
# Velocity S-wave (km/s) = 2.25973 3.50488 2.94878
# Velocity P-wave (km/s) = 4.32111 6.45304 5.49152
#
# Compressibility (1/GPa) = 0.03847222
#
# Stress axis : x y z
#
# Youngs Moduli (GPa) = 90.09474 23.03213 150.16864
#
# Poissons Ratio (x) = 0.10799 0.35488
# Poissons Ratio (y) = 0.42244 0.64572
# Poissons Ratio (z) = 0.21291 0.09904
#
# Static dielectric constant tensor:
#      x y z
#    x 1.859430 0.000000 -0.031780 
#    y 0.000000 1.839030 0.000000 
#    z -0.031780 0.000000 1.906400 
# 
# From -- ./inp_files/86607.got.cif
#   From: 2010.05.17/outbox.cif.g08.bks.cpg/sg13_44_cif.got.tgz:86607.got - 2010.06.03 16:44:36.
