data_PCOD9232200
_publ_section_title
;
Structure prediction by ZEFSAII (Michael W. Deem and Ramdas Pophale) SiO2 
 PCOD9232200
Probable space group: P 2/C
;
_chemical_formula_sum "Si O2"
_cell_formula_units_Z 30
_cell_length_a 20.689899
_cell_length_b 5.762065
_cell_length_c 17.877331
_cell_angle_alpha 90.000000
_cell_angle_beta 147.234382
_cell_angle_gamma 90.000000
_cell_volume 1153.453170
_symmetry_space_group_name_H-M "P 2/C"
_symmetry_group_IT_number 13
_symmetry_cell_setting 'monoclinic'
loop_
_space_group_symop_operation_xyz
x,y,z
-x,y,1/2-z
-x,-y,-z
x,-y,1/2+z
loop_
_atom_site_type_symbol
_atom_site_label
_atom_site_fract_x
_atom_site_fract_y
_atom_site_fract_z
Si Si1 0.702470 0.704338 0.439763
Si Si2 0.500000 0.615759 0.750000
Si Si3 0.677855 0.489661 0.633133
Si Si4 0.648484 0.987844 0.606309
Si Si5 0.632178 0.058733 0.263915
Si Si6 0.935429 0.530619 0.307098
Si Si7 0.809514 0.418562 0.416219
Si Si8 0.862219 0.967705 0.707276
O O1 0.614021 0.524825 0.392084
O O2 0.795601 0.565103 0.479023
O O3 0.759189 0.898438 0.547649
O O4 0.620402 0.827346 0.298885
O O5 0.445201 0.762001 0.764333
O O6 0.611252 0.727521 0.547090
O O7 0.805700 0.487043 0.717504
O O8 0.614738 0.249338 0.551724
O O9 0.719640 0.503705 0.762019
O O10 0.615362 0.984652 0.661046
O O11 0.789396 0.983751 0.716231
O O12 0.767207 0.160387 0.396030
O O13 0.943884 0.264901 0.283748
O O14 0.052836 0.566991 0.471327
O O15 0.922087 0.780928 0.251278
#
# Coordination Sequence:
#
# PCOD9232200 Si02
#       8
#     4   2   4   4   4   4   4   4
#     4  11  23  42  63  90 124 163 212 268 326 374
#     4  10  24  42  68  92 116 156 214 276 330 378
#     4   9  17  34  58  87 124 164 212 254 292 355
#     4   9  18  37  61  89 122 164 206 254 311 366
#     4  10  21  40  65  90 120 159 212 268 313 374
#     4  10  22  38  58  91 132 174 206 244 305 373
#     4  10  21  35  59  93 123 168 214 254 301 366
#     4  10  24  40  61  90 134 171 202 253 313 377
#
# _framework density 26.008856999999999
#
# number of rings (size 3 to 8) (size 9 to 14) (size 15 to 20)
#    0.000    2.133    1.333    0.800    5.600    0.533 
#    0.000    6.000    0.000    3.200    0.000    0.000 
#    0.000    0.000    0.000    0.000    0.000    0.000 
#
# Total GULP energy -167291.389855 kJ/mol
# GULP energy per Si atom -5576.379662 kJ/mol
# Density = 2.594966 g / cm^3
# Si number density = 26.008857 Si / 1000 Ang^3
#
#
#
# Elastic Constant Matrix: (Units=GPa)
#
#
# Indices 1 2 3 4 5 6 
#
# 1 94.1601 17.8765 26.4748 0.0000 2.7574 0.0000
# 2 17.8765 208.4739 18.9775 0.0000 -3.0688 0.0000
# 3 26.4748 18.9775 81.6279 0.0000 3.5982 0.0000
# 4 0.0000 0.0000 0.0000 2.6236 0.0000 -1.6077
# 5 2.7574 -3.0688 3.5982 0.0000 32.7776 0.0000
# 6 0.0000 0.0000 0.0000 -1.6077 0.0000 16.3765
#
#
#
# Elastic Compliance Matrix: (Units=1/GPa)
#
#
# Indices 1 2 3 4 5 6 
#
# 1 0.011793 -0.000690 -0.003635 0.000000 -0.000658 0.000000
# 2 -0.000690 0.004952 -0.000955 0.000000 0.000627 0.000000
# 3 -0.003635 -0.000955 0.013709 0.000000 -0.001288 0.000000
# 4 0.000000 0.000000 0.000000 0.405561 0.000000 0.039815
# 5 -0.000658 0.000627 -0.001288 0.000000 0.030764 0.000000
# 6 0.000000 0.000000 0.000000 0.039815 0.000000 0.064972
#
#
# Mechanical properties :
#
#
# Convention : Reuss Voigt Hill
#
# Bulk Modulus (GPa) = 50.27041 56.76883 53.51962
# Shear Modulus (GPa) = 9.10843 31.75107 20.42975
#
# Velocity S-wave (km/s) = 1.87341 3.49776 2.80570
# Velocity P-wave (km/s) = 4.90405 6.17952 5.57836
#
# Compressibility (1/GPa) = 0.01989242
#
# Stress axis : x y z
#
# Youngs Moduli (GPa) = 84.79886 201.93462 72.94660
#
# Poissons Ratio (x) = 0.13933 0.26519
# Poissons Ratio (y) = 0.05851 0.06967
# Poissons Ratio (z) = 0.30828 0.19288
#
# Static dielectric constant tensor:
#      x y z
#    x 2.039420 0.000000 -0.039020 
#    y 0.000000 2.076910 0.000000 
#    z -0.039020 0.000000 2.056660 
# 
# From -- ./inp_files/81992.got.cif
#   From: 2010.05.17/outbox.cif.g08.bks.cpg/sg13_41_cif.got.tgz:81992.got - 2010.06.03 16:44:36.
