data_PCOD9232805
_publ_section_title
;
Structure prediction by ZEFSAII (Michael W. Deem and Ramdas Pophale) SiO2 
 PCOD9232805
Probable space group: P 2/C
;
_chemical_formula_sum "Si O2"
_cell_formula_units_Z 28
_cell_length_a 5.370951
_cell_length_b 14.184751
_cell_length_c 19.317834
_cell_angle_alpha 90.000000
_cell_angle_beta 115.467108
_cell_angle_gamma 90.000000
_cell_volume 1328.735124
_symmetry_space_group_name_H-M "P 2/C"
_symmetry_group_IT_number 13
_symmetry_cell_setting 'monoclinic'
loop_
_space_group_symop_operation_xyz
x,y,z
-x,y,1/2-z
-x,-y,-z
x,-y,1/2+z
loop_
_atom_site_type_symbol
_atom_site_label
_atom_site_fract_x
_atom_site_fract_y
_atom_site_fract_z
Si Si1 0.818299 0.058310 0.289970
Si Si2 0.314291 0.769025 0.074555
Si Si3 0.199201 0.949891 0.970637
Si Si4 0.810941 0.715495 0.789179
Si Si5 0.998720 0.629899 0.547812
Si Si6 0.237487 0.437185 0.951363
Si Si7 0.924298 0.271319 0.660088
O O1 0.500000 0.022677 0.250000
O O2 0.794135 0.171665 0.278014
O O3 0.000000 0.016448 0.250000
O O4 0.016618 0.047391 0.379516
O O5 0.637551 0.785009 0.122984
O O6 0.145376 0.764745 0.127772
O O7 0.225171 0.847107 0.008342
O O8 0.259026 0.670598 0.026908
O O9 0.500000 0.000000 0.000000
O O10 0.000000 0.000000 0.000000
O O11 0.500000 0.677601 0.750000
O O12 0.941623 0.690793 0.878262
O O13 0.000000 0.677479 0.750000
O O14 0.226682 0.635265 0.514843
O O15 0.989523 0.520935 0.569466
O O16 0.161112 0.376728 0.875459
O O17 0.500000 0.500000 0.000000
O O18 0.000000 0.271604 0.750000
#
# Coordination Sequence:
#
# PCOD9232805 Si02
#       7
#     4   4   4   4   4   4   4
#     4  10  21  41  65  94 133 166 202 264 338 392
#     4  11  23  44  69  92 129 176 219 274 326 407
#     4  12  25  44  70 105 132 170 228 275 332 402
#     4  10  22  36  59  92 124 163 207 257 318 384
#     4  10  21  39  60  91 128 171 219 261 327 396
#     4  10  21  38  62  92 128 172 219 273 329 373
#     4  11  24  43  67  95 134 178 225 273 327 388
#
# _framework density 21.072673000000002
#
# number of rings (size 3 to 8) (size 9 to 14) (size 15 to 20)
#    0.000    1.429    2.857    2.143    2.000    0.571 
#    0.000    7.143    0.000    0.000    0.000    0.000 
#    0.000    0.000    0.000    0.000    0.000    0.000 
#
# Total GULP energy -155913.193505 kJ/mol
# GULP energy per Si atom -5568.328339 kJ/mol
# Density = 2.102471 g / cm^3
# Si number density = 21.072673 Si / 1000 Ang^3
#
#
#
# Elastic Constant Matrix: (Units=GPa)
#
#
# Indices 1 2 3 4 5 6 
#
# 1 160.8302 19.6361 82.9343 0.0000 -3.8364 0.0000
# 2 19.6361 40.1487 17.1875 0.0000 -2.9790 0.0000
# 3 82.9343 17.1875 175.2886 0.0000 -8.3843 0.0000
# 4 0.0000 0.0000 0.0000 -20.5461 0.0000 -20.7028
# 5 -3.8364 -2.9790 -8.3843 0.0000 31.3869 0.0000
# 6 0.0000 0.0000 0.0000 -20.7028 0.0000 3.4267
#
#
#
# Elastic Compliance Matrix: (Units=1/GPa)
#
#
# Indices 1 2 3 4 5 6 
#
# 1 0.008465 -0.002544 -0.003766 0.000000 -0.000213 0.000000
# 2 -0.002544 0.026865 -0.001341 0.000000 0.001881 0.000000
# 3 -0.003766 -0.001341 0.007688 0.000000 0.001466 0.000000
# 4 0.000000 0.000000 0.000000 -0.006867 0.000000 -0.041488
# 5 -0.000213 0.001881 0.001466 0.000000 0.032405 0.000000
# 6 0.000000 0.000000 0.000000 -0.041488 0.000000 0.041174
#
#
# Mechanical properties :
#
#
# Convention : Reuss Voigt Hill
#
# Bulk Modulus (GPa) = 36.07803 68.42036 52.24920
# Shear Modulus (GPa) = 37.23851 19.95414 28.59632
#
# Velocity S-wave (km/s) = 4.20830 3.08055 3.68779
# Velocity P-wave (km/s) = 6.38522 6.72252 6.55604
#
# Compressibility (1/GPa) = 0.02771770
#
# Stress axis : x y z
#
# Youngs Moduli (GPa) = 118.13123 37.22310 130.06932
#
# Poissons Ratio (x) = 0.09469 0.48982
# Poissons Ratio (y) = 0.30050 0.17438
# Poissons Ratio (z) = 0.44487 0.04990
#
# Static dielectric constant tensor:
#      x y z
#    x 1.872950 0.000000 -0.023200 
#    y 0.000000 1.730450 0.000000 
#    z -0.023200 0.000000 1.289290 
# 
# From -- ./inp_files/61683.got.cif
#   From: 2010.05.17/outbox.cif.g08.bks.cpg/sg13_31_cif.got.tgz:61683.got - 2010.06.03 16:44:36.
