data_PCOD9232986
_publ_section_title
;
Structure prediction by ZEFSAII (Michael W. Deem and Ramdas Pophale) SiO2 
 PCOD9232986
Probable space group: P 2/C
;
_chemical_formula_sum "Si O2"
_cell_formula_units_Z 20
_cell_length_a 10.625038
_cell_length_b 9.321968
_cell_length_c 9.356342
_cell_angle_alpha 90.000000
_cell_angle_beta 99.213553
_cell_angle_gamma 90.000000
_cell_volume 914.754688
_symmetry_space_group_name_H-M "P 2/C"
_symmetry_group_IT_number 13
_symmetry_cell_setting 'monoclinic'
loop_
_space_group_symop_operation_xyz
x,y,z
-x,y,1/2-z
-x,-y,-z
x,-y,1/2+z
loop_
_atom_site_type_symbol
_atom_site_label
_atom_site_fract_x
_atom_site_fract_y
_atom_site_fract_z
Si Si1 0.008540 0.351367 0.585696
Si Si2 0.260194 0.163708 0.635181
Si Si3 0.650805 0.650657 0.802248
Si Si4 0.770052 0.866114 0.031423
Si Si5 0.627782 0.403757 0.989796
O O1 0.140315 0.267748 0.588443
O O2 0.000000 0.389868 0.750000
O O3 0.000000 0.500000 0.500000
O O4 0.897971 0.231049 0.538978
O O5 0.266564 0.133023 0.806899
O O6 0.381610 0.254780 0.598417
O O7 0.229569 0.024655 0.534455
O O8 0.500000 0.645816 0.750000
O O9 0.698108 0.514311 0.898904
O O10 0.699065 0.635940 0.649389
O O11 0.675153 0.784375 0.907165
O O12 0.500000 0.500000 0.000000
#
# Coordination Sequence:
#
# PCOD9232986 Si02
#       5
#     4   4   4   4   4
#     4  10  23  40  64  96 130 169 215 263 324 395
#     4  11  23  41  64  95 131 171 215 269 330 393
#     4  10  21  39  61  89 122 164 213 264 318 378
#     4  11  23  41  64  95 133 172 214 268 330 394
#     4  10  21  39  62  89 122 164 213 264 316 376
#
# _framework density 21.863786000000001
#
# number of rings (size 3 to 8) (size 9 to 14) (size 15 to 20)
#    0.000    1.600    0.000    4.200    0.000    8.000 
#    0.000   12.000    0.000    0.000    0.000    0.000 
#    0.000    0.000    0.000    0.000    0.000    0.000 
#
# Total GULP energy -111515.378931 kJ/mol
# GULP energy per Si atom -5575.768947 kJ/mol
# Density = 2.181402 g / cm^3
# Si number density = 21.863786 Si / 1000 Ang^3
#
#
#
# Elastic Constant Matrix: (Units=GPa)
#
#
# Indices 1 2 3 4 5 6 
#
# 1 55.7536 46.7473 46.3308 0.0000 -2.2678 0.0000
# 2 46.7473 214.1483 113.1915 0.0000 -14.3764 0.0000
# 3 46.3308 113.1915 200.8572 0.0000 -23.9913 0.0000
# 4 0.0000 0.0000 0.0000 51.1782 0.0000 -0.7558
# 5 -2.2678 -14.3764 -23.9913 0.0000 18.1463 0.0000
# 6 0.0000 0.0000 0.0000 -0.7558 0.0000 15.9440
#
#
#
# Elastic Compliance Matrix: (Units=1/GPa)
#
#
# Indices 1 2 3 4 5 6 
#
# 1 0.024105 -0.003339 -0.004316 0.000000 -0.005340 0.000000
# 2 -0.003339 0.007115 -0.003107 0.000000 0.001112 0.000000
# 3 -0.004316 -0.003107 0.008748 0.000000 0.008565 0.000000
# 4 0.000000 0.000000 0.000000 0.019553 0.000000 0.000927
# 5 -0.005340 0.001112 0.008565 0.000000 0.066646 0.000000
# 6 0.000000 0.000000 0.000000 0.000927 0.000000 0.062763
#
#
# Mechanical properties :
#
#
# Convention : Reuss Voigt Hill
#
# Bulk Modulus (GPa) = 54.21635 98.14425 76.18030
# Shear Modulus (GPa) = 23.08363 34.68634 28.88498
#
# Velocity S-wave (km/s) = 3.25282 3.98738 3.63868
# Velocity P-wave (km/s) = 6.24171 8.13544 7.25066
#
# Compressibility (1/GPa) = 0.01844462
#
# Stress axis : x y z
#
# Youngs Moduli (GPa) = 41.48449 140.54144 114.31018
#
# Poissons Ratio (x) = 0.46927 0.49340
# Poissons Ratio (y) = 0.13852 0.35513
# Poissons Ratio (z) = 0.17906 0.43662
#
# Static dielectric constant tensor:
#      x y z
#    x 2.064770 0.000000 -0.140020 
#    y 0.000000 1.847520 0.000000 
#    z -0.140020 0.000000 1.902980 
# 
# From -- ./inp_files/14987.got.cif
#   From: 2010.05.17/outbox.cif.g08.bks.cpg/sg13_8_cif.got.tgz:14987.got - 2010.06.03 16:44:36.
