data_PCOD9232477
_publ_section_title
;
Structure prediction by ZEFSAII (Michael W. Deem and Ramdas Pophale) SiO2 
 PCOD9232477
Probable space group: P 2/C
;
_chemical_formula_sum "Si O2"
_cell_formula_units_Z 18
_cell_length_a 18.128721
_cell_length_b 9.938130
_cell_length_c 8.692000
_cell_angle_alpha 90.000000
_cell_angle_beta 33.912819
_cell_angle_gamma 90.000000
_cell_volume 873.719223
_symmetry_space_group_name_H-M "P 2/C"
_symmetry_group_IT_number 13
_symmetry_cell_setting 'monoclinic'
loop_
_space_group_symop_operation_xyz
x,y,z
-x,y,1/2-z
-x,-y,-z
x,-y,1/2+z
loop_
_atom_site_type_symbol
_atom_site_label
_atom_site_fract_x
_atom_site_fract_y
_atom_site_fract_z
Si Si1 0.135621 0.842387 0.803490
Si Si2 0.902525 0.575293 0.785017
Si Si3 0.171389 0.122164 0.604858
Si Si4 0.327785 0.625474 0.823961
Si Si5 0.500000 0.557460 0.250000
O O1 0.170421 0.699883 0.669072
O O2 0.196046 0.968403 0.608197
O O3 0.167889 0.858330 0.927036
O O4 0.975011 0.847860 0.075581
O O5 0.000000 0.624563 0.750000
O O6 0.000000 0.500000 0.500000
O O7 0.796542 0.463919 0.018954
O O8 0.273362 0.234619 0.484063
O O9 0.424317 0.641641 0.511382
O O10 0.400434 0.539273 0.828838
#
# Coordination Sequence:
#
# PCOD9232477 Si02
#       5
#     4   4   4   4   2
#     4  10  22  35  57  94 125 162 191 243 330 389
#     4  12  23  36  62  97 129 160 200 261 330 380
#     4  10  21  37  59  85 129 161 198 249 311 383
#     4  11  22  41  63  89 124 162 216 264 299 371
#     4  10  24  40  64  88 118 176 224 256 298 346
#
# _framework density 20.601583999999999
#
# number of rings (size 3 to 8) (size 9 to 14) (size 15 to 20)
#    0.000    1.333    2.222    4.000    6.222    0.000 
#    0.000    0.000    0.000   22.667    0.000    0.000 
#    0.000    0.000    0.000    0.000    0.000    0.000 
#
# Total GULP energy -100619.940290 kJ/mol
# GULP energy per Si atom -5589.996683 kJ/mol
# Density = 2.055469 g / cm^3
# Si number density = 20.601584 Si / 1000 Ang^3
#
#
#
# Elastic Constant Matrix: (Units=GPa)
#
#
# Indices 1 2 3 4 5 6 
#
# 1 57.3270 10.0540 7.9205 0.0000 2.3699 0.0000
# 2 10.0540 139.0242 35.9006 0.0000 3.1776 0.0000
# 3 7.9205 35.9006 66.9431 0.0000 2.8475 0.0000
# 4 0.0000 0.0000 0.0000 36.1593 0.0000 -0.4076
# 5 2.3699 3.1776 2.8475 0.0000 26.0024 0.0000
# 6 0.0000 0.0000 0.0000 -0.4076 0.0000 17.0151
#
#
#
# Elastic Compliance Matrix: (Units=1/GPa)
#
#
# Indices 1 2 3 4 5 6 
#
# 1 0.017870 -0.000848 -0.001602 0.000000 -0.001350 0.000000
# 2 -0.000848 0.008397 -0.004383 0.000000 -0.000469 0.000000
# 3 -0.001602 -0.004383 0.017531 0.000000 -0.001238 0.000000
# 4 0.000000 0.000000 0.000000 0.027663 0.000000 0.000663
# 5 -0.001350 -0.000469 -0.001238 0.000000 0.038774 0.000000
# 6 0.000000 0.000000 0.000000 0.000663 0.000000 0.058787
#
#
# Mechanical properties :
#
#
# Convention : Reuss Voigt Hill
#
# Bulk Modulus (GPa) = 33.18779 41.22718 37.20749
# Shear Modulus (GPa) = 25.94295 29.79664 27.86979
#
# Velocity S-wave (km/s) = 3.55247 3.80719 3.68203
# Velocity P-wave (km/s) = 5.74204 6.27545 6.01466
#
# Compressibility (1/GPa) = 0.03013156
#
# Stress axis : x y z
#
# Youngs Moduli (GPa) = 55.96091 119.09291 57.04266
#
# Poissons Ratio (x) = 0.10096 0.09140
# Poissons Ratio (y) = 0.04744 0.25001
# Poissons Ratio (z) = 0.08966 0.52196
#
# Static dielectric constant tensor:
#      x y z
#    x 1.774720 0.000000 0.001450 
#    y 0.000000 1.737120 0.000000 
#    z 0.001450 0.000000 1.728920 
# 
# From -- ./inp_files/14500.got.cif
#   From: 2010.05.17/outbox.cif.g08.bks.cpg/sg13_8_cif.got.tgz:14500.got - 2010.06.03 16:44:36.
