data_PCOD9232926
_publ_section_title
;
Structure prediction by ZEFSAII (Michael W. Deem and Ramdas Pophale) SiO2 
 PCOD9232926
Probable space group: P 2/C
;
_chemical_formula_sum "Si O2"
_cell_formula_units_Z 28
_cell_length_a 19.799002
_cell_length_b 10.764554
_cell_length_c 8.526360
_cell_angle_alpha 90.000000
_cell_angle_beta 135.806484
_cell_angle_gamma 90.000000
_cell_volume 1266.741796
_symmetry_space_group_name_H-M "P 2/C"
_symmetry_group_IT_number 13
_symmetry_cell_setting 'monoclinic'
loop_
_space_group_symop_operation_xyz
x,y,z
-x,y,1/2-z
-x,-y,-z
x,-y,1/2+z
loop_
_atom_site_type_symbol
_atom_site_label
_atom_site_fract_x
_atom_site_fract_y
_atom_site_fract_z
Si Si1 0.781616 0.152485 0.384142
Si Si2 0.605988 0.321005 0.141969
Si Si3 0.000000 0.784166 0.250000
Si Si4 0.638483 0.474073 0.467474
Si Si5 0.260034 0.344185 0.604765
Si Si6 0.961003 0.369766 0.365082
Si Si7 0.693903 0.920984 0.415497
Si Si8 0.500000 0.874134 0.250000
O O1 0.719612 0.278474 0.314942
O O2 0.895728 0.152672 0.601652
O O3 0.731892 0.043764 0.399506
O O4 0.761965 0.118722 0.172075
O O5 0.589354 0.362556 0.291107
O O6 0.583739 0.443885 0.003921
O O7 0.546290 0.211897 0.962603
O O8 0.014344 0.716599 0.443490
O O9 0.673143 0.577961 0.402630
O O10 0.728413 0.411531 0.709317
O O11 0.299326 0.203031 0.679801
O O12 0.153563 0.358230 0.356753
O O13 0.000000 0.347876 0.250000
O O14 0.000000 0.500000 0.500000
O O15 0.588058 0.943597 0.313374
#
# Coordination Sequence:
#
# PCOD9232926 Si02
#       8
#     4   4   2   4   4   4   4   2
#     4  11  26  47  71 100 141 190 245 299 355 425
#     4  10  22  41  67 103 137 184 224 292 348 429
#     4  12  26  48  68 106 152 192 246 304 362 426
#     4  10  21  38  70  95 145 183 223 278 363 429
#     4  11  22  44  63 103 141 188 229 296 356 425
#     4  12  25  39  70 109 149 194 245 292 358 437
#     4  11  25  47  72  99 139 183 241 302 359 429
#     4  10  22  48  72 102 136 174 244 296 366 432
#
# _framework density 22.103952
#
# number of rings (size 3 to 8) (size 9 to 14) (size 15 to 20)
#    0.000    1.143    5.000    0.857    8.000    3.429 
#    1.286    0.000    0.000    0.000    0.000    0.000 
#    0.000    0.000    0.000    0.000    0.000    0.000 
#
# Total GULP energy -156250.809449 kJ/mol
# GULP energy per Si atom -5580.386052 kJ/mol
# Density = 2.205364 g / cm^3
# Si number density = 22.103952 Si / 1000 Ang^3
#
#
#
# Elastic Constant Matrix: (Units=GPa)
#
#
# Indices 1 2 3 4 5 6 
#
# 1 97.8912 56.5280 44.1195 0.0000 5.7261 0.0000
# 2 56.5280 87.1803 35.2715 0.0000 -0.3019 0.0000
# 3 44.1195 35.2715 100.0616 0.0000 2.3192 0.0000
# 4 0.0000 0.0000 0.0000 3.0666 0.0000 -5.0197
# 5 5.7261 -0.3019 2.3192 0.0000 47.0490 0.0000
# 6 0.0000 0.0000 0.0000 -5.0197 0.0000 32.3363
#
#
#
# Elastic Compliance Matrix: (Units=1/GPa)
#
#
# Indices 1 2 3 4 5 6 
#
# 1 0.018059 -0.009931 -0.004415 0.000000 -0.002044 0.000000
# 2 -0.009931 0.018844 -0.002297 0.000000 0.001443 0.000000
# 3 -0.004415 -0.002297 0.012753 0.000000 -0.000106 0.000000
# 4 0.000000 0.000000 0.000000 0.437176 0.000000 0.067865
# 5 -0.002044 0.001443 -0.000106 0.000000 0.021518 0.000000
# 6 0.000000 0.000000 0.000000 0.067865 0.000000 0.041460
#
#
# Mechanical properties :
#
#
# Convention : Reuss Voigt Hill
#
# Bulk Modulus (GPa) = 61.08561 61.88568 61.48564
# Shear Modulus (GPa) = 8.49543 26.43799 17.46671
#
# Velocity S-wave (km/s) = 1.96259 3.46218 2.81411
# Velocity P-wave (km/s) = 5.72986 6.63631 6.19967
#
# Compressibility (1/GPa) = 0.01637047
#
# Stress axis : x y z
#
# Youngs Moduli (GPa) = 55.37321 53.06739 78.41478
#
# Poissons Ratio (x) = 0.52699 0.34619
# Poissons Ratio (y) = 0.54989 0.18014
# Poissons Ratio (z) = 0.24446 0.12191
#
# Static dielectric constant tensor:
#      x y z
#    x 1.879180 0.000000 -0.034910 
#    y 0.000000 1.862730 0.000000 
#    z -0.034910 0.000000 1.884270 
# 
# From -- ./inp_files/23416.got.cif
#   From: 2010.05.17/outbox.cif.g08.bks.cpg/sg13_12_cif.got.tgz:23416.got - 2010.06.03 16:44:36.
