data_PCOD9232199
_publ_section_title
;
Structure prediction by ZEFSAII (Michael W. Deem and Ramdas Pophale) SiO2 
 PCOD9232199
Probable space group: P 2/C
;
_chemical_formula_sum "Si O2"
_cell_formula_units_Z 32
_cell_length_a 7.431020
_cell_length_b 11.599843
_cell_length_c 18.661917
_cell_angle_alpha 90.000000
_cell_angle_beta 122.948591
_cell_angle_gamma 90.000000
_cell_volume 1349.898161
_symmetry_space_group_name_H-M "P 2/C"
_symmetry_group_IT_number 13
_symmetry_cell_setting 'monoclinic'
loop_
_space_group_symop_operation_xyz
x,y,z
-x,y,1/2-z
-x,-y,-z
x,-y,1/2+z
loop_
_atom_site_type_symbol
_atom_site_label
_atom_site_fract_x
_atom_site_fract_y
_atom_site_fract_z
Si Si1 0.982466 0.313461 0.872070
Si Si2 0.430489 0.579558 0.889575
Si Si3 0.487006 0.324352 0.945529
Si Si4 0.244277 0.534101 0.715239
Si Si5 0.484860 0.059997 0.918121
Si Si6 0.259668 0.087862 0.731735
Si Si7 0.890047 0.329735 0.444920
Si Si8 0.156456 0.934279 0.587985
O O1 0.856255 0.408563 0.800063
O O2 0.877178 0.193876 0.827689
O O3 0.234902 0.309197 0.910203
O O4 0.963390 0.345132 0.952894
O O5 0.481615 0.441601 0.897421
O O6 0.251303 0.599765 0.791822
O O7 0.647827 0.644549 0.917290
O O8 0.382608 0.627496 0.957775
O O9 0.562071 0.195161 0.940226
O O10 0.500000 0.530128 0.750000
O O11 0.099656 0.592593 0.622976
O O12 0.276811 0.076272 0.821308
O O13 0.618443 0.970617 0.898361
O O14 0.500000 0.000000 0.000000
O O15 0.500000 0.106572 0.750000
O O16 0.161370 0.978651 0.669847
O O17 0.899548 0.197648 0.426625
O O18 0.000000 0.000000 0.500000
#
# Coordination Sequence:
#
# PCOD9232199 Si02
#       8
#     4   4   4   4   4   4   4   4
#     4  11  20  38  62  91 130 161 213 261 318 378
#     4   9  20  39  59  87 124 163 206 250 322 383
#     4  10  22  40  62  88 125 172 207 264 317 388
#     4  10  21  35  59  93 123 161 208 256 319 386
#     4  11  24  41  65  96 126 170 217 263 324 379
#     4  10  23  39  66  95 126 171 215 264 326 381
#     4  10  21  38  64  89 120 162 206 266 316 378
#     4  11  23  45  65  94 129 167 216 271 319 380
#
# _framework density 23.705490999999999
#
# number of rings (size 3 to 8) (size 9 to 14) (size 15 to 20)
#    0.000    1.750    1.250    3.000    0.000   10.500 
#    6.750    0.000    0.000    0.000    0.000    0.000 
#    0.000    0.000    0.000    0.000    0.000    0.000 
#
# Total GULP energy -178627.778182 kJ/mol
# GULP energy per Si atom -5582.118068 kJ/mol
# Density = 2.365154 g / cm^3
# Si number density = 23.705491 Si / 1000 Ang^3
#
#
#
# Elastic Constant Matrix: (Units=GPa)
#
#
# Indices 1 2 3 4 5 6 
#
# 1 42.8906 3.2913 27.2771 0.0000 14.5469 0.0000
# 2 3.2913 114.7362 31.0884 0.0000 0.2287 0.0000
# 3 27.2771 31.0884 187.0262 0.0000 -18.6500 0.0000
# 4 0.0000 0.0000 0.0000 12.2334 0.0000 7.6536
# 5 14.5469 0.2287 -18.6500 0.0000 39.0142 0.0000
# 6 0.0000 0.0000 0.0000 7.6536 0.0000 20.6063
#
#
#
# Elastic Compliance Matrix: (Units=1/GPa)
#
#
# Indices 1 2 3 4 5 6 
#
# 1 0.032450 0.000829 -0.006382 0.000000 -0.015155 0.000000
# 2 0.000829 0.009173 -0.001766 0.000000 -0.001207 0.000000
# 3 -0.006382 -0.001766 0.007150 0.000000 0.005808 0.000000
# 4 0.000000 0.000000 0.000000 0.106488 0.000000 -0.039552
# 5 -0.015155 -0.001207 0.005808 0.000000 0.034066 0.000000
# 6 0.000000 0.000000 0.000000 -0.039552 0.000000 0.063219
#
#
# Mechanical properties :
#
#
# Convention : Reuss Voigt Hill
#
# Bulk Modulus (GPa) = 29.29546 51.99631 40.64589
# Shear Modulus (GPa) = 17.94930 33.23719 25.59324
#
# Velocity S-wave (km/s) = 2.75467 3.74851 3.28934
# Velocity P-wave (km/s) = 4.74369 6.38099 5.62226
#
# Compressibility (1/GPa) = 0.03413498
#
# Stress axis : x y z
#
# Youngs Moduli (GPa) = 30.81650 109.01832 139.85437
#
# Poissons Ratio (x) = -0.09032 0.89251
# Poissons Ratio (y) = -0.02553 0.24697
# Poissons Ratio (z) = 0.19666 0.19252
#
# Static dielectric constant tensor:
#      x y z
#    x 1.976930 0.000000 -0.066230 
#    y 0.000000 1.814120 0.000000 
#    z -0.066230 0.000000 1.970760 
# 
# From -- ./inp_files/76463.got.cif
#   From: 2010.05.17/outbox.cif.g08.bks.cpg/sg13_39_cif.got.tgz:76463.got - 2010.06.03 16:44:36.
