data_PCOD9232822
_publ_section_title
;
Structure prediction by ZEFSAII (Michael W. Deem and Ramdas Pophale) SiO2 
 PCOD9232822
Probable space group: P 2/C
;
_chemical_formula_sum "Si O2"
_cell_formula_units_Z 20
_cell_length_a 20.591699
_cell_length_b 9.871707
_cell_length_c 12.870228
_cell_angle_alpha 90.000000
_cell_angle_beta 20.354034
_cell_angle_gamma 90.000000
_cell_volume 909.966116
_symmetry_space_group_name_H-M "P 2/C"
_symmetry_group_IT_number 13
_symmetry_cell_setting 'monoclinic'
loop_
_space_group_symop_operation_xyz
x,y,z
-x,y,1/2-z
-x,-y,-z
x,-y,1/2+z
loop_
_atom_site_type_symbol
_atom_site_label
_atom_site_fract_x
_atom_site_fract_y
_atom_site_fract_z
Si Si1 0.511643 0.750009 0.982526
Si Si2 0.678637 0.889563 0.054736
Si Si3 0.321357 0.389565 0.590671
Si Si4 0.816083 0.172056 0.856921
Si Si5 0.816083 0.672067 0.694795
O O1 0.646456 0.808712 0.691856
O O2 0.646504 0.691314 0.868657
O O3 0.387262 0.858983 0.229895
O O4 0.387268 0.641015 0.108319
O O5 0.500000 0.927106 0.250000
O O6 0.759441 0.751980 0.884224
O O7 0.824462 0.011621 0.830194
O O8 0.240513 0.251986 0.662648
O O9 0.175541 0.511632 0.803606
O O10 0.500000 0.427089 0.250000
O O11 0.999983 0.249994 0.619507
#
# Coordination Sequence:
#
# PCOD9232822 Si02
#       5
#     4   4   4   4   4
#     4  10  21  38  63  86 116 160 204 242 293 362
#     4  10  21  39  62  88 120 161 202 243 298 364
#     4  10  21  39  62  88 120 161 202 243 298 364
#     4  11  22  38  60  89 121 154 198 253 300 346
#     4  11  22  38  60  89 121 154 198 253 300 346
#
# _framework density 21.978840000000002
#
# number of rings (size 3 to 8) (size 9 to 14) (size 15 to 20)
#    0.000    1.600    0.000    6.600    0.000    3.200 
#    0.000    5.000    0.000    0.000    0.000    0.000 
#    0.000    0.000    0.000    0.000    0.000    0.000 
#
# Total GULP energy -111772.163030 kJ/mol
# GULP energy per Si atom -5588.608152 kJ/mol
# Density = 2.192882 g / cm^3
# Si number density = 21.978840 Si / 1000 Ang^3
#
#
#
# Elastic Constant Matrix: (Units=GPa)
#
#
# Indices 1 2 3 4 5 6 
#
# 1 88.9686 56.0961 38.7277 0.0000 0.1691 0.0000
# 2 56.0961 132.6310 58.0717 0.0000 -0.8587 0.0000
# 3 38.7277 58.0717 92.7990 0.0000 -1.8263 0.0000
# 4 0.0000 0.0000 0.0000 21.8476 0.0000 -36.0620
# 5 0.1691 -0.8587 -1.8263 0.0000 25.7429 0.0000
# 6 0.0000 0.0000 0.0000 -36.0620 0.0000 -63.0401
#
#
#
# Elastic Compliance Matrix: (Units=1/GPa)
#
#
# Indices 1 2 3 4 5 6 
#
# 1 0.016068 -0.005315 -0.003390 0.000000 -0.000523 0.000000
# 2 -0.005315 0.012144 -0.005380 0.000000 0.000058 0.000000
# 3 -0.003390 -0.005380 0.015576 0.000000 0.000948 0.000000
# 4 0.000000 0.000000 0.000000 0.023542 0.000000 -0.013467
# 5 -0.000523 0.000058 0.000948 0.000000 0.038918 0.000000
# 6 0.000000 0.000000 0.000000 -0.013467 0.000000 -0.008159
#
#
# Mechanical properties :
#
#
# Convention : Reuss Voigt Hill
#
# Bulk Modulus (GPa) = 64.02973 68.90995 66.46984
# Shear Modulus (GPa) = 38.03310 7.67696 22.85503
#
# Velocity S-wave (km/s) = 4.16437 1.87095 3.22819
# Velocity P-wave (km/s) = 7.23314 6.00735 6.64855
#
# Compressibility (1/GPa) = 0.01561774
#
# Stress axis : x y z
#
# Youngs Moduli (GPa) = 62.23679 82.34745 64.20130
#
# Poissons Ratio (x) = 0.43767 0.21763
# Poissons Ratio (y) = 0.33079 0.34540
# Poissons Ratio (z) = 0.21097 0.44303
#
# Static dielectric constant tensor:
#      x y z
#    x 1.776300 0.000000 -0.023610 
#    y 0.000000 1.811180 0.000000 
#    z -0.023610 0.000000 1.831800 
# 
# From -- ./inp_files/58610.got.cif
#   From: 2010.05.17/outbox.cif.g08.bks.cpg/sg13_30_cif.got.tgz:58610.got - 2010.06.03 16:44:36.
