data_PCOD9232517
_publ_section_title
;
Structure prediction by ZEFSAII (Michael W. Deem and Ramdas Pophale) SiO2 
 PCOD9232517
Probable space group: P 2/C
;
_chemical_formula_sum "Si O2"
_cell_formula_units_Z 16
_cell_length_a 8.164416
_cell_length_b 19.472859
_cell_length_c 9.042741
_cell_angle_alpha 90.000000
_cell_angle_beta 33.934508
_cell_angle_gamma 90.000000
_cell_volume 802.564056
_symmetry_space_group_name_H-M "P 2/C"
_symmetry_group_IT_number 13
_symmetry_cell_setting 'monoclinic'
loop_
_space_group_symop_operation_xyz
x,y,z
-x,y,1/2-z
-x,-y,-z
x,-y,1/2+z
loop_
_atom_site_type_symbol
_atom_site_label
_atom_site_fract_x
_atom_site_fract_y
_atom_site_fract_z
Si Si1 0.324026 0.177430 0.032264
Si Si2 0.298981 0.955331 0.755310
Si Si3 0.663377 0.287025 0.970126
Si Si4 0.662176 0.557163 0.473023
O O1 0.256651 0.114730 0.195356
O O2 0.000000 0.208071 0.250000
O O3 0.500000 0.156186 0.750000
O O4 0.524075 0.233093 0.963430
O O5 0.500000 0.942672 0.750000
O O6 0.500000 0.000000 0.500000
O O7 0.000000 0.000000 0.000000
O O8 0.650613 0.365179 0.918811
O O9 0.000000 0.269996 0.750000
O O10 0.500000 0.284237 0.250000
O O11 0.500000 0.500000 0.500000
O O12 0.000000 0.539361 0.250000
O O13 0.500000 0.560529 0.750000
#
# Coordination Sequence:
#
# PCOD9232517 Si02
#       4
#     4   4   4   4
#     4  12  25  41  63  93 123 157 204 255 306 366
#     4  12  25  43  65  89 120 156 195 244 300 362
#     4  10  22  41  62  89 124 166 209 253 308 367
#     4  10  21  37  60  89 125 165 209 256 307 365
#
# _framework density 19.936102000000002
#
# number of rings (size 3 to 8) (size 9 to 14) (size 15 to 20)
#    0.000    1.000    0.000    7.500    0.000    4.000 
#    0.000    0.000    0.000    0.000    0.000    0.000 
#    0.000    0.000    0.000    0.000    0.000    0.000 
#
# Total GULP energy -89393.467200 kJ/mol
# GULP energy per Si atom -5587.091700 kJ/mol
# Density = 1.989073 g / cm^3
# Si number density = 19.936102 Si / 1000 Ang^3
#
#
#
# Elastic Constant Matrix: (Units=GPa)
#
#
# Indices 1 2 3 4 5 6 
#
# 1 126.8831 96.3444 69.4389 0.0000 -15.0891 0.0000
# 2 96.3444 137.3030 40.8240 0.0000 -22.5234 0.0000
# 3 69.4389 40.8240 155.9341 0.0000 -33.2720 0.0000
# 4 0.0000 0.0000 0.0000 33.5284 0.0000 -1.4012
# 5 -15.0891 -22.5234 -33.2720 0.0000 41.4184 0.0000
# 6 0.0000 0.0000 0.0000 -1.4012 0.0000 45.2456
#
#
#
# Elastic Compliance Matrix: (Units=1/GPa)
#
#
# Indices 1 2 3 4 5 6 
#
# 1 0.021915 -0.014131 -0.007236 0.000000 -0.005513 0.000000
# 2 -0.014131 0.017372 0.003212 0.000000 0.006880 0.000000
# 3 -0.007236 0.003212 0.010384 0.000000 0.007453 0.000000
# 4 0.000000 0.000000 0.000000 0.029864 0.000000 0.000925
# 5 -0.005513 0.006880 0.007453 0.000000 0.031863 0.000000
# 6 0.000000 0.000000 0.000000 0.000925 0.000000 0.022130
#
#
# Mechanical properties :
#
#
# Convention : Reuss Voigt Hill
#
# Bulk Modulus (GPa) = 74.83290 92.59274 83.71282
# Shear Modulus (GPa) = 28.68739 38.27267 33.48003
#
# Velocity S-wave (km/s) = 3.79749 4.38627 4.10245
# Velocity P-wave (km/s) = 7.53961 8.49694 8.03255
#
# Compressibility (1/GPa) = 0.01336311
#
# Stress axis : x y z
#
# Youngs Moduli (GPa) = 45.63003 57.56394 96.29815
#
# Poissons Ratio (x) = 0.81342 0.69681
# Poissons Ratio (y) = 0.64479 -0.30935
# Poissons Ratio (z) = 0.33018 -0.18492
#
# Static dielectric constant tensor:
#      x y z
#    x 1.743910 0.000000 -0.001320 
#    y 0.000000 1.694750 0.000000 
#    z -0.001320 0.000000 1.675000 
# 
# From -- ./inp_files/9100.got.cif
#   From: 2010.05.17/outbox.cif.g08.bks.cpg/sg13_5_cif.got.tgz:9100.got - 2010.06.03 16:44:36.
