data_PCOD9232605
_publ_section_title
;
Structure prediction by ZEFSAII (Michael W. Deem and Ramdas Pophale) SiO2 
 PCOD9232605
Probable space group: P 2/C
;
_chemical_formula_sum "Si O2"
_cell_formula_units_Z 24
_cell_length_a 5.088579
_cell_length_b 14.659570
_cell_length_c 13.957545
_cell_angle_alpha 90.000000
_cell_angle_beta 104.499906
_cell_angle_gamma 90.000000
_cell_volume 1008.018645
_symmetry_space_group_name_H-M "P 2/C"
_symmetry_group_IT_number 13
_symmetry_cell_setting 'monoclinic'
loop_
_space_group_symop_operation_xyz
x,y,z
-x,y,1/2-z
-x,-y,-z
x,-y,1/2+z
loop_
_atom_site_type_symbol
_atom_site_label
_atom_site_fract_x
_atom_site_fract_y
_atom_site_fract_z
Si Si1 0.488919 0.924905 0.142942
Si Si2 0.203980 0.368417 0.178765
Si Si3 0.083376 0.766720 0.144461
Si Si4 0.726884 0.814407 0.934057
Si Si5 0.800075 0.565648 0.321774
Si Si6 0.798220 0.934200 0.577662
O O1 0.500000 0.964376 0.250000
O O2 0.355905 0.824775 0.148080
O O3 0.768128 0.970735 0.129852
O O4 0.287109 0.956303 0.039646
O O5 0.500000 0.378934 0.250000
O O6 0.152655 0.467347 0.124955
O O7 0.000000 0.353654 0.250000
O O8 0.231693 0.282940 0.111772
O O9 0.139596 0.661426 0.122605
O O10 0.000000 0.774525 0.250000
O O11 0.845806 0.801341 0.052332
O O12 0.920733 0.882661 0.893663
O O13 0.429812 0.859437 0.910639
O O14 0.500000 0.573056 0.250000
O O15 0.000000 0.562840 0.250000
#
# Coordination Sequence:
#
# PCOD9232605 Si02
#       6
#     4   4   4   4   4   4
#     4  10  21  38  61  85 117 158 196 242 305 355
#     4  10  21  39  62  87 122 163 200 245 300 354
#     4  10  21  37  64  91 122 158 200 249 302 359
#     4  11  23  40  61  88 120 157 199 246 298 353
#     4   9  19  36  58  88 122 155 198 248 293 352
#     4  10  24  40  58  88 120 149 199 253 289 354
#
# _framework density 23.809082
#
# number of rings (size 3 to 8) (size 9 to 14) (size 15 to 20)
#    0.000    2.000    0.000    2.500    0.000   14.000 
#    0.000    0.000    0.000   17.000    0.000    0.000 
#    0.000    0.000    0.000    0.000    0.000    0.000 
#
# Total GULP energy -133918.754760 kJ/mol
# GULP energy per Si atom -5579.948115 kJ/mol
# Density = 2.375489 g / cm^3
# Si number density = 23.809082 Si / 1000 Ang^3
#
#
#
# Elastic Constant Matrix: (Units=GPa)
#
#
# Indices 1 2 3 4 5 6 
#
# 1 137.2544 49.1325 10.2916 0.0000 -17.2650 0.0000
# 2 49.1325 229.0776 48.7364 0.0000 -29.6320 0.0000
# 3 10.2916 48.7364 68.6486 0.0000 -20.0069 0.0000
# 4 0.0000 0.0000 0.0000 43.2250 0.0000 -11.5175
# 5 -17.2650 -29.6320 -20.0069 0.0000 21.4886 0.0000
# 6 0.0000 0.0000 0.0000 -11.5175 0.0000 40.4496
#
#
#
# Elastic Compliance Matrix: (Units=1/GPa)
#
#
# Indices 1 2 3 4 5 6 
#
# 1 0.008445 -0.001308 0.001529 0.000000 0.006405 0.000000
# 2 -0.001308 0.005781 -0.002595 0.000000 0.004504 0.000000
# 3 0.001529 -0.002595 0.021265 0.000000 0.017449 0.000000
# 4 0.000000 0.000000 0.000000 0.025034 0.000000 0.007128
# 5 0.006405 0.004504 0.017449 0.000000 0.074140 0.000000
# 6 0.000000 0.000000 0.000000 0.007128 0.000000 0.026752
#
#
# Mechanical properties :
#
#
# Convention : Reuss Voigt Hill
#
# Bulk Modulus (GPa) = 32.52738 72.36687 52.44712
# Shear Modulus (GPa) = 28.34269 42.82062 35.58166
#
# Velocity S-wave (km/s) = 3.45398 4.24547 3.87001
# Velocity P-wave (km/s) = 5.44041 7.38192 6.48424
#
# Compressibility (1/GPa) = 0.03074333
#
# Stress axis : x y z
#
# Youngs Moduli (GPa) = 118.41290 172.99135 47.02459
#
# Poissons Ratio (x) = 0.22629 -0.07192
# Poissons Ratio (y) = 0.15490 0.12203
# Poissons Ratio (z) = -0.18110 0.44893
#
# Static dielectric constant tensor:
#      x y z
#    x 1.945660 0.000000 -0.014940 
#    y 0.000000 2.036900 0.000000 
#    z -0.014940 0.000000 1.901530 
# 
# From -- ./inp_files/43868.got.cif
#   From: 2010.05.17/outbox.cif.g08.bks.cpg/sg13_22_cif.got.tgz:43868.got - 2010.06.03 16:44:36.
