data_PCOD9232817
_publ_section_title
;
Structure prediction by ZEFSAII (Michael W. Deem and Ramdas Pophale) SiO2 
 PCOD9232817
Probable space group: P 2/C
;
_chemical_formula_sum "Si O2"
_cell_formula_units_Z 18
_cell_length_a 12.910372
_cell_length_b 7.589179
_cell_length_c 9.109064
_cell_angle_alpha 90.000000
_cell_angle_beta 95.611429
_cell_angle_gamma 90.000000
_cell_volume 888.221185
_symmetry_space_group_name_H-M "P 2/C"
_symmetry_group_IT_number 13
_symmetry_cell_setting 'monoclinic'
loop_
_space_group_symop_operation_xyz
x,y,z
-x,y,1/2-z
-x,-y,-z
x,-y,1/2+z
loop_
_atom_site_type_symbol
_atom_site_label
_atom_site_fract_x
_atom_site_fract_y
_atom_site_fract_z
Si Si1 0.794414 0.841386 0.928495
Si Si2 0.645228 0.438573 0.524778
Si Si3 0.011699 0.688962 0.926937
Si Si4 0.500000 0.518776 0.250000
Si Si5 0.241978 0.804885 0.924500
O O1 0.919311 0.821007 0.963390
O O2 0.769581 0.832325 0.751976
O O3 0.746300 0.672545 0.002918
O O4 0.739827 0.010627 0.992511
O O5 0.564364 0.412584 0.380637
O O6 0.587130 0.383011 0.665926
O O7 0.678213 0.644263 0.538976
O O8 0.000000 0.668498 0.750000
O O9 0.128506 0.751667 0.970626
O O10 0.000000 0.500000 0.000000
#
# Coordination Sequence:
#
# PCOD9232817 Si02
#       5
#     4   4   4   2   4
#     4  11  24  40  65  97 131 168 208 253 310 379
#     4  11  22  45  66  92 126 163 216 259 328 364
#     4  10  21  38  62  97 131 167 205 247 307 374
#     4  10  24  42  70  88 122 166 208 282 314 370
#     4  11  24  40  65  97 131 168 208 253 310 379
#
# _framework density 20.265222999999999
#
# number of rings (size 3 to 8) (size 9 to 14) (size 15 to 20)
#    0.000    1.333    4.444    0.667    3.111    1.778 
#    0.000    6.667    0.000    0.000    0.000    0.000 
#    0.000    0.000    0.000    0.000    0.000    0.000 
#
# Total GULP energy -100440.306084 kJ/mol
# GULP energy per Si atom -5580.017005 kJ/mol
# Density = 2.021910 g / cm^3
# Si number density = 20.265223 Si / 1000 Ang^3
#
#
#
# Elastic Constant Matrix: (Units=GPa)
#
#
# Indices 1 2 3 4 5 6 
#
# 1 88.9782 14.4223 30.6323 0.0000 -16.6330 0.0000
# 2 14.4223 98.1093 22.7104 0.0000 -9.0859 0.0000
# 3 30.6323 22.7104 71.1377 0.0000 -25.3835 0.0000
# 4 0.0000 0.0000 0.0000 22.1406 0.0000 -4.9847
# 5 -16.6330 -9.0859 -25.3835 0.0000 36.7412 0.0000
# 6 0.0000 0.0000 0.0000 -4.9847 0.0000 5.8606
#
#
#
# Elastic Compliance Matrix: (Units=1/GPa)
#
#
# Indices 1 2 3 4 5 6 
#
# 1 0.013442 -0.000657 -0.004599 0.000000 0.002746 0.000000
# 2 -0.000657 0.011042 -0.003151 0.000000 0.000256 0.000000
# 3 -0.004599 -0.003151 0.021264 0.000000 0.011830 0.000000
# 4 0.000000 0.000000 0.000000 0.055863 0.000000 0.047514
# 5 0.002746 0.000256 0.011830 0.000000 0.036697 0.000000
# 6 0.000000 0.000000 0.000000 0.047514 0.000000 0.211043
#
#
# Mechanical properties :
#
#
# Convention : Reuss Voigt Hill
#
# Bulk Modulus (GPa) = 34.55959 43.75059 39.15509
# Shear Modulus (GPa) = 13.30460 25.64584 19.47522
#
# Velocity S-wave (km/s) = 2.56505 3.56126 3.10339
# Velocity P-wave (km/s) = 5.08560 6.20854 5.67491
#
# Compressibility (1/GPa) = 0.02893553
#
# Stress axis : x y z
#
# Youngs Moduli (GPa) = 74.39592 90.55995 47.02679
#
# Poissons Ratio (x) = 0.05952 0.21625
# Poissons Ratio (y) = 0.04889 0.14817
# Poissons Ratio (z) = 0.34211 0.28533
#
# Static dielectric constant tensor:
#      x y z
#    x 1.770560 0.000000 -0.009630 
#    y 0.000000 1.722400 0.000000 
#    z -0.009630 0.000000 1.707250 
# 
# From -- ./inp_files/14484.got.cif
#   From: 2010.05.17/outbox.cif.g08.bks.cpg/sg13_8_cif.got.tgz:14484.got - 2010.06.03 16:44:36.
