data_PCOD9232959
_publ_section_title
;
Structure prediction by ZEFSAII (Michael W. Deem and Ramdas Pophale) SiO2 
 PCOD9232959
Probable space group: P 2/C
;
_chemical_formula_sum "Si O2"
_cell_formula_units_Z 32
_cell_length_a 20.309403
_cell_length_b 11.328001
_cell_length_c 17.012207
_cell_angle_alpha 90.000000
_cell_angle_beta 24.544187
_cell_angle_gamma 90.000000
_cell_volume 1625.819183
_symmetry_space_group_name_H-M "P 2/C"
_symmetry_group_IT_number 13
_symmetry_cell_setting 'monoclinic'
loop_
_space_group_symop_operation_xyz
x,y,z
-x,y,1/2-z
-x,-y,-z
x,-y,1/2+z
loop_
_atom_site_type_symbol
_atom_site_label
_atom_site_fract_x
_atom_site_fract_y
_atom_site_fract_z
Si Si1 0.183900 0.345266 0.183953
Si Si2 0.362661 0.706105 0.792308
Si Si3 0.730983 0.226232 0.875322
Si Si4 0.312676 0.938002 0.939002
Si Si5 0.190801 0.806793 0.536975
Si Si6 0.678021 0.549672 0.810008
Si Si7 0.167769 0.699260 0.396755
Si Si8 0.147805 0.589945 0.143276
O O1 0.260368 0.254074 0.039860
O O2 0.286795 0.396740 0.142951
O O3 0.134018 0.456246 0.184557
O O4 0.022210 0.292076 0.394585
O O5 0.550690 0.727765 0.583050
O O6 0.293181 0.830367 0.898409
O O7 0.304451 0.651983 0.773873
O O8 0.305349 0.614079 0.920934
O O9 0.764799 0.220501 0.746736
O O10 0.841872 0.327174 0.792067
O O11 0.751761 0.111534 0.907498
O O12 0.500000 0.956054 0.750000
O O13 0.236565 0.056647 0.990093
O O14 0.234269 0.741071 0.408816
O O15 0.000000 0.795791 0.750000
O O16 0.786835 0.436655 0.671309
O O17 0.500000 0.500000 0.000000
O O18 0.000000 0.623311 0.250000
#
# Coordination Sequence:
#
# PCOD9232959 Si02
#       8
#     4   4   4   4   4   4   4   4
#     4  11  23  39  59  87 131 157 199 250 308 375
#     4  10  21  39  60  88 123 157 202 248 304 361
#     4  10  21  40  61  89 122 156 200 254 306 358
#     4   9  21  42  63  82 118 158 206 256 302 363
#     4  10  23  44  61  87 120 165 209 255 306 368
#     4  12  22  36  62  96 126 155 201 248 299 377
#     4  11  22  41  63  87 128 161 197 254 314 363
#     4  11  20  34  61  89 118 161 195 240 305 371
#
# _framework density 19.682385
#
# number of rings (size 3 to 8) (size 9 to 14) (size 15 to 20)
#    0.000    1.500    2.500    4.125    1.750    3.000 
#    2.250    5.000    0.000    0.000    0.000    0.000 
#    0.000    0.000    0.000    0.000    0.000    0.000 
#
# Total GULP energy -178693.222385 kJ/mol
# GULP energy per Si atom -5584.163200 kJ/mol
# Density = 1.963759 g / cm^3
# Si number density = 19.682385 Si / 1000 Ang^3
#
#
#
# Elastic Constant Matrix: (Units=GPa)
#
#
# Indices 1 2 3 4 5 6 
#
# 1 129.8024 54.4280 38.0938 0.0000 28.3651 0.0000
# 2 54.4280 83.6528 15.8078 0.0000 19.8911 0.0000
# 3 38.0938 15.8078 69.0678 0.0000 25.7541 0.0000
# 4 0.0000 0.0000 0.0000 13.5591 0.0000 -4.7203
# 5 28.3651 19.8911 25.7541 0.0000 27.4980 0.0000
# 6 0.0000 0.0000 0.0000 -4.7203 0.0000 34.3186
#
#
#
# Elastic Compliance Matrix: (Units=1/GPa)
#
#
# Indices 1 2 3 4 5 6 
#
# 1 0.012465 -0.006249 -0.003589 0.000000 -0.004976 0.000000
# 2 -0.006249 0.017607 0.002708 0.000000 -0.008827 0.000000
# 3 -0.003589 0.002708 0.023339 0.000000 -0.020115 0.000000
# 4 0.000000 0.000000 0.000000 0.077460 0.000000 0.010654
# 5 -0.004976 -0.008827 -0.020115 0.000000 0.066724 0.000000
# 6 0.000000 0.000000 0.000000 0.010654 0.000000 0.030604
#
#
# Mechanical properties :
#
#
# Convention : Reuss Voigt Hill
#
# Bulk Modulus (GPa) = 25.54203 55.46470 40.50337
# Shear Modulus (GPa) = 19.56873 26.68803 23.12838
#
# Velocity S-wave (km/s) = 3.15656 3.68630 3.43166
# Velocity P-wave (km/s) = 5.12742 6.80878 6.02701
#
# Compressibility (1/GPa) = 0.03915116
#
# Stress axis : x y z
#
# Youngs Moduli (GPa) = 80.22474 56.79575 42.84672
#
# Poissons Ratio (x) = 0.35490 0.15379
# Poissons Ratio (y) = 0.50130 -0.11603
# Poissons Ratio (z) = 0.28794 -0.15380
#
# Static dielectric constant tensor:
#      x y z
#    x 1.699580 0.000000 0.011270 
#    y 0.000000 1.665610 0.000000 
#    z 0.011270 0.000000 1.724080 
# 
# From -- ./inp_files/55789.got.cif
#   From: 2010.05.17/outbox.cif.g08.bks.cpg/sg13_28_cif.got.tgz:55789.got - 2010.06.03 16:44:36.
