data_PCOD9232509
_publ_section_title
;
Structure prediction by ZEFSAII (Michael W. Deem and Ramdas Pophale) SiO2 
 PCOD9232509
Probable space group: P 2/C
;
_chemical_formula_sum "Si O2"
_cell_formula_units_Z 18
_cell_length_a 6.677810
_cell_length_b 19.538130
_cell_length_c 8.104504
_cell_angle_alpha 90.000000
_cell_angle_beta 115.616636
_cell_angle_gamma 90.000000
_cell_volume 953.474209
_symmetry_space_group_name_H-M "P 2/C"
_symmetry_group_IT_number 13
_symmetry_cell_setting 'monoclinic'
loop_
_space_group_symop_operation_xyz
x,y,z
-x,y,1/2-z
-x,-y,-z
x,-y,1/2+z
loop_
_atom_site_type_symbol
_atom_site_label
_atom_site_fract_x
_atom_site_fract_y
_atom_site_fract_z
Si Si1 0.457358 0.922413 0.539317
Si Si2 0.000000 0.470716 0.750000
Si Si3 0.000000 0.135821 0.750000
Si Si4 0.706643 0.802229 0.429309
Si Si5 0.760816 0.411087 0.369075
Si Si6 0.000000 0.704424 0.750000
O O1 0.500000 0.914174 0.750000
O O2 0.203528 0.906208 0.400097
O O3 0.610772 0.869289 0.490287
O O4 0.500000 0.000000 0.500000
O O5 0.839483 0.424650 0.582417
O O6 0.847828 0.521620 0.803416
O O7 0.892761 0.178169 0.861586
O O8 0.500000 0.773286 0.250000
O O9 0.814389 0.751075 0.597803
O O10 0.500000 0.404100 0.250000
O O11 0.885283 0.345380 0.341164
#
# Coordination Sequence:
#
# PCOD9232509 Si02
#       6
#     4   2   2   4   4   2
#     4  11  23  39  62  89 115 150 197 247 301 360
#     4   9  20  39  60  87 118 153 198 246 288 339
#     4  10  22  40  60  80 112 154 192 242 298 354
#     4  10  23  41  59  84 118 156 198 245 299 356
#     4  10  21  37  60  87 118 156 198 242 293 351
#     4  11  24  37  56  89 120 155 198 240 300 365
#
# _framework density 18.878329999999998
#
# number of rings (size 3 to 8) (size 9 to 14) (size 15 to 20)
#    0.000    1.778    0.000    4.000    0.000   11.556 
#    0.000    2.222    0.000    0.000    0.000    0.000 
#    0.000    0.000    0.000    0.000    0.000    0.000 
#
# Total GULP energy -100532.634914 kJ/mol
# GULP energy per Si atom -5585.146384 kJ/mol
# Density = 1.883536 g / cm^3
# Si number density = 18.878330 Si / 1000 Ang^3
#
#
#
# Elastic Constant Matrix: (Units=GPa)
#
#
# Indices 1 2 3 4 5 6 
#
# 1 87.3012 37.2661 33.0222 0.0000 10.7477 0.0000
# 2 37.2661 104.4983 71.1812 0.0000 17.2455 0.0000
# 3 33.0222 71.1812 150.5759 0.0000 5.7210 0.0000
# 4 0.0000 0.0000 0.0000 21.8150 0.0000 21.3816
# 5 10.7477 17.2455 5.7210 0.0000 33.4498 0.0000
# 6 0.0000 0.0000 0.0000 21.3816 0.0000 8.6881
#
#
#
# Elastic Compliance Matrix: (Units=1/GPa)
#
#
# Indices 1 2 3 4 5 6 
#
# 1 0.013775 -0.003738 -0.001166 0.000000 -0.002299 0.000000
# 2 -0.003738 0.016522 -0.006756 0.000000 -0.006161 0.000000
# 3 -0.001166 -0.006756 0.010009 0.000000 0.002146 0.000000
# 4 0.000000 0.000000 0.000000 -0.032462 0.000000 0.079889
# 5 -0.002299 -0.006161 0.002146 0.000000 0.033444 0.000000
# 6 0.000000 0.000000 0.000000 0.079889 0.000000 -0.081509
#
#
# Mechanical properties :
#
#
# Convention : Reuss Voigt Hill
#
# Bulk Modulus (GPa) = 58.88032 69.47937 64.17984
# Shear Modulus (GPa) = -444.92885 26.18431 -209.37227
#
# Velocity S-wave (km/s) = -15.36860 3.72829 -10.54262
# Velocity P-wave (km/s) = 16.84245 7.44427 10.68295
#
# Compressibility (1/GPa) = 0.01698360
#
# Stress axis : x y z
#
# Youngs Moduli (GPa) = 72.59737 60.52623 99.90738
#
# Poissons Ratio (x) = 0.22628 0.11651
# Poissons Ratio (y) = 0.27140 0.67500
# Poissons Ratio (z) = 0.08466 0.40893
#
# Static dielectric constant tensor:
#      x y z
#    x 1.651200 0.000000 -0.019910 
#    y 0.000000 1.622180 0.000000 
#    z -0.019910 0.000000 1.651880 
# 
# From -- ./inp_files/9388.got.cif
#   From: 2010.05.17/outbox.cif.g08.bks.cpg/sg13_5_cif.got.tgz:9388.got - 2010.06.03 16:44:36.
