data_PCOD9232117
_publ_section_title
;
Structure prediction by ZEFSAII (Michael W. Deem and Ramdas Pophale) SiO2 
 PCOD9232117
Probable space group: P 2/C
;
_chemical_formula_sum "Si O2"
_cell_formula_units_Z 28
_cell_length_a 9.233554
_cell_length_b 6.754315
_cell_length_c 26.520396
_cell_angle_alpha 90.000000
_cell_angle_beta 134.092607
_cell_angle_gamma 90.000000
_cell_volume 1187.914921
_symmetry_space_group_name_H-M "P 2/C"
_symmetry_group_IT_number 13
_symmetry_cell_setting 'monoclinic'
loop_
_space_group_symop_operation_xyz
x,y,z
-x,y,1/2-z
-x,-y,-z
x,-y,1/2+z
loop_
_atom_site_type_symbol
_atom_site_label
_atom_site_fract_x
_atom_site_fract_y
_atom_site_fract_z
Si Si1 0.270499 0.174569 0.366019
Si Si2 0.743934 0.288301 0.807434
Si Si3 0.684590 0.629840 0.724252
Si Si4 0.206973 0.590917 0.591734
Si Si5 0.415150 0.186905 0.947103
Si Si6 0.668968 0.563988 0.986575
Si Si7 0.087005 0.139727 0.143575
O O1 0.214384 0.260293 0.298159
O O2 0.467704 0.305721 0.426822
O O3 0.105158 0.200167 0.369616
O O4 0.318901 0.938426 0.378072
O O5 0.500000 0.253862 0.750000
O O6 0.768398 0.416735 0.762080
O O7 0.813528 0.411837 0.873559
O O8 0.868276 0.088826 0.840075
O O9 0.448627 0.625902 0.655381
O O10 0.725465 0.756311 0.783758
O O11 0.184998 0.571697 0.526026
O O12 0.085433 0.773713 0.586895
O O13 0.588264 0.340329 0.972770
O O14 0.270310 0.326766 0.946444
O O15 0.500000 0.000000 0.000000
#
# Coordination Sequence:
#
# PCOD9232117 Si02
#       7
#     4   4   4   4   4   4   4
#     4  10  21  34  54  82 109 140 177 224 278 322
#     4   9  18  32  52  75 104 145 186 218 255 310
#     4   9  19  35  50  74 108 145 184 214 251 314
#     4   9  19  34  54  77 103 142 182 219 262 316
#     4   9  19  36  59  83 103 134 184 231 272 323
#     4   9  19  38  60  78 104 138 180 229 273 323
#     4  11  20  33  52  80 115 142 174 219 264 319
#
# _framework density 23.570710999999999
#
# number of rings (size 3 to 8) (size 9 to 14) (size 15 to 20)
#    0.000    2.571    0.000    2.571    0.000    9.143 
#    0.000    3.571    0.000    8.571    0.000    0.000 
#    0.000    0.000    0.000    0.000    0.000    0.000 
#
# Total GULP energy -156190.717772 kJ/mol
# GULP energy per Si atom -5578.239920 kJ/mol
# Density = 2.351706 g / cm^3
# Si number density = 23.570711 Si / 1000 Ang^3
#
#
#
# Elastic Constant Matrix: (Units=GPa)
#
#
# Indices 1 2 3 4 5 6 
#
# 1 134.6736 71.7333 37.0397 0.0000 -38.9806 0.0000
# 2 71.7333 149.6537 26.1291 0.0000 -30.7229 0.0000
# 3 37.0397 26.1291 62.1185 0.0000 -22.3555 0.0000
# 4 0.0000 0.0000 0.0000 5.9351 0.0000 -1.1486
# 5 -38.9806 -30.7229 -22.3555 0.0000 43.1815 0.0000
# 6 0.0000 0.0000 0.0000 -1.1486 0.0000 29.3198
#
#
#
# Elastic Compliance Matrix: (Units=1/GPa)
#
#
# Indices 1 2 3 4 5 6 
#
# 1 0.012383 -0.003998 -0.003322 0.000000 0.006614 0.000000
# 2 -0.003998 0.009244 -0.000536 0.000000 0.002691 0.000000
# 3 -0.003322 -0.000536 0.021001 0.000000 0.007492 0.000000
# 4 0.000000 0.000000 0.000000 0.169777 0.000000 0.006651
# 5 0.006614 0.002691 0.007492 0.000000 0.034922 0.000000
# 6 0.000000 0.000000 0.000000 0.006651 0.000000 0.034367
#
#
# Mechanical properties :
#
#
# Convention : Reuss Voigt Hill
#
# Bulk Modulus (GPa) = 37.15188 68.47221 52.81204
# Shear Modulus (GPa) = 16.31975 29.79019 23.05497
#
# Velocity S-wave (km/s) = 2.63415 3.55894 3.13088
# Velocity P-wave (km/s) = 5.00478 6.78239 5.96023
#
# Compressibility (1/GPa) = 0.02691654
#
# Stress axis : x y z
#
# Youngs Moduli (GPa) = 80.75819 108.17477 47.61716
#
# Poissons Ratio (x) = 0.43244 0.15817
# Poissons Ratio (y) = 0.32284 0.02554
# Poissons Ratio (z) = 0.26825 0.05803
#
# Static dielectric constant tensor:
#      x y z
#    x 2.011290 0.000000 -0.090310 
#    y 0.000000 1.907410 0.000000 
#    z -0.090310 0.000000 2.211340 
# 
# From -- ./inp_files/95473.got.cif
#   From: 2010.05.17/outbox.cif.g08.bks.cpg/sg13_48_cif.got.tgz:95473.got - 2010.06.03 16:44:36.
