data_PCOD9232043
_publ_section_title
;
Structure prediction by ZEFSAII (Michael W. Deem and Ramdas Pophale) SiO2 
 PCOD9232043
Probable space group: P 2/C
;
_chemical_formula_sum "Si O2"
_cell_formula_units_Z 26
_cell_length_a 15.803602
_cell_length_b 5.905432
_cell_length_c 22.397037
_cell_angle_alpha 90.000000
_cell_angle_beta 32.352674
_cell_angle_gamma 90.000000
_cell_volume 1118.554052
_symmetry_space_group_name_H-M "P 2/C"
_symmetry_group_IT_number 13
_symmetry_cell_setting 'monoclinic'
loop_
_space_group_symop_operation_xyz
x,y,z
-x,y,1/2-z
-x,-y,-z
x,-y,1/2+z
loop_
_atom_site_type_symbol
_atom_site_label
_atom_site_fract_x
_atom_site_fract_y
_atom_site_fract_z
Si Si1 0.340636 0.820100 0.039577
Si Si2 0.000000 0.500000 0.500000
Si Si3 0.000000 0.830958 0.250000
Si Si4 0.613069 0.160438 0.851162
Si Si5 0.598059 0.479708 0.592748
Si Si6 0.208437 0.864300 0.440742
Si Si7 0.964661 0.223160 0.637336
Si Si8 0.500000 0.840065 0.750000
O O1 0.171868 0.950277 0.141183
O O2 0.389852 0.763653 0.077699
O O3 0.319410 0.596881 0.012806
O O4 0.482303 0.964209 0.926544
O O5 0.895014 0.276575 0.543986
O O6 0.982664 0.431275 0.581710
O O7 0.022478 0.708610 0.300516
O O8 0.555806 0.355418 0.841198
O O9 0.794520 0.102437 0.731365
O O10 0.704801 0.302661 0.564761
O O11 0.549270 0.675628 0.667353
O O12 0.349648 0.004683 0.324980
O O13 0.101002 0.046228 0.538969
#
# Coordination Sequence:
#
# PCOD9232043 Si02
#       8
#     4   2   2   4   4   4   4   2
#     4  10  22  44  72 105 153 191 251 315 380 454
#     4  12  28  48  74 110 152 202 254 326 384 468
#     4  10  20  46  72 106 148 206 248 316 382 456
#     4  10  24  44  73 113 148 195 249 317 380 460
#     4  12  25  44  75 104 147 201 252 307 383 469
#     4  12  28  50  72 108 149 198 259 321 387 457
#     4  11  26  45  75 108 157 196 259 322 391 459
#     4  12  28  46  74 104 148 200 252 320 376 464
#
# _framework density 23.244297
#
# number of rings (size 3 to 8) (size 9 to 14) (size 15 to 20)
#    0.000    0.923    0.000    6.000    8.615    1.231 
#    0.000   14.615    0.000    0.000    0.000    0.000 
#    0.000    0.000    0.000    0.000    0.000    0.000 
#
# Total GULP energy -144930.012920 kJ/mol
# GULP energy per Si atom -5574.231266 kJ/mol
# Density = 2.319139 g / cm^3
# Si number density = 23.244297 Si / 1000 Ang^3
#
#
#
# Elastic Constant Matrix: (Units=GPa)
#
#
# Indices 1 2 3 4 5 6 
#
# 1 100.8607 19.3520 33.9161 0.0000 7.6389 0.0000
# 2 19.3520 50.4076 38.9153 0.0000 -7.3653 0.0000
# 3 33.9161 38.9153 125.8866 0.0000 -18.3794 0.0000
# 4 0.0000 0.0000 0.0000 22.3949 0.0000 -14.2267
# 5 7.6389 -7.3653 -18.3794 0.0000 48.1687 0.0000
# 6 0.0000 0.0000 0.0000 -14.2267 0.0000 25.5610
#
#
#
# Elastic Compliance Matrix: (Units=1/GPa)
#
#
# Indices 1 2 3 4 5 6 
#
# 1 0.011633 -0.002834 -0.002744 0.000000 -0.003325 0.000000
# 2 -0.002834 0.026789 -0.007259 0.000000 0.001776 0.000000
# 3 -0.002744 -0.007259 0.011467 0.000000 0.003701 0.000000
# 4 0.000000 0.000000 0.000000 0.069077 0.000000 0.038447
# 5 -0.003325 0.001776 0.003701 0.000000 0.022971 0.000000
# 6 0.000000 0.000000 0.000000 0.038447 0.000000 0.060521
#
#
# Mechanical properties :
#
#
# Convention : Reuss Voigt Hill
#
# Bulk Modulus (GPa) = 41.29273 51.28020 46.28646
# Shear Modulus (GPa) = 21.16832 31.55634 26.36233
#
# Velocity S-wave (km/s) = 3.02104 3.68855 3.37136
# Velocity P-wave (km/s) = 5.47468 6.34428 5.92545
#
# Compressibility (1/GPa) = 0.02421734
#
# Stress axis : x y z
#
# Youngs Moduli (GPa) = 85.96435 37.32809 87.20706
#
# Poissons Ratio (x) = 0.10578 0.23925
# Poissons Ratio (y) = 0.24360 0.63301
# Poissons Ratio (z) = 0.23584 0.27095
#
# Static dielectric constant tensor:
#      x y z
#    x 1.879420 0.000000 -0.018510 
#    y 0.000000 1.853390 0.000000 
#    z -0.018510 0.000000 1.895420 
# 
# From -- ./inp_files/87718.got.cif
#   From: 2010.05.17/outbox.cif.g08.bks.cpg/sg13_44_cif.got.tgz:87718.got - 2010.06.03 16:44:36.
