data_PCOD9232337
_publ_section_title
;
Structure prediction by ZEFSAII (Michael W. Deem and Ramdas Pophale) SiO2 
 PCOD9232337
Probable space group: P 2/C
;
_chemical_formula_sum "Si O2"
_cell_formula_units_Z 22
_cell_length_a 15.264257
_cell_length_b 8.791875
_cell_length_c 13.501567
_cell_angle_alpha 90.000000
_cell_angle_beta 150.642174
_cell_angle_gamma 90.000000
_cell_volume 888.320911
_symmetry_space_group_name_H-M "P 2/C"
_symmetry_group_IT_number 13
_symmetry_cell_setting 'monoclinic'
loop_
_space_group_symop_operation_xyz
x,y,z
-x,y,1/2-z
-x,-y,-z
x,-y,1/2+z
loop_
_atom_site_type_symbol
_atom_site_label
_atom_site_fract_x
_atom_site_fract_y
_atom_site_fract_z
Si Si1 0.468664 0.431349 0.329159
Si Si2 0.932842 0.192280 0.455671
Si Si3 0.950854 0.536903 0.095259
Si Si4 0.769294 0.939987 0.393308
Si Si5 0.442057 0.251987 0.501291
Si Si6 0.000000 0.752467 0.750000
O O1 0.500000 0.369337 0.250000
O O2 0.509313 0.318218 0.460200
O O3 0.563676 0.594604 0.438059
O O4 0.260144 0.473224 0.128426
O O5 0.011195 0.353349 0.568723
O O6 0.099397 0.115631 0.565874
O O7 0.836716 0.114113 0.458092
O O8 0.755975 0.191672 0.213285
O O9 0.000000 0.608606 0.250000
O O10 0.977730 0.367192 0.317781
O O11 0.573621 0.878012 0.173135
O O12 0.834891 0.856543 0.557040
#
# Coordination Sequence:
#
# PCOD9232337 Si02
#       6
#     4   4   4   4   4   2
#     4  10  21  36  59  92 120 155 202 250 303 357
#     4  10  24  39  63  86 122 162 201 236 315 352
#     4   9  20  38  56  91 112 155 196 249 293 351
#     4  11  23  42  60  91 121 165 196 252 295 369
#     4  10  21  40  60  88 124 155 202 255 292 359
#     4  10  22  36  62  88 118 154 208 244 302 344
#
# _framework density 24.765823000000001
#
# number of rings (size 3 to 8) (size 9 to 14) (size 15 to 20)
#    0.545    1.455    1.818    0.545    6.364    0.727 
#    0.000    0.000    0.000    2.182    0.000    0.000 
#    0.000    0.000    0.000    0.000    0.000    0.000 
#
# Total GULP energy -122763.808661 kJ/mol
# GULP energy per Si atom -5580.173121 kJ/mol
# Density = 2.470946 g / cm^3
# Si number density = 24.765823 Si / 1000 Ang^3
#
#
#
# Elastic Constant Matrix: (Units=GPa)
#
#
# Indices 1 2 3 4 5 6 
#
# 1 47.7169 -0.6832 6.0504 0.0000 -9.2409 0.0000
# 2 -0.6832 68.2920 22.0794 0.0000 -6.8351 0.0000
# 3 6.0504 22.0794 126.6599 0.0000 -3.0189 0.0000
# 4 0.0000 0.0000 0.0000 39.6901 0.0000 -8.6217
# 5 -9.2409 -6.8351 -3.0189 0.0000 44.6325 0.0000
# 6 0.0000 0.0000 0.0000 -8.6217 0.0000 27.5354
#
#
#
# Elastic Compliance Matrix: (Units=1/GPa)
#
#
# Indices 1 2 3 4 5 6 
#
# 1 0.022013 0.001048 -0.001124 0.000000 0.004642 0.000000
# 2 0.001048 0.015786 -0.002743 0.000000 0.002449 0.000000
# 3 -0.001124 -0.002743 0.008425 0.000000 -0.000083 0.000000
# 4 0.000000 0.000000 0.000000 0.027034 0.000000 0.008465
# 5 0.004642 0.002449 -0.000083 0.000000 0.023736 0.000000
# 6 0.000000 0.000000 0.000000 0.008465 0.000000 0.038967
#
#
# Mechanical properties :
#
#
# Convention : Reuss Voigt Hill
#
# Bulk Modulus (GPa) = 24.63890 33.06244 28.85067
# Shear Modulus (GPa) = 32.23151 36.71976 34.47564
#
# Velocity S-wave (km/s) = 3.61148 3.85473 3.73509
# Velocity P-wave (km/s) = 5.23075 5.76116 5.50235
#
# Compressibility (1/GPa) = 0.04058623
#
# Stress axis : x y z
#
# Youngs Moduli (GPa) = 45.42681 63.34897 118.69305
#
# Poissons Ratio (x) = -0.06640 0.13337
# Poissons Ratio (y) = -0.04761 0.32563
# Poissons Ratio (z) = 0.05104 0.17379
#
# Static dielectric constant tensor:
#      x y z
#    x 2.121100 0.000000 -0.073690 
#    y 0.000000 2.173560 0.000000 
#    z -0.073690 0.000000 1.926590 
# 
# From -- ./inp_files/55117.got.cif
#   From: 2010.05.17/outbox.cif.g08.bks.cpg/sg13_28_cif.got.tgz:55117.got - 2010.06.03 16:44:36.
