data_PCOD9232497
_publ_section_title
;
Structure prediction by ZEFSAII (Michael W. Deem and Ramdas Pophale) SiO2 
 PCOD9232497
Probable space group: P 2/C
;
_chemical_formula_sum "Si O2"
_cell_formula_units_Z 26
_cell_length_a 19.058283
_cell_length_b 7.236635
_cell_length_c 9.595260
_cell_angle_alpha 90.000000
_cell_angle_beta 50.553861
_cell_angle_gamma 90.000000
_cell_volume 1021.926035
_symmetry_space_group_name_H-M "P 2/C"
_symmetry_group_IT_number 13
_symmetry_cell_setting 'monoclinic'
loop_
_space_group_symop_operation_xyz
x,y,z
-x,y,1/2-z
-x,-y,-z
x,-y,1/2+z
loop_
_atom_site_type_symbol
_atom_site_label
_atom_site_fract_x
_atom_site_fract_y
_atom_site_fract_z
Si Si1 0.264577 0.017644 0.539445
Si Si2 0.500000 0.827112 0.750000
Si Si3 0.378699 0.870762 0.660268
Si Si4 0.937052 0.016871 0.208174
Si Si5 0.373956 0.515145 0.034009
Si Si6 0.064005 0.457062 0.286212
Si Si7 0.257715 0.396939 0.935753
O O1 0.330661 0.979091 0.590388
O O2 0.161000 0.066149 0.704761
O O3 0.255829 0.822494 0.468559
O O4 0.299133 0.156178 0.376233
O O5 0.451674 0.943987 0.685853
O O6 0.562052 0.687675 0.579832
O O7 0.410702 0.673660 0.558529
O O8 0.928428 0.235982 0.239434
O O9 0.000000 0.938601 0.250000
O O10 0.000000 0.000000 0.000000
O O11 0.342305 0.457198 0.921824
O O12 0.286799 0.568079 0.239870
O O13 0.168805 0.498400 0.111454
O O14 0.000000 0.537208 0.250000
O O15 0.000000 0.500000 0.500000
#
# Coordination Sequence:
#
# PCOD9232497 Si02
#       7
#     4   2   4   4   4   4   4
#     4  10  24  43  63 101 138 172 224 273 351 402
#     4  12  26  46  70 100 126 176 244 288 356 402
#     4  11  25  44  69  96 133 177 219 290 341 411
#     4  10  21  39  64  94 132 176 216 263 317 399
#     4  11  23  44  69  95 127 176 228 283 347 408
#     4  10  21  37  59  96 134 168 217 267 319 393
#     4  10  22  40  66  94 135 175 221 279 340 403
#
# _framework density 25.442153999999999
#
# number of rings (size 3 to 8) (size 9 to 14) (size 15 to 20)
#    0.000    1.538    1.538    2.308    2.154    2.462 
#    0.000    0.000    0.000    0.000    0.000    0.000 
#    0.000    0.000    0.000    0.000    0.000    0.000 
#
# Total GULP energy -144869.780975 kJ/mol
# GULP energy per Si atom -5571.914653 kJ/mol
# Density = 2.538425 g / cm^3
# Si number density = 25.442154 Si / 1000 Ang^3
#
#
#
# Elastic Constant Matrix: (Units=GPa)
#
#
# Indices 1 2 3 4 5 6 
#
# 1 111.4794 19.2501 38.0793 0.0000 26.8645 0.0000
# 2 19.2501 89.4691 13.2726 0.0000 2.9513 0.0000
# 3 38.0793 13.2726 146.7899 0.0000 26.8243 0.0000
# 4 0.0000 0.0000 0.0000 44.9997 0.0000 1.4744
# 5 26.8645 2.9513 26.8243 0.0000 43.5516 0.0000
# 6 0.0000 0.0000 0.0000 1.4744 0.0000 -40.6507
#
#
#
# Elastic Compliance Matrix: (Units=1/GPa)
#
#
# Indices 1 2 3 4 5 6 
#
# 1 0.011285 -0.001986 -0.001691 0.000000 -0.005785 0.000000
# 2 -0.001986 0.011680 -0.000699 0.000000 0.000864 0.000000
# 3 -0.001691 -0.000699 0.008017 0.000000 -0.003848 0.000000
# 4 0.000000 0.000000 0.000000 0.022196 0.000000 0.000805
# 5 -0.005785 0.000864 -0.003848 0.000000 0.028841 0.000000
# 6 0.000000 0.000000 0.000000 0.000805 0.000000 -0.024571
#
#
# Mechanical properties :
#
#
# Convention : Reuss Voigt Hill
#
# Bulk Modulus (GPa) = 44.98362 54.32694 49.65528
# Shear Modulus (GPa) = 67.92556 28.05587 47.99072
#
# Velocity S-wave (km/s) = 5.17262 3.32434 4.34783
# Velocity P-wave (km/s) = 7.30711 6.01120 6.69060
#
# Compressibility (1/GPa) = 0.02223031
#
# Stress axis : x y z
#
# Youngs Moduli (GPa) = 88.61411 85.61952 124.72924
#
# Poissons Ratio (x) = 0.17007 0.21088
# Poissons Ratio (y) = 0.17602 0.08714
# Poissons Ratio (z) = 0.14982 0.05982
#
# Static dielectric constant tensor:
#      x y z
#    x 2.059110 0.000000 -0.159920 
#    y 0.000000 1.971440 0.000000 
#    z -0.159920 0.000000 2.042620 
# 
# From -- ./inp_files/22944.got.cif
#   From: 2010.05.17/outbox.cif.g08.bks.cpg/sg13_12_cif.got.tgz:22944.got - 2010.06.03 16:44:36.
