data_PCOD9232612
_publ_section_title
;
Structure prediction by ZEFSAII (Michael W. Deem and Ramdas Pophale) SiO2 
 PCOD9232612
Probable space group: P 2/C
;
_chemical_formula_sum "Si O2"
_cell_formula_units_Z 20
_cell_length_a 9.468609
_cell_length_b 12.297507
_cell_length_c 16.283665
_cell_angle_alpha 90.000000
_cell_angle_beta 26.569632
_cell_angle_gamma 90.000000
_cell_volume 848.085925
_symmetry_space_group_name_H-M "P 2/C"
_symmetry_group_IT_number 13
_symmetry_cell_setting 'monoclinic'
loop_
_space_group_symop_operation_xyz
x,y,z
-x,y,1/2-z
-x,-y,-z
x,-y,1/2+z
loop_
_atom_site_type_symbol
_atom_site_label
_atom_site_fract_x
_atom_site_fract_y
_atom_site_fract_z
Si Si1 0.642111 0.344674 0.802526
Si Si2 0.978981 0.441898 0.161025
Si Si3 0.677877 0.108505 0.738271
Si Si4 0.656213 0.756099 0.883896
Si Si5 0.239787 0.957374 0.048788
O O1 0.884760 0.442576 0.674826
O O2 0.718834 0.237588 0.712439
O O3 0.583604 0.295604 0.924709
O O4 0.306603 0.398202 0.956269
O O5 0.731578 0.342652 0.281915
O O6 0.000000 0.457026 0.250000
O O7 0.500000 0.070630 0.750000
O O8 0.012743 0.060751 0.589174
O O9 0.434871 0.068049 0.935484
O O10 0.000000 0.776415 0.750000
O O11 0.492370 0.859739 0.927739
O O12 0.000000 0.958364 0.250000
#
# Coordination Sequence:
#
# PCOD9232612 Si02
#       5
#     4   4   4   4   4
#     4  10  21  37  64  94 135 169 222 269 341 389
#     4   9  19  33  63  98 138 163 220 279 337 377
#     4  12  29  47  65  97 144 181 221 280 347 403
#     4   9  20  38  65 104 134 168 224 289 326 385
#     4  12  26  43  75  98 130 178 239 277 335 391
#
# _framework density 23.582515999999998
#
# number of rings (size 3 to 8) (size 9 to 14) (size 15 to 20)
#    0.000    2.000    2.000    3.600   11.200    0.800 
#    0.000    1.000    0.000    0.000    0.000    0.000 
#    0.000    0.000    0.000    0.000    0.000    0.000 
#
# Total GULP energy -111805.207979 kJ/mol
# GULP energy per Si atom -5590.260399 kJ/mol
# Density = 2.352884 g / cm^3
# Si number density = 23.582516 Si / 1000 Ang^3
#
#
#
# Elastic Constant Matrix: (Units=GPa)
#
#
# Indices 1 2 3 4 5 6 
#
# 1 81.3974 34.3656 23.4828 0.0000 -34.6619 0.0000
# 2 34.3656 154.5091 47.2536 0.0000 -19.1765 0.0000
# 3 23.4828 47.2536 56.8360 0.0000 -20.3564 0.0000
# 4 0.0000 0.0000 0.0000 45.5915 0.0000 -20.2731
# 5 -34.6619 -19.1765 -20.3564 0.0000 22.7945 0.0000
# 6 0.0000 0.0000 0.0000 -20.2731 0.0000 17.3817
#
#
#
# Elastic Compliance Matrix: (Units=1/GPa)
#
#
# Indices 1 2 3 4 5 6 
#
# 1 0.038187 -0.003666 0.010238 0.000000 0.064128 0.000000
# 2 -0.003666 0.009055 -0.007766 0.000000 -0.004891 0.000000
# 3 0.010238 -0.007766 0.033900 0.000000 0.039309 0.000000
# 4 0.000000 0.000000 0.000000 0.045566 0.000000 0.053146
# 5 0.064128 -0.004891 0.039309 0.000000 0.172375 0.000000
# 6 0.000000 0.000000 0.000000 0.053146 0.000000 0.119519
#
#
# Mechanical properties :
#
#
# Convention : Reuss Voigt Hill
#
# Bulk Modulus (GPa) = 12.69752 55.88294 34.29023
# Shear Modulus (GPa) = 11.17963 29.66290 20.42126
#
# Velocity S-wave (km/s) = 2.17966 3.55044 2.94589
# Velocity P-wave (km/s) = 3.42499 6.36834 5.11304
#
# Compressibility (1/GPa) = 0.07875554
#
# Stress axis : x y z
#
# Youngs Moduli (GPa) = 26.18665 110.43077 29.49834
#
# Poissons Ratio (x) = 0.40479 -0.30200
# Poissons Ratio (y) = 0.09599 0.22909
# Poissons Ratio (z) = -0.26810 0.85762
#
# Static dielectric constant tensor:
#      x y z
#    x 1.976090 0.000000 0.009530 
#    y 0.000000 1.885280 0.000000 
#    z 0.009530 0.000000 1.869560 
# 
# From -- ./inp_files/64410.got.cif
#   From: 2010.05.17/outbox.cif.g08.bks.cpg/sg13_33_cif.got.tgz:64410.got - 2010.06.03 16:44:36.
