data_PCOD9232310
_publ_section_title
;
Structure prediction by ZEFSAII (Michael W. Deem and Ramdas Pophale) SiO2 
 PCOD9232310
Probable space group: P 2/C
;
_chemical_formula_sum "Si O2"
_cell_formula_units_Z 26
_cell_length_a 10.914262
_cell_length_b 9.094459
_cell_length_c 17.195158
_cell_angle_alpha 90.000000
_cell_angle_beta 42.068693
_cell_angle_gamma 90.000000
_cell_volume 1143.578263
_symmetry_space_group_name_H-M "P 2/C"
_symmetry_group_IT_number 13
_symmetry_cell_setting 'monoclinic'
loop_
_space_group_symop_operation_xyz
x,y,z
-x,y,1/2-z
-x,-y,-z
x,-y,1/2+z
loop_
_atom_site_type_symbol
_atom_site_label
_atom_site_fract_x
_atom_site_fract_y
_atom_site_fract_z
Si Si1 0.384426 0.975384 0.223428
Si Si2 0.036987 0.528450 0.852027
Si Si3 0.783278 0.705118 0.146945
Si Si4 0.360006 0.783163 0.937283
Si Si5 0.290621 0.457109 0.585989
Si Si6 0.500000 0.547387 0.750000
Si Si7 0.091288 0.819188 0.920486
O O1 0.500000 0.980894 0.250000
O O2 0.510692 0.075918 0.109098
O O3 0.189542 0.058256 0.322208
O O4 0.335292 0.803715 0.238055
O O5 0.044446 0.383067 0.900495
O O6 0.176773 0.483990 0.717864
O O7 0.108025 0.667940 0.865014
O O8 0.832489 0.551174 0.916772
O O9 0.664876 0.569401 0.172751
O O10 0.875519 0.817610 0.042472
O O11 0.473836 0.656419 0.835808
O O12 0.206526 0.825941 0.946276
O O13 0.289708 0.705511 0.048501
O O14 0.500000 0.500000 0.500000
#
# Coordination Sequence:
#
# PCOD9232310 Si02
#       7
#     4   4   4   4   4   2   4
#     4  10  21  36  57  91 128 160 202 253 313 383
#     4  11  23  39  63  95 123 162 212 264 313 381
#     4  12  21  35  57  94 123 156 207 255 309 371
#     4  11  20  40  63  87 125 167 195 257 323 369
#     4  11  23  39  62  91 126 164 211 257 318 379
#     4  12  20  32  62  90 124 148 202 260 308 364
#     4  11  20  38  63  89 124 159 200 256 322 362
#
# _framework density 22.735655000000001
#
# number of rings (size 3 to 8) (size 9 to 14) (size 15 to 20)
#    0.000    0.923    6.154    3.692    0.000    0.000 
#    0.000    0.769    0.000    7.385    0.000    0.000 
#    0.000    0.000    0.000    0.000    0.000    0.000 
#
# Total GULP energy -144946.277048 kJ/mol
# GULP energy per Si atom -5574.856810 kJ/mol
# Density = 2.268391 g / cm^3
# Si number density = 22.735655 Si / 1000 Ang^3
#
#
#
# Elastic Constant Matrix: (Units=GPa)
#
#
# Indices 1 2 3 4 5 6 
#
# 1 49.7045 11.4850 17.6285 0.0000 -16.9128 0.0000
# 2 11.4850 108.6091 16.0172 0.0000 1.8473 0.0000
# 3 17.6285 16.0172 80.2791 0.0000 -6.3274 0.0000
# 4 0.0000 0.0000 0.0000 40.5509 0.0000 1.2804
# 5 -16.9128 1.8473 -6.3274 0.0000 40.0721 0.0000
# 6 0.0000 0.0000 0.0000 1.2804 0.0000 3.3948
#
#
#
# Elastic Compliance Matrix: (Units=1/GPa)
#
#
# Indices 1 2 3 4 5 6 
#
# 1 0.025680 -0.002243 -0.004384 0.000000 0.010250 0.000000
# 2 -0.002243 0.009704 -0.001573 0.000000 -0.001643 0.000000
# 3 -0.004384 -0.001573 0.013764 0.000000 0.000396 0.000000
# 4 0.000000 0.000000 0.000000 0.024958 0.000000 -0.009413
# 5 0.010250 -0.001643 0.000396 0.000000 0.029419 0.000000
# 6 0.000000 0.000000 0.000000 -0.009413 0.000000 0.298121
#
#
# Mechanical properties :
#
#
# Convention : Reuss Voigt Hill
#
# Bulk Modulus (GPa) = 30.53599 36.53934 33.53766
# Shear Modulus (GPa) = 11.65605 29.70101 20.67853
#
# Velocity S-wave (km/s) = 2.26669 3.61829 3.01910
# Velocity P-wave (km/s) = 4.50673 5.79329 5.19003
#
# Compressibility (1/GPa) = 0.03274824
#
# Stress axis : x y z
#
# Youngs Moduli (GPa) = 38.94145 103.04508 72.65233
#
# Poissons Ratio (x) = 0.23117 0.31848
# Poissons Ratio (y) = 0.08736 0.11429
# Poissons Ratio (z) = 0.17070 0.16210
#
# Static dielectric constant tensor:
#      x y z
#    x 1.944540 0.000000 -0.008430 
#    y 0.000000 1.891590 0.000000 
#    z -0.008430 0.000000 1.928300 
# 
# From -- ./inp_files/77962.got.cif
#   From: 2010.05.17/outbox.cif.g08.bks.cpg/sg13_39_cif.got.tgz:77962.got - 2010.06.03 16:44:36.
