data_PCOD9232317
_publ_section_title
;
Structure prediction by ZEFSAII (Michael W. Deem and Ramdas Pophale) SiO2 
 PCOD9232317
Probable space group: P 2/C
;
_chemical_formula_sum "Si O2"
_cell_formula_units_Z 20
_cell_length_a 17.529198
_cell_length_b 7.003893
_cell_length_c 16.788051
_cell_angle_alpha 90.000000
_cell_angle_beta 25.660674
_cell_angle_gamma 90.000000
_cell_volume 892.545483
_symmetry_space_group_name_H-M "P 2/C"
_symmetry_group_IT_number 13
_symmetry_cell_setting 'monoclinic'
loop_
_space_group_symop_operation_xyz
x,y,z
-x,y,1/2-z
-x,-y,-z
x,-y,1/2+z
loop_
_atom_site_type_symbol
_atom_site_label
_atom_site_fract_x
_atom_site_fract_y
_atom_site_fract_z
Si Si1 0.321642 0.530466 0.563786
Si Si2 0.105379 0.181052 0.489587
Si Si3 0.524197 0.784472 0.951747
Si Si4 0.171878 0.508062 0.541212
Si Si5 0.963213 0.262478 0.459927
O O1 0.456737 0.661905 0.485380
O O2 0.371451 0.317043 0.544824
O O3 0.318362 0.524409 0.471146
O O4 0.139110 0.626624 0.765790
O O5 0.296737 0.209350 0.268735
O O6 0.119410 0.299016 0.557730
O O7 0.973483 0.264168 0.545938
O O8 0.050871 0.960442 0.550102
O O9 0.500000 0.000000 0.000000
O O10 0.000000 0.583597 0.750000
O O11 0.190616 0.629771 0.442977
#
# Coordination Sequence:
#
# PCOD9232317 Si02
#       5
#     4   4   4   4   4
#     4   9  21  39  59  84 116 154 197 245 303 365
#     4  10  21  36  59  86 116 154 201 246 301 367
#     4  10  22  40  59  82 117 162 202 245 304 373
#     4  10  21  36  58  85 116 149 192 253 309 359
#     4   9  20  37  59  87 113 147 195 250 298 351
#
# _framework density 22.407820000000001
#
# number of rings (size 3 to 8) (size 9 to 14) (size 15 to 20)
#    0.000    2.400    0.000    0.600    0.000   19.200 
#    0.000    0.000    0.000    0.000    0.000    0.000 
#    0.000    0.000    0.000    0.000    0.000    0.000 
#
# Total GULP energy -111492.461613 kJ/mol
# GULP energy per Si atom -5574.623081 kJ/mol
# Density = 2.235682 g / cm^3
# Si number density = 22.407820 Si / 1000 Ang^3
#
#
#
# Elastic Constant Matrix: (Units=GPa)
#
#
# Indices 1 2 3 4 5 6 
#
# 1 180.2909 72.7727 27.1099 0.0000 -3.8407 0.0000
# 2 72.7727 153.5698 32.8553 0.0000 7.6166 0.0000
# 3 27.1099 32.8553 77.8456 0.0000 0.6334 0.0000
# 4 0.0000 0.0000 0.0000 27.3780 0.0000 -1.0319
# 5 -3.8407 7.6166 0.6334 0.0000 6.2661 0.0000
# 6 0.0000 0.0000 0.0000 -1.0319 0.0000 24.4119
#
#
#
# Elastic Compliance Matrix: (Units=1/GPa)
#
#
# Indices 1 2 3 4 5 6 
#
# 1 0.007414 -0.003739 -0.001079 0.000000 0.009198 0.000000
# 2 -0.003739 0.009514 -0.002603 0.000000 -0.013594 0.000000
# 3 -0.001079 -0.002603 0.014312 0.000000 0.001056 0.000000
# 4 0.000000 0.000000 0.000000 0.036584 0.000000 0.001546
# 5 0.009198 -0.013594 0.001056 0.000000 0.181644 0.000000
# 6 0.000000 0.000000 0.000000 0.001546 0.000000 0.041029
#
#
# Mechanical properties :
#
#
# Convention : Reuss Voigt Hill
#
# Bulk Modulus (GPa) = 60.97931 75.24246 68.11088
# Shear Modulus (GPa) = 16.08728 30.20907 23.14817
#
# Velocity S-wave (km/s) = 2.68233 3.67570 3.21758
# Velocity P-wave (km/s) = 6.07171 7.18790 6.65325
#
# Compressibility (1/GPa) = 0.01639900
#
# Stress axis : x y z
#
# Youngs Moduli (GPa) = 134.88390 105.10361 69.87295
#
# Poissons Ratio (x) = 0.39294 0.07538
# Poissons Ratio (y) = 0.50427 0.18188
# Poissons Ratio (z) = 0.14551 0.27359
#
# Static dielectric constant tensor:
#      x y z
#    x 1.905390 0.000000 -0.018810 
#    y 0.000000 1.859340 0.000000 
#    z -0.018810 0.000000 1.933670 
# 
# From -- ./inp_files/69130.got.cif
#   From: 2010.05.17/outbox.cif.g08.bks.cpg/sg13_35_cif.got.tgz:69130.got - 2010.06.03 16:44:36.
