data_PCOD9232393
_publ_section_title
;
Structure prediction by ZEFSAII (Michael W. Deem and Ramdas Pophale) SiO2 
 PCOD9232393
Probable space group: P 2/C
;
_chemical_formula_sum "Si O2"
_cell_formula_units_Z 28
_cell_length_a 13.217136
_cell_length_b 6.937389
_cell_length_c 12.703996
_cell_angle_alpha 90.000000
_cell_angle_beta 70.275920
_cell_angle_gamma 90.000000
_cell_volume 1096.516309
_symmetry_space_group_name_H-M "P 2/C"
_symmetry_group_IT_number 13
_symmetry_cell_setting 'monoclinic'
loop_
_space_group_symop_operation_xyz
x,y,z
-x,y,1/2-z
-x,-y,-z
x,-y,1/2+z
loop_
_atom_site_type_symbol
_atom_site_label
_atom_site_fract_x
_atom_site_fract_y
_atom_site_fract_z
Si Si1 0.656925 0.780208 0.323168
Si Si2 0.335701 0.173874 0.102513
Si Si3 0.500000 0.503669 0.250000
Si Si4 0.347676 0.526188 0.974613
Si Si5 0.835701 0.673874 0.102512
Si Si6 0.847676 0.026188 0.974612
Si Si7 0.000000 0.003669 0.250000
Si Si8 0.843075 0.719792 0.676832
O O1 0.579264 0.644017 0.284743
O O2 0.680110 0.676290 0.425580
O O3 0.764726 0.787895 0.214326
O O4 0.609945 0.993251 0.359452
O O5 0.253540 0.065241 0.051372
O O6 0.264725 0.287895 0.214326
O O7 0.397798 0.336210 0.015449
O O8 0.570328 0.391637 0.140151
O O9 0.246461 0.434760 0.948627
O O10 0.890055 0.493250 0.140547
O O11 0.897798 0.836209 0.015449
O O12 0.929672 0.108363 0.859848
O O13 0.819889 0.176290 0.074420
O O14 0.920736 0.144016 0.215256
#
# Coordination Sequence:
#
# PCOD9232393 Si02
#       8
#     4   4   2   4   4   4   2   4
#     4  11  20  40  61  88 117 154 193 241 289 340
#     4  10  21  36  65  88 112 153 200 240 281 343
#     4  10  24  38  58  88 126 150 188 242 294 344
#     4  10  21  40  59  88 118 151 196 239 286 348
#     4  10  21  36  65  88 112 153 200 240 281 343
#     4  10  21  40  59  88 118 151 196 239 286 348
#     4  10  24  38  58  88 126 150 188 242 294 344
#     4  11  20  40  61  88 117 154 193 241 289 340
#
# _framework density 25.535413999999999
#
# number of rings (size 3 to 8) (size 9 to 14) (size 15 to 20)
#    0.000    1.714    2.857    1.714    0.000    1.143 
#    0.000    2.857    0.000    0.000    0.000    0.000 
#    0.000    0.000    0.000    0.000    0.000    0.000 
#
# Total GULP energy -156775.416629 kJ/mol
# GULP energy per Si atom -5599.122022 kJ/mol
# Density = 2.547729 g / cm^3
# Si number density = 25.535414 Si / 1000 Ang^3
#
#
#
# Elastic Constant Matrix: (Units=GPa)
#
#
# Indices 1 2 3 4 5 6 
#
# 1 48.4229 -1.0190 21.1128 0.0000 19.9771 0.0000
# 2 -1.0190 112.0812 35.3454 0.0000 7.6258 0.0000
# 3 21.1128 35.3454 169.0711 0.0000 -1.5531 0.0000
# 4 0.0000 0.0000 0.0000 35.8117 0.0000 5.0606
# 5 19.9771 7.6258 -1.5531 0.0000 32.7681 0.0000
# 6 0.0000 0.0000 0.0000 5.0606 0.0000 20.7610
#
#
#
# Elastic Compliance Matrix: (Units=1/GPa)
#
#
# Indices 1 2 3 4 5 6 
#
# 1 0.030935 0.003109 -0.004695 0.000000 -0.019806 0.000000
# 2 0.003109 0.010044 -0.002528 0.000000 -0.004353 0.000000
# 3 -0.004695 -0.002528 0.007064 0.000000 0.003785 0.000000
# 4 0.000000 0.000000 0.000000 0.028920 0.000000 -0.007049
# 5 -0.019806 -0.004353 0.003785 0.000000 0.043784 0.000000
# 6 0.000000 0.000000 0.000000 -0.007049 0.000000 0.049885
#
#
# Mechanical properties :
#
#
# Convention : Reuss Voigt Hill
#
# Bulk Modulus (GPa) = 25.11576 48.93927 37.02752
# Shear Modulus (GPa) = 26.02381 36.14389 31.08385
#
# Velocity S-wave (km/s) = 3.19584 3.76632 3.49274
# Velocity P-wave (km/s) = 4.84509 6.17417 5.54956
#
# Compressibility (1/GPa) = 0.03981563
#
# Stress axis : x y z
#
# Youngs Moduli (GPa) = 32.32604 99.56448 141.55854
#
# Poissons Ratio (x) = -0.30958 0.66461
# Poissons Ratio (y) = -0.10051 0.35786
# Poissons Ratio (z) = 0.15177 0.25170
#
# Static dielectric constant tensor:
#      x y z
#    x 2.084810 0.000000 0.020890 
#    y 0.000000 1.980210 0.000000 
#    z 0.020890 0.000000 1.998610 
# 
# From -- ./inp_files/54629.got.cif
#   From: 2010.05.17/outbox.cif.g08.bks.cpg/sg13_28_cif.got.tgz:54629.got - 2010.06.03 16:44:36.
