data_PCOD9232336
_publ_section_title
;
Structure prediction by ZEFSAII (Michael W. Deem and Ramdas Pophale) SiO2 
 PCOD9232336
Probable space group: P 2/C
;
_chemical_formula_sum "Si O2"
_cell_formula_units_Z 20
_cell_length_a 12.720572
_cell_length_b 5.186542
_cell_length_c 13.436008
_cell_angle_alpha 90.000000
_cell_angle_beta 67.073652
_cell_angle_gamma 90.000000
_cell_volume 816.427125
_symmetry_space_group_name_H-M "P 2/C"
_symmetry_group_IT_number 13
_symmetry_cell_setting 'monoclinic'
loop_
_space_group_symop_operation_xyz
x,y,z
-x,y,1/2-z
-x,-y,-z
x,-y,1/2+z
loop_
_atom_site_type_symbol
_atom_site_label
_atom_site_fract_x
_atom_site_fract_y
_atom_site_fract_z
Si Si1 0.538871 0.482130 0.601174
Si Si2 0.672849 0.022075 0.028825
Si Si3 0.915652 0.568339 0.188517
Si Si4 0.682572 0.799584 0.303549
Si Si5 0.143856 0.060024 0.396993
O O1 0.500000 0.500000 0.500000
O O2 0.589090 0.761782 0.607263
O O3 0.425818 0.362803 0.692548
O O4 0.637338 0.266994 0.568905
O O5 0.803746 0.072811 0.012527
O O6 0.657723 0.059995 0.916269
O O7 0.788001 0.604378 0.279522
O O8 0.914311 0.310782 0.125068
O O9 0.000000 0.566785 0.250000
O O10 0.929283 0.812086 0.109123
O O11 0.737261 0.003627 0.207636
#
# Coordination Sequence:
#
# PCOD9232336 Si02
#       5
#     4   4   4   4   4
#     4  10  21  36  59  89 123 157 191 233 291 354
#     4  11  22  39  60  90 126 151 194 246 280 362
#     4  10  22  42  61  82 117 157 200 256 298 343
#     4   9  23  38  62  84 120 160 192 233 305 340
#     4  10  23  39  61  89 118 151 204 240 298 354
#
# _framework density 24.496981000000002
#
# number of rings (size 3 to 8) (size 9 to 14) (size 15 to 20)
#    1.200    0.800    0.000    4.200    8.400    0.800 
#    0.000    2.000    0.000    0.000    0.000    0.000 
#    0.000    0.000    0.000    0.000    0.000    0.000 
#
# Total GULP energy -111803.720331 kJ/mol
# GULP energy per Si atom -5590.186017 kJ/mol
# Density = 2.444122 g / cm^3
# Si number density = 24.496981 Si / 1000 Ang^3
#
#
#
# Elastic Constant Matrix: (Units=GPa)
#
#
# Indices 1 2 3 4 5 6 
#
# 1 151.2210 26.9010 -4.7984 0.0000 24.7696 0.0000
# 2 26.9010 140.1422 -4.1179 0.0000 20.3273 0.0000
# 3 -4.7984 -4.1179 53.1206 0.0000 -1.8839 0.0000
# 4 0.0000 0.0000 0.0000 -0.1905 0.0000 20.1322
# 5 24.7696 20.3273 -1.8839 0.0000 38.3767 0.0000
# 6 0.0000 0.0000 0.0000 20.1322 0.0000 32.7329
#
#
#
# Elastic Compliance Matrix: (Units=1/GPa)
#
#
# Indices 1 2 3 4 5 6 
#
# 1 0.007487 -0.000786 0.000460 0.000000 -0.004393 0.000000
# 2 -0.000786 0.007823 0.000407 0.000000 -0.003616 0.000000
# 3 0.000460 0.000407 0.018913 0.000000 0.000416 0.000000
# 4 0.000000 0.000000 0.000000 -0.079537 0.000000 0.048919
# 5 -0.004393 -0.003616 0.000416 0.000000 0.030829 0.000000
# 6 0.000000 0.000000 0.000000 0.048919 0.000000 0.000463
#
#
# Mechanical properties :
#
#
# Convention : Reuss Voigt Hill
#
# Bulk Modulus (GPa) = 29.08384 42.27260 35.67822
# Shear Modulus (GPa) = -1836.89875 35.95040 -900.47417
#
# Velocity S-wave (km/s) = -27.41304 3.83501 -19.19333
# Velocity P-wave (km/s) = 31.46535 6.07482 21.83077
#
# Compressibility (1/GPa) = 0.03438335
#
# Stress axis : x y z
#
# Youngs Moduli (GPa) = 133.56639 127.82749 52.87396
#
# Poissons Ratio (x) = 0.10053 -0.02430
# Poissons Ratio (y) = 0.10504 -0.02153
# Poissons Ratio (z) = -0.06138 -0.05205
#
# Static dielectric constant tensor:
#      x y z
#    x 1.934000 0.000000 -0.035140 
#    y 0.000000 1.893560 0.000000 
#    z -0.035140 0.000000 2.062510 
# 
# From -- ./inp_files/54229.got.cif
#   From: 2010.05.17/outbox.cif.g08.bks.cpg/sg13_28_cif.got.tgz:54229.got - 2010.06.03 16:44:36.
