data_PCOD9232024
_publ_section_title
;
Structure prediction by ZEFSAII (Michael W. Deem and Ramdas Pophale) SiO2 
 PCOD9232024
Probable space group: P 2/C
;
_chemical_formula_sum "Si O2"
_cell_formula_units_Z 26
_cell_length_a 10.382786
_cell_length_b 8.686981
_cell_length_c 18.941664
_cell_angle_alpha 90.000000
_cell_angle_beta 40.971471
_cell_angle_gamma 90.000000
_cell_volume 1120.198359
_symmetry_space_group_name_H-M "P 2/C"
_symmetry_group_IT_number 13
_symmetry_cell_setting 'monoclinic'
loop_
_space_group_symop_operation_xyz
x,y,z
-x,y,1/2-z
-x,-y,-z
x,-y,1/2+z
loop_
_atom_site_type_symbol
_atom_site_label
_atom_site_fract_x
_atom_site_fract_y
_atom_site_fract_z
Si Si1 0.872324 0.513620 0.200090
Si Si2 0.563357 0.508139 0.640306
Si Si3 0.000000 0.753585 0.250000
Si Si4 0.270581 0.989174 0.089850
Si Si5 0.000000 0.744451 0.750000
Si Si6 0.250360 0.160381 0.448922
Si Si7 0.500000 0.067356 0.750000
Si Si8 0.845783 0.708073 0.081454
O O1 0.640900 0.528545 0.313498
O O2 0.892457 0.558123 0.110298
O O3 0.003996 0.641935 0.182538
O O4 0.936848 0.356191 0.208789
O O5 0.500000 0.522738 0.750000
O O6 0.648780 0.672761 0.582393
O O7 0.719304 0.368083 0.570686
O O8 0.186140 0.862763 0.178388
O O9 0.174460 0.148091 0.151542
O O10 0.203255 0.927125 0.041239
O O11 0.500000 0.000000 0.000000
O O12 0.405798 0.048344 0.346155
O O13 0.047916 0.197808 0.489890
O O14 0.314501 0.181770 0.812663
#
# Coordination Sequence:
#
# PCOD9232024 Si02
#       8
#     4   4   2   4   2   4   2   4
#     4  10  20  44  71  92 136 178 223 283 341 396
#     4  10  21  43  69  96 139 181 229 282 341 406
#     4  10  22  44  66  94 134 174 228 282 338 404
#     4  11  25  43  67 102 136 177 229 280 355 409
#     4  10  24  46  70 104 134 182 226 290 342 412
#     4  12  25  44  68 104 137 182 229 286 343 423
#     4  12  26  44  66  98 144 176 228 288 350 396
#     4  11  23  45  68 101 132 189 231 280 346 415
#
# _framework density 23.210173999999999
#
# number of rings (size 3 to 8) (size 9 to 14) (size 15 to 20)
#    0.000    1.231    4.615    1.846    2.154    1.231 
#   11.077    2.308    0.000    0.000    0.000    0.000 
#    0.000    0.000    0.000    0.000    0.000    0.000 
#
# Total GULP energy -145211.835396 kJ/mol
# GULP energy per Si atom -5585.070592 kJ/mol
# Density = 2.315735 g / cm^3
# Si number density = 23.210174 Si / 1000 Ang^3
#
#
#
# Elastic Constant Matrix: (Units=GPa)
#
#
# Indices 1 2 3 4 5 6 
#
# 1 43.5099 35.8951 14.4210 0.0000 -16.5113 0.0000
# 2 35.8951 154.1920 59.1139 0.0000 -15.0405 0.0000
# 3 14.4210 59.1139 107.5553 0.0000 -23.6722 0.0000
# 4 0.0000 0.0000 0.0000 31.4963 0.0000 5.9695
# 5 -16.5113 -15.0405 -23.6722 0.0000 45.2972 0.0000
# 6 0.0000 0.0000 0.0000 5.9695 0.0000 -12.9061
#
#
#
# Elastic Compliance Matrix: (Units=1/GPa)
#
#
# Indices 1 2 3 4 5 6 
#
# 1 0.032245 -0.007238 0.001935 0.000000 0.010362 0.000000
# 2 -0.007238 0.009848 -0.004863 0.000000 -0.001909 0.000000
# 3 0.001935 -0.004863 0.013007 0.000000 0.005888 0.000000
# 4 0.000000 0.000000 0.000000 0.029191 0.000000 0.013502
# 5 0.010362 -0.001909 0.005888 0.000000 0.028296 0.000000
# 6 0.000000 0.000000 0.000000 0.013502 0.000000 -0.071238
#
#
# Mechanical properties :
#
#
# Convention : Reuss Voigt Hill
#
# Bulk Modulus (GPa) = 28.76091 58.23524 43.49808
# Shear Modulus (GPa) = 68.24156 25.83264 47.03710
#
# Velocity S-wave (km/s) = 5.42820 3.33977 4.50663
# Velocity P-wave (km/s) = 7.19066 6.32589 6.77209
#
# Compressibility (1/GPa) = 0.03476941
#
# Stress axis : x y z
#
# Youngs Moduli (GPa) = 31.01267 101.54106 76.88462
#
# Poissons Ratio (x) = 0.73491 -0.14877
# Poissons Ratio (y) = 0.22446 0.37385
# Poissons Ratio (z) = -0.06001 0.49375
#
# Static dielectric constant tensor:
#      x y z
#    x 1.997520 0.000000 0.055700 
#    y 0.000000 1.862620 0.000000 
#    z 0.055700 0.000000 1.922250 
# 
# From -- ./inp_files/86332.got.cif
#   From: 2010.05.17/outbox.cif.g08.bks.cpg/sg13_44_cif.got.tgz:86332.got - 2010.06.03 16:44:36.
