data_PCOD9232086
_publ_section_title
;
Structure prediction by ZEFSAII (Michael W. Deem and Ramdas Pophale) SiO2 
 PCOD9232086
Probable space group: P 2/C
;
_chemical_formula_sum "Si O2"
_cell_formula_units_Z 30
_cell_length_a 15.349599
_cell_length_b 18.496367
_cell_length_c 5.471998
_cell_angle_alpha 90.000000
_cell_angle_beta 112.576244
_cell_angle_gamma 90.000000
_cell_volume 1434.514397
_symmetry_space_group_name_H-M "P 2/C"
_symmetry_group_IT_number 13
_symmetry_cell_setting 'monoclinic'
loop_
_space_group_symop_operation_xyz
x,y,z
-x,y,1/2-z
-x,-y,-z
x,-y,1/2+z
loop_
_atom_site_type_symbol
_atom_site_label
_atom_site_fract_x
_atom_site_fract_y
_atom_site_fract_z
Si Si1 0.799964 0.099594 0.127703
Si Si2 0.107223 0.471493 0.070307
Si Si3 0.000000 0.045132 0.250000
Si Si4 0.893661 0.828352 0.106625
Si Si5 0.384016 0.039782 0.757782
Si Si6 0.240784 0.243722 0.640706
Si Si7 0.443735 0.795409 0.436210
Si Si8 0.905234 0.316690 0.304054
O O1 0.904500 0.091779 0.132851
O O2 0.827574 0.105504 0.442944
O O3 0.729269 0.047244 0.911194
O O4 0.751690 0.178066 0.045323
O O5 0.150836 0.490405 0.381295
O O6 0.104022 0.385367 0.030846
O O7 0.000000 0.500000 0.000000
O O8 0.000000 0.000000 0.500000
O O9 0.834698 0.789073 0.252167
O O10 0.000000 0.855722 0.250000
O O11 0.911691 0.760994 0.939684
O O12 0.419415 0.119315 0.869427
O O13 0.410161 0.012439 0.512424
O O14 0.345813 0.248955 0.854236
O O15 0.188501 0.310814 0.462641
O O16 0.500000 0.773590 0.250000
O O17 0.500000 0.788777 0.750000
O O18 0.000000 0.327699 0.250000
#
# Coordination Sequence:
#
# PCOD9232086 Si02
#       8
#     4   4   2   4   4   4   4   4
#     4  10  24  38  54  79 113 149 200 248 299 356
#     4  10  21  33  53  82 129 179 211 239 280 335
#     4  12  26  38  54  76 106 152 196 236 288 348
#     4  11  22  34  61  83 120 163 207 249 293 357
#     4  11  24  41  65  88 112 144 187 244 315 391
#     4  10  24  39  62  86 118 159 205 252 306 357
#     4  11  26  45  68  89 120 152 196 260 326 376
#     4  11  21  35  55  91 127 171 211 243 290 349
#
# _framework density 20.913
#
# number of rings (size 3 to 8) (size 9 to 14) (size 15 to 20)
#    0.000    1.333    2.667    2.400   17.733    1.600 
#    0.000    0.000    0.000    0.000    0.000    0.000 
#    0.000    3.200    0.000    0.000    0.000    0.000 
#
# Total GULP energy -167309.224540 kJ/mol
# GULP energy per Si atom -5576.974151 kJ/mol
# Density = 2.086540 g / cm^3
# Si number density = 20.913000 Si / 1000 Ang^3
#
#
#
# Elastic Constant Matrix: (Units=GPa)
#
#
# Indices 1 2 3 4 5 6 
#
# 1 72.7732 1.5567 44.9953 0.0000 14.7847 0.0000
# 2 1.5567 67.3830 25.8670 0.0000 7.3226 0.0000
# 3 44.9953 25.8670 137.4044 0.0000 11.6700 0.0000
# 4 0.0000 0.0000 0.0000 29.9356 0.0000 -1.3406
# 5 14.7847 7.3226 11.6700 0.0000 39.8244 0.0000
# 6 0.0000 0.0000 0.0000 -1.3406 0.0000 7.7545
#
#
#
# Elastic Compliance Matrix: (Units=1/GPa)
#
#
# Indices 1 2 3 4 5 6 
#
# 1 0.018583 0.002513 -0.006084 0.000000 -0.005578 0.000000
# 2 0.002513 0.016511 -0.003686 0.000000 -0.002889 0.000000
# 3 -0.006084 -0.003686 0.009963 0.000000 0.000017 0.000000
# 4 0.000000 0.000000 0.000000 0.033666 0.000000 0.005820
# 5 -0.005578 -0.002889 0.000017 0.000000 0.027707 0.000000
# 6 0.000000 0.000000 0.000000 0.005820 0.000000 0.129963
#
#
# Mechanical properties :
#
#
# Convention : Reuss Voigt Hill
#
# Bulk Modulus (GPa) = 32.74256 46.93319 39.83787
# Shear Modulus (GPa) = 19.15062 29.17902 24.16482
#
# Velocity S-wave (km/s) = 3.02938 3.73937 3.40294
# Velocity P-wave (km/s) = 5.28458 6.41363 5.87628
#
# Compressibility (1/GPa) = 0.03054129
#
# Stress axis : x y z
#
# Youngs Moduli (GPa) = 53.81331 60.56466 100.37484
#
# Poissons Ratio (x) = -0.15217 0.61073
# Poissons Ratio (y) = -0.13521 0.36996
# Poissons Ratio (z) = 0.32743 0.22323
#
# Static dielectric constant tensor:
#      x y z
#    x 1.835230 0.000000 -0.023840 
#    y 0.000000 1.733750 0.000000 
#    z -0.023840 0.000000 1.973630 
# 
# From -- ./inp_files/5577.got.cif
#   From: 2010.05.17/outbox.cif.g08.bks.cpg/sg13_3_cif.got.tgz:5577.got - 2010.06.03 16:44:36.
