data_PCOD9232747
_publ_section_title
;
Structure prediction by ZEFSAII (Michael W. Deem and Ramdas Pophale) SiO2 
 PCOD9232747
Probable space group: P 2/C
;
_chemical_formula_sum "Si O2"
_cell_formula_units_Z 28
_cell_length_a 6.951045
_cell_length_b 9.054550
_cell_length_c 24.457594
_cell_angle_alpha 90.000000
_cell_angle_beta 48.463317
_cell_angle_gamma 90.000000
_cell_volume 1152.234001
_symmetry_space_group_name_H-M "P 2/C"
_symmetry_group_IT_number 13
_symmetry_cell_setting 'monoclinic'
loop_
_space_group_symop_operation_xyz
x,y,z
-x,y,1/2-z
-x,-y,-z
x,-y,1/2+z
loop_
_atom_site_type_symbol
_atom_site_label
_atom_site_fract_x
_atom_site_fract_y
_atom_site_fract_z
Si Si1 0.911272 0.261484 0.943677
Si Si2 0.000000 0.691589 0.250000
Si Si3 0.421971 0.939951 0.937842
Si Si4 0.899736 0.440253 0.136660
Si Si5 0.654052 0.437865 0.304718
Si Si6 0.998341 0.056394 0.668142
Si Si7 0.980128 0.810984 0.959425
Si Si8 0.000000 0.817136 0.750000
O O1 0.036986 0.126964 0.884942
O O2 0.936243 0.413911 0.906949
O O3 0.628334 0.199688 0.012433
O O4 0.040945 0.276723 0.978917
O O5 0.233125 0.585108 0.189791
O O6 0.919025 0.802013 0.218272
O O7 0.261859 0.888236 0.914058
O O8 0.701941 0.008992 0.880842
O O9 0.241255 0.068778 0.996114
O O10 0.786409 0.437010 0.219167
O O11 0.646336 0.445133 0.145951
O O12 0.032225 0.291137 0.090997
O O13 0.770248 0.292832 0.311189
O O14 0.883794 0.916718 0.722653
#
# Coordination Sequence:
#
# PCOD9232747 Si02
#       8
#     4   2   4   4   4   4   4   2
#     4  10  21  38  60  89 119 155 192 253 288 377
#     4  10  22  40  58  84 118 154 206 248 296 354
#     4   9  21  37  59  87 120 154 194 246 300 358
#     4  11  21  40  62  85 122 156 202 246 307 351
#     4  10  23  40  61  85 116 162 198 260 291 352
#     4  11  21  40  61  86 120 159 199 246 306 352
#     4   9  21  37  58  89 118 154 196 246 299 359
#     4  10  24  40  64  86 118 160 204 260 284 360
#
# _framework density 24.300621
#
# number of rings (size 3 to 8) (size 9 to 14) (size 15 to 20)
#    0.857    1.143    1.429    1.714    4.000    0.000 
#    0.000    0.714    0.000    0.000    0.000    0.000 
#    0.000    0.000    0.000    0.000    0.000    0.000 
#
# Total GULP energy -156105.938791 kJ/mol
# GULP energy per Si atom -5575.212100 kJ/mol
# Density = 2.424531 g / cm^3
# Si number density = 24.300621 Si / 1000 Ang^3
#
#
#
# Elastic Constant Matrix: (Units=GPa)
#
#
# Indices 1 2 3 4 5 6 
#
# 1 44.8985 12.7020 2.2910 0.0000 -1.4306 0.0000
# 2 12.7020 132.7469 27.6316 0.0000 0.0001 0.0000
# 3 2.2910 27.6316 60.3467 0.0000 5.9670 0.0000
# 4 0.0000 0.0000 0.0000 24.5857 0.0000 7.8586
# 5 -1.4306 0.0001 5.9670 0.0000 47.2936 0.0000
# 6 0.0000 0.0000 0.0000 7.8586 0.0000 25.9554
#
#
#
# Elastic Compliance Matrix: (Units=1/GPa)
#
#
# Indices 1 2 3 4 5 6 
#
# 1 0.022915 -0.002208 0.000073 0.000000 0.000684 0.000000
# 2 -0.002208 0.008551 -0.003873 0.000000 0.000422 0.000000
# 3 0.000073 -0.003873 0.018573 0.000000 -0.002341 0.000000
# 4 0.000000 0.000000 0.000000 0.045032 0.000000 -0.013635
# 5 0.000684 0.000422 -0.002341 0.000000 0.021461 0.000000
# 6 0.000000 0.000000 0.000000 -0.013635 0.000000 0.042656
#
#
# Mechanical properties :
#
#
# Convention : Reuss Voigt Hill
#
# Bulk Modulus (GPa) = 26.29946 35.91570 31.10758
# Shear Modulus (GPa) = 27.19208 32.59145 29.89177
#
# Velocity S-wave (km/s) = 3.34876 3.66618 3.51106
# Velocity P-wave (km/s) = 5.07920 5.72128 5.40977
#
# Compressibility (1/GPa) = 0.03802359
#
# Stress axis : x y z
#
# Youngs Moduli (GPa) = 43.63927 116.95111 53.84156
#
# Poissons Ratio (x) = 0.25822 -0.00395
# Poissons Ratio (y) = 0.09635 0.20853
# Poissons Ratio (z) = -0.00320 0.45296
#
# Static dielectric constant tensor:
#      x y z
#    x 1.993960 0.000000 0.094670 
#    y 0.000000 1.937130 0.000000 
#    z 0.094670 0.000000 2.011690 
# 
# From -- ./inp_files/95959.got.cif
#   From: 2010.05.17/outbox.cif.g08.bks.cpg/sg13_48_cif.got.tgz:95959.got - 2010.06.03 16:44:36.
