data_PCOD9232742
_publ_section_title
;
Structure prediction by ZEFSAII (Michael W. Deem and Ramdas Pophale) SiO2 
 PCOD9232742
Probable space group: P 2/C
;
_chemical_formula_sum "Si O2"
_cell_formula_units_Z 24
_cell_length_a 7.571086
_cell_length_b 4.646655
_cell_length_c 26.360203
_cell_angle_alpha 90.000000
_cell_angle_beta 67.178985
_cell_angle_gamma 90.000000
_cell_volume 854.765176
_symmetry_space_group_name_H-M "P 2/C"
_symmetry_group_IT_number 13
_symmetry_cell_setting 'monoclinic'
loop_
_space_group_symop_operation_xyz
x,y,z
-x,y,1/2-z
-x,-y,-z
x,-y,1/2+z
loop_
_atom_site_type_symbol
_atom_site_label
_atom_site_fract_x
_atom_site_fract_y
_atom_site_fract_z
Si Si1 0.000000 0.368835 0.250000
Si Si2 0.627747 0.354467 0.329505
Si Si3 0.727742 0.953910 0.414067
Si Si4 0.500000 0.043192 0.750000
Si Si5 0.240608 0.390307 0.411181
Si Si6 0.888234 0.982379 0.166099
Si Si7 0.302809 0.849570 0.473298
O O1 0.810920 0.531863 0.289860
O O2 0.946532 0.166389 0.208773
O O3 0.682166 0.159051 0.371490
O O4 0.566792 0.154493 0.289423
O O5 0.439516 0.520875 0.366662
O O6 0.761261 0.134569 0.461663
O O7 0.928816 0.806182 0.375577
O O8 0.532511 0.778327 0.447679
O O9 0.304442 0.182645 0.794140
O O10 0.156473 0.209480 0.374048
O O11 0.168100 0.656434 0.452336
O O12 0.288740 0.161071 0.449539
#
# Coordination Sequence:
#
# PCOD9232742 Si02
#       7
#     2   4   4   2   4   4   4
#     4   8  14  30  58  86 116 152 202 254 302 368
#     4   8  15  29  54  81 112 150 193 243 303 363
#     4   9  19  34  56  87 120 160 205 253 308 374
#     4   8  14  28  56  86 118 154 198 254 312 370
#     4  10  21  38  60  87 121 160 199 251 314 373
#     4   9  17  33  60  91 123 162 208 259 318 378
#     4  10  22  39  59  86 123 161 203 252 308 372
#
# _framework density 28.077888000000002
#
# number of rings (size 3 to 8) (size 9 to 14) (size 15 to 20)
#    0.000    3.000    0.000    0.000    0.000    7.333 
#    0.000    5.000    0.000  106.000    0.000    2.333 
#    0.000    0.000    0.000    0.000    0.000    0.000 
#
# Total GULP energy -134140.446305 kJ/mol
# GULP energy per Si atom -5589.185263 kJ/mol
# Density = 2.801398 g / cm^3
# Si number density = 28.077888 Si / 1000 Ang^3
#
#
#
# Elastic Constant Matrix: (Units=GPa)
#
#
# Indices 1 2 3 4 5 6 
#
# 1 97.4603 12.4656 96.3705 0.0000 -21.7650 0.0000
# 2 12.4656 58.5276 36.1000 0.0000 15.8779 0.0000
# 3 96.3705 36.1000 218.3951 0.0000 18.0368 0.0000
# 4 0.0000 0.0000 0.0000 41.0597 0.0000 39.2682
# 5 -21.7650 15.8779 18.0368 0.0000 99.0251 0.0000
# 6 0.0000 0.0000 0.0000 39.2682 0.0000 19.8725
#
#
#
# Elastic Compliance Matrix: (Units=1/GPa)
#
#
# Indices 1 2 3 4 5 6 
#
# 1 0.021800 -0.000200 -0.010137 0.000000 0.006670 0.000000
# 2 -0.000200 0.019666 -0.002943 0.000000 -0.002661 0.000000
# 3 -0.010137 -0.002943 0.009831 0.000000 -0.003547 0.000000
# 4 0.000000 0.000000 0.000000 -0.027371 0.000000 0.054086
# 5 0.006670 -0.002661 -0.003547 0.000000 0.012637 0.000000
# 6 0.000000 0.000000 0.000000 0.054086 0.000000 -0.056554
#
#
# Mechanical properties :
#
#
# Convention : Reuss Voigt Hill
#
# Bulk Modulus (GPa) = 40.42522 73.80615 57.11568
# Shear Modulus (GPa) = 337.51657 47.28791 192.40224
#
# Velocity S-wave (km/s) = 10.97580 4.10831 8.28693
# Velocity P-wave (km/s) = 13.23076 6.98911 10.58066
#
# Compressibility (1/GPa) = 0.02473704
#
# Stress axis : x y z
#
# Youngs Moduli (GPa) = 45.87248 50.85044 101.71433
#
# Poissons Ratio (x) = 0.01016 1.03110
# Poissons Ratio (y) = 0.00916 0.29932
# Poissons Ratio (z) = 0.46502 0.14964
#
# Static dielectric constant tensor:
#      x y z
#    x 2.339240 0.000000 -0.072350 
#    y 0.000000 2.048280 0.000000 
#    z -0.072350 0.000000 2.132580 
# 
# From -- ./inp_files/84319.got.cif
#   From: 2010.05.17/outbox.cif.g08.bks.cpg/sg13_43_cif.got.tgz:84319.got - 2010.06.03 16:44:36.
