data_PCOD9232149
_publ_section_title
;
Structure prediction by ZEFSAII (Michael W. Deem and Ramdas Pophale) SiO2 
 PCOD9232149
Probable space group: P 2/C
;
_chemical_formula_sum "Si O2"
_cell_formula_units_Z 24
_cell_length_a 21.033071
_cell_length_b 7.211047
_cell_length_c 9.347795
_cell_angle_alpha 90.000000
_cell_angle_beta 42.424748
_cell_angle_gamma 90.000000
_cell_volume 956.467539
_symmetry_space_group_name_H-M "P 2/C"
_symmetry_group_IT_number 13
_symmetry_cell_setting 'monoclinic'
loop_
_space_group_symop_operation_xyz
x,y,z
-x,y,1/2-z
-x,-y,-z
x,-y,1/2+z
loop_
_atom_site_type_symbol
_atom_site_label
_atom_site_fract_x
_atom_site_fract_y
_atom_site_fract_z
Si Si1 0.432035 0.780608 0.540802
Si Si2 0.615730 0.026222 0.645735
Si Si3 0.278984 0.508980 0.672419
Si Si4 0.888906 0.977137 0.693300
Si Si5 0.887172 0.750483 0.425678
Si Si6 0.236912 0.730250 0.467995
O O1 0.390867 0.949234 0.511903
O O2 0.542280 0.812423 0.325382
O O3 0.373589 0.606727 0.579409
O O4 0.413411 0.833210 0.735433
O O5 0.714803 0.090247 0.539569
O O6 0.268290 0.565380 0.525217
O O7 0.272903 0.305957 0.749467
O O8 0.184369 0.592457 0.905337
O O9 0.862050 0.916647 0.578189
O O10 0.861212 0.170610 0.813616
O O11 0.868944 0.794566 0.826091
O O12 0.000000 0.000000 0.500000
O O13 0.000000 0.709165 0.250000
#
# Coordination Sequence:
#
# PCOD9232149 Si02
#       6
#     4   4   4   4   4   4
#     4   9  18  33  53  76 103 133 171 216 255 299
#     4   9  18  33  53  77 102 134 174 213 253 300
#     4  10  21  35  50  73 106 137 166 208 258 306
#     4   9  18  34  54  75  97 127 169 211 250 297
#     4   9  18  34  53  74  99 128 166 211 254 299
#     4  10  21  35  51  75 106 137 170 207 256 312
#
# _framework density 25.092333
#
# number of rings (size 3 to 8) (size 9 to 14) (size 15 to 20)
#    0.000    2.667    0.000    1.000    0.000    3.333 
#    0.000   10.000    0.000    0.000    0.000    0.000 
#    0.000    0.000    0.000    0.000    0.000    0.000 
#
# Total GULP energy -133747.209885 kJ/mol
# GULP energy per Si atom -5572.800412 kJ/mol
# Density = 2.503522 g / cm^3
# Si number density = 25.092333 Si / 1000 Ang^3
#
#
#
# Elastic Constant Matrix: (Units=GPa)
#
#
# Indices 1 2 3 4 5 6 
#
# 1 46.7569 4.9734 -3.1028 0.0000 -5.6552 0.0000
# 2 4.9734 23.8617 -2.4562 0.0000 -9.4331 0.0000
# 3 -3.1028 -2.4562 52.7164 0.0000 -1.7060 0.0000
# 4 0.0000 0.0000 0.0000 49.0971 0.0000 4.0563
# 5 -5.6552 -9.4331 -1.7060 0.0000 36.3461 0.0000
# 6 0.0000 0.0000 0.0000 4.0563 0.0000 24.2296
#
#
#
# Elastic Compliance Matrix: (Units=1/GPa)
#
#
# Indices 1 2 3 4 5 6 
#
# 1 0.022152 -0.003460 0.001227 0.000000 0.002606 0.000000
# 2 -0.003460 0.047591 0.002400 0.000000 0.011926 0.000000
# 3 0.001227 0.002400 0.019209 0.000000 0.001715 0.000000
# 4 0.000000 0.000000 0.000000 0.020653 0.000000 -0.003458
# 5 0.002606 0.011926 0.001715 0.000000 0.031094 0.000000
# 6 0.000000 0.000000 0.000000 -0.003458 0.000000 0.041851
#
#
# Mechanical properties :
#
#
# Convention : Reuss Voigt Hill
#
# Bulk Modulus (GPa) = 11.20021 13.57375 12.38698
# Shear Modulus (GPa) = 23.58719 30.19592 26.89155
#
# Velocity S-wave (km/s) = 3.06929 3.47276 3.27724
# Velocity P-wave (km/s) = 4.12723 4.63695 4.38950
#
# Compressibility (1/GPa) = 0.08928407
#
# Stress axis : x y z
#
# Youngs Moduli (GPa) = 45.14279 21.01242 52.05901
#
# Poissons Ratio (x) = 0.07271 -0.06387
# Poissons Ratio (y) = 0.15621 -0.12492
# Poissons Ratio (z) = -0.05539 -0.05042
#
# Static dielectric constant tensor:
#      x y z
#    x 2.077770 0.000000 -0.059240 
#    y 0.000000 2.093260 0.000000 
#    z -0.059240 0.000000 2.253780 
# 
# From -- ./inp_files/22693.got.cif
#   From: 2010.05.17/outbox.cif.g08.bks.cpg/sg13_12_cif.got.tgz:22693.got - 2010.06.03 16:44:36.
