data_PCOD9232776
_publ_section_title
;
Structure prediction by ZEFSAII (Michael W. Deem and Ramdas Pophale) SiO2 
 PCOD9232776
Probable space group: P 2/C
;
_chemical_formula_sum "Si O2"
_cell_formula_units_Z 30
_cell_length_a 15.817191
_cell_length_b 5.486812
_cell_length_c 14.003851
_cell_angle_alpha 90.000000
_cell_angle_beta 82.642014
_cell_angle_gamma 90.000000
_cell_volume 1205.329668
_symmetry_space_group_name_H-M "P 2/C"
_symmetry_group_IT_number 13
_symmetry_cell_setting 'monoclinic'
loop_
_space_group_symop_operation_xyz
x,y,z
-x,y,1/2-z
-x,-y,-z
x,-y,1/2+z
loop_
_atom_site_type_symbol
_atom_site_label
_atom_site_fract_x
_atom_site_fract_y
_atom_site_fract_z
Si Si1 0.069710 0.201966 0.019616
Si Si2 0.679838 0.447371 0.450910
Si Si3 0.581723 0.950465 0.421014
Si Si4 0.663201 0.629751 0.651286
Si Si5 0.934445 0.396478 0.146941
Si Si6 0.207423 0.005834 0.885249
Si Si7 0.500000 0.143259 0.250000
Si Si8 0.792149 0.402048 0.777142
O O1 0.028763 0.284566 0.125584
O O2 0.067249 0.410665 0.939405
O O3 0.165432 0.110707 0.988940
O O4 0.000000 0.000000 0.000000
O O5 0.645636 0.182789 0.423680
O O6 0.681676 0.439116 0.565478
O O7 0.767221 0.548749 0.389911
O O8 0.617284 0.678048 0.434630
O O9 0.550314 0.976021 0.316832
O O10 0.500000 0.000000 0.500000
O O11 0.704211 0.878054 0.606275
O O12 0.566342 0.681205 0.687188
O O13 0.718971 0.564493 0.735501
O O14 0.864450 0.192538 0.132769
O O15 0.890015 0.532873 0.240750
O O16 0.217784 0.159749 0.785956
#
# Coordination Sequence:
#
# PCOD9232776 Si02
#       8
#     4   4   4   4   4   4   2   4
#     4   8  13  26  52  86 123 160 209 260 315 390
#     4  12  27  44  67  96 131 170 219 272 333 400
#     4  12  27  46  68  95 126 167 225 274 335 399
#     4  11  24  40  62  90 126 172 220 271 335 386
#     4   8  15  28  52  88 123 160 210 261 320 386
#     4   9  18  34  55  90 122 167 211 264 322 390
#     4  12  24  46  68  90 130 172 218 282 332 394
#     4  10  21  38  61  90 130 165 220 267 331 394
#
# _framework density 24.889455000000002
#
# number of rings (size 3 to 8) (size 9 to 14) (size 15 to 20)
#    0.000    1.867    2.667    1.200    3.733    1.600 
#    0.000    0.000    0.000    0.000    0.000  121.333 
#    0.000    0.000    0.000    0.000    0.000    0.000 
#
# Total GULP energy -167399.443925 kJ/mol
# GULP energy per Si atom -5579.981464 kJ/mol
# Density = 2.483281 g / cm^3
# Si number density = 24.889455 Si / 1000 Ang^3
#
#
#
# Elastic Constant Matrix: (Units=GPa)
#
#
# Indices 1 2 3 4 5 6 
#
# 1 64.7433 25.7335 36.6345 0.0000 -40.0584 0.0000
# 2 25.7335 94.8287 1.0557 0.0000 -6.3248 0.0000
# 3 36.6345 1.0557 68.3732 0.0000 -17.3532 0.0000
# 4 0.0000 0.0000 0.0000 23.8811 0.0000 -9.7998
# 5 -40.0584 -6.3248 -17.3532 0.0000 66.7756 0.0000
# 6 0.0000 0.0000 0.0000 -9.7998 0.0000 34.3276
#
#
#
# Elastic Compliance Matrix: (Units=1/GPa)
#
#
# Indices 1 2 3 4 5 6 
#
# 1 0.040449 -0.009522 -0.016697 0.000000 0.019024 0.000000
# 2 -0.009522 0.012854 0.004028 0.000000 -0.003448 0.000000
# 3 -0.016697 0.004028 0.022552 0.000000 -0.003774 0.000000
# 4 0.000000 0.000000 0.000000 0.047430 0.000000 0.013540
# 5 0.019024 -0.003448 -0.003774 0.000000 0.025081 0.000000
# 6 0.000000 0.000000 0.000000 0.013540 0.000000 0.032997
#
#
# Mechanical properties :
#
#
# Convention : Reuss Voigt Hill
#
# Bulk Modulus (GPa) = 31.77252 39.42138 35.59695
# Shear Modulus (GPa) = 21.16528 35.96497 28.56512
#
# Velocity S-wave (km/s) = 2.91928 3.80542 3.39142
# Velocity P-wave (km/s) = 4.91488 5.93138 5.44690
#
# Compressibility (1/GPa) = 0.03147374
#
# Stress axis : x y z
#
# Youngs Moduli (GPa) = 24.72246 77.79404 44.34213
#
# Poissons Ratio (x) = 0.74074 0.74039
# Poissons Ratio (y) = 0.23540 -0.17862
# Poissons Ratio (z) = 0.41280 -0.31338
#
# Static dielectric constant tensor:
#      x y z
#    x 1.959270 0.000000 -0.005370 
#    y 0.000000 2.058820 0.000000 
#    z -0.005370 0.000000 2.131920 
# 
# From -- ./inp_files/54631.got.cif
#   From: 2010.05.17/outbox.cif.g08.bks.cpg/sg13_28_cif.got.tgz:54631.got - 2010.06.03 16:44:36.
