data_PCOD9232984
_publ_section_title
;
Structure prediction by ZEFSAII (Michael W. Deem and Ramdas Pophale) SiO2 
 PCOD9232984
Probable space group: P 2/C
;
_chemical_formula_sum "Si O2"
_cell_formula_units_Z 24
_cell_length_a 8.813370
_cell_length_b 19.553310
_cell_length_c 14.697046
_cell_angle_alpha 90.000000
_cell_angle_beta 151.530681
_cell_angle_gamma 90.000000
_cell_volume 1207.331833
_symmetry_space_group_name_H-M "P 2/C"
_symmetry_group_IT_number 13
_symmetry_cell_setting 'monoclinic'
loop_
_space_group_symop_operation_xyz
x,y,z
-x,y,1/2-z
-x,-y,-z
x,-y,1/2+z
loop_
_atom_site_type_symbol
_atom_site_label
_atom_site_fract_x
_atom_site_fract_y
_atom_site_fract_z
Si Si1 0.236138 0.472759 0.550513
Si Si2 0.385386 0.710153 0.945898
Si Si3 0.384281 0.562521 0.876937
Si Si4 0.380948 0.182894 0.290665
Si Si5 0.378477 0.819283 0.084197
Si Si6 0.620390 0.922839 0.055979
O O1 0.500000 0.431860 0.750000
O O2 0.409007 0.539770 0.600881
O O3 0.000000 0.500000 0.500000
O O4 0.991886 0.437576 0.349710
O O5 0.480325 0.632805 0.975186
O O6 0.492395 0.755627 0.915812
O O7 0.000000 0.711286 0.750000
O O8 0.491764 0.749324 0.093445
O O9 0.500000 0.500000 0.000000
O O10 0.500000 0.189967 0.250000
O O11 0.500018 0.113601 0.400676
O O12 0.001200 0.182295 0.103195
O O13 0.500000 0.827950 0.250000
O O14 0.487225 0.878555 0.071257
O O15 0.000000 0.921115 0.250000
O O16 0.500000 0.000000 0.000000
#
# Coordination Sequence:
#
# PCOD9232984 Si02
#       6
#     4   4   4   4   4   4
#     4   9  20  36  54  79 111 144 186 243 302 369
#     4   9  20  38  59  84 118 157 203 253 306 366
#     4  11  20  37  59  82 112 152 196 249 311 369
#     4  10  21  39  61  88 121 159 201 248 299 363
#     4  10  21  41  63  88 122 163 205 251 303 362
#     4  11  22  39  64  95 127 161 200 248 299 355
#
# _framework density 19.878544999999999
#
# number of rings (size 3 to 8) (size 9 to 14) (size 15 to 20)
#    0.000    2.000    0.000    5.000    0.000    2.667 
#    0.000   29.167    0.000    0.000    0.000    0.000 
#    0.000    0.000    0.000    0.000    0.000    0.000 
#
# Total GULP energy -133697.048196 kJ/mol
# GULP energy per Si atom -5570.710341 kJ/mol
# Density = 1.983330 g / cm^3
# Si number density = 19.878545 Si / 1000 Ang^3
#
#
#
# Elastic Constant Matrix: (Units=GPa)
#
#
# Indices 1 2 3 4 5 6 
#
# 1 169.5571 58.1083 36.0128 0.0000 -10.4653 0.0000
# 2 58.1083 137.6295 22.4018 0.0000 -12.5427 0.0000
# 3 36.0128 22.4018 87.5812 0.0000 -4.8035 0.0000
# 4 0.0000 0.0000 0.0000 19.0074 0.0000 4.5042
# 5 -10.4653 -12.5427 -4.8035 0.0000 38.2953 0.0000
# 6 0.0000 0.0000 0.0000 4.5042 0.0000 16.3364
#
#
#
# Elastic Compliance Matrix: (Units=1/GPa)
#
#
# Indices 1 2 3 4 5 6 
#
# 1 0.007346 -0.002650 -0.002296 0.000000 0.000852 0.000000
# 2 -0.002650 0.008736 -0.001035 0.000000 0.002007 0.000000
# 3 -0.002296 -0.001035 0.012661 0.000000 0.000622 0.000000
# 4 0.000000 0.000000 0.000000 0.056289 0.000000 -0.015520
# 5 0.000852 0.002007 0.000622 0.000000 0.027081 0.000000
# 6 0.000000 0.000000 0.000000 -0.015520 0.000000 0.065492
#
#
# Mechanical properties :
#
#
# Convention : Reuss Voigt Hill
#
# Bulk Modulus (GPa) = 59.59088 69.75706 64.67397
# Shear Modulus (GPa) = 25.61990 33.27750 29.44870
#
# Velocity S-wave (km/s) = 3.59391 4.09594 3.85311
# Velocity P-wave (km/s) = 6.87489 7.58530 7.23882
#
# Compressibility (1/GPa) = 0.01678109
#
# Stress axis : x y z
#
# Youngs Moduli (GPa) = 136.12424 114.46610 78.98350
#
# Poissons Ratio (x) = 0.30337 0.18136
# Poissons Ratio (y) = 0.36077 0.08172
# Poissons Ratio (z) = 0.31256 0.11844
#
# Static dielectric constant tensor:
#      x y z
#    x 1.681560 0.000000 0.127540 
#    y 0.000000 1.705150 0.000000 
#    z 0.127540 0.000000 2.186210 
# 
# From -- ./inp_files/48130.got.cif
#   From: 2010.05.17/outbox.cif.g08.bks.cpg/sg13_25_cif.got.tgz:48130.got - 2010.06.03 16:44:36.
