data_PCOD9232820
_publ_section_title
;
Structure prediction by ZEFSAII (Michael W. Deem and Ramdas Pophale) SiO2 
 PCOD9232820
Probable space group: P 2/C
;
_chemical_formula_sum "Si O2"
_cell_formula_units_Z 26
_cell_length_a 17.579437
_cell_length_b 9.176955
_cell_length_c 23.617935
_cell_angle_alpha 90.000000
_cell_angle_beta 16.277011
_cell_angle_gamma 90.000000
_cell_volume 1067.923257
_symmetry_space_group_name_H-M "P 2/C"
_symmetry_group_IT_number 13
_symmetry_cell_setting 'monoclinic'
loop_
_space_group_symop_operation_xyz
x,y,z
-x,y,1/2-z
-x,-y,-z
x,-y,1/2+z
loop_
_atom_site_type_symbol
_atom_site_label
_atom_site_fract_x
_atom_site_fract_y
_atom_site_fract_z
Si Si1 0.599803 0.395590 0.289327
Si Si2 0.500000 0.143527 0.750000
Si Si3 0.099070 0.132735 0.830598
Si Si4 0.219659 0.710971 0.351230
Si Si5 0.700598 0.393768 0.889392
Si Si6 0.043977 0.921964 0.656193
Si Si7 0.500000 0.236175 0.250000
Si Si8 0.000000 0.622714 0.750000
O O1 0.584876 0.573404 0.303901
O O2 0.463402 0.325351 0.441159
O O3 0.458849 0.338905 0.333619
O O4 0.914972 0.350116 0.063704
O O5 0.715237 0.238680 0.632029
O O6 0.658773 0.067203 0.584570
O O7 0.238238 0.158171 0.792030
O O8 0.185888 0.273210 0.732961
O O9 0.143602 0.993310 0.758519
O O10 0.773399 0.149305 0.070499
O O11 0.914697 0.498822 0.765196
O O12 0.500000 0.500000 0.000000
O O13 0.000000 0.993824 0.750000
O O14 0.014376 0.752279 0.691070
#
# Coordination Sequence:
#
# PCOD9232820 Si02
#       8
#     4   2   4   4   4   4   2   2
#     4  10  21  38  63 108 143 177 236 297 361 428
#     4  12  24  48  76  92 147 198 241 300 361 432
#     4  11  24  46  70 108 143 187 247 296 360 435
#     4  10  23  41  69 105 139 189 242 294 362 433
#     4  12  24  42  75 106 145 187 235 305 361 433
#     4  10  27  46  70 103 143 188 247 291 365 431
#     4  10  22  38  70 100 141 190 237 294 361 426
#     4  10  26  44  68 110 144 190 246 290 366 432
#
# _framework density 24.346319999999999
#
# number of rings (size 3 to 8) (size 9 to 14) (size 15 to 20)
#    0.462    0.923    1.538    2.769    5.385    0.615 
#    0.000    3.077    0.000    0.000    0.000    0.000 
#    0.000    0.000    0.000    0.000    0.000    0.000 
#
# Total GULP energy -144827.259539 kJ/mol
# GULP energy per Si atom -5570.279213 kJ/mol
# Density = 2.429091 g / cm^3
# Si number density = 24.346320 Si / 1000 Ang^3
#
#
#
# Elastic Constant Matrix: (Units=GPa)
#
#
# Indices 1 2 3 4 5 6 
#
# 1 187.6249 21.5183 51.0438 0.0000 7.6880 0.0000
# 2 21.5183 70.4392 -52.0016 0.0000 -2.5220 0.0000
# 3 51.0438 -52.0016 252.9211 0.0000 24.2861 0.0000
# 4 0.0000 0.0000 0.0000 70.9845 0.0000 33.2103
# 5 7.6880 -2.5220 24.2861 0.0000 38.4026 0.0000
# 6 0.0000 0.0000 0.0000 33.2103 0.0000 54.4955
#
#
#
# Elastic Compliance Matrix: (Units=1/GPa)
#
#
# Indices 1 2 3 4 5 6 
#
# 1 0.006246 -0.003336 -0.001922 0.000000 -0.000254 0.000000
# 2 -0.003336 0.018567 0.004588 0.000000 -0.001014 0.000000
# 3 -0.001922 0.004588 0.005557 0.000000 -0.002828 0.000000
# 4 0.000000 0.000000 0.000000 0.019706 0.000000 -0.012009
# 5 -0.000254 -0.001014 -0.002828 0.000000 0.027813 0.000000
# 6 0.000000 0.000000 0.000000 -0.012009 0.000000 0.025669
#
#
# Mechanical properties :
#
#
# Convention : Reuss Voigt Hill
#
# Bulk Modulus (GPa) = 34.44854 61.34515 47.89685
# Shear Modulus (GPa) = 43.64059 65.47149 54.55604
#
# Velocity S-wave (km/s) = 4.23838 5.19135 4.73888
# Velocity P-wave (km/s) = 6.17510 7.82209 7.04688
#
# Compressibility (1/GPa) = 0.02902880
#
# Stress axis : x y z
#
# Youngs Moduli (GPa) = 160.11104 53.86042 179.96800
#
# Poissons Ratio (x) = 0.17968 0.34590
# Poissons Ratio (y) = 0.53413 -0.82569
# Poissons Ratio (z) = 0.30773 -0.24711
#
# Static dielectric constant tensor:
#      x y z
#    x 1.880950 0.000000 0.073470 
#    y 0.000000 1.966970 0.000000 
#    z 0.073470 0.000000 1.884470 
# 
# From -- ./inp_files/88028.got.cif
#   From: 2010.05.17/outbox.cif.g08.bks.cpg/sg13_45_cif.got.tgz:88028.got - 2010.06.03 16:44:36.
