data_PCOD9232413
_publ_section_title
;
Structure prediction by ZEFSAII (Michael W. Deem and Ramdas Pophale) SiO2 
 PCOD9232413
Probable space group: P 2/C
;
_chemical_formula_sum "Si O2"
_cell_formula_units_Z 20
_cell_length_a 8.731963
_cell_length_b 6.783575
_cell_length_c 15.488927
_cell_angle_alpha 90.000000
_cell_angle_beta 74.241623
_cell_angle_gamma 90.000000
_cell_volume 882.987341
_symmetry_space_group_name_H-M "P 2/C"
_symmetry_group_IT_number 13
_symmetry_cell_setting 'monoclinic'
loop_
_space_group_symop_operation_xyz
x,y,z
-x,y,1/2-z
-x,-y,-z
x,-y,1/2+z
loop_
_atom_site_type_symbol
_atom_site_label
_atom_site_fract_x
_atom_site_fract_y
_atom_site_fract_z
Si Si1 0.807467 0.870790 0.112580
Si Si2 0.390195 0.576010 0.439043
Si Si3 0.308691 0.393952 0.713875
Si Si4 0.883578 0.387650 0.929677
Si Si5 0.907844 0.264099 0.179756
O O1 0.688555 0.795090 0.055139
O O2 0.731245 0.771697 0.209917
O O3 0.980015 0.770378 0.073707
O O4 0.836779 0.095480 0.130654
O O5 0.500000 0.500000 0.500000
O O6 0.510215 0.565252 0.340815
O O7 0.235640 0.438461 0.474063
O O8 0.218769 0.330487 0.639048
O O9 0.226833 0.592241 0.761185
O O10 0.969510 0.590682 0.887560
O O11 0.000000 0.177539 0.250000
#
# Coordination Sequence:
#
# PCOD9232413 Si02
#       5
#     4   4   4   4   4
#     4  11  19  34  60  83 107 147 194 232 276 339
#     4  10  21  37  55  80 117 154 186 230 286 333
#     4   9  19  37  57  80 112 147 185 233 285 339
#     4   9  19  36  58  82 111 145 185 235 286 337
#     4   9  18  34  59  87 111 143 192 241 282 334
#
# _framework density 22.650383000000001
#
# number of rings (size 3 to 8) (size 9 to 14) (size 15 to 20)
#    0.000    2.400    0.000    4.200    0.000    0.800 
#    0.000   10.000    0.000   21.600    0.000    0.000 
#    0.000    0.000    0.000    0.000    0.000    0.000 
#
# Total GULP energy -111669.552770 kJ/mol
# GULP energy per Si atom -5583.477639 kJ/mol
# Density = 2.259883 g / cm^3
# Si number density = 22.650383 Si / 1000 Ang^3
#
#
#
# Elastic Constant Matrix: (Units=GPa)
#
#
# Indices 1 2 3 4 5 6 
#
# 1 115.3692 35.7306 45.7424 0.0000 -11.0798 0.0000
# 2 35.7306 99.3159 12.6045 0.0000 1.0402 0.0000
# 3 45.7424 12.6045 75.1992 0.0000 -40.6424 0.0000
# 4 0.0000 0.0000 0.0000 10.8146 0.0000 15.8831
# 5 -11.0798 1.0402 -40.6424 0.0000 60.1224 0.0000
# 6 0.0000 0.0000 0.0000 15.8831 0.0000 23.9146
#
#
#
# Elastic Compliance Matrix: (Units=1/GPa)
#
#
# Indices 1 2 3 4 5 6 
#
# 1 0.013159 -0.003477 -0.009578 0.000000 -0.003989 0.000000
# 2 -0.003477 0.011380 -0.000387 0.000000 -0.001099 0.000000
# 3 -0.009578 -0.000387 0.028738 0.000000 0.017668 0.000000
# 4 0.000000 0.000000 0.000000 3.763493 0.000000 -2.499562
# 5 -0.003989 -0.001099 0.017668 0.000000 0.027860 0.000000
# 6 0.000000 0.000000 0.000000 -2.499562 0.000000 1.701924
#
#
# Mechanical properties :
#
#
# Convention : Reuss Voigt Hill
#
# Bulk Modulus (GPa) = 37.88607 53.11550 45.50079
# Shear Modulus (GPa) = 0.89570 32.02413 16.45991
#
# Velocity S-wave (km/s) = 0.62953 3.76419 2.69865
# Velocity P-wave (km/s) = 4.15827 6.51101 5.46280
#
# Compressibility (1/GPa) = 0.02639493
#
# Stress axis : x y z
#
# Youngs Moduli (GPa) = 75.99412 87.87118 34.79754
#
# Poissons Ratio (x) = 0.30551 0.33328
# Poissons Ratio (y) = 0.26422 0.01345
# Poissons Ratio (z) = 0.72784 0.03396
#
# Static dielectric constant tensor:
#      x y z
#    x 1.919760 0.000000 0.083070 
#    y 0.000000 1.787230 0.000000 
#    z 0.083070 0.000000 1.908310 
# 
# From -- ./inp_files/74454.got.cif
#   From: 2010.05.17/outbox.cif.g08.bks.cpg/sg13_38_cif.got.tgz:74454.got - 2010.06.03 16:44:36.
