data_PCOD9232981
_publ_section_title
;
Structure prediction by ZEFSAII (Michael W. Deem and Ramdas Pophale) SiO2 
 PCOD9232981
Probable space group: P 2/C
;
_chemical_formula_sum "Si O2"
_cell_formula_units_Z 26
_cell_length_a 20.028420
_cell_length_b 6.323641
_cell_length_c 26.979342
_cell_angle_alpha 90.000000
_cell_angle_beta 158.973697
_cell_angle_gamma 90.000000
_cell_volume 1226.008387
_symmetry_space_group_name_H-M "P 2/C"
_symmetry_group_IT_number 13
_symmetry_cell_setting 'monoclinic'
loop_
_space_group_symop_operation_xyz
x,y,z
-x,y,1/2-z
-x,-y,-z
x,-y,1/2+z
loop_
_atom_site_type_symbol
_atom_site_label
_atom_site_fract_x
_atom_site_fract_y
_atom_site_fract_z
Si Si1 0.808319 0.729208 0.342247
Si Si2 0.000000 0.352727 0.750000
Si Si3 0.159573 0.998272 0.931781
Si Si4 0.466166 0.964106 0.063081
Si Si5 0.257254 0.676999 0.756618
Si Si6 0.097584 0.981980 0.999726
Si Si7 0.183734 0.319815 0.313106
O O1 0.646683 0.821492 0.195543
O O2 0.779870 0.482040 0.314125
O O3 0.788100 0.843802 0.381377
O O4 0.010540 0.806650 0.463311
O O5 0.068610 0.201841 0.841905
O O6 0.160053 0.503193 0.838624
O O7 0.190994 0.026514 0.011944
O O8 0.013186 0.805157 0.824714
O O9 0.343639 0.956171 0.027917
O O10 0.549158 0.197168 0.112175
O O11 0.335152 0.859898 0.930899
O O12 0.234374 0.577909 0.795430
O O13 0.087992 0.843544 0.638211
#
# Coordination Sequence:
#
# PCOD9232981 Si02
#       7
#     4   2   4   4   4   4   4
#     4  10  21  39  61  88 116 156 205 257 304 361
#     4  12  20  36  64  84 120 168 212 248 306 380
#     4  11  22  39  60  85 121 164 198 254 313 361
#     4  11  22  37  56  88 131 153 199 259 308 362
#     4  10  22  37  63  87 120 162 204 250 311 366
#     4   9  21  41  62  83 116 157 207 256 301 365
#     4  11  22  39  57  91 123 163 208 251 301 375
#
# _framework density 21.207032000000002
#
# number of rings (size 3 to 8) (size 9 to 14) (size 15 to 20)
#    0.000    1.538    3.077    1.846    2.154    1.231 
#    0.000    0.000    0.000    5.538    0.000    0.000 
#    0.000    0.000    0.000    0.000    0.000    0.000 
#
# Total GULP energy -145109.801604 kJ/mol
# GULP energy per Si atom -5581.146216 kJ/mol
# Density = 2.115876 g / cm^3
# Si number density = 21.207032 Si / 1000 Ang^3
#
#
#
# Elastic Constant Matrix: (Units=GPa)
#
#
# Indices 1 2 3 4 5 6 
#
# 1 99.7412 33.7897 20.0440 0.0000 -9.6970 0.0000
# 2 33.7897 79.3218 17.3857 0.0000 4.3451 0.0000
# 3 20.0440 17.3857 46.3868 0.0000 7.6097 0.0000
# 4 0.0000 0.0000 0.0000 23.1980 0.0000 -3.4728
# 5 -9.6970 4.3451 7.6097 0.0000 21.8569 0.0000
# 6 0.0000 0.0000 0.0000 -3.4728 0.0000 25.4970
#
#
#
# Elastic Compliance Matrix: (Units=1/GPa)
#
#
# Indices 1 2 3 4 5 6 
#
# 1 0.013754 -0.005149 -0.005496 0.000000 0.009039 0.000000
# 2 -0.005149 0.015684 -0.002934 0.000000 -0.004381 0.000000
# 3 -0.005496 -0.002934 0.026872 0.000000 -0.011211 0.000000
# 4 0.000000 0.000000 0.000000 0.044004 0.000000 0.005994
# 5 0.009039 -0.004381 -0.011211 0.000000 0.054536 0.000000
# 6 0.000000 0.000000 0.000000 0.005994 0.000000 0.040037
#
#
# Mechanical properties :
#
#
# Convention : Reuss Voigt Hill
#
# Bulk Modulus (GPa) = 34.30608 40.87652 37.59130
# Shear Modulus (GPa) = 21.57383 24.39240 22.98312
#
# Velocity S-wave (km/s) = 3.19297 3.39514 3.29561
# Velocity P-wave (km/s) = 5.45942 5.88950 5.67853
#
# Compressibility (1/GPa) = 0.02914935
#
# Stress axis : x y z
#
# Youngs Moduli (GPa) = 72.70793 63.76103 37.21404
#
# Poissons Ratio (x) = 0.32833 0.20452
# Poissons Ratio (y) = 0.37440 0.10920
# Poissons Ratio (z) = 0.39960 0.18710
#
# Static dielectric constant tensor:
#      x y z
#    x 1.791410 0.000000 -0.030020 
#    y 0.000000 1.823410 0.000000 
#    z -0.030020 0.000000 1.752770 
# 
# From -- ./inp_files/97459.got.cif
#   From: 2010.05.17/outbox.cif.g08.bks.cpg/sg13_49_cif.got.tgz:97459.got - 2010.06.03 16:44:36.
