data_PCOD9232721
_publ_section_title
;
Structure prediction by ZEFSAII (Michael W. Deem and Ramdas Pophale) SiO2 
 PCOD9232721
Probable space group: P 2/C
;
_chemical_formula_sum "Si O2"
_cell_formula_units_Z 24
_cell_length_a 9.244739
_cell_length_b 8.504451
_cell_length_c 14.198054
_cell_angle_alpha 90.000000
_cell_angle_beta 74.201425
_cell_angle_gamma 90.000000
_cell_volume 1074.103896
_symmetry_space_group_name_H-M "P 2/C"
_symmetry_group_IT_number 13
_symmetry_cell_setting 'monoclinic'
loop_
_space_group_symop_operation_xyz
x,y,z
-x,y,1/2-z
-x,-y,-z
x,-y,1/2+z
loop_
_atom_site_type_symbol
_atom_site_label
_atom_site_fract_x
_atom_site_fract_y
_atom_site_fract_z
Si Si1 0.374489 0.416448 0.960682
Si Si2 0.218213 0.034314 0.455694
Si Si3 0.867565 0.769124 0.882351
Si Si4 0.834311 0.036883 0.753707
Si Si5 0.486168 0.897209 0.142705
Si Si6 0.121344 0.620787 0.934130
O O1 0.444427 0.271926 0.891349
O O2 0.277338 0.526116 0.907761
O O3 0.500000 0.500000 0.000000
O O4 0.259574 0.346441 0.058043
O O5 0.162707 0.212908 0.476642
O O6 0.138307 0.913304 0.540422
O O7 0.185488 0.971094 0.355116
O O8 0.400876 0.016871 0.431534
O O9 0.024957 0.678770 0.861942
O O10 0.829687 0.859550 0.794489
O O11 0.694069 0.112138 0.834434
O O12 0.000000 0.100685 0.750000
O O13 0.500000 0.941605 0.250000
O O14 0.000000 0.500000 0.000000
#
# Coordination Sequence:
#
# PCOD9232721 Si02
#       6
#     4   4   4   4   4   4
#     4  10  23  39  61  88 126 166 206 251 319 385
#     4  10  21  40  67  89 124 167 207 266 312 367
#     4  10  22  40  64  92 125 164 212 259 311 378
#     4  11  22  37  65  97 120 154 221 263 310 368
#     4   9  22  42  59  90 121 163 215 256 310 380
#     4  10  21  38  59  90 125 161 201 254 324 375
#
# _framework density 22.344207000000001
#
# number of rings (size 3 to 8) (size 9 to 14) (size 15 to 20)
#    0.000    2.000    1.667    0.500    4.667    1.333 
#    3.000    0.000    0.000    4.000    0.000    0.000 
#    0.000    0.000    0.000    0.000    0.000    0.000 
#
# Total GULP energy -133797.490706 kJ/mol
# GULP energy per Si atom -5574.895446 kJ/mol
# Density = 2.229335 g / cm^3
# Si number density = 22.344207 Si / 1000 Ang^3
#
#
#
# Elastic Constant Matrix: (Units=GPa)
#
#
# Indices 1 2 3 4 5 6 
#
# 1 171.3664 46.5315 13.9849 0.0000 -26.9728 0.0000
# 2 46.5315 100.4067 1.9315 0.0000 -15.9928 0.0000
# 3 13.9849 1.9315 61.0055 0.0000 -6.2472 0.0000
# 4 0.0000 0.0000 0.0000 29.9586 0.0000 1.1318
# 5 -26.9728 -15.9928 -6.2472 0.0000 32.5156 0.0000
# 6 0.0000 0.0000 0.0000 1.1318 0.0000 38.4579
#
#
#
# Elastic Compliance Matrix: (Units=1/GPa)
#
#
# Indices 1 2 3 4 5 6 
#
# 1 0.007374 -0.002665 -0.001136 0.000000 0.004588 0.000000
# 2 -0.002665 0.011772 0.000617 0.000000 0.003698 0.000000
# 3 -0.001136 0.000617 0.016900 0.000000 0.002608 0.000000
# 4 0.000000 0.000000 0.000000 0.033417 0.000000 -0.000983
# 5 0.004588 0.003698 0.002608 0.000000 0.036880 0.000000
# 6 0.000000 0.000000 0.000000 -0.000983 0.000000 0.026031
#
#
# Mechanical properties :
#
#
# Convention : Reuss Voigt Hill
#
# Bulk Modulus (GPa) = 33.69579 50.85271 42.27425
# Shear Modulus (GPa) = 33.63972 38.20847 35.92409
#
# Velocity S-wave (km/s) = 3.88432 4.13969 4.01404
# Velocity P-wave (km/s) = 5.93551 6.75704 6.35956
#
# Compressibility (1/GPa) = 0.02967730
#
# Stress axis : x y z
#
# Youngs Moduli (GPa) = 135.61453 84.95085 59.17179
#
# Poissons Ratio (x) = 0.22636 0.06723
# Poissons Ratio (y) = 0.36136 -0.03650
# Poissons Ratio (z) = 0.15408 -0.05240
#
# Static dielectric constant tensor:
#      x y z
#    x 1.960170 0.000000 0.006950 
#    y 0.000000 1.816360 0.000000 
#    z 0.006950 0.000000 1.854400 
# 
# From -- ./inp_files/46016.got.cif
#   From: 2010.05.17/outbox.cif.g08.bks.cpg/sg13_24_cif.got.tgz:46016.got - 2010.06.03 16:44:36.
