data_PCOD9232257
_publ_section_title
;
Structure prediction by ZEFSAII (Michael W. Deem and Ramdas Pophale) SiO2 
 PCOD9232257
Probable space group: P 2/C
;
_chemical_formula_sum "Si O2"
_cell_formula_units_Z 24
_cell_length_a 8.488614
_cell_length_b 16.996198
_cell_length_c 7.867930
_cell_angle_alpha 90.000000
_cell_angle_beta 80.681083
_cell_angle_gamma 90.000000
_cell_volume 1120.157809
_symmetry_space_group_name_H-M "P 2/C"
_symmetry_group_IT_number 13
_symmetry_cell_setting 'monoclinic'
loop_
_space_group_symop_operation_xyz
x,y,z
-x,y,1/2-z
-x,-y,-z
x,-y,1/2+z
loop_
_atom_site_type_symbol
_atom_site_label
_atom_site_fract_x
_atom_site_fract_y
_atom_site_fract_z
Si Si1 0.314896 0.237182 0.835257
Si Si2 0.814827 0.081343 0.748620
Si Si3 0.737951 0.612692 0.353123
Si Si4 0.382785 0.946611 0.905109
Si Si5 0.833693 0.538837 0.683055
Si Si6 0.582851 0.351642 0.405585
O O1 0.500000 0.220894 0.750000
O O2 0.219547 0.156718 0.861369
O O3 0.237986 0.298333 0.713711
O O4 0.326146 0.284750 0.007870
O O5 0.000000 0.068313 0.750000
O O6 0.733667 0.005352 0.677342
O O7 0.723139 0.100130 0.941804
O O8 0.834209 0.580112 0.499137
O O9 0.780682 0.552386 0.195315
O O10 0.553813 0.612741 0.447634
O O11 0.500000 0.904614 0.750000
O O12 0.500000 0.000000 0.000000
O O13 0.698418 0.581727 0.816112
O O14 0.000000 0.547475 0.750000
O O15 0.500000 0.318502 0.250000
#
# Coordination Sequence:
#
# PCOD9232257 Si02
#       6
#     4   4   4   4   4   4
#     4  10  21  39  60  83 113 154 197 241 295 362
#     4  11  22  38  63  95 127 155 194 252 307 355
#     4  10  21  36  55  79 109 151 197 241 292 354
#     4   9  19  39  65  89 118 160 202 237 284 361
#     4  11  21  34  54  80 112 148 193 249 302 355
#     4   9  20  38  58  78 106 148 199 246 289 353
#
# _framework density 21.425553000000001
#
# number of rings (size 3 to 8) (size 9 to 14) (size 15 to 20)
#    0.000    2.000    0.000    4.000    0.000    6.667 
#    0.000   19.167    0.000    2.000    0.000    0.000 
#    0.000    0.000    0.000    0.000    0.000    0.000 
#
# Total GULP energy -134112.632668 kJ/mol
# GULP energy per Si atom -5588.026361 kJ/mol
# Density = 2.137679 g / cm^3
# Si number density = 21.425553 Si / 1000 Ang^3
#
#
#
# Elastic Constant Matrix: (Units=GPa)
#
#
# Indices 1 2 3 4 5 6 
#
# 1 94.1300 26.7475 21.7970 0.0000 14.2691 0.0000
# 2 26.7475 61.7061 -0.5637 0.0000 13.9143 0.0000
# 3 21.7970 -0.5637 73.4254 0.0000 10.1261 0.0000
# 4 0.0000 0.0000 0.0000 50.4234 0.0000 11.2637
# 5 14.2691 13.9143 10.1261 0.0000 29.7298 0.0000
# 6 0.0000 0.0000 0.0000 11.2637 0.0000 23.7360
#
#
#
# Elastic Compliance Matrix: (Units=1/GPa)
#
#
# Indices 1 2 3 4 5 6 
#
# 1 0.013358 -0.005206 -0.003628 0.000000 -0.002739 0.000000
# 2 -0.005206 0.020280 0.002797 0.000000 -0.007945 0.000000
# 3 -0.003628 0.002797 0.015381 0.000000 -0.004806 0.000000
# 4 0.000000 0.000000 0.000000 0.022184 0.000000 -0.010527
# 5 -0.002739 -0.007945 -0.004806 0.000000 0.040307 0.000000
# 6 0.000000 0.000000 0.000000 -0.010527 0.000000 0.047126
#
#
# Mechanical properties :
#
#
# Convention : Reuss Voigt Hill
#
# Bulk Modulus (GPa) = 27.06724 36.13588 31.60156
# Shear Modulus (GPa) = 27.31907 32.86323 30.09115
#
# Velocity S-wave (km/s) = 3.57469 3.92067 3.75167
# Velocity P-wave (km/s) = 5.44963 6.11538 5.79208
#
# Compressibility (1/GPa) = 0.03694503
#
# Stress axis : x y z
#
# Youngs Moduli (GPa) = 74.86075 49.31075 65.01733
#
# Poissons Ratio (x) = 0.25670 0.23586
# Poissons Ratio (y) = 0.38971 -0.18184
# Poissons Ratio (z) = 0.27157 -0.13791
#
# Static dielectric constant tensor:
#      x y z
#    x 1.778680 0.000000 0.009790 
#    y 0.000000 1.732950 0.000000 
#    z 0.009790 0.000000 1.840210 
# 
# From -- ./inp_files/12420.got.cif
#   From: 2010.05.17/outbox.cif.g08.bks.cpg/sg13_7_cif.got.tgz:12420.got - 2010.06.03 16:44:36.
