data_PCOD9232575
_publ_section_title
;
Structure prediction by ZEFSAII (Michael W. Deem and Ramdas Pophale) SiO2 
 PCOD9232575
Probable space group: P 2/C
;
_chemical_formula_sum "Si O2"
_cell_formula_units_Z 32
_cell_length_a 11.418668
_cell_length_b 17.353480
_cell_length_c 21.788887
_cell_angle_alpha 90.000000
_cell_angle_beta 157.970538
_cell_angle_gamma 90.000000
_cell_volume 1619.439813
_symmetry_space_group_name_H-M "P 2/C"
_symmetry_group_IT_number 13
_symmetry_cell_setting 'monoclinic'
loop_
_space_group_symop_operation_xyz
x,y,z
-x,y,1/2-z
-x,-y,-z
x,-y,1/2+z
loop_
_atom_site_type_symbol
_atom_site_label
_atom_site_fract_x
_atom_site_fract_y
_atom_site_fract_z
Si Si1 0.571598 0.960524 0.601094
Si Si2 0.144599 0.828350 0.598124
Si Si3 0.125863 0.586459 0.564232
Si Si4 0.709847 0.766744 0.569199
Si Si5 0.806189 0.806483 0.097925
Si Si6 0.861413 0.272241 0.855378
Si Si7 0.851991 0.305777 0.024318
Si Si8 0.196131 0.912909 0.965485
O O1 0.385391 0.880279 0.519155
O O2 0.929081 0.943296 0.789591
O O3 0.500000 0.000000 0.500000
O O4 0.454721 0.022089 0.593939
O O5 0.500000 0.842231 0.750000
O O6 0.952201 0.795215 0.447220
O O7 0.111917 0.758068 0.631516
O O8 0.969170 0.894620 0.550429
O O9 0.500000 0.588677 0.750000
O O10 0.000000 0.500000 0.500000
O O11 0.009826 0.648616 0.455819
O O12 0.974997 0.618277 0.553385
O O13 0.435605 0.752279 0.483217
O O14 0.804548 0.695370 0.573543
O O15 0.656152 0.836657 0.494624
O O16 0.000000 0.792676 0.750000
O O17 0.000000 0.838574 0.250000
O O18 0.994109 0.758415 0.138641
O O19 0.489915 0.284750 0.669091
#
# Coordination Sequence:
#
# PCOD9232575 Si02
#       8
#     4   4   4   4   4   4   4   4
#     4  12  22  37  57  83 115 157 208 260 313 371
#     4  10  21  38  58  81 114 155 201 251 309 360
#     4  11  23  41  68  95 125 164 202 244 296 359
#     4  11  21  37  60  88 122 156 199 252 308 360
#     4  12  23  37  60  93 121 158 205 255 311 365
#     4  11  22  39  63  94 124 158 202 253 300 368
#     4  10  21  37  62  94 124 153 201 252 296 359
#     4  11  23  38  55  82 113 154 206 260 311 367
#
# _framework density 19.759920000000001
#
# number of rings (size 3 to 8) (size 9 to 14) (size 15 to 20)
#    0.000    1.000    3.750    5.625    3.500    0.000 
#    0.000    3.750    0.000    3.000    0.000    0.000 
#    0.000    0.000    0.000    0.000    0.000    0.000 
#
# Total GULP energy -178570.793039 kJ/mol
# GULP energy per Si atom -5580.337282 kJ/mol
# Density = 1.971495 g / cm^3
# Si number density = 19.759920 Si / 1000 Ang^3
#
#
#
# Elastic Constant Matrix: (Units=GPa)
#
#
# Indices 1 2 3 4 5 6 
#
# 1 140.9116 55.4194 34.9395 0.0000 28.9138 0.0000
# 2 55.4194 94.9097 26.0130 0.0000 13.2768 0.0000
# 3 34.9395 26.0130 82.0665 0.0000 19.3327 0.0000
# 4 0.0000 0.0000 0.0000 24.6140 0.0000 7.5568
# 5 28.9138 13.2768 19.3327 0.0000 33.7967 0.0000
# 6 0.0000 0.0000 0.0000 7.5568 0.0000 27.3288
#
#
#
# Elastic Compliance Matrix: (Units=1/GPa)
#
#
# Indices 1 2 3 4 5 6 
#
# 1 0.010726 -0.004963 -0.001492 0.000000 -0.006373 0.000000
# 2 -0.004963 0.014072 -0.002364 0.000000 0.000070 0.000000
# 3 -0.001492 -0.002364 0.015083 0.000000 -0.006422 0.000000
# 4 0.000000 0.000000 0.000000 0.044396 0.000000 -0.012276
# 5 -0.006373 0.000070 -0.006422 0.000000 0.038688 0.000000
# 6 0.000000 0.000000 0.000000 -0.012276 0.000000 0.039986
#
#
# Mechanical properties :
#
#
# Convention : Reuss Voigt Hill
#
# Bulk Modulus (GPa) = 44.95732 61.18127 53.06930
# Shear Modulus (GPa) = 26.59521 30.58229 28.58875
#
# Velocity S-wave (km/s) = 3.67265 3.93834 3.80782
# Velocity P-wave (km/s) = 6.38637 7.19098 6.80058
#
# Compressibility (1/GPa) = 0.02224332
#
# Stress axis : x y z
#
# Youngs Moduli (GPa) = 93.23002 71.06148 66.30024
#
# Poissons Ratio (x) = 0.35265 0.09893
# Poissons Ratio (y) = 0.46267 0.15675
# Poissons Ratio (z) = 0.13912 0.16800
#
# Static dielectric constant tensor:
#      x y z
#    x 1.754170 0.000000 -0.005770 
#    y 0.000000 1.681100 0.000000 
#    z -0.005770 0.000000 1.758220 
# 
# From -- ./inp_files/86677.got.cif
#   From: 2010.05.17/outbox.cif.g08.bks.cpg/sg13_44_cif.got.tgz:86677.got - 2010.06.03 16:44:36.
