data_PCOD9232990
_publ_section_title
;
Structure prediction by ZEFSAII (Michael W. Deem and Ramdas Pophale) SiO2 
 PCOD9232990
Probable space group: P 2/C
;
_chemical_formula_sum "Si O2"
_cell_formula_units_Z 28
_cell_length_a 8.539947
_cell_length_b 15.404174
_cell_length_c 13.592161
_cell_angle_alpha 90.000000
_cell_angle_beta 54.098948
_cell_angle_gamma 90.000000
_cell_volume 1448.383849
_symmetry_space_group_name_H-M "P 2/C"
_symmetry_group_IT_number 13
_symmetry_cell_setting 'monoclinic'
loop_
_space_group_symop_operation_xyz
x,y,z
-x,y,1/2-z
-x,-y,-z
x,-y,1/2+z
loop_
_atom_site_type_symbol
_atom_site_label
_atom_site_fract_x
_atom_site_fract_y
_atom_site_fract_z
Si Si1 0.000000 0.851808 0.250000
Si Si2 0.267805 0.588260 0.807269
Si Si3 0.673538 0.245058 0.109936
Si Si4 0.215114 0.249993 0.982735
Si Si5 0.356515 0.278207 0.602063
Si Si6 0.991288 0.098327 0.969368
Si Si7 0.000000 0.669792 0.750000
Si Si8 0.275449 0.605387 0.302900
O O1 0.187762 0.791211 0.177757
O O2 0.984877 0.904608 0.156249
O O3 0.500000 0.584715 0.750000
O O4 0.209494 0.671804 0.892792
O O5 0.194051 0.490612 0.851532
O O6 0.175117 0.614122 0.735350
O O7 0.500000 0.229926 0.250000
O O8 0.605780 0.277787 0.028188
O O9 0.799699 0.157772 0.057371
O O10 0.442927 0.251805 0.921992
O O11 0.188559 0.320507 0.904749
O O12 0.150932 0.157377 0.964503
O O13 0.100613 0.275256 0.125038
O O14 0.278936 0.363786 0.687672
O O15 0.000000 0.000000 0.000000
O O16 0.500000 0.600681 0.250000
#
# Coordination Sequence:
#
# PCOD9232990 Si02
#       8
#     2   4   4   4   4   4   2   4
#     4  10  22  44  66  98 120 164 214 258 336 378
#     4  10  21  39  61  90 134 171 217 267 318 383
#     4  10  21  43  62  91 132 170 208 260 327 379
#     4  11  22  41  63  92 131 165 214 265 319 377
#     4  10  21  39  70  90 126 170 210 262 323 380
#     4  11  24  44  67  92 127 163 210 270 320 390
#     4  12  24  38  60  98 130 176 220 254 332 390
#     4   9  20  38  61  93 124 170 216 261 312 378
#
# _framework density 19.331890999999999
#
# number of rings (size 3 to 8) (size 9 to 14) (size 15 to 20)
#    0.000    1.714    2.857    1.714    0.000    2.857 
#    2.571    7.857    0.000    0.000    0.000    0.000 
#    0.000    0.000    0.000    0.000    0.000    0.000 
#
# Total GULP energy -155910.936610 kJ/mol
# GULP energy per Si atom -5568.247736 kJ/mol
# Density = 1.928789 g / cm^3
# Si number density = 19.331891 Si / 1000 Ang^3
#
#
#
# Elastic Constant Matrix: (Units=GPa)
#
#
# Indices 1 2 3 4 5 6 
#
# 1 112.7251 43.9748 45.0391 0.0000 10.9326 0.0000
# 2 43.9748 164.7326 57.7171 0.0000 18.8190 0.0000
# 3 45.0391 57.7171 126.9929 0.0000 13.5359 0.0000
# 4 0.0000 0.0000 0.0000 20.0120 0.0000 7.4623
# 5 10.9326 18.8190 13.5359 0.0000 38.0925 0.0000
# 6 0.0000 0.0000 0.0000 7.4623 0.0000 18.4794
#
#
#
# Elastic Compliance Matrix: (Units=1/GPa)
#
#
# Indices 1 2 3 4 5 6 
#
# 1 0.010832 -0.001727 -0.002927 0.000000 -0.001215 0.000000
# 2 -0.001727 0.007731 -0.002647 0.000000 -0.002383 0.000000
# 3 -0.002927 -0.002647 0.010276 0.000000 -0.001504 0.000000
# 4 0.000000 0.000000 0.000000 0.058828 0.000000 -0.023756
# 5 -0.001215 -0.002383 -0.001504 0.000000 0.028312 0.000000
# 6 0.000000 0.000000 0.000000 -0.023756 0.000000 0.063707
#
#
# Mechanical properties :
#
#
# Convention : Reuss Voigt Hill
#
# Bulk Modulus (GPa) = 70.24270 77.54584 73.89427
# Shear Modulus (GPa) = 25.12101 32.49808 28.80954
#
# Velocity S-wave (km/s) = 3.60871 4.10452 3.86458
# Velocity P-wave (km/s) = 7.33333 7.91598 7.63022
#
# Compressibility (1/GPa) = 0.01423635
#
# Stress axis : x y z
#
# Youngs Moduli (GPa) = 92.31575 129.34508 97.31389
#
# Poissons Ratio (x) = 0.22341 0.28486
# Poissons Ratio (y) = 0.15945 0.25761
# Poissons Ratio (z) = 0.27023 0.34240
#
# Static dielectric constant tensor:
#      x y z
#    x 1.729830 0.000000 -0.005000 
#    y 0.000000 1.649630 0.000000 
#    z -0.005000 0.000000 1.732350 
# 
# From -- ./inp_files/30355.got.cif
#   From: 2010.05.17/outbox.cif.g08.bks.cpg/sg13_16_cif.got.tgz:30355.got - 2010.06.03 16:44:36.
