data_PCOD9232934
_publ_section_title
;
Structure prediction by ZEFSAII (Michael W. Deem and Ramdas Pophale) SiO2 
 PCOD9232934
Probable space group: P 2/C
;
_chemical_formula_sum "Si O2"
_cell_formula_units_Z 30
_cell_length_a 28.190209
_cell_length_b 7.044439
_cell_length_c 10.118408
_cell_angle_alpha 90.000000
_cell_angle_beta 141.877381
_cell_angle_gamma 90.000000
_cell_volume 1240.468896
_symmetry_space_group_name_H-M "P 2/C"
_symmetry_group_IT_number 13
_symmetry_cell_setting 'monoclinic'
loop_
_space_group_symop_operation_xyz
x,y,z
-x,y,1/2-z
-x,-y,-z
x,-y,1/2+z
loop_
_atom_site_type_symbol
_atom_site_label
_atom_site_fract_x
_atom_site_fract_y
_atom_site_fract_z
Si Si1 0.687953 0.336384 0.194252
Si Si2 0.591909 0.274236 0.221266
Si Si3 0.093052 0.023781 0.116437
Si Si4 0.000000 0.222563 0.250000
Si Si5 0.337320 0.212882 0.853453
Si Si6 0.191777 0.055826 0.077283
Si Si7 0.424822 0.730105 0.281097
Si Si8 0.045401 0.575195 0.470518
O O1 0.666707 0.260630 0.293132
O O2 0.684052 0.563116 0.187610
O O3 0.768047 0.259336 0.316730
O O4 0.622229 0.248883 0.956112
O O5 0.607621 0.185930 0.398592
O O6 0.578940 0.500800 0.209610
O O7 0.513311 0.209127 0.979765
O O8 0.134632 0.930499 0.330091
O O9 0.145171 0.990379 0.101319
O O10 0.095425 0.252929 0.134863
O O11 0.012868 0.919405 0.901252
O O12 0.934542 0.382284 0.067957
O O13 0.380821 0.182727 0.810406
O O14 0.261555 0.087193 0.699703
O O15 0.000000 0.500000 0.500000
O O16 0.000000 0.677992 0.250000
#
# Coordination Sequence:
#
# PCOD9232934 Si02
#       8
#     4   4   4   2   4   4   4   4
#     4  10  21  39  58  83 129 164 215 266 320 386
#     4   9  17  33  61  88 113 162 216 273 337 374
#     4  12  26  45  70  99 137 168 220 261 324 390
#     4  10  24  44  76 100 130 164 208 274 320 374
#     4  10  21  39  57  84 127 164 215 267 321 385
#     4  12  27  41  63  93 131 180 212 256 316 397
#     4   9  17  33  61  87 116 160 214 279 330 378
#     4  10  24  44  74 104 136 162 204 265 327 379
#
# _framework density 24.184404000000001
#
# number of rings (size 3 to 8) (size 9 to 14) (size 15 to 20)
#    0.400    1.333    0.667    3.200    1.867    6.400 
#    0.000    4.000    0.000    0.000    0.000    0.000 
#    0.000    0.000    0.000    0.000    0.000    0.000 
#
# Total GULP energy -167442.921662 kJ/mol
# GULP energy per Si atom -5581.430722 kJ/mol
# Density = 2.412936 g / cm^3
# Si number density = 24.184404 Si / 1000 Ang^3
#
#
#
# Elastic Constant Matrix: (Units=GPa)
#
#
# Indices 1 2 3 4 5 6 
#
# 1 78.6781 -1.1506 9.6794 0.0000 -8.1701 0.0000
# 2 -1.1506 119.9181 6.9611 0.0000 10.3754 0.0000
# 3 9.6794 6.9611 81.3089 0.0000 -2.3666 0.0000
# 4 0.0000 0.0000 0.0000 25.4199 0.0000 4.5968
# 5 -8.1701 10.3754 -2.3666 0.0000 30.5687 0.0000
# 6 0.0000 0.0000 0.0000 4.5968 0.0000 34.2950
#
#
#
# Elastic Compliance Matrix: (Units=1/GPa)
#
#
# Indices 1 2 3 4 5 6 
#
# 1 0.013248 -0.000087 -0.001469 0.000000 0.003457 0.000000
# 2 -0.000087 0.008647 -0.000818 0.000000 -0.003021 0.000000
# 3 -0.001469 -0.000818 0.012569 0.000000 0.000858 0.000000
# 4 0.000000 0.000000 0.000000 0.040317 0.000000 -0.005404
# 5 0.003457 -0.003021 0.000858 0.000000 0.034729 0.000000
# 6 0.000000 0.000000 0.000000 -0.005404 0.000000 0.029883
#
#
# Mechanical properties :
#
#
# Convention : Reuss Voigt Hill
#
# Bulk Modulus (GPa) = 33.65107 34.54276 34.09691
# Shear Modulus (GPa) = 32.45789 35.68441 34.07115
#
# Velocity S-wave (km/s) = 3.66744 3.84541 3.75748
# Velocity P-wave (km/s) = 5.64607 5.83355 5.74057
#
# Compressibility (1/GPa) = 0.02971674
#
# Stress axis : x y z
#
# Youngs Moduli (GPa) = 75.48065 115.64590 79.56294
#
# Poissons Ratio (x) = 0.01002 0.11689
# Poissons Ratio (y) = 0.00654 0.06508
# Poissons Ratio (z) = 0.11089 0.09459
#
# Static dielectric constant tensor:
#      x y z
#    x 1.966990 0.000000 0.027200 
#    y 0.000000 1.976060 0.000000 
#    z 0.027200 0.000000 1.930060 
# 
# From -- ./inp_files/24625.got.cif
#   From: 2010.05.17/outbox.cif.g08.bks.cpg/sg13_13_cif.got.tgz:24625.got - 2010.06.03 16:44:36.
