data_PCOD9232008
_publ_section_title
;
Structure prediction by ZEFSAII (Michael W. Deem and Ramdas Pophale) SiO2 
 PCOD9232008
Probable space group: P 2/C
;
_chemical_formula_sum "Si O2"
_cell_formula_units_Z 20
_cell_length_a 9.024364
_cell_length_b 9.981651
_cell_length_c 11.142054
_cell_angle_alpha 90.000000
_cell_angle_beta 124.307948
_cell_angle_gamma 90.000000
_cell_volume 829.038821
_symmetry_space_group_name_H-M "P 2/C"
_symmetry_group_IT_number 13
_symmetry_cell_setting 'monoclinic'
loop_
_space_group_symop_operation_xyz
x,y,z
-x,y,1/2-z
-x,-y,-z
x,-y,1/2+z
loop_
_atom_site_type_symbol
_atom_site_label
_atom_site_fract_x
_atom_site_fract_y
_atom_site_fract_z
Si Si1 0.937844 0.757860 0.453171
Si Si2 0.316587 0.742152 0.738607
Si Si3 0.667450 0.561217 0.234554
Si Si4 0.305880 0.909034 0.974014
Si Si5 0.694667 0.173037 0.639585
O O1 0.840213 0.615189 0.386817
O O2 0.842620 0.834145 0.518355
O O3 0.866836 0.837585 0.304068
O O4 0.144808 0.745643 0.574154
O O5 0.500000 0.759861 0.750000
O O6 0.318126 0.592159 0.794711
O O7 0.300214 0.849747 0.836733
O O8 0.500000 0.577084 0.250000
O O9 0.663230 0.666235 0.120816
O O10 0.282801 0.068122 0.956365
O O11 0.506118 0.875532 0.111486
#
# Coordination Sequence:
#
# PCOD9232008 Si02
#       5
#     4   4   4   4   4
#     4  10  20  44  68  90 131 176 212 267 332 387
#     4  11  25  39  63  97 135 171 222 263 320 388
#     4   9  18  41  66  92 127 175 205 269 332 388
#     4  11  21  40  70  99 122 172 217 272 329 398
#     4   9  21  39  68  94 127 165 217 269 336 383
#
# _framework density 24.124323
#
# number of rings (size 3 to 8) (size 9 to 14) (size 15 to 20)
#    1.200    0.800    2.000    1.800    0.000    5.600 
#    0.000    5.000    0.000    0.000    0.000    0.000 
#    0.000    0.000    0.000    0.000    0.000    0.000 
#
# Total GULP energy -111725.079066 kJ/mol
# GULP energy per Si atom -5586.253953 kJ/mol
# Density = 2.406941 g / cm^3
# Si number density = 24.124323 Si / 1000 Ang^3
#
#
#
# Elastic Constant Matrix: (Units=GPa)
#
#
# Indices 1 2 3 4 5 6 
#
# 1 89.6514 26.7704 34.4889 0.0000 36.7610 0.0000
# 2 26.7704 143.9102 35.3888 0.0000 -0.0685 0.0000
# 3 34.4889 35.3888 103.1309 0.0000 47.1456 0.0000
# 4 0.0000 0.0000 0.0000 27.7837 0.0000 -15.3196
# 5 36.7610 -0.0685 47.1456 0.0000 42.6901 0.0000
# 6 0.0000 0.0000 0.0000 -15.3196 0.0000 -3.1463
#
#
#
# Elastic Compliance Matrix: (Units=1/GPa)
#
#
# Indices 1 2 3 4 5 6 
#
# 1 0.020337 -0.005298 0.006112 0.000000 -0.024271 0.000000
# 2 -0.005298 0.009764 -0.007415 0.000000 0.012766 0.000000
# 3 0.006112 -0.007415 0.025464 0.000000 -0.033396 0.000000
# 4 0.000000 0.000000 0.000000 0.009768 0.000000 -0.047561
# 5 -0.024271 0.012766 -0.033396 0.000000 0.081227 0.000000
# 6 0.000000 0.000000 0.000000 -0.047561 0.000000 -0.086256
#
#
# Mechanical properties :
#
#
# Convention : Reuss Voigt Hill
#
# Bulk Modulus (GPa) = 23.60494 58.88763 41.24628
# Shear Modulus (GPa) = 57.06136 29.46847 43.26491
#
# Velocity S-wave (km/s) = 4.86872 3.49882 4.23947
# Velocity P-wave (km/s) = 6.43520 6.38635 6.41082
#
# Compressibility (1/GPa) = 0.04236401
#
# Stress axis : x y z
#
# Youngs Moduli (GPa) = 49.17112 102.42064 39.27180
#
# Poissons Ratio (x) = 0.54260 -0.24004
# Poissons Ratio (y) = 0.26050 0.29118
# Poissons Ratio (z) = -0.30054 0.75941
#
# Static dielectric constant tensor:
#      x y z
#    x 1.886440 0.000000 -0.012280 
#    y 0.000000 1.895330 0.000000 
#    z -0.012280 0.000000 1.940920 
# 
# From -- ./inp_files/29129.got.cif
#   From: 2010.05.17/outbox.cif.g08.bks.cpg/sg13_15_cif.got.tgz:29129.got - 2010.06.03 16:44:36.
