data_PCOD9232993
_publ_section_title
;
Structure prediction by ZEFSAII (Michael W. Deem and Ramdas Pophale) SiO2 
 PCOD9232993
Probable space group: P 2/C
;
_chemical_formula_sum "Si O2"
_cell_formula_units_Z 18
_cell_length_a 6.779814
_cell_length_b 5.120890
_cell_length_c 24.761803
_cell_angle_alpha 90.000000
_cell_angle_beta 129.653695
_cell_angle_gamma 90.000000
_cell_volume 661.894201
_symmetry_space_group_name_H-M "P 2/C"
_symmetry_group_IT_number 13
_symmetry_cell_setting 'monoclinic'
loop_
_space_group_symop_operation_xyz
x,y,z
-x,y,1/2-z
-x,-y,-z
x,-y,1/2+z
loop_
_atom_site_type_symbol
_atom_site_label
_atom_site_fract_x
_atom_site_fract_y
_atom_site_fract_z
Si Si1 0.695830 0.509779 0.484789
Si Si2 0.196158 0.931282 0.334215
Si Si3 0.071865 0.568792 0.676419
Si Si4 0.494085 0.662001 0.660148
Si Si5 0.000000 0.000000 0.500000
O O1 0.500000 0.500000 0.500000
O O2 0.555130 0.506173 0.401403
O O3 0.851602 0.779405 0.511451
O O4 0.866437 0.248205 0.510507
O O5 0.463687 0.037884 0.353195
O O6 0.000000 0.916523 0.250000
O O7 0.117615 0.189789 0.352677
O O8 0.091301 0.693894 0.351753
O O9 0.263186 0.616272 0.660615
O O10 0.743466 0.578699 0.737951
#
# Coordination Sequence:
#
# PCOD9232993 Si02
#       5
#     4   4   4   4   2
#     4  11  25  47  71  97 132 175 227 282 336 393
#     4  10  21  39  61  95 135 170 212 262 321 394
#     4  10  23  40  61  97 137 168 211 265 322 394
#     4  10  24  42  68  97 132 179 220 266 334 401
#     4  10  26  48  68 100 132 170 232 288 334 386
#
# _framework density 27.194680000000002
#
# number of rings (size 3 to 8) (size 9 to 14) (size 15 to 20)
#    0.000    1.778    0.000    2.667    0.000   21.333 
#    0.000    6.667    0.000    0.000    0.000    0.000 
#    0.000    0.000    0.000    0.000    0.000    0.000 
#
# Total GULP energy -100263.021370 kJ/mol
# GULP energy per Si atom -5570.167854 kJ/mol
# Density = 2.713278 g / cm^3
# Si number density = 27.194680 Si / 1000 Ang^3
#
#
#
# Elastic Constant Matrix: (Units=GPa)
#
#
# Indices 1 2 3 4 5 6 
#
# 1 239.8898 136.4013 35.9757 0.0000 -72.6135 0.0000
# 2 136.4013 328.2821 20.0930 0.0000 -21.3630 0.0000
# 3 35.9757 20.0930 151.6970 0.0000 -21.1278 0.0000
# 4 0.0000 0.0000 0.0000 9.8433 0.0000 5.8925
# 5 -72.6135 -21.3630 -21.1278 0.0000 38.2133 0.0000
# 6 0.0000 0.0000 0.0000 5.8925 0.0000 13.7632
#
#
#
# Elastic Compliance Matrix: (Units=1/GPa)
#
#
# Indices 1 2 3 4 5 6 
#
# 1 0.013779 -0.004190 0.000658 0.000000 0.024205 0.000000
# 2 -0.004190 0.004440 -0.000387 0.000000 -0.005695 0.000000
# 3 0.000658 -0.000387 0.007185 0.000000 0.005007 0.000000
# 4 0.000000 0.000000 0.000000 0.136603 0.000000 -0.058484
# 5 0.024205 -0.005695 0.005007 0.000000 0.071748 0.000000
# 6 0.000000 0.000000 0.000000 -0.058484 0.000000 0.097696
#
#
# Mechanical properties :
#
#
# Convention : Reuss Voigt Hill
#
# Bulk Modulus (GPa) = 56.93079 122.75653 89.84366
# Shear Modulus (GPa) = 14.48663 47.52389 31.00526
#
# Velocity S-wave (km/s) = 2.31054 4.18490 3.38023
# Velocity P-wave (km/s) = 5.30076 8.28185 6.95295
#
# Compressibility (1/GPa) = 0.01756519
#
# Stress axis : x y z
#
# Youngs Moduli (GPa) = 72.57308 225.20348 139.18666
#
# Poissons Ratio (x) = 0.94370 -0.09164
# Poissons Ratio (y) = 0.30411 0.05393
# Poissons Ratio (z) = -0.04778 0.08726
#
# Static dielectric constant tensor:
#      x y z
#    x 2.176820 0.000000 0.111140 
#    y 0.000000 2.121340 0.000000 
#    z 0.111140 0.000000 2.327110 
# 
# From -- ./inp_files/89819.got.cif
#   From: 2010.05.17/outbox.cif.g08.bks.cpg/sg13_45_cif.got.tgz:89819.got - 2010.06.03 16:44:36.
