data_PCOD9232849
_publ_section_title
;
Structure prediction by ZEFSAII (Michael W. Deem and Ramdas Pophale) SiO2 
 PCOD9232849
Probable space group: P 2/C
;
_chemical_formula_sum "Si O2"
_cell_formula_units_Z 32
_cell_length_a 21.375696
_cell_length_b 7.914234
_cell_length_c 22.642203
_cell_angle_alpha 90.000000
_cell_angle_beta 21.511244
_cell_angle_gamma 90.000000
_cell_volume 1404.557637
_symmetry_space_group_name_H-M "P 2/C"
_symmetry_group_IT_number 13
_symmetry_cell_setting 'monoclinic'
loop_
_space_group_symop_operation_xyz
x,y,z
-x,y,1/2-z
-x,-y,-z
x,-y,1/2+z
loop_
_atom_site_type_symbol
_atom_site_label
_atom_site_fract_x
_atom_site_fract_y
_atom_site_fract_z
Si Si1 0.268389 0.891958 0.431238
Si Si2 0.546703 0.571521 0.291272
Si Si3 0.886566 0.090034 0.218098
Si Si4 0.086911 0.747660 0.924454
Si Si5 0.342671 0.793260 0.796360
Si Si6 0.185825 0.693972 0.612193
Si Si7 0.280836 0.400932 0.735513
Si Si8 0.417290 0.138916 0.527003
O O1 0.364120 0.726771 0.321294
O O2 0.239000 0.857389 0.526042
O O3 0.080135 0.911878 0.569474
O O4 0.359709 0.058670 0.328250
O O5 0.621269 0.390252 0.208846
O O6 0.343015 0.569406 0.464454
O O7 0.597390 0.598710 0.314899
O O8 0.881925 0.113139 0.152054
O O9 0.819056 0.249640 0.315642
O O10 0.760901 0.935828 0.340195
O O11 0.157544 0.786235 0.927189
O O12 0.196273 0.586147 0.804862
O O13 0.887365 0.708879 0.101875
O O14 0.462974 0.829783 0.634215
O O15 0.000000 0.640978 0.750000
O O16 0.377839 0.312119 0.596563
O O17 0.500000 0.000000 0.500000
#
# Coordination Sequence:
#
# PCOD9232849 Si02
#       8
#     4   4   4   4   4   4   4   4
#     4  11  23  46  69  92 132 176 226 279 321 387
#     4  11  23  42  70  97 127 172 219 268 336 390
#     4  11  22  39  67  93 132 176 219 269 329 395
#     4  10  21  38  63  98 136 173 211 262 336 404
#     4  11  25  40  67 104 135 176 215 271 332 402
#     4  10  24  44  68  93 122 176 227 277 333 380
#     4  10  22  37  60  99 137 168 210 265 331 404
#     4  12  23  36  58  97 139 174 212 258 332 402
#
# _framework density 22.782973999999999
#
# number of rings (size 3 to 8) (size 9 to 14) (size 15 to 20)
#    0.000    1.250    2.500    3.375    1.750    2.000 
#    0.000    5.000    0.000    5.250    0.000    0.000 
#    0.000    0.000    0.000    0.000    0.000    0.000 
#
# Total GULP energy -178962.280765 kJ/mol
# GULP energy per Si atom -5592.571274 kJ/mol
# Density = 2.273112 g / cm^3
# Si number density = 22.782974 Si / 1000 Ang^3
#
#
#
# Elastic Constant Matrix: (Units=GPa)
#
#
# Indices 1 2 3 4 5 6 
#
# 1 88.3787 21.4851 30.0808 0.0000 -15.5458 0.0000
# 2 21.4851 80.6105 18.5334 0.0000 -8.1058 0.0000
# 3 30.0808 18.5334 97.0883 0.0000 -24.2946 0.0000
# 4 0.0000 0.0000 0.0000 21.4414 0.0000 -5.8900
# 5 -15.5458 -8.1058 -24.2946 0.0000 22.7876 0.0000
# 6 0.0000 0.0000 0.0000 -5.8900 0.0000 1.4722
#
#
#
# Elastic Compliance Matrix: (Units=1/GPa)
#
#
# Indices 1 2 3 4 5 6 
#
# 1 0.013771 -0.002539 -0.002260 0.000000 0.006082 0.000000
# 2 -0.002539 0.013565 -0.001403 0.000000 0.001597 0.000000
# 3 -0.002260 -0.001403 0.014671 0.000000 0.013601 0.000000
# 4 0.000000 0.000000 0.000000 -0.470932 0.000000 -1.884133
# 5 0.006082 0.001597 0.013601 0.000000 0.063101 0.000000
# 6 0.000000 0.000000 0.000000 -1.884133 0.000000 -6.858893
#
#
# Mechanical properties :
#
#
# Convention : Reuss Voigt Hill
#
# Bulk Modulus (GPa) = 33.78041 45.14179 39.46110
# Shear Modulus (GPa) = -0.69421 22.20545 10.75562
#
# Velocity S-wave (km/s) = -0.55260 3.12533 2.17512
# Velocity P-wave (km/s) = 3.80159 5.73414 4.86480
#
# Compressibility (1/GPa) = 0.02960295
#
# Stress axis : x y z
#
# Youngs Moduli (GPa) = 72.61458 73.71737 68.16037
#
# Poissons Ratio (x) = 0.18719 0.15405
# Poissons Ratio (y) = 0.18439 0.09564
# Poissons Ratio (z) = 0.16412 0.10343
#
# Static dielectric constant tensor:
#      x y z
#    x 1.855910 0.000000 -0.015340 
#    y 0.000000 1.844980 0.000000 
#    z -0.015340 0.000000 1.868430 
# 
# From -- ./inp_files/88942.got.cif
#   From: 2010.05.17/outbox.cif.g08.bks.cpg/sg13_45_cif.got.tgz:88942.got - 2010.06.03 16:44:36.
