data_PCOD9232059
_publ_section_title
;
Structure prediction by ZEFSAII (Michael W. Deem and Ramdas Pophale) SiO2 
 PCOD9232059
Probable space group: P 2/C
;
_chemical_formula_sum "Si O2"
_cell_formula_units_Z 26
_cell_length_a 23.833620
_cell_length_b 11.842071
_cell_length_c 8.608308
_cell_angle_alpha 90.000000
_cell_angle_beta 144.461253
_cell_angle_gamma 90.000000
_cell_volume 1412.215452
_symmetry_space_group_name_H-M "P 2/C"
_symmetry_group_IT_number 13
_symmetry_cell_setting 'monoclinic'
loop_
_space_group_symop_operation_xyz
x,y,z
-x,y,1/2-z
-x,-y,-z
x,-y,1/2+z
loop_
_atom_site_type_symbol
_atom_site_label
_atom_site_fract_x
_atom_site_fract_y
_atom_site_fract_z
Si Si1 0.882973 0.162959 0.449141
Si Si2 0.094889 0.386908 0.864167
Si Si3 0.500000 0.572238 0.250000
Si Si4 0.365394 0.562761 0.204617
Si Si5 0.115970 0.015492 0.766668
Si Si6 0.900404 0.755998 0.436828
Si Si7 0.762717 0.406926 0.806883
O O1 0.850689 0.288910 0.414600
O O2 0.850357 0.066215 0.495389
O O3 0.000000 0.169744 0.750000
O O4 0.853864 0.108629 0.220624
O O5 0.075102 0.323031 0.657519
O O6 0.000000 0.418539 0.750000
O O7 0.159690 0.495001 0.979624
O O8 0.424317 0.628704 0.201327
O O9 0.562265 0.496820 0.509577
O O10 0.293580 0.623851 0.162612
O O11 0.307661 0.465659 0.979275
O O12 0.135368 0.121982 0.698986
O O13 0.000000 0.000000 0.500000
O O14 0.820998 0.693106 0.359001
O O15 0.000000 0.772107 0.750000
#
# Coordination Sequence:
#
# PCOD9232059 Si02
#       7
#     4   4   2   4   4   4   4
#     4   8  15  28  43  58  76 112 168 215 238 260
#     4  10  21  32  42  59  94 140 174 196 232 278
#     4   8  16  34  56  72  84 126 156 182 242 312
#     4   9  18  32  52  71  95 121 157 191 241 298
#     4   9  16  30  46  60  77 115 181 221 238 256
#     4  11  22  31  44  64  94 138 179 203 236 270
#     4  11  20  32  44  70 103 130 156 198 238 278
#
# _framework density 18.410789000000001
#
# number of rings (size 3 to 8) (size 9 to 14) (size 15 to 20)
#    0.000    2.462    1.538    2.769    2.154    1.231 
#    0.000    0.000    0.000    0.000    0.000    0.000 
#    0.000    0.000    0.000   96.923    0.000    0.000 
#
# Total GULP energy -144752.144584 kJ/mol
# GULP energy per Si atom -5567.390176 kJ/mol
# Density = 1.836889 g / cm^3
# Si number density = 18.410789 Si / 1000 Ang^3
#
#
#
# Elastic Constant Matrix: (Units=GPa)
#
#
# Indices 1 2 3 4 5 6 
#
# 1 148.7251 18.1212 1.4010 0.0000 -1.7975 0.0000
# 2 18.1212 42.3373 -15.1592 0.0000 -1.2678 0.0000
# 3 1.4010 -15.1592 44.3018 0.0000 -11.8564 0.0000
# 4 0.0000 0.0000 0.0000 0.9754 0.0000 -15.2460
# 5 -1.7975 -1.2678 -11.8564 0.0000 15.6666 0.0000
# 6 0.0000 0.0000 0.0000 -15.2460 0.0000 26.1011
#
#
#
# Elastic Compliance Matrix: (Units=1/GPa)
#
#
# Indices 1 2 3 4 5 6 
#
# 1 0.007182 -0.003705 -0.001699 0.000000 -0.000761 0.000000
# 2 -0.003705 0.030581 0.013957 0.000000 0.012612 0.000000
# 3 -0.001699 0.013957 0.034675 0.000000 0.027177 0.000000
# 4 0.000000 0.000000 0.000000 -0.126103 0.000000 -0.073659
# 5 -0.000761 0.012612 0.027177 0.000000 0.085331 0.000000
# 6 0.000000 0.000000 0.000000 -0.073659 0.000000 -0.004712
#
#
# Mechanical properties :
#
#
# Convention : Reuss Voigt Hill
#
# Bulk Modulus (GPa) = 11.16778 27.12113 19.14446
# Shear Modulus (GPa) = 125.95975 23.94868 74.95421
#
# Velocity S-wave (km/s) = 8.28039 3.61057 6.38753
# Velocity P-wave (km/s) = 9.87415 5.66963 8.05119
#
# Compressibility (1/GPa) = 0.08954328
#
# Stress axis : x y z
#
# Youngs Moduli (GPa) = 139.23586 32.70046 28.83917
#
# Poissons Ratio (x) = 0.12116 0.04899
# Poissons Ratio (y) = 0.51588 -0.40250
# Poissons Ratio (z) = 0.23652 -0.45639
#
# Static dielectric constant tensor:
#      x y z
#    x 1.741800 0.000000 -0.004940 
#    y 0.000000 1.627010 0.000000 
#    z -0.004940 0.000000 1.655900 
# 
# From -- ./inp_files/18557.got.cif
#   From: 2010.05.17/outbox.cif.g08.bks.cpg/sg13_10_cif.got.tgz:18557.got - 2010.06.03 16:44:36.
