data_PCOD9232519
_publ_section_title
;
Structure prediction by ZEFSAII (Michael W. Deem and Ramdas Pophale) SiO2 
 PCOD9232519
Probable space group: P 2/C
;
_chemical_formula_sum "Si O2"
_cell_formula_units_Z 20
_cell_length_a 25.521615
_cell_length_b 7.573903
_cell_length_c 5.421988
_cell_angle_alpha 90.000000
_cell_angle_beta 121.178019
_cell_angle_gamma 90.000000
_cell_volume 896.681903
_symmetry_space_group_name_H-M "P 2/C"
_symmetry_group_IT_number 13
_symmetry_cell_setting 'monoclinic'
loop_
_space_group_symop_operation_xyz
x,y,z
-x,y,1/2-z
-x,-y,-z
x,-y,1/2+z
loop_
_atom_site_type_symbol
_atom_site_label
_atom_site_fract_x
_atom_site_fract_y
_atom_site_fract_z
Si Si1 0.632809 0.093227 0.219607
Si Si2 0.526088 0.699382 0.562650
Si Si3 0.930854 0.113952 0.605384
Si Si4 0.231678 0.952065 0.923210
Si Si5 0.180102 0.389680 0.201614
O O1 0.599151 0.274144 0.214497
O O2 0.614225 0.963521 0.399149
O O3 0.706243 0.066854 0.401995
O O4 0.500000 0.779625 0.750000
O O5 0.500000 0.500000 0.500000
O O6 0.500000 0.782201 0.250000
O O7 0.879913 0.264758 0.442199
O O8 0.000000 0.188431 0.750000
O O9 0.926283 0.973752 0.367115
O O10 0.236966 0.745719 0.879279
O O11 0.199330 0.032284 0.606709
O O12 0.181477 0.518032 0.439497
#
# Coordination Sequence:
#
# PCOD9232519 Si02
#       5
#     4   4   4   4   4
#     4  10  21  37  64  88 112 157 203 241 296 367
#     4  10  21  37  60  90 124 150 187 246 302 366
#     4  10  21  39  63  93 129 174 224 264 310 380
#     4  10  21  41  67  86 118 165 217 257 305 378
#     4  12  24  38  63  95 131 167 211 268 328 373
#
# _framework density 22.304452000000001
#
# number of rings (size 3 to 8) (size 9 to 14) (size 15 to 20)
#    0.000    1.600    0.000    4.800    0.000    3.200 
#    0.000    0.000  105.600    0.000    0.000    0.000 
#    0.000    0.000    0.000    0.000    0.000    0.000 
#
# Total GULP energy -111409.768077 kJ/mol
# GULP energy per Si atom -5570.488404 kJ/mol
# Density = 2.225369 g / cm^3
# Si number density = 22.304452 Si / 1000 Ang^3
#
#
#
# Elastic Constant Matrix: (Units=GPa)
#
#
# Indices 1 2 3 4 5 6 
#
# 1 97.9149 30.8555 47.9417 0.0000 -9.6154 0.0000
# 2 30.8555 67.8306 14.6286 0.0000 2.1157 0.0000
# 3 47.9417 14.6286 111.8068 0.0000 -42.9583 0.0000
# 4 0.0000 0.0000 0.0000 38.9931 0.0000 3.3627
# 5 -9.6154 2.1157 -42.9583 0.0000 69.4265 0.0000
# 6 0.0000 0.0000 0.0000 3.3627 0.0000 39.7814
#
#
#
# Elastic Compliance Matrix: (Units=1/GPa)
#
#
# Indices 1 2 3 4 5 6 
#
# 1 0.014811 -0.005326 -0.006302 0.000000 -0.001686 0.000000
# 2 -0.005326 0.017351 -0.000621 0.000000 -0.001650 0.000000
# 3 -0.006302 -0.000621 0.014955 0.000000 0.008399 0.000000
# 4 0.000000 0.000000 0.000000 0.025834 0.000000 -0.002184
# 5 -0.001686 -0.001650 0.008399 0.000000 0.019418 0.000000
# 6 0.000000 0.000000 0.000000 -0.002184 0.000000 0.025322
#
#
# Mechanical properties :
#
#
# Convention : Reuss Voigt Hill
#
# Bulk Modulus (GPa) = 44.20850 51.60042 47.90446
# Shear Modulus (GPa) = 33.39428 41.91528 37.65478
#
# Velocity S-wave (km/s) = 3.87357 4.33972 4.11325
# Velocity P-wave (km/s) = 6.31423 6.94951 6.63947
#
# Compressibility (1/GPa) = 0.02262009
#
# Stress axis : x y z
#
# Youngs Moduli (GPa) = 67.51637 57.63489 66.86947
#
# Poissons Ratio (x) = 0.30695 0.42139
# Poissons Ratio (y) = 0.35958 0.04150
# Poissons Ratio (z) = 0.42547 0.03576
#
# Static dielectric constant tensor:
#      x y z
#    x 1.933670 0.000000 0.018050 
#    y 0.000000 1.813080 0.000000 
#    z 0.018050 0.000000 1.924500 
# 
# From -- ./inp_files/8032.got.cif
#   From: 2010.05.17/outbox.cif.g08.bks.cpg/sg13_5_cif.got.tgz:8032.got - 2010.06.03 16:44:36.
