data_PCOD9232762
_publ_section_title
;
Structure prediction by ZEFSAII (Michael W. Deem and Ramdas Pophale) SiO2 
 PCOD9232762
Probable space group: P 2/C
;
_chemical_formula_sum "Si O2"
_cell_formula_units_Z 14
_cell_length_a 9.586536
_cell_length_b 12.543962
_cell_length_c 5.396012
_cell_angle_alpha 90.000000
_cell_angle_beta 79.759016
_cell_angle_gamma 90.000000
_cell_volume 638.549776
_symmetry_space_group_name_H-M "P 2/C"
_symmetry_group_IT_number 13
_symmetry_cell_setting 'monoclinic'
loop_
_space_group_symop_operation_xyz
x,y,z
-x,y,1/2-z
-x,-y,-z
x,-y,1/2+z
loop_
_atom_site_type_symbol
_atom_site_label
_atom_site_fract_x
_atom_site_fract_y
_atom_site_fract_z
Si Si1 0.213274 0.931893 0.927570
Si Si2 0.956950 0.227721 0.511719
Si Si3 0.650684 0.219359 0.786638
Si Si4 0.500000 0.569348 0.250000
O O1 0.943072 0.121838 0.021797
O O2 0.235407 0.003661 0.168051
O O3 0.313889 0.829782 0.955326
O O4 0.792623 0.199905 0.583032
O O5 0.000000 0.286754 0.250000
O O6 0.000000 0.285594 0.750000
O O7 0.500000 0.171133 0.750000
O O8 0.626169 0.345532 0.761578
O O9 0.500000 0.500000 0.500000
#
# Coordination Sequence:
#
# PCOD9232762 Si02
#       4
#     4   4   4   2
#     4  11  23  39  61  92 135 179 206 240 308 382
#     4  10  21  38  61  87 127 171 213 246 303 368
#     4   9  23  43  63  99 122 169 213 271 302 376
#     4  10  24  46  70  90 120 164 210 268 342 378
#
# _framework density 21.924681
#
# number of rings (size 3 to 8) (size 9 to 14) (size 15 to 20)
#    0.857    1.143    0.000    3.429    0.000   22.857 
#    0.000    0.000    0.000   22.286    0.000    0.000 
#    0.000    0.000    0.000    0.000    0.000    0.000 
#
# Total GULP energy -77946.782127 kJ/mol
# GULP energy per Si atom -5567.627295 kJ/mol
# Density = 2.187478 g / cm^3
# Si number density = 21.924681 Si / 1000 Ang^3
#
#
#
# Elastic Constant Matrix: (Units=GPa)
#
#
# Indices 1 2 3 4 5 6 
#
# 1 132.2307 17.8652 42.5539 0.0000 29.2702 0.0000
# 2 17.8652 103.0758 55.0127 0.0000 15.5492 0.0000
# 3 42.5539 55.0127 197.9775 0.0000 13.7364 0.0000
# 4 0.0000 0.0000 0.0000 -30.2841 0.0000 -32.5566
# 5 29.2702 15.5492 13.7364 0.0000 24.9185 0.0000
# 6 0.0000 0.0000 0.0000 -32.5566 0.0000 2.7975
#
#
#
# Elastic Compliance Matrix: (Units=1/GPa)
#
#
# Indices 1 2 3 4 5 6 
#
# 1 0.010682 0.000891 -0.001699 0.000000 -0.012167 0.000000
# 2 0.000891 0.012263 -0.003115 0.000000 -0.006982 0.000000
# 3 -0.001699 -0.003115 0.006247 0.000000 0.000496 0.000000
# 4 0.000000 0.000000 0.000000 -0.002444 0.000000 -0.028442
# 5 -0.012167 -0.006982 0.000496 0.000000 0.058506 0.000000
# 6 0.000000 0.000000 0.000000 -0.028442 0.000000 0.026457
#
#
# Mechanical properties :
#
#
# Convention : Reuss Voigt Hill
#
# Bulk Modulus (GPa) = 46.84670 73.79417 60.32044
# Shear Modulus (GPa) = 39.47177 20.67652 30.07414
#
# Velocity S-wave (km/s) = 4.24764 3.07428 3.70767
# Velocity P-wave (km/s) = 6.74315 6.80681 6.77506
#
# Compressibility (1/GPa) = 0.02134622
#
# Stress axis : x y z
#
# Youngs Moduli (GPa) = 93.61260 81.54861 160.06608
#
# Poissons Ratio (x) = -0.07266 0.27203
# Poissons Ratio (y) = -0.08341 0.49854
# Poissons Ratio (z) = 0.15909 0.25399
#
# Static dielectric constant tensor:
#      x y z
#    x 1.856510 0.000000 0.000850 
#    y 0.000000 1.840340 0.000000 
#    z 0.000850 0.000000 1.932850 
# 
# From -- ./inp_files/1147.got.cif
#   From: 2010.05.17/outbox.cif.g08.bks.cpg/sg13_1_cif.got.tgz:1147.got - 2010.06.03 16:44:36.
