data_PCOD9232693
_publ_section_title
;
Structure prediction by ZEFSAII (Michael W. Deem and Ramdas Pophale) SiO2 
 PCOD9232693
Probable space group: P 2/C
;
_chemical_formula_sum "Si O2"
_cell_formula_units_Z 18
_cell_length_a 7.790464
_cell_length_b 6.181178
_cell_length_c 20.032100
_cell_angle_alpha 90.000000
_cell_angle_beta 126.429740
_cell_angle_gamma 90.000000
_cell_volume 776.127992
_symmetry_space_group_name_H-M "P 2/C"
_symmetry_group_IT_number 13
_symmetry_cell_setting 'monoclinic'
loop_
_space_group_symop_operation_xyz
x,y,z
-x,y,1/2-z
-x,-y,-z
x,-y,1/2+z
loop_
_atom_site_type_symbol
_atom_site_label
_atom_site_fract_x
_atom_site_fract_y
_atom_site_fract_z
Si Si1 0.207969 0.638511 0.627723
Si Si2 0.335008 0.715126 0.800086
Si Si3 0.296026 0.352222 0.903683
Si Si4 0.000000 0.924068 0.250000
Si Si5 0.243795 0.654117 0.013129
O O1 0.250004 0.589837 0.714790
O O2 0.416978 0.769368 0.653152
O O3 0.217415 0.426683 0.582717
O O4 0.980438 0.752088 0.562718
O O5 0.306715 0.562635 0.857573
O O6 0.191124 0.924363 0.770651
O O7 0.264392 0.439929 0.970630
O O8 0.100657 0.214251 0.832486
O O9 0.527043 0.237178 0.946992
#
# Coordination Sequence:
#
# PCOD9232693 Si02
#       5
#     4   4   4   2   4
#     4   9  18  37  58  81 115 149 183 230 289 335
#     4  10  21  38  59  82 115 152 188 237 282 330
#     4  10  21  38  61  86 112 148 195 236 278 340
#     4  12  22  36  58  84 110 152 198 228 276 348
#     4   9  18  37  63  85 112 151 187 235 293 332
#
# _framework density 23.192053000000001
#
# number of rings (size 3 to 8) (size 9 to 14) (size 15 to 20)
#    0.000    2.222    0.000    3.333    0.000    0.000 
#    0.000   42.222    0.000    0.000    0.000    0.000 
#    0.000    0.000    0.000    0.000    0.000    0.000 
#
# Total GULP energy -100534.924197 kJ/mol
# GULP energy per Si atom -5585.273566 kJ/mol
# Density = 2.313927 g / cm^3
# Si number density = 23.192053 Si / 1000 Ang^3
#
#
#
# Elastic Constant Matrix: (Units=GPa)
#
#
# Indices 1 2 3 4 5 6 
#
# 1 107.8332 29.3002 40.4122 0.0000 36.9601 0.0000
# 2 29.3002 29.1048 27.4602 0.0000 14.6613 0.0000
# 3 40.4122 27.4602 138.3191 0.0000 13.0262 0.0000
# 4 0.0000 0.0000 0.0000 -20.4250 0.0000 -13.9333
# 5 36.9601 14.6613 13.0262 0.0000 73.4490 0.0000
# 6 0.0000 0.0000 0.0000 -13.9333 0.0000 -2.5754
#
#
#
# Elastic Compliance Matrix: (Units=1/GPa)
#
#
# Indices 1 2 3 4 5 6 
#
# 1 0.014417 -0.010485 -0.001672 0.000000 -0.004865 0.000000
# 2 -0.010485 0.053848 -0.007232 0.000000 -0.004190 0.000000
# 3 -0.001672 -0.007232 0.009091 0.000000 0.000673 0.000000
# 4 0.000000 0.000000 0.000000 0.018196 0.000000 -0.098444
# 5 -0.004865 -0.004190 0.000673 0.000000 0.016780 0.000000
# 6 0.000000 0.000000 0.000000 -0.098444 0.000000 0.144310
#
#
# Mechanical properties :
#
#
# Convention : Reuss Voigt Hill
#
# Bulk Modulus (GPa) = 25.92264 52.17805 39.05034
# Shear Modulus (GPa) = 16.21898 21.96201 19.09049
#
# Velocity S-wave (km/s) = 2.64736 3.08061 2.87217
# Velocity P-wave (km/s) = 4.53281 5.93302 5.27954
#
# Compressibility (1/GPa) = 0.03857632
#
# Stress axis : x y z
#
# Youngs Moduli (GPa) = 69.36337 18.57068 110.00208
#
# Poissons Ratio (x) = 0.19471 0.18397
# Poissons Ratio (y) = 0.72727 0.79558
# Poissons Ratio (z) = 0.11600 0.13431
#
# Static dielectric constant tensor:
#      x y z
#    x 1.913110 0.000000 0.052640 
#    y 0.000000 1.867620 0.000000 
#    z 0.052640 0.000000 1.891010 
# 
# From -- ./inp_files/62157.got.cif
#   From: 2010.05.17/outbox.cif.g08.bks.cpg/sg13_32_cif.got.tgz:62157.got - 2010.06.03 16:44:36.
