data_PCOD9232907
_publ_section_title
;
Structure prediction by ZEFSAII (Michael W. Deem and Ramdas Pophale) SiO2 
 PCOD9232907
Probable space group: P 2/C
;
_chemical_formula_sum "Si O2"
_cell_formula_units_Z 28
_cell_length_a 14.753142
_cell_length_b 9.112233
_cell_length_c 20.876727
_cell_angle_alpha 90.000000
_cell_angle_beta 151.811402
_cell_angle_gamma 90.000000
_cell_volume 1325.741952
_symmetry_space_group_name_H-M "P 2/C"
_symmetry_group_IT_number 13
_symmetry_cell_setting 'monoclinic'
loop_
_space_group_symop_operation_xyz
x,y,z
-x,y,1/2-z
-x,-y,-z
x,-y,1/2+z
loop_
_atom_site_type_symbol
_atom_site_label
_atom_site_fract_x
_atom_site_fract_y
_atom_site_fract_z
Si Si1 0.532876 0.210670 0.703777
Si Si2 0.205430 0.037723 0.153415
Si Si3 0.470578 0.716741 0.805025
Si Si4 0.170947 0.044401 0.278189
Si Si5 0.405785 0.555541 0.355470
Si Si6 0.812282 0.611843 0.677568
Si Si7 0.270253 0.980120 0.477909
O O1 0.500000 0.292826 0.750000
O O2 0.643117 0.313446 0.723008
O O3 0.658867 0.070541 0.800954
O O4 0.352276 0.133859 0.556765
O O5 0.264682 0.203690 0.179158
O O6 0.242206 0.009295 0.251571
O O7 0.000000 0.000000 0.000000
O O8 0.500000 0.674472 0.750000
O O9 0.469288 0.583669 0.852930
O O10 0.619791 0.842697 0.922122
O O11 0.161342 0.221262 0.281000
O O12 0.288445 0.981800 0.411837
O O13 0.955678 0.981116 0.148809
O O14 0.602902 0.605450 0.513125
O O15 0.231900 0.504685 0.293064
O O16 0.000000 0.578990 0.750000
#
# Coordination Sequence:
#
# PCOD9232907 Si02
#       7
#     4   4   4   4   4   4   4
#     4  11  22  41  65  90 130 177 220 263 336 408
#     4  11  23  39  64  94 128 170 222 279 334 396
#     4  11  23  42  62  95 138 169 219 279 335 390
#     4  11  19  38  67  94 128 167 226 275 332 395
#     4  11  24  43  67  97 132 181 225 266 343 402
#     4  11  22  43  68  95 136 177 219 281 334 402
#     4  10  21  38  68  94 124 175 218 275 334 393
#
# _framework density 21.120249999999999
#
# number of rings (size 3 to 8) (size 9 to 14) (size 15 to 20)
#    0.000    1.143    4.286    3.857    0.000    4.571 
#    7.714    0.714    0.000    0.000    0.000    0.000 
#    0.000    0.000    0.000    0.000    0.000    0.000 
#
# Total GULP energy -156282.616362 kJ/mol
# GULP energy per Si atom -5581.522013 kJ/mol
# Density = 2.107218 g / cm^3
# Si number density = 21.120250 Si / 1000 Ang^3
#
#
#
# Elastic Constant Matrix: (Units=GPa)
#
#
# Indices 1 2 3 4 5 6 
#
# 1 131.3652 19.2136 16.9124 0.0000 -9.9281 0.0000
# 2 19.2136 74.3934 10.3396 0.0000 -1.1686 0.0000
# 3 16.9124 10.3396 78.2924 0.0000 3.1756 0.0000
# 4 0.0000 0.0000 0.0000 -6.2803 0.0000 3.6115
# 5 -9.9281 -1.1686 3.1756 0.0000 27.7993 0.0000
# 6 0.0000 0.0000 0.0000 3.6115 0.0000 30.3127
#
#
#
# Elastic Compliance Matrix: (Units=1/GPa)
#
#
# Indices 1 2 3 4 5 6 
#
# 1 0.008336 -0.001871 -0.001679 0.000000 0.003090 0.000000
# 2 -0.001871 0.014130 -0.001466 0.000000 0.000093 0.000000
# 3 -0.001679 -0.001466 0.013418 0.000000 -0.002194 0.000000
# 4 0.000000 0.000000 0.000000 -0.149019 0.000000 0.017754
# 5 0.003090 0.000093 -0.002194 0.000000 0.037330 0.000000
# 6 0.000000 0.000000 0.000000 0.017754 0.000000 0.030874
#
#
# Mechanical properties :
#
#
# Convention : Reuss Voigt Hill
#
# Bulk Modulus (GPa) = 38.68057 41.88693 40.28375
# Shear Modulus (GPa) = -190.24494 26.20536 -82.01979
#
# Velocity S-wave (km/s) = -9.50119 3.52628 -6.23851
# Velocity P-wave (km/s) = 10.09996 6.03781 5.72512
#
# Compressibility (1/GPa) = 0.02585277
#
# Stress axis : x y z
#
# Youngs Moduli (GPa) = 119.96593 70.76913 74.52747
#
# Poissons Ratio (x) = 0.13241 0.12512
# Poissons Ratio (y) = 0.22445 0.10924
# Poissons Ratio (z) = 0.20141 0.10373
#
# Static dielectric constant tensor:
#      x y z
#    x 1.828310 0.000000 -0.034810 
#    y 0.000000 1.729700 0.000000 
#    z -0.034810 0.000000 1.796250 
# 
# From -- ./inp_files/79996.got.cif
#   From: 2010.05.17/outbox.cif.g08.bks.cpg/sg13_40_cif.got.tgz:79996.got - 2010.06.03 16:44:36.
