data_PCOD9232226
_publ_section_title
;
Structure prediction by ZEFSAII (Michael W. Deem and Ramdas Pophale) SiO2 
 PCOD9232226
Probable space group: P 2/C
;
_chemical_formula_sum "Si O2"
_cell_formula_units_Z 18
_cell_length_a 9.703448
_cell_length_b 7.088770
_cell_length_c 9.595340
_cell_angle_alpha 90.000000
_cell_angle_beta 79.707992
_cell_angle_gamma 90.000000
_cell_volume 649.400618
_symmetry_space_group_name_H-M "P 2/C"
_symmetry_group_IT_number 13
_symmetry_cell_setting 'monoclinic'
loop_
_space_group_symop_operation_xyz
x,y,z
-x,y,1/2-z
-x,-y,-z
x,-y,1/2+z
loop_
_atom_site_type_symbol
_atom_site_label
_atom_site_fract_x
_atom_site_fract_y
_atom_site_fract_z
Si Si1 0.542868 0.762224 0.393966
Si Si2 0.383200 0.204333 0.170550
Si Si3 0.000000 0.502170 0.750000
Si Si4 0.105261 0.732095 0.467562
Si Si5 0.208973 0.857035 0.958642
O O1 0.500000 0.691302 0.250000
O O2 0.416389 0.698866 0.518461
O O3 0.685330 0.745197 0.459496
O O4 0.563689 0.989279 0.364928
O O5 0.500000 0.288831 0.250000
O O6 0.247358 0.190094 0.291815
O O7 0.084572 0.615603 0.614023
O O8 0.115749 0.390326 0.824533
O O9 0.947439 0.808245 0.473127
O O10 0.205637 0.913491 0.465160
#
# Coordination Sequence:
#
# PCOD9232226 Si02
#       5
#     4   4   2   4   4
#     4   9  17  32  52  94 138 153 185 252 327 354
#     4   8  16  31  49  86 132 155 184 250 320 350
#     4  10  24  48  56  82 130 178 200 238 328 374
#     4  10  24  42  62  92 124 160 210 254 312 362
#     4  10  21  35  66  99 121 154 211 266 287 357
#
# _framework density 27.717866999999998
#
# number of rings (size 3 to 8) (size 9 to 14) (size 15 to 20)
#    0.000    2.667    0.000    1.333    6.222    1.778 
#    0.000    0.000    0.000    2.667    0.000  102.667 
#    0.000    0.000    0.000    0.000    0.000    0.000 
#
# Total GULP energy -100399.489603 kJ/mol
# GULP energy per Si atom -5577.749422 kJ/mol
# Density = 2.765478 g / cm^3
# Si number density = 27.717867 Si / 1000 Ang^3
#
#
#
# Elastic Constant Matrix: (Units=GPa)
#
#
# Indices 1 2 3 4 5 6 
#
# 1 103.3520 12.2936 31.5325 0.0000 15.7787 0.0000
# 2 12.2936 109.8252 5.3763 0.0000 3.0635 0.0000
# 3 31.5325 5.3763 188.3326 0.0000 -1.5712 0.0000
# 4 0.0000 0.0000 0.0000 10.8105 0.0000 -11.7113
# 5 15.7787 3.0635 -1.5712 0.0000 33.0657 0.0000
# 6 0.0000 0.0000 0.0000 -11.7113 0.0000 -2.8027
#
#
#
# Elastic Compliance Matrix: (Units=1/GPa)
#
#
# Indices 1 2 3 4 5 6 
#
# 1 0.011186 -0.001011 -0.001889 0.000000 -0.005334 0.000000
# 2 -0.001011 0.009234 -0.000097 0.000000 -0.000378 0.000000
# 3 -0.001889 -0.000097 0.005639 0.000000 0.001178 0.000000
# 4 0.000000 0.000000 0.000000 0.016737 0.000000 -0.069938
# 5 -0.005334 -0.000378 0.001178 0.000000 0.032879 0.000000
# 6 0.000000 0.000000 0.000000 -0.069938 0.000000 -0.064558
#
#
# Mechanical properties :
#
#
# Convention : Reuss Voigt Hill
#
# Bulk Modulus (GPa) = 49.83838 55.54608 52.69223
# Shear Modulus (GPa) = 210.09080 31.70187 120.89634
#
# Velocity S-wave (km/s) = 8.71554 3.38558 6.61146
# Velocity P-wave (km/s) = 10.92248 5.94695 8.79394
#
# Compressibility (1/GPa) = 0.02006486
#
# Stress axis : x y z
#
# Youngs Moduli (GPa) = 89.39355 108.29720 177.34978
#
# Poissons Ratio (x) = 0.10948 0.33494
# Poissons Ratio (y) = 0.09037 0.01729
# Poissons Ratio (z) = 0.16883 0.01056
#
# Static dielectric constant tensor:
#      x y z
#    x 2.319280 0.000000 0.130930 
#    y 0.000000 2.259980 0.000000 
#    z 0.130930 0.000000 2.269200 
# 
# From -- ./inp_files/14493.got.cif
#   From: 2010.05.17/outbox.cif.g08.bks.cpg/sg13_8_cif.got.tgz:14493.got - 2010.06.03 16:44:36.
