data_PCOD9232384
_publ_section_title
;
Structure prediction by ZEFSAII (Michael W. Deem and Ramdas Pophale) SiO2 
 PCOD9232384
Probable space group: P 2/C
;
_chemical_formula_sum "Si O2"
_cell_formula_units_Z 28
_cell_length_a 14.131924
_cell_length_b 8.901305
_cell_length_c 16.376175
_cell_angle_alpha 90.000000
_cell_angle_beta 139.326998
_cell_angle_gamma 90.000000
_cell_volume 1342.587355
_symmetry_space_group_name_H-M "P 2/C"
_symmetry_group_IT_number 13
_symmetry_cell_setting 'monoclinic'
loop_
_space_group_symop_operation_xyz
x,y,z
-x,y,1/2-z
-x,-y,-z
x,-y,1/2+z
loop_
_atom_site_type_symbol
_atom_site_label
_atom_site_fract_x
_atom_site_fract_y
_atom_site_fract_z
Si Si1 0.837174 0.629958 0.747030
Si Si2 0.176079 0.357997 0.457731
Si Si3 0.618818 0.159951 0.529031
Si Si4 0.390519 0.387396 0.106732
Si Si5 0.661312 0.863138 0.329671
Si Si6 0.700678 0.941014 0.710645
Si Si7 0.613077 0.394143 0.665140
O O1 0.813911 0.632363 0.633895
O O2 0.770944 0.780951 0.741921
O O3 0.753221 0.487895 0.729310
O O4 0.009119 0.629167 0.873519
O O5 0.265661 0.498864 0.552481
O O6 0.247562 0.202877 0.535579
O O7 0.674684 0.250117 0.487237
O O8 0.474462 0.075249 0.405330
O O9 0.568717 0.285017 0.562218
O O10 0.725696 0.051925 0.649609
O O11 0.500000 0.338581 0.250000
O O12 0.490649 0.489577 0.112851
O O13 0.500000 0.912363 0.250000
O O14 0.639540 0.718863 0.256753
O O15 0.737630 0.984939 0.321601
#
# Coordination Sequence:
#
# PCOD9232384 Si02
#       7
#     4   4   4   4   4   4   4
#     4  11  24  41  66  91 126 174 207 253 318 383
#     4  11  23  41  65  91 128 163 212 256 318 371
#     4  10  21  36  63  91 123 155 211 255 300 374
#     4  12  20  36  64  98 117 156 209 271 307 353
#     4  11  23  40  64  94 128 162 211 266 313 362
#     4  10  23  39  61  94 123 171 204 250 319 376
#     4  11  19  38  67  91 118 162 211 261 305 365
#
# _framework density 20.855255
#
# number of rings (size 3 to 8) (size 9 to 14) (size 15 to 20)
#    0.000    1.143    5.714    1.286    4.000    1.714 
#    0.000    0.000   12.571    0.000    0.000    0.000 
#    0.000    0.000    0.000    0.000    0.000    0.000 
#
# Total GULP energy -156477.618804 kJ/mol
# GULP energy per Si atom -5588.486386 kJ/mol
# Density = 2.080779 g / cm^3
# Si number density = 20.855255 Si / 1000 Ang^3
#
#
#
# Elastic Constant Matrix: (Units=GPa)
#
#
# Indices 1 2 3 4 5 6 
#
# 1 49.2873 22.5157 24.4435 0.0000 5.1919 0.0000
# 2 22.5157 66.7769 2.7178 0.0000 -8.7823 0.0000
# 3 24.4435 2.7178 59.9863 0.0000 -0.6439 0.0000
# 4 0.0000 0.0000 0.0000 10.8537 0.0000 -15.2506
# 5 5.1919 -8.7823 -0.6439 0.0000 30.3866 0.0000
# 6 0.0000 0.0000 0.0000 -15.2506 0.0000 31.4562
#
#
#
# Elastic Compliance Matrix: (Units=1/GPa)
#
#
# Indices 1 2 3 4 5 6 
#
# 1 0.033207 -0.011899 -0.013093 0.000000 -0.009390 0.000000
# 2 -0.011899 0.019857 0.004033 0.000000 0.007857 0.000000
# 3 -0.013093 0.004033 0.021865 0.000000 0.003866 0.000000
# 4 0.000000 0.000000 0.000000 0.289021 0.000000 0.140123
# 5 -0.009390 0.007857 0.003866 0.000000 0.036867 0.000000
# 6 0.000000 0.000000 0.000000 0.140123 0.000000 0.099725
#
#
# Mechanical properties :
#
#
# Convention : Reuss Voigt Hill
#
# Bulk Modulus (GPa) = 30.29303 30.60049 30.44676
# Shear Modulus (GPa) = 9.03404 22.96421 15.99912
#
# Velocity S-wave (km/s) = 2.08355 3.32192 2.77275
# Velocity P-wave (km/s) = 4.51056 5.42385 4.98815
#
# Compressibility (1/GPa) = 0.03301090
#
# Stress axis : x y z
#
# Youngs Moduli (GPa) = 30.11368 50.36133 45.73621
#
# Poissons Ratio (x) = 0.59925 0.59883
# Poissons Ratio (y) = 0.35832 -0.18447
# Poissons Ratio (z) = 0.39429 -0.20312
#
# Static dielectric constant tensor:
#      x y z
#    x 1.758030 0.000000 -0.045650 
#    y 0.000000 1.772810 0.000000 
#    z -0.045650 0.000000 1.771370 
# 
# From -- ./inp_files/68262.got.cif
#   From: 2010.05.17/outbox.cif.g08.bks.cpg/sg13_35_cif.got.tgz:68262.got - 2010.06.03 16:44:36.
