data_PCOD9232768
_publ_section_title
;
Structure prediction by ZEFSAII (Michael W. Deem and Ramdas Pophale) SiO2 
 PCOD9232768
Probable space group: P 2/C
;
_chemical_formula_sum "Si O2"
_cell_formula_units_Z 20
_cell_length_a 5.136303
_cell_length_b 23.776710
_cell_length_c 9.915381
_cell_angle_alpha 90.000000
_cell_angle_beta 119.861742
_cell_angle_gamma 90.000000
_cell_volume 1050.136613
_symmetry_space_group_name_H-M "P 2/C"
_symmetry_group_IT_number 13
_symmetry_cell_setting 'monoclinic'
loop_
_space_group_symop_operation_xyz
x,y,z
-x,y,1/2-z
-x,-y,-z
x,-y,1/2+z
loop_
_atom_site_type_symbol
_atom_site_label
_atom_site_fract_x
_atom_site_fract_y
_atom_site_fract_z
Si Si1 0.644274 0.671780 0.141243
Si Si2 0.739406 0.164183 0.934388
Si Si3 0.381575 0.225855 0.067640
Si Si4 0.640155 0.542982 0.141497
Si Si5 0.690233 0.968528 0.434186
O O1 0.500000 0.687217 0.250000
O O2 0.553494 0.607683 0.084791
O O3 0.000000 0.671111 0.250000
O O4 0.592615 0.715680 0.008065
O O5 0.500000 0.172438 0.750000
O O6 0.769527 0.097514 0.966065
O O7 0.596182 0.186476 0.035011
O O8 0.047816 0.197800 0.982084
O O9 0.500000 0.231587 0.250000
O O10 0.500000 0.530556 0.250000
O O11 0.000000 0.538960 0.250000
O O12 0.500000 0.500000 0.000000
O O13 0.500000 0.973828 0.250000
O O14 0.500000 0.000000 0.500000
O O15 0.000000 0.000000 0.500000
#
# Coordination Sequence:
#
# PCOD9232768 Si02
#       5
#     4   4   4   4   4
#     4  10  21  39  61  84 118 163 200 235 295 367
#     4  11  24  42  62  85 118 160 196 232 292 365
#     4  12  24  38  60  91 118 149 197 253 297 336
#     4  10  21  38  61  89 120 158 201 245 297 354
#     4  11  24  41  63  89 118 154 195 239 292 350
#
# _framework density 19.045142999999999
#
# number of rings (size 3 to 8) (size 9 to 14) (size 15 to 20)
#    0.000    1.200    0.000    6.600    0.000    8.800 
#    0.000    2.000    0.000    0.000    0.000    0.000 
#    0.000    0.000    0.000    0.000    0.000    0.000 
#
# Total GULP energy -111709.488001 kJ/mol
# GULP energy per Si atom -5585.474400 kJ/mol
# Density = 1.900180 g / cm^3
# Si number density = 19.045143 Si / 1000 Ang^3
#
#
#
# Elastic Constant Matrix: (Units=GPa)
#
#
# Indices 1 2 3 4 5 6 
#
# 1 175.5013 79.0245 66.7982 0.0000 -22.0737 0.0000
# 2 79.0245 185.8437 122.9885 0.0000 -14.7861 0.0000
# 3 66.7982 122.9885 134.5366 0.0000 -24.0818 0.0000
# 4 0.0000 0.0000 0.0000 87.0784 0.0000 29.3480
# 5 -22.0737 -14.7861 -24.0818 0.0000 34.2316 0.0000
# 6 0.0000 0.0000 0.0000 29.3480 0.0000 53.7999
#
#
#
# Elastic Compliance Matrix: (Units=1/GPa)
#
#
# Indices 1 2 3 4 5 6 
#
# 1 0.007513 -0.002139 -0.001228 0.000000 0.003057 0.000000
# 2 -0.002139 0.014563 -0.013010 0.000000 -0.004241 0.000000
# 3 -0.001228 -0.013010 0.021495 0.000000 0.008710 0.000000
# 4 0.000000 0.000000 0.000000 0.014071 0.000000 -0.007676
# 5 0.003057 -0.004241 0.008710 0.000000 0.035480 0.000000
# 6 0.000000 0.000000 0.000000 -0.007676 0.000000 0.022774
#
#
# Mechanical properties :
#
#
# Convention : Reuss Voigt Hill
#
# Bulk Modulus (GPa) = 92.44406 114.83379 103.63892
# Shear Modulus (GPa) = 32.83988 50.16000 41.49994
#
# Velocity S-wave (km/s) = 4.15700 5.13757 4.67307
# Velocity P-wave (km/s) = 8.46674 9.77851 9.14617
#
# Compressibility (1/GPa) = 0.01081735
#
# Stress axis : x y z
#
# Youngs Moduli (GPa) = 133.10544 68.66860 46.52310
#
# Poissons Ratio (x) = 0.14688 0.05711
# Poissons Ratio (y) = 0.28471 0.60526
# Poissons Ratio (z) = 0.16339 0.89337
#
# Static dielectric constant tensor:
#      x y z
#    x 1.627290 0.000000 -0.000600 
#    y 0.000000 1.721260 0.000000 
#    z -0.000600 0.000000 1.610530 
# 
# From -- ./inp_files/10090.got.cif
#   From: 2010.05.17/outbox.cif.g08.bks.cpg/sg13_6_cif.got.tgz:10090.got - 2010.06.03 16:44:36.
