data_PCOD9232340
_publ_section_title
;
Structure prediction by ZEFSAII (Michael W. Deem and Ramdas Pophale) SiO2 
 PCOD9232340
Probable space group: P 2/C
;
_chemical_formula_sum "Si O2"
_cell_formula_units_Z 24
_cell_length_a 12.325338
_cell_length_b 12.183762
_cell_length_c 13.106970
_cell_angle_alpha 90.000000
_cell_angle_beta 146.810213
_cell_angle_gamma 90.000000
_cell_volume 1077.453407
_symmetry_space_group_name_H-M "P 2/C"
_symmetry_group_IT_number 13
_symmetry_cell_setting 'monoclinic'
loop_
_space_group_symop_operation_xyz
x,y,z
-x,y,1/2-z
-x,-y,-z
x,-y,1/2+z
loop_
_atom_site_type_symbol
_atom_site_label
_atom_site_fract_x
_atom_site_fract_y
_atom_site_fract_z
Si Si1 0.973208 0.546205 0.339587
Si Si2 0.767050 0.025795 0.817347
Si Si3 0.391777 0.606764 0.953880
Si Si4 0.244574 0.625055 0.133378
Si Si5 0.791886 0.839944 0.532177
Si Si6 0.527004 0.163242 0.025546
O O1 0.877802 0.620126 0.354236
O O2 0.000000 0.599343 0.250000
O O3 0.179733 0.492074 0.536584
O O4 0.831518 0.437122 0.213113
O O5 0.690476 0.117620 0.675005
O O6 0.636843 0.919964 0.686852
O O7 0.731636 0.071021 0.901999
O O8 0.000000 0.000000 0.000000
O O9 0.523586 0.631913 0.157227
O O10 0.435218 0.710454 0.915648
O O11 0.500000 0.500000 0.000000
O O12 0.190598 0.726780 0.018616
O O13 0.641127 0.840267 0.506880
O O14 0.000000 0.862946 0.750000
#
# Coordination Sequence:
#
# PCOD9232340 Si02
#       6
#     4   4   4   4   4   4
#     4  10  21  36  59  92 134 182 221 268 334 399
#     4  11  24  41  63  99 134 163 222 282 336 392
#     4  10  21  38  64 100 132 175 217 267 329 392
#     4  10  21  37  60  94 132 168 226 277 320 396
#     4  12  22  40  71  97 125 175 226 280 337 401
#     4  11  23  40  68 100 130 175 221 277 335 399
#
# _framework density 22.274746
#
# number of rings (size 3 to 8) (size 9 to 14) (size 15 to 20)
#    0.000    1.333    3.333    3.000    0.000    2.000 
#    0.000    0.000    3.667    2.000   26.000    0.000 
#    0.000    0.000    0.000    0.000    0.000    0.000 
#
# Total GULP energy -133953.248698 kJ/mol
# GULP energy per Si atom -5581.385362 kJ/mol
# Density = 2.222405 g / cm^3
# Si number density = 22.274746 Si / 1000 Ang^3
#
#
#
# Elastic Constant Matrix: (Units=GPa)
#
#
# Indices 1 2 3 4 5 6 
#
# 1 76.9399 31.2004 15.4578 0.0000 -20.0977 0.0000
# 2 31.2004 129.1247 35.2483 0.0000 -10.4426 0.0000
# 3 15.4578 35.2483 136.4328 0.0000 5.0823 0.0000
# 4 0.0000 0.0000 0.0000 28.4197 0.0000 -5.9508
# 5 -20.0977 -10.4426 5.0823 0.0000 44.7524 0.0000
# 6 0.0000 0.0000 0.0000 -5.9508 0.0000 29.4688
#
#
#
# Elastic Compliance Matrix: (Units=1/GPa)
#
#
# Indices 1 2 3 4 5 6 
#
# 1 0.016247 -0.003023 -0.001311 0.000000 0.006740 0.000000
# 2 -0.003023 0.009115 -0.002050 0.000000 0.001002 0.000000
# 3 -0.001311 -0.002050 0.008082 0.000000 -0.001985 0.000000
# 4 0.000000 0.000000 0.000000 0.036740 0.000000 0.007419
# 5 0.006740 0.001002 -0.001985 0.000000 0.025831 0.000000
# 6 0.000000 0.000000 0.000000 0.007419 0.000000 0.035432
#
#
# Mechanical properties :
#
#
# Convention : Reuss Voigt Hill
#
# Bulk Modulus (GPa) = 48.36333 56.25672 52.31002
# Shear Modulus (GPa) = 33.08908 37.90091 35.49499
#
# Velocity S-wave (km/s) = 3.85840 4.12942 3.99621
# Velocity P-wave (km/s) = 6.45050 6.93158 6.69536
#
# Compressibility (1/GPa) = 0.02067682
#
# Stress axis : x y z
#
# Youngs Moduli (GPa) = 61.55051 109.70326 123.73666
#
# Poissons Ratio (x) = 0.33161 0.16220
# Poissons Ratio (y) = 0.18606 0.25365
# Poissons Ratio (z) = 0.08068 0.22488
#
# Static dielectric constant tensor:
#      x y z
#    x 2.015250 0.000000 0.094090 
#    y 0.000000 1.913330 0.000000 
#    z 0.094090 0.000000 1.962650 
# 
# From -- ./inp_files/53759.got.cif
#   From: 2010.05.17/outbox.cif.g08.bks.cpg/sg13_27_cif.got.tgz:53759.got - 2010.06.03 16:44:36.
