data_PCOD9232572
_publ_section_title
;
Structure prediction by ZEFSAII (Michael W. Deem and Ramdas Pophale) SiO2 
 PCOD9232572
Probable space group: P 2/C
;
_chemical_formula_sum "Si O2"
_cell_formula_units_Z 32
_cell_length_a 9.145563
_cell_length_b 12.218089
_cell_length_c 29.916561
_cell_angle_alpha 90.000000
_cell_angle_beta 152.363291
_cell_angle_gamma 90.000000
_cell_volume 1550.657233
_symmetry_space_group_name_H-M "P 2/C"
_symmetry_group_IT_number 13
_symmetry_cell_setting 'monoclinic'
loop_
_space_group_symop_operation_xyz
x,y,z
-x,y,1/2-z
-x,-y,-z
x,-y,1/2+z
loop_
_atom_site_type_symbol
_atom_site_label
_atom_site_fract_x
_atom_site_fract_y
_atom_site_fract_z
Si Si1 0.256272 0.967397 0.784348
Si Si2 0.628030 0.201738 0.653661
Si Si3 0.768757 0.699941 0.052766
Si Si4 0.965974 0.529237 0.438984
Si Si5 0.146420 0.957701 0.412693
Si Si6 0.379331 0.656304 0.263222
Si Si7 0.748669 0.118095 0.355957
Si Si8 0.784953 0.690229 0.535224
O O1 0.539646 0.890762 0.843961
O O2 0.000000 0.920644 0.750000
O O3 0.413073 0.072962 0.850331
O O4 0.057803 0.013674 0.687474
O O5 0.536297 0.266847 0.673023
O O6 0.453656 0.253707 0.564710
O O7 0.000000 0.217883 0.750000
O O8 0.846564 0.828567 0.076197
O O9 0.856479 0.638843 0.030493
O O10 0.008050 0.643202 0.153836
O O11 0.408360 0.688210 0.970963
O O12 0.596586 0.549688 0.328096
O O13 0.000000 0.500000 0.500000
O O14 0.114952 0.430119 0.451856
O O15 0.500000 0.000000 0.500000
O O16 0.002421 0.022499 0.415954
O O17 0.500000 0.710035 0.250000
O O18 0.500000 0.096846 0.250000
O O19 0.915030 0.231354 0.388597
#
# Coordination Sequence:
#
# PCOD9232572 Si02
#       8
#     4   4   4   4   4   4   4   4
#     4  10  22  40  60  98 139 173 220 274 337 405
#     4  11  20  36  66  93 129 161 216 288 327 397
#     4  11  22  41  69  95 126 172 221 277 339 396
#     4  11  25  40  60  94 130 168 222 279 325 395
#     4  11  21  40  67 101 130 166 225 276 333 412
#     4  10  21  37  62  93 117 163 213 274 336 377
#     4  10  25  40  64  90 136 184 214 270 335 415
#     4  12  23  43  63  96 131 173 224 271 345 399
#
# _framework density 20.636412
#
# number of rings (size 3 to 8) (size 9 to 14) (size 15 to 20)
#    0.000    1.250    5.000    1.125    3.500    2.000 
#    2.250    0.000    0.000    0.750    0.000    0.000 
#    0.000    0.000    0.000    0.000    0.000    0.000 
#
# Total GULP energy -178583.361080 kJ/mol
# GULP energy per Si atom -5580.730034 kJ/mol
# Density = 2.058944 g / cm^3
# Si number density = 20.636412 Si / 1000 Ang^3
#
#
#
# Elastic Constant Matrix: (Units=GPa)
#
#
# Indices 1 2 3 4 5 6 
#
# 1 135.2533 39.9725 19.8873 0.0000 18.4913 0.0000
# 2 39.9725 79.9301 24.6915 0.0000 19.5890 0.0000
# 3 19.8873 24.6915 59.6528 0.0000 16.5082 0.0000
# 4 0.0000 0.0000 0.0000 28.1777 0.0000 18.2748
# 5 18.4913 19.5890 16.5082 0.0000 33.9221 0.0000
# 6 0.0000 0.0000 0.0000 18.2748 0.0000 14.1196
#
#
#
# Elastic Compliance Matrix: (Units=1/GPa)
#
#
# Indices 1 2 3 4 5 6 
#
# 1 0.008908 -0.003623 -0.000815 0.000000 -0.002367 0.000000
# 2 -0.003623 0.017058 -0.004245 0.000000 -0.005810 0.000000
# 3 -0.000815 -0.004245 0.020791 0.000000 -0.007222 0.000000
# 4 0.000000 0.000000 0.000000 0.220993 0.000000 -0.286026
# 5 -0.002367 -0.005810 -0.007222 0.000000 0.037639 0.000000
# 6 0.000000 0.000000 0.000000 -0.286026 0.000000 0.441022
#
#
# Mechanical properties :
#
#
# Convention : Reuss Voigt Hill
#
# Bulk Modulus (GPa) = 34.02411 49.32651 41.67531
# Shear Modulus (GPa) = 6.46351 27.92955 17.19653
#
# Velocity S-wave (km/s) = 1.77169 3.68286 2.88984
# Velocity P-wave (km/s) = 4.55065 6.48376 5.60123
#
# Compressibility (1/GPa) = 0.02939092
#
# Stress axis : x y z
#
# Youngs Moduli (GPa) = 112.26302 58.62410 48.09722
#
# Poissons Ratio (x) = 0.21238 0.03920
# Poissons Ratio (y) = 0.40670 0.20417
# Poissons Ratio (z) = 0.09151 0.24886
#
# Static dielectric constant tensor:
#      x y z
#    x 1.809350 0.000000 0.021260 
#    y 0.000000 1.737400 0.000000 
#    z 0.021260 0.000000 1.776530 
# 
# From -- ./inp_files/96123.got.cif
#   From: 2010.05.17/outbox.cif.g08.bks.cpg/sg13_49_cif.got.tgz:96123.got - 2010.06.03 16:44:36.
