data_PCOD9232441
_publ_section_title
;
Structure prediction by ZEFSAII (Michael W. Deem and Ramdas Pophale) SiO2 
 PCOD9232441
Probable space group: P 2/C
;
_chemical_formula_sum "Si O2"
_cell_formula_units_Z 24
_cell_length_a 17.575086
_cell_length_b 12.593970
_cell_length_c 9.771203
_cell_angle_alpha 90.000000
_cell_angle_beta 28.985128
_cell_angle_gamma 90.000000
_cell_volume 1048.035394
_symmetry_space_group_name_H-M "P 2/C"
_symmetry_group_IT_number 13
_symmetry_cell_setting 'monoclinic'
loop_
_space_group_symop_operation_xyz
x,y,z
-x,y,1/2-z
-x,-y,-z
x,-y,1/2+z
loop_
_atom_site_type_symbol
_atom_site_label
_atom_site_fract_x
_atom_site_fract_y
_atom_site_fract_z
Si Si1 0.936116 0.612735 0.049783
Si Si2 0.148212 0.282979 0.412762
Si Si3 0.581947 0.852540 0.478986
Si Si4 0.689899 0.636080 0.219373
Si Si5 0.636187 0.083270 0.421860
Si Si6 0.338380 0.413656 0.326627
O O1 0.854002 0.609553 0.033265
O O2 0.779837 0.641441 0.383251
O O3 0.000000 0.500000 0.000000
O O4 0.075729 0.688648 0.878651
O O5 0.229267 0.169533 0.272902
O O6 0.273832 0.367461 0.281261
O O7 0.000000 0.284087 0.750000
O O8 0.500000 0.818238 0.750000
O O9 0.675240 0.763093 0.247534
O O10 0.441290 0.889702 0.601994
O O11 0.681038 0.959196 0.353405
O O12 0.680433 0.540632 0.124307
O O13 0.520714 0.610494 0.556403
O O14 0.500000 0.097502 0.750000
#
# Coordination Sequence:
#
# PCOD9232441 Si02
#       6
#     4   4   4   4   4   4
#     4  11  22  36  55  85 127 163 194 256 331 373
#     4  10  21  40  62  88 125 169 204 255 326 389
#     4  10  21  39  67  90 124 166 220 264 315 372
#     4  11  21  37  62  89 114 163 214 257 300 387
#     4  10  22  42  66  96 125 165 220 272 315 370
#     4  10  21  37  57  88 116 156 213 252 303 390
#
# _framework density 22.899989999999999
#
# number of rings (size 3 to 8) (size 9 to 14) (size 15 to 20)
#    0.000    1.667    3.333    1.500    2.333    1.333 
#    0.000    0.833    3.667    0.000    0.000    0.000 
#    0.000    0.000    0.000    0.000    0.000    0.000 
#
# Total GULP energy -133779.836293 kJ/mol
# GULP energy per Si atom -5574.159846 kJ/mol
# Density = 2.284787 g / cm^3
# Si number density = 22.899990 Si / 1000 Ang^3
#
#
#
# Elastic Constant Matrix: (Units=GPa)
#
#
# Indices 1 2 3 4 5 6 
#
# 1 57.8401 8.6826 18.5741 0.0000 -15.0161 0.0000
# 2 8.6826 151.5619 34.8069 0.0000 -21.3552 0.0000
# 3 18.5741 34.8069 104.2691 0.0000 -25.9559 0.0000
# 4 0.0000 0.0000 0.0000 44.4638 0.0000 -9.9025
# 5 -15.0161 -21.3552 -25.9559 0.0000 37.9988 0.0000
# 6 0.0000 0.0000 0.0000 -9.9025 0.0000 28.0373
#
#
#
# Elastic Compliance Matrix: (Units=1/GPa)
#
#
# Indices 1 2 3 4 5 6 
#
# 1 0.019575 0.000247 -0.001939 0.000000 0.006550 0.000000
# 2 0.000247 0.007420 -0.001757 0.000000 0.003067 0.000000
# 3 -0.001939 -0.001757 0.012152 0.000000 0.006547 0.000000
# 4 0.000000 0.000000 0.000000 0.024410 0.000000 0.008621
# 5 0.006550 0.003067 0.006547 0.000000 0.035101 0.000000
# 6 0.000000 0.000000 0.000000 0.008621 0.000000 0.038712
#
#
# Mechanical properties :
#
#
# Convention : Reuss Voigt Hill
#
# Bulk Modulus (GPa) = 31.00969 48.64425 39.82697
# Shear Modulus (GPa) = 32.25433 38.87382 35.56408
#
# Velocity S-wave (km/s) = 3.75705 4.12460 3.94511
# Velocity P-wave (km/s) = 5.69134 6.63108 6.17910
#
# Compressibility (1/GPa) = 0.03224799
#
# Stress axis : x y z
#
# Youngs Moduli (GPa) = 51.08543 134.77957 82.28855
#
# Poissons Ratio (x) = -0.03326 0.15955
# Poissons Ratio (y) = -0.01261 0.14460
# Poissons Ratio (z) = 0.09905 0.23684
#
# Static dielectric constant tensor:
#      x y z
#    x 1.983940 0.000000 0.096700 
#    y 0.000000 2.608310 0.000000 
#    z 0.096700 0.000000 1.862140 
# 
# From -- ./inp_files/39095.got.cif
#   From: 2010.05.17/outbox.cif.g08.bks.cpg/sg13_20_cif.got.tgz:39095.got - 2010.06.03 16:44:36.
