data_PCOD9232113
_publ_section_title
;
Structure prediction by ZEFSAII (Michael W. Deem and Ramdas Pophale) SiO2 
 PCOD9232113
Probable space group: P 2/C
;
_chemical_formula_sum "Si O2"
_cell_formula_units_Z 26
_cell_length_a 22.656766
_cell_length_b 4.870068
_cell_length_c 8.353003
_cell_angle_alpha 90.000000
_cell_angle_beta 105.999521
_cell_angle_gamma 90.000000
_cell_volume 885.968457
_symmetry_space_group_name_H-M "P 2/C"
_symmetry_group_IT_number 13
_symmetry_cell_setting 'monoclinic'
loop_
_space_group_symop_operation_xyz
x,y,z
-x,y,1/2-z
-x,-y,-z
x,-y,1/2+z
loop_
_atom_site_type_symbol
_atom_site_label
_atom_site_fract_x
_atom_site_fract_y
_atom_site_fract_z
Si Si1 0.739443 0.947210 0.295432
Si Si2 0.837839 0.743148 0.678423
Si Si3 0.276814 0.597468 0.475755
Si Si4 0.000000 0.702759 0.250000
Si Si5 0.916732 0.676188 0.455824
Si Si6 0.457459 0.182419 0.584003
Si Si7 0.380271 0.244826 0.246573
O O1 0.803489 0.043450 0.265909
O O2 0.739141 0.102827 0.464566
O O3 0.674103 0.088819 0.195987
O O4 0.726698 0.644928 0.217014
O O5 0.781472 0.594462 0.542275
O O6 0.880840 0.843226 0.565918
O O7 0.873809 0.526983 0.818254
O O8 0.343536 0.548684 0.600943
O O9 0.044260 0.841373 0.149523
O O10 0.040808 0.513163 0.397945
O O11 0.500000 0.327004 0.750000
O O12 0.422553 0.355562 0.420806
O O13 0.500000 0.000000 0.500000
O O14 0.415216 0.972884 0.657866
#
# Coordination Sequence:
#
# PCOD9232113 Si02
#       7
#     4   4   4   2   4   4   4
#     4  10  21  34  53  78 116 147 176 212 284 329
#     4  11  20  35  52  88 111 144 179 223 264 344
#     4  10  21  34  53  78 116 145 176 214 279 332
#     4   8  16  30  52  82  98 150 178 236 266 296
#     4   9  17  31  53  78 115 129 195 223 262 322
#     4   9  16  26  50  75 100 134 182 227 259 301
#     4   9  15  33  43  75 107 131 177 221 257 331
#
# _framework density 29.346418
#
# number of rings (size 3 to 8) (size 9 to 14) (size 15 to 20)
#    0.923    1.538    3.077    0.000    2.154    0.000 
#    0.000    0.000    0.000    0.000    0.000   89.385 
#    0.000    0.000    0.000    0.000    0.000    0.000 
#
# Total GULP energy -145128.308842 kJ/mol
# GULP energy per Si atom -5581.858032 kJ/mol
# Density = 2.927962 g / cm^3
# Si number density = 29.346418 Si / 1000 Ang^3
#
#
#
# Elastic Constant Matrix: (Units=GPa)
#
#
# Indices 1 2 3 4 5 6 
#
# 1 170.7037 40.7638 62.5060 0.0000 -64.2624 0.0000
# 2 40.7638 49.2529 44.7048 0.0000 -16.7693 0.0000
# 3 62.5060 44.7048 239.2238 0.0000 31.5059 0.0000
# 4 0.0000 0.0000 0.0000 169.3230 0.0000 -59.5815
# 5 -64.2624 -16.7693 31.5059 0.0000 88.4656 0.0000
# 6 0.0000 0.0000 0.0000 -59.5815 0.0000 32.2367
#
#
#
# Elastic Compliance Matrix: (Units=1/GPa)
#
#
# Indices 1 2 3 4 5 6 
#
# 1 0.011187 -0.003086 -0.003504 0.000000 0.008789 0.000000
# 2 -0.003086 0.029578 -0.005418 0.000000 0.005295 0.000000
# 3 -0.003504 -0.005418 0.006902 0.000000 -0.006030 0.000000
# 4 0.000000 0.000000 0.000000 0.016892 0.000000 0.031220
# 5 0.008789 0.005295 -0.006030 0.000000 0.020840 0.000000
# 6 0.000000 0.000000 0.000000 0.031220 0.000000 0.088723
#
#
# Mechanical properties :
#
#
# Convention : Reuss Voigt Hill
#
# Bulk Modulus (GPa) = 42.28131 83.90329 63.09230
# Shear Modulus (GPa) = 24.26936 78.75210 51.51073
#
# Velocity S-wave (km/s) = 2.87887 5.18590 4.19413
# Velocity P-wave (km/s) = 5.04871 8.03186 6.70822
#
# Compressibility (1/GPa) = 0.02365111
#
# Stress axis : x y z
#
# Youngs Moduli (GPa) = 89.39248 33.80860 144.87595
#
# Poissons Ratio (x) = 0.10433 0.50761
# Poissons Ratio (y) = 0.27586 0.78500
# Poissons Ratio (z) = 0.31321 0.18319
#
# Static dielectric constant tensor:
#      x y z
#    x 2.420030 0.000000 -0.019380 
#    y 0.000000 2.452720 0.000000 
#    z -0.019380 0.000000 2.618600 
# 
# From -- ./inp_files/23826.got.cif
#   From: 2010.05.17/outbox.cif.g08.bks.cpg/sg13_12_cif.got.tgz:23826.got - 2010.06.03 16:44:36.
