data_PCOD9232422
_publ_section_title
;
Structure prediction by ZEFSAII (Michael W. Deem and Ramdas Pophale) SiO2 
 PCOD9232422
Probable space group: P 2/C
;
_chemical_formula_sum "Si O2"
_cell_formula_units_Z 28
_cell_length_a 8.247655
_cell_length_b 17.055974
_cell_length_c 19.610824
_cell_angle_alpha 90.000000
_cell_angle_beta 150.772321
_cell_angle_gamma 90.000000
_cell_volume 1347.016598
_symmetry_space_group_name_H-M "P 2/C"
_symmetry_group_IT_number 13
_symmetry_cell_setting 'monoclinic'
loop_
_space_group_symop_operation_xyz
x,y,z
-x,y,1/2-z
-x,-y,-z
x,-y,1/2+z
loop_
_atom_site_type_symbol
_atom_site_label
_atom_site_fract_x
_atom_site_fract_y
_atom_site_fract_z
Si Si1 0.219664 0.820333 0.263861
Si Si2 0.091773 0.900274 0.955177
Si Si3 0.799782 0.512523 0.497194
Si Si4 0.040336 0.753111 0.843477
Si Si5 0.624858 0.666499 0.135544
Si Si6 0.659401 0.404158 0.232524
Si Si7 0.097659 0.068104 0.609090
O O1 0.525096 0.876995 0.393793
O O2 0.347432 0.732956 0.295662
O O3 0.028431 0.858938 0.131931
O O4 0.000000 0.813956 0.250000
O O5 0.963782 0.828223 0.863045
O O6 0.953673 0.911806 0.981576
O O7 0.039431 0.987990 0.908783
O O8 0.572997 0.590286 0.413066
O O9 0.572388 0.435811 0.412995
O O10 0.000000 0.500000 0.500000
O O11 0.051591 0.530812 0.650512
O O12 0.000000 0.775640 0.750000
O O13 0.794682 0.680994 0.766697
O O14 0.397673 0.713932 0.996197
O O15 0.000000 0.647006 0.250000
O O16 0.500000 0.400737 0.250000
O O17 0.500000 0.060082 0.750000
#
# Coordination Sequence:
#
# PCOD9232422 Si02
#       7
#     4   4   4   4   4   4   4
#     4   9  18  34  56  84 113 144 190 239 284 341
#     4   9  19  36  54  77 112 150 188 234 291 346
#     4   9  18  35  57  80 110 146 188 237 289 347
#     4  10  21  37  56  82 117 152 192 241 292 348
#     4   9  19  37  57  82 114 151 194 239 288 350
#     4   9  19  36  55  79 111 146 188 237 287 343
#     4   9  18  35  57  80 109 147 189 235 286 344
#
# _framework density 20.786677000000001
#
# number of rings (size 3 to 8) (size 9 to 14) (size 15 to 20)
#    0.000    2.857    0.000    0.000    0.000    3.429 
#    0.000   35.000    0.000    0.000    0.000    0.000 
#    0.000    0.000    0.000    0.000    0.000    0.000 
#
# Total GULP energy -155924.710624 kJ/mol
# GULP energy per Si atom -5568.739665 kJ/mol
# Density = 2.073937 g / cm^3
# Si number density = 20.786677 Si / 1000 Ang^3
#
#
#
# Elastic Constant Matrix: (Units=GPa)
#
#
# Indices 1 2 3 4 5 6 
#
# 1 38.3255 47.3394 23.8244 0.0000 -0.5334 0.0000
# 2 47.3394 98.3015 45.8286 0.0000 -9.5656 0.0000
# 3 23.8244 45.8286 41.2981 0.0000 -5.8602 0.0000
# 4 0.0000 0.0000 0.0000 35.2187 0.0000 1.5896
# 5 -0.5334 -9.5656 -5.8602 0.0000 27.8471 0.0000
# 6 0.0000 0.0000 0.0000 1.5896 0.0000 28.2141
#
#
#
# Elastic Compliance Matrix: (Units=1/GPa)
#
#
# Indices 1 2 3 4 5 6 
#
# 1 0.067948 -0.030620 -0.006728 0.000000 -0.010632 0.000000
# 2 -0.030620 0.035031 -0.020188 0.000000 0.007198 0.000000
# 3 -0.006728 -0.020188 0.051019 0.000000 0.003673 0.000000
# 4 0.000000 0.000000 0.000000 0.028466 0.000000 -0.001604
# 5 -0.010632 0.007198 0.003673 0.000000 0.038952 0.000000
# 6 0.000000 0.000000 0.000000 -0.001604 0.000000 0.035534
#
#
# Mechanical properties :
#
#
# Convention : Reuss Voigt Hill
#
# Bulk Modulus (GPa) = 25.68963 45.76774 35.72868
# Shear Modulus (GPa) = 12.98707 22.31819 17.65263
#
# Velocity S-wave (km/s) = 2.50227 3.28026 2.91731
# Velocity P-wave (km/s) = 4.55346 6.03427 5.34539
#
# Compressibility (1/GPa) = 0.03892621
#
# Stress axis : x y z
#
# Youngs Moduli (GPa) = 14.71704 28.54642 19.60040
#
# Poissons Ratio (x) = 0.87409 0.13188
# Poissons Ratio (y) = 0.45064 0.39569
# Poissons Ratio (z) = 0.09902 0.57629
#
# Static dielectric constant tensor:
#      x y z
#    x -1.201910 0.000000 -1.213920 
#    y 0.000000 1.756170 0.000000 
#    z -1.213920 0.000000 1.308400 
# 
# From -- ./inp_files/76769.got.cif
#   From: 2010.05.17/outbox.cif.g08.bks.cpg/sg13_39_cif.got.tgz:76769.got - 2010.06.03 16:44:36.
