data_PCOD9232649
_publ_section_title
;
Structure prediction by ZEFSAII (Michael W. Deem and Ramdas Pophale) SiO2 
 PCOD9232649
Probable space group: P 2/C
;
_chemical_formula_sum "Si O2"
_cell_formula_units_Z 32
_cell_length_a 12.869319
_cell_length_b 18.738158
_cell_length_c 15.138494
_cell_angle_alpha 90.000000
_cell_angle_beta 152.626094
_cell_angle_gamma 90.000000
_cell_volume 1678.532523
_symmetry_space_group_name_H-M "P 2/C"
_symmetry_group_IT_number 13
_symmetry_cell_setting 'monoclinic'
loop_
_space_group_symop_operation_xyz
x,y,z
-x,y,1/2-z
-x,-y,-z
x,-y,1/2+z
loop_
_atom_site_type_symbol
_atom_site_label
_atom_site_fract_x
_atom_site_fract_y
_atom_site_fract_z
Si Si1 0.275228 0.752519 0.020945
Si Si2 0.006639 0.655858 0.572494
Si Si3 0.797736 0.466138 0.166999
Si Si4 0.413663 0.113946 0.914219
Si Si5 0.132570 0.020265 0.258319
Si Si6 0.342522 0.393489 0.838389
Si Si7 0.592770 0.741475 0.585644
Si Si8 0.256217 0.894074 0.102020
O O1 0.500000 0.747455 0.250000
O O2 0.321818 0.749387 0.952376
O O3 0.179962 0.829354 0.980340
O O4 0.124619 0.688222 0.942405
O O5 0.130023 0.584456 0.697237
O O6 0.835718 0.635886 0.366559
O O7 0.194437 0.716678 0.695260
O O8 0.751695 0.544711 0.169695
O O9 0.000000 0.466506 0.250000
O O10 0.562799 0.429716 0.957818
O O11 0.470493 0.184346 0.012816
O O12 0.312805 0.134513 0.742225
O O13 0.238497 0.057320 0.821687
O O14 0.652261 0.073123 0.080671
O O15 0.000000 0.022255 0.250000
O O16 0.941294 0.047953 0.046127
O O17 0.425528 0.325384 0.956125
O O18 0.500000 0.921470 0.250000
#
# Coordination Sequence:
#
# PCOD9232649 Si02
#       8
#     4   4   4   4   4   4   4   4
#     4  11  18  30  53  80 110 138 174 229 289 338
#     4  11  20  32  55  81 114 144 175 227 289 336
#     4  10  22  36  56  82 109 149 190 224 273 330
#     4  11  22  36  56  83 110 151 190 231 293 343
#     4  11  22  36  55  80 113 148 193 240 281 345
#     4  10  21  38  54  80 115 143 183 234 275 332
#     4  11  20  34  52  80 110 143 184 227 283 344
#     4  11  19  35  56  80 116 148 181 230 295 347
#
# _framework density 19.064271999999999
#
# number of rings (size 3 to 8) (size 9 to 14) (size 15 to 20)
#    0.000    1.250    5.000    3.375    0.000    0.000 
#    0.000    0.625    0.000    0.000    0.000    1.750 
#    0.000    0.000    0.000    0.000    0.000    0.000 
#
# Total GULP energy -178606.431837 kJ/mol
# GULP energy per Si atom -5581.450995 kJ/mol
# Density = 1.902088 g / cm^3
# Si number density = 19.064272 Si / 1000 Ang^3
#
#
#
# Elastic Constant Matrix: (Units=GPa)
#
#
# Indices 1 2 3 4 5 6 
#
# 1 24.6938 20.7112 21.9727 0.0000 12.0719 0.0000
# 2 20.7112 135.6189 42.6961 0.0000 21.2323 0.0000
# 3 21.9727 42.6961 123.5199 0.0000 5.3961 0.0000
# 4 0.0000 0.0000 0.0000 34.2397 0.0000 7.5826
# 5 12.0719 21.2323 5.3961 0.0000 19.5594 0.0000
# 6 0.0000 0.0000 0.0000 7.5826 0.0000 27.1402
#
#
#
# Elastic Compliance Matrix: (Units=1/GPa)
#
#
# Indices 1 2 3 4 5 6 
#
# 1 0.069654 -0.001359 -0.010231 0.000000 -0.038692 0.000000
# 2 -0.001359 0.009884 -0.002776 0.000000 -0.009124 0.000000
# 3 -0.010231 -0.002776 0.010596 0.000000 0.006405 0.000000
# 4 0.000000 0.000000 0.000000 0.031132 0.000000 -0.008698
# 5 -0.038692 -0.009124 0.006405 0.000000 0.083145 0.000000
# 6 0.000000 0.000000 0.000000 -0.008698 0.000000 0.039276
#
#
# Mechanical properties :
#
#
# Convention : Reuss Voigt Hill
#
# Bulk Modulus (GPa) = 16.28603 50.51029 33.39816
# Shear Modulus (GPa) = 17.07157 29.41803 23.24480
#
# Velocity S-wave (km/s) = 2.99569 3.93249 3.49562
# Velocity P-wave (km/s) = 4.53065 6.86816 5.81801
#
# Compressibility (1/GPa) = 0.06140230
#
# Stress axis : x y z
#
# Youngs Moduli (GPa) = 14.35664 101.17769 94.37927
#
# Poissons Ratio (x) = 0.13749 0.96556
# Poissons Ratio (y) = 0.01951 0.26200
# Poissons Ratio (z) = 0.14688 0.28087
#
# Static dielectric constant tensor:
#      x y z
#    x 1.651630 0.000000 0.014530 
#    y 0.000000 1.699150 0.000000 
#    z 0.014530 0.000000 1.720010 
# 
# From -- ./inp_files/51678.got.cif
#   From: 2010.05.17/outbox.cif.g08.bks.cpg/sg13_26_cif.got.tgz:51678.got - 2010.06.03 16:44:36.
