data_PCOD9232181
_publ_section_title
;
Structure prediction by ZEFSAII (Michael W. Deem and Ramdas Pophale) SiO2 
 PCOD9232181
Probable space group: P 2/C
;
_chemical_formula_sum "Si O2"
_cell_formula_units_Z 20
_cell_length_a 26.390249
_cell_length_b 9.385547
_cell_length_c 9.586227
_cell_angle_alpha 90.000000
_cell_angle_beta 152.902503
_cell_angle_gamma 90.000000
_cell_volume 1081.545772
_symmetry_space_group_name_H-M "P 2/C"
_symmetry_group_IT_number 13
_symmetry_cell_setting 'monoclinic'
loop_
_space_group_symop_operation_xyz
x,y,z
-x,y,1/2-z
-x,-y,-z
x,-y,1/2+z
loop_
_atom_site_type_symbol
_atom_site_label
_atom_site_fract_x
_atom_site_fract_y
_atom_site_fract_z
Si Si1 0.203966 0.152902 0.482514
Si Si2 0.631968 0.392800 0.562262
Si Si3 0.748905 0.606948 0.050076
Si Si4 0.133712 0.100525 0.609690
Si Si5 0.058566 0.398545 0.030608
O O1 0.313904 0.250800 0.734015
O O2 0.197173 0.087019 0.618404
O O3 0.108084 0.271696 0.241495
O O4 0.170510 0.033454 0.291292
O O5 0.674311 0.387578 0.506324
O O6 0.679828 0.535752 0.754071
O O7 0.500000 0.390889 0.250000
O O8 0.813904 0.756567 0.191664
O O9 0.846534 0.493151 0.309162
O O10 0.000000 0.107776 0.250000
O O11 0.000000 0.336985 0.750000
O O12 0.000000 0.500000 0.000000
#
# Coordination Sequence:
#
# PCOD9232181 Si02
#       5
#     4   4   4   4   4
#     4  10  23  36  54  81 112 150 188 226 279 342
#     4  10  21  40  59  80 109 145 193 247 285 323
#     4  10  21  35  57  84 109 143 189 233 282 343
#     4  11  21  36  54  82 117 146 178 224 280 347
#     4  11  20  35  56  83 115 150 186 230 283 341
#
# _framework density 18.492051
#
# number of rings (size 3 to 8) (size 9 to 14) (size 15 to 20)
#    0.000    1.600    0.000    7.200    0.000    4.800 
#    0.000    5.000    0.000    0.000    0.000    0.000 
#    0.000    0.000    0.000    0.000    0.000    0.000 
#
# Total GULP energy -111440.399368 kJ/mol
# GULP energy per Si atom -5572.019968 kJ/mol
# Density = 1.844996 g / cm^3
# Si number density = 18.492051 Si / 1000 Ang^3
#
#
#
# Elastic Constant Matrix: (Units=GPa)
#
#
# Indices 1 2 3 4 5 6 
#
# 1 55.4096 34.9520 18.5961 0.0000 6.6075 0.0000
# 2 34.9520 131.7720 49.3574 0.0000 -5.4267 0.0000
# 3 18.5961 49.3574 93.5750 0.0000 8.4822 0.0000
# 4 0.0000 0.0000 0.0000 9.4498 0.0000 -9.6336
# 5 6.6075 -5.4267 8.4822 0.0000 26.7435 0.0000
# 6 0.0000 0.0000 0.0000 -9.6336 0.0000 30.6291
#
#
#
# Elastic Compliance Matrix: (Units=1/GPa)
#
#
# Indices 1 2 3 4 5 6 
#
# 1 0.022924 -0.006075 -0.000748 0.000000 -0.006659 0.000000
# 2 -0.006075 0.011417 -0.005314 0.000000 0.005503 0.000000
# 3 -0.000748 -0.005314 0.014125 0.000000 -0.005373 0.000000
# 4 0.000000 0.000000 0.000000 0.155768 0.000000 0.048992
# 5 -0.006659 0.005503 -0.005373 0.000000 0.041859 0.000000
# 6 0.000000 0.000000 0.000000 0.048992 0.000000 0.048058
#
#
# Mechanical properties :
#
#
# Convention : Reuss Voigt Hill
#
# Bulk Modulus (GPa) = 41.33258 54.06307 47.69783
# Shear Modulus (GPa) = 15.31449 25.22122 20.26786
#
# Velocity S-wave (km/s) = 2.88091 3.69710 3.31423
# Velocity P-wave (km/s) = 5.78500 6.89377 6.36358
#
# Compressibility (1/GPa) = 0.02419399
#
# Stress axis : x y z
#
# Youngs Moduli (GPa) = 43.62154 87.58776 70.79588
#
# Poissons Ratio (x) = 0.53207 0.05295
# Poissons Ratio (y) = 0.26499 0.37619
# Poissons Ratio (z) = 0.03263 0.46542
#
# Static dielectric constant tensor:
#      x y z
#    x 1.613050 0.000000 0.007140 
#    y 0.000000 1.645050 0.000000 
#    z 0.007140 0.000000 1.656900 
# 
# From -- ./inp_files/14804.got.cif
#   From: 2010.05.17/outbox.cif.g08.bks.cpg/sg13_8_cif.got.tgz:14804.got - 2010.06.03 16:44:36.
