data_PCOD9232739
_publ_section_title
;
Structure prediction by ZEFSAII (Michael W. Deem and Ramdas Pophale) SiO2 
 PCOD9232739
Probable space group: P 2/C
;
_chemical_formula_sum "Si O2"
_cell_formula_units_Z 16
_cell_length_a 8.325559
_cell_length_b 9.960689
_cell_length_c 9.765395
_cell_angle_alpha 90.000000
_cell_angle_beta 61.431040
_cell_angle_gamma 90.000000
_cell_volume 711.224795
_symmetry_space_group_name_H-M "P 2/C"
_symmetry_group_IT_number 13
_symmetry_cell_setting 'monoclinic'
loop_
_space_group_symop_operation_xyz
x,y,z
-x,y,1/2-z
-x,-y,-z
x,-y,1/2+z
loop_
_atom_site_type_symbol
_atom_site_label
_atom_site_fract_x
_atom_site_fract_y
_atom_site_fract_z
Si Si1 0.203543 0.159107 0.217254
Si Si2 0.705976 0.949554 0.110369
Si Si3 0.702229 0.554279 0.886852
Si Si4 0.274090 0.345086 0.835970
O O1 0.305376 0.301775 0.186253
O O2 0.000000 0.188695 0.250000
O O3 0.197432 0.076333 0.360030
O O4 0.287305 0.071763 0.056309
O O5 0.500000 0.963091 0.250000
O O6 0.780860 0.809804 0.142500
O O7 0.788578 0.437811 0.761551
O O8 0.500000 0.500000 0.000000
O O9 0.789577 0.588144 0.996824
O O10 0.500000 0.343534 0.750000
#
# Coordination Sequence:
#
# PCOD9232739 Si02
#       4
#     4   4   4   4
#     4  11  23  39  59  90 125 155 193 250 304 347
#     4  10  21  38  60  87 119 159 203 241 285 359
#     4   9  18  34  55  79 110 151 195 236 283 348
#     4   8  16  31  52  78 106 139 190 241 274 326
#
# _framework density 22.496403999999998
#
# number of rings (size 3 to 8) (size 9 to 14) (size 15 to 20)
#    0.000    2.500    0.000    3.000    0.000    5.000 
#    0.000    6.250    0.000    0.000    0.000    0.000 
#    0.000    0.000    0.000    0.000    0.000    0.000 
#
# Total GULP energy -89305.191103 kJ/mol
# GULP energy per Si atom -5581.574444 kJ/mol
# Density = 2.244520 g / cm^3
# Si number density = 22.496404 Si / 1000 Ang^3
#
#
#
# Elastic Constant Matrix: (Units=GPa)
#
#
# Indices 1 2 3 4 5 6 
#
# 1 33.9087 35.5270 1.6678 0.0000 -13.8056 0.0000
# 2 35.5270 129.3196 15.7105 0.0000 8.5573 0.0000
# 3 1.6678 15.7105 55.0429 0.0000 -4.8550 0.0000
# 4 0.0000 0.0000 0.0000 41.3551 0.0000 15.0276
# 5 -13.8056 8.5573 -4.8550 0.0000 17.7400 0.0000
# 6 0.0000 0.0000 0.0000 15.0276 0.0000 16.8450
#
#
#
# Elastic Compliance Matrix: (Units=1/GPa)
#
#
# Indices 1 2 3 4 5 6 
#
# 1 0.130964 -0.047159 0.020995 0.000000 0.130413 0.000000
# 2 -0.047159 0.025376 -0.010381 0.000000 -0.051782 0.000000
# 3 0.020995 -0.010381 0.022931 0.000000 0.027622 0.000000
# 4 0.000000 0.000000 0.000000 0.035780 0.000000 -0.031919
# 5 0.130413 -0.051782 0.027622 0.000000 0.190397 0.000000
# 6 0.000000 0.000000 0.000000 -0.031919 0.000000 0.087840
#
#
# Mechanical properties :
#
#
# Convention : Reuss Voigt Hill
#
# Bulk Modulus (GPa) = 9.41794 36.00908 22.71351
# Shear Modulus (GPa) = 8.30879 26.21242 17.26061
#
# Velocity S-wave (km/s) = 1.92390 3.41718 2.77295
# Velocity P-wave (km/s) = 3.02171 5.62235 4.51340
#
# Compressibility (1/GPa) = 0.10618038
#
# Stress axis : x y z
#
# Youngs Moduli (GPa) = 7.63567 39.40711 43.60922
#
# Poissons Ratio (x) = 1.85840 -0.91557
# Poissons Ratio (y) = 0.36009 0.45272
# Poissons Ratio (z) = -0.16031 0.40910
#
# Static dielectric constant tensor:
#      x y z
#    x 1.871230 0.000000 -0.070610 
#    y 0.000000 1.838340 0.000000 
#    z -0.070610 0.000000 1.928160 
# 
# From -- ./inp_files/10881.got.cif
#   From: 2010.05.17/outbox.cif.g08.bks.cpg/sg13_6_cif.got.tgz:10881.got - 2010.06.03 16:44:36.
