data_PCOD9232360
_publ_section_title
;
Structure prediction by ZEFSAII (Michael W. Deem and Ramdas Pophale) SiO2 
 PCOD9232360
Probable space group: P 2/C
;
_chemical_formula_sum "Si O2"
_cell_formula_units_Z 32
_cell_length_a 14.019480
_cell_length_b 18.243425
_cell_length_c 12.101750
_cell_angle_alpha 90.000000
_cell_angle_beta 29.179066
_cell_angle_gamma 90.000000
_cell_volume 1509.028094
_symmetry_space_group_name_H-M "P 2/C"
_symmetry_group_IT_number 13
_symmetry_cell_setting 'monoclinic'
loop_
_space_group_symop_operation_xyz
x,y,z
-x,y,1/2-z
-x,-y,-z
x,-y,1/2+z
loop_
_atom_site_type_symbol
_atom_site_label
_atom_site_fract_x
_atom_site_fract_y
_atom_site_fract_z
Si Si1 0.477164 0.635895 0.145584
Si Si2 0.918838 0.584952 0.956794
Si Si3 0.457507 0.917522 0.418292
Si Si4 0.654947 0.174419 0.008631
Si Si5 0.182842 0.300425 0.499499
Si Si6 0.194602 0.954805 0.268160
Si Si7 0.657146 0.225258 0.354884
Si Si8 0.737706 0.566729 0.714225
O O1 0.500000 0.614817 0.250000
O O2 0.247456 0.645649 0.357037
O O3 0.596670 0.709539 0.997893
O O4 0.560274 0.573833 0.979629
O O5 0.000000 0.589608 0.750000
O O6 0.081053 0.588316 0.887872
O O7 0.806784 0.507417 0.086529
O O8 0.500000 0.899835 0.250000
O O9 0.663718 0.930711 0.273400
O O10 0.327578 0.851941 0.600808
O O11 0.329839 0.989875 0.562061
O O12 0.814691 0.118388 0.798305
O O13 0.500000 0.135889 0.250000
O O14 0.736469 0.241971 0.995575
O O15 0.525225 0.209723 0.042855
O O16 0.168052 0.252995 0.400961
O O17 0.302462 0.370497 0.336193
O O18 0.000000 0.332482 0.750000
O O19 0.000000 0.000000 0.500000
#
# Coordination Sequence:
#
# PCOD9232360 Si02
#       8
#     4   4   4   4   4   4   4   4
#     4  11  21  39  61  87 118 161 203 250 312 361
#     4  11  22  40  64  87 125 163 203 261 310 370
#     4  10  21  41  61  87 125 164 199 254 311 369
#     4   9  19  39  58  88 120 160 198 255 314 363
#     4  10  21  36  61  89 120 156 202 253 309 364
#     4  10  22  38  64  91 123 159 210 253 308 381
#     4   9  21  38  60  84 121 159 203 252 308 370
#     4  10  23  41  59  92 123 161 210 251 311 378
#
# _framework density 21.205703
#
# number of rings (size 3 to 8) (size 9 to 14) (size 15 to 20)
#    0.000    2.000    1.250    1.500    3.500    1.500 
#    0.000    1.875    0.000    0.000    0.000    0.000 
#    0.000    0.000    0.000    0.000    0.000    0.000 
#
# Total GULP energy -178349.411079 kJ/mol
# GULP energy per Si atom -5573.419096 kJ/mol
# Density = 2.115744 g / cm^3
# Si number density = 21.205703 Si / 1000 Ang^3
#
#
#
# Elastic Constant Matrix: (Units=GPa)
#
#
# Indices 1 2 3 4 5 6 
#
# 1 23.7669 13.7300 18.8356 0.0000 14.1943 0.0000
# 2 13.7300 87.4655 12.9704 0.0000 12.9665 0.0000
# 3 18.8356 12.9704 103.2017 0.0000 12.8946 0.0000
# 4 0.0000 0.0000 0.0000 13.4745 0.0000 4.4302
# 5 14.1943 12.9665 12.8946 0.0000 32.5424 0.0000
# 6 0.0000 0.0000 0.0000 4.4302 0.0000 14.8021
#
#
#
# Elastic Compliance Matrix: (Units=1/GPa)
#
#
# Indices 1 2 3 4 5 6 
#
# 1 0.065819 -0.005657 -0.008413 0.000000 -0.023121 0.000000
# 2 -0.005657 0.012730 -0.000255 0.000000 -0.002504 0.000000
# 3 -0.008413 -0.000255 0.011348 0.000000 -0.000725 0.000000
# 4 0.000000 0.000000 0.000000 0.082314 0.000000 -0.024636
# 5 -0.023121 -0.002504 -0.000725 0.000000 0.042099 0.000000
# 6 0.000000 0.000000 0.000000 -0.024636 0.000000 0.074931
#
#
# Mechanical properties :
#
#
# Convention : Reuss Voigt Hill
#
# Bulk Modulus (GPa) = 16.32694 33.94513 25.13604
# Shear Modulus (GPa) = 14.77946 23.42367 19.10157
#
# Velocity S-wave (km/s) = 2.64286 3.32715 3.00455
# Velocity P-wave (km/s) = 4.12662 5.54997 4.89035
#
# Compressibility (1/GPa) = 0.06124845
#
# Stress axis : x y z
#
# Youngs Moduli (GPa) = 15.19308 78.55432 88.12218
#
# Poissons Ratio (x) = 0.44437 0.74137
# Poissons Ratio (y) = 0.08594 0.02244
# Poissons Ratio (z) = 0.12782 0.02000
#
# Static dielectric constant tensor:
#      x y z
#    x 1.773840 0.000000 -0.032500 
#    y 0.000000 1.776670 0.000000 
#    z -0.032500 0.000000 1.800870 
# 
# From -- ./inp_files/37711.got.cif
#   From: 2010.05.17/outbox.cif.g08.bks.cpg/sg13_19_cif.got.tgz:37711.got - 2010.06.03 16:44:36.
