data_PCOD9232547
_publ_section_title
;
Structure prediction by ZEFSAII (Michael W. Deem and Ramdas Pophale) SiO2 
 PCOD9232547
Probable space group: P 2/C
;
_chemical_formula_sum "Si O2"
_cell_formula_units_Z 24
_cell_length_a 14.623035
_cell_length_b 5.709666
_cell_length_c 26.688171
_cell_angle_alpha 90.000000
_cell_angle_beta 151.798335
_cell_angle_gamma 90.000000
_cell_volume 1053.025872
_symmetry_space_group_name_H-M "P 2/C"
_symmetry_group_IT_number 13
_symmetry_cell_setting 'monoclinic'
loop_
_space_group_symop_operation_xyz
x,y,z
-x,y,1/2-z
-x,-y,-z
x,-y,1/2+z
loop_
_atom_site_type_symbol
_atom_site_label
_atom_site_fract_x
_atom_site_fract_y
_atom_site_fract_z
Si Si1 0.312643 0.837749 0.312290
Si Si2 0.203149 0.514283 0.340659
Si Si3 0.838611 0.309879 0.937385
Si Si4 0.506557 0.446242 0.171853
Si Si5 0.175194 0.083126 0.152802
Si Si6 0.555702 0.228407 0.461364
O O1 0.176900 0.715575 0.286484
O O2 0.388693 0.647470 0.309603
O O3 0.202402 0.020054 0.223989
O O4 0.493957 0.955714 0.429172
O O5 0.365782 0.348926 0.394878
O O6 0.278706 0.651445 0.425988
O O7 0.000000 0.388670 0.250000
O O8 0.653945 0.435577 0.871351
O O9 0.788152 0.132501 0.867742
O O10 0.000000 0.500000 0.000000
O O11 0.957294 0.161269 0.035933
O O12 0.663754 0.286533 0.276482
O O13 0.414223 0.291250 0.082565
#
# Coordination Sequence:
#
# PCOD9232547 Si02
#       6
#     4   4   4   4   4   4
#     4  10  21  39  62  89 126 169 211 262 325 391
#     4  10  21  37  61  90 124 165 210 265 324 388
#     4  11  25  42  65  95 128 169 218 270 327 390
#     4  10  23  42  65  91 128 170 211 266 328 393
#     4  10  24  42  63  94 128 166 218 270 324 392
#     4   9  21  39  59  90 126 162 212 264 319 387
#
# _framework density 22.791464000000001
#
# number of rings (size 3 to 8) (size 9 to 14) (size 15 to 20)
#    0.000    2.000    0.000    1.500    0.000   16.667 
#    0.000    0.000    0.000    0.000    0.000    0.000 
#    0.000    0.000    0.000    0.000    0.000    0.000 
#
# Total GULP energy -134064.479289 kJ/mol
# GULP energy per Si atom -5586.019970 kJ/mol
# Density = 2.273959 g / cm^3
# Si number density = 22.791464 Si / 1000 Ang^3
#
#
#
# Elastic Constant Matrix: (Units=GPa)
#
#
# Indices 1 2 3 4 5 6 
#
# 1 58.3051 24.2619 56.6670 0.0000 -4.8489 0.0000
# 2 24.2619 82.6432 29.4362 0.0000 -0.8580 0.0000
# 3 56.6670 29.4362 107.9310 0.0000 0.2353 0.0000
# 4 0.0000 0.0000 0.0000 44.2930 0.0000 -5.3527
# 5 -4.8489 -0.8580 0.2353 0.0000 30.6236 0.0000
# 6 0.0000 0.0000 0.0000 -5.3527 0.0000 23.1032
#
#
#
# Elastic Compliance Matrix: (Units=1/GPa)
#
#
# Indices 1 2 3 4 5 6 
#
# 1 0.037396 -0.004340 -0.018463 0.000000 0.005941 0.000000
# 2 -0.004340 0.013911 -0.001514 0.000000 -0.000286 0.000000
# 3 -0.018463 -0.001514 0.019379 0.000000 -0.003115 0.000000
# 4 0.000000 0.000000 0.000000 0.023227 0.000000 0.005381
# 5 0.005941 -0.000286 -0.003115 0.000000 0.033611 0.000000
# 6 0.000000 0.000000 0.000000 0.005381 0.000000 0.044531
#
#
# Mechanical properties :
#
#
# Convention : Reuss Voigt Hill
#
# Bulk Modulus (GPa) = 45.35274 52.17882 48.76578
# Shear Modulus (GPa) = 21.92594 28.83824 25.38209
#
# Velocity S-wave (km/s) = 3.10502 3.56098 3.34078
# Velocity P-wave (km/s) = 5.72687 6.31277 6.02695
#
# Compressibility (1/GPa) = 0.02204939
#
# Stress axis : x y z
#
# Youngs Moduli (GPa) = 26.74099 71.88600 51.60318
#
# Poissons Ratio (x) = 0.31202 0.95275
# Poissons Ratio (y) = 0.11607 0.07815
# Poissons Ratio (z) = 0.49372 0.10887
#
# Static dielectric constant tensor:
#      x y z
#    x 1.805700 0.000000 -0.044280 
#    y 0.000000 1.939790 0.000000 
#    z -0.044280 0.000000 1.881790 
# 
# From -- ./inp_files/92691.got.cif
#   From: 2010.05.17/outbox.cif.g08.bks.cpg/sg13_47_cif.got.tgz:92691.got - 2010.06.03 16:44:36.
