data_PCOD9232802
_publ_section_title
;
Structure prediction by ZEFSAII (Michael W. Deem and Ramdas Pophale) SiO2 
 PCOD9232802
Probable space group: P 2/C
;
_chemical_formula_sum "Si O2"
_cell_formula_units_Z 16
_cell_length_a 5.029265
_cell_length_b 19.098865
_cell_length_c 9.594762
_cell_angle_alpha 90.000000
_cell_angle_beta 57.353019
_cell_angle_gamma 90.000000
_cell_volume 776.003550
_symmetry_space_group_name_H-M "P 2/C"
_symmetry_group_IT_number 13
_symmetry_cell_setting 'monoclinic'
loop_
_space_group_symop_operation_xyz
x,y,z
-x,y,1/2-z
-x,-y,-z
x,-y,1/2+z
loop_
_atom_site_type_symbol
_atom_site_label
_atom_site_fract_x
_atom_site_fract_y
_atom_site_fract_z
Si Si1 0.201857 0.570886 0.936308
Si Si2 0.375142 0.938273 0.630823
Si Si3 0.623703 0.218982 0.370623
Si Si4 0.424841 0.647056 0.434794
O O1 0.500000 0.564213 0.750000
O O2 0.350996 0.593977 0.042217
O O3 0.000000 0.500000 0.000000
O O4 0.944877 0.626200 0.951210
O O5 0.500000 0.948655 0.750000
O O6 0.474172 0.859643 0.557690
O O7 0.000000 0.940113 0.750000
O O8 0.500000 0.000000 0.500000
O O9 0.500000 0.233493 0.250000
O O10 0.522164 0.278227 0.507426
O O11 0.000000 0.219431 0.250000
O O12 0.500000 0.646399 0.250000
#
# Coordination Sequence:
#
# PCOD9232802 Si02
#       4
#     4   4   4   4
#     4  12  26  46  68  91 124 165 204 251 309 371
#     4  10  21  38  62  91 125 164 207 254 305 365
#     4  10  21  40  63  88 123 167 207 247 306 370
#     4  12  25  42  65  96 125 158 207 260 307 362
#
# _framework density 20.618459999999999
#
# number of rings (size 3 to 8) (size 9 to 14) (size 15 to 20)
#    0.000    1.000    0.000    7.500    0.000    3.000 
#    0.000    3.750    0.000    0.000    0.000    0.000 
#    0.000    0.000    0.000    0.000    0.000    0.000 
#
# Total GULP energy -89540.289750 kJ/mol
# GULP energy per Si atom -5596.268109 kJ/mol
# Density = 2.057153 g / cm^3
# Si number density = 20.618460 Si / 1000 Ang^3
#
#
#
# Elastic Constant Matrix: (Units=GPa)
#
#
# Indices 1 2 3 4 5 6 
#
# 1 186.2571 71.1874 68.4400 0.0000 21.6796 0.0000
# 2 71.1874 181.5957 104.2213 0.0000 23.0299 0.0000
# 3 68.4400 104.2213 124.9770 0.0000 12.5176 0.0000
# 4 0.0000 0.0000 0.0000 41.3566 0.0000 1.6647
# 5 21.6796 23.0299 12.5176 0.0000 35.8180 0.0000
# 6 0.0000 0.0000 0.0000 1.6647 0.0000 35.2000
#
#
#
# Elastic Compliance Matrix: (Units=1/GPa)
#
#
# Indices 1 2 3 4 5 6 
#
# 1 0.007063 -0.000683 -0.003020 0.000000 -0.002781 0.000000
# 2 -0.000683 0.011165 -0.008559 0.000000 -0.003774 0.000000
# 3 -0.003020 -0.008559 0.016641 0.000000 0.001515 0.000000
# 4 0.000000 0.000000 0.000000 0.024226 0.000000 -0.001146
# 5 -0.002781 -0.003774 0.001515 0.000000 0.031499 0.000000
# 6 0.000000 0.000000 0.000000 -0.001146 0.000000 0.028463
#
#
# Mechanical properties :
#
#
# Convention : Reuss Voigt Hill
#
# Bulk Modulus (GPa) = 96.65752 108.94749 102.80250
# Shear Modulus (GPa) = 34.00658 39.07365 36.54011
#
# Velocity S-wave (km/s) = 4.06560 4.35798 4.21432
# Velocity P-wave (km/s) = 8.30781 8.84743 8.58186
#
# Compressibility (1/GPa) = 0.01034581
#
# Stress axis : x y z
#
# Youngs Moduli (GPa) = 141.57690 89.56317 60.09288
#
# Poissons Ratio (x) = 0.06118 0.18147
# Poissons Ratio (y) = 0.09671 0.51433
# Poissons Ratio (z) = 0.42754 0.76656
#
# Static dielectric constant tensor:
#      x y z
#    x 1.690470 0.000000 -0.008390 
#    y 0.000000 1.793290 0.000000 
#    z -0.008390 0.000000 1.638950 
# 
# From -- ./inp_files/9280.got.cif
#   From: 2010.05.17/outbox.cif.g08.bks.cpg/sg13_5_cif.got.tgz:9280.got - 2010.06.03 16:44:36.
