data_PCOD9232835
_publ_section_title
;
Structure prediction by ZEFSAII (Michael W. Deem and Ramdas Pophale) SiO2 
 PCOD9232835
Probable space group: P 2/C
;
_chemical_formula_sum "Si O2"
_cell_formula_units_Z 26
_cell_length_a 20.317587
_cell_length_b 6.554242
_cell_length_c 28.606448
_cell_angle_alpha 90.000000
_cell_angle_beta 19.469632
_cell_angle_gamma 90.000000
_cell_volume 1269.706145
_symmetry_space_group_name_H-M "P 2/C"
_symmetry_group_IT_number 13
_symmetry_cell_setting 'monoclinic'
loop_
_space_group_symop_operation_xyz
x,y,z
-x,y,1/2-z
-x,-y,-z
x,-y,1/2+z
loop_
_atom_site_type_symbol
_atom_site_label
_atom_site_fract_x
_atom_site_fract_y
_atom_site_fract_z
Si Si1 0.248799 0.638281 0.001200
Si Si2 0.868169 0.810392 0.565915
Si Si3 0.500000 0.740796 0.750000
Si Si4 0.396000 0.629040 0.486412
Si Si5 0.875017 0.027463 0.374984
Si Si6 0.133652 0.370961 0.248761
Si Si7 0.187358 0.500001 0.312642
O O1 0.384634 0.602180 0.865366
O O2 0.332845 0.548178 0.992870
O O3 0.029985 0.548175 0.144301
O O4 0.230874 0.878307 0.019125
O O5 0.674818 0.857784 0.662591
O O6 0.795574 0.657939 0.655876
O O7 0.010223 0.657942 0.441225
O O8 0.000000 0.000000 0.500000
O O9 0.283477 0.828235 0.543608
O O10 0.315282 0.587499 0.592359
O O11 0.626923 0.642355 0.324022
O O12 0.000000 0.919302 0.250000
O O13 0.024871 0.171760 0.302217
O O14 0.176862 0.357647 0.274085
#
# Coordination Sequence:
#
# PCOD9232835 Si02
#       7
#     4   4   2   4   4   4   4
#     4  11  21  40  61  90 125 170 217 261 312 378
#     4  11  27  47  65  94 130 170 223 273 319 389
#     4  12  24  44  68  92 122 176 226 262 332 380
#     4  10  21  38  63  93 126 163 207 263 324 386
#     4   9  20  37  60  90 120 161 212 257 312 382
#     4  10  21  38  63  93 126 163 207 263 324 386
#     4  11  23  42  64  92 129 163 208 266 326 391
#
# _framework density 20.477177999999999
#
# number of rings (size 3 to 8) (size 9 to 14) (size 15 to 20)
#    0.000    1.538    3.077    2.769    4.308    0.000 
#    0.000    6.154    0.000    7.385    0.000    0.000 
#    0.000    0.000    0.000    0.000    0.000    0.000 
#
# Total GULP energy -144890.283705 kJ/mol
# GULP energy per Si atom -5572.703219 kJ/mol
# Density = 2.043057 g / cm^3
# Si number density = 20.477178 Si / 1000 Ang^3
#
#
#
# Elastic Constant Matrix: (Units=GPa)
#
#
# Indices 1 2 3 4 5 6 
#
# 1 114.7095 16.1527 59.6935 0.0000 16.1594 0.0000
# 2 16.1527 49.2716 23.2919 0.0000 10.7318 0.0000
# 3 59.6935 23.2919 141.1266 0.0000 23.5482 0.0000
# 4 0.0000 0.0000 0.0000 4.6981 0.0000 4.8898
# 5 16.1594 10.7318 23.5482 0.0000 43.9897 0.0000
# 6 0.0000 0.0000 0.0000 4.8898 0.0000 1.4467
#
#
#
# Elastic Compliance Matrix: (Units=1/GPa)
#
#
# Indices 1 2 3 4 5 6 
#
# 1 0.011379 -0.001348 -0.004335 0.000000 -0.001531 0.000000
# 2 -0.001348 0.022755 -0.002571 0.000000 -0.003680 0.000000
# 3 -0.004335 -0.002571 0.009854 0.000000 -0.003055 0.000000
# 4 0.000000 0.000000 0.000000 -0.084534 0.000000 0.285729
# 5 -0.001531 -0.003680 -0.003055 0.000000 0.025828 0.000000
# 6 0.000000 0.000000 0.000000 0.285729 0.000000 -0.274527
#
#
# Mechanical properties :
#
#
# Convention : Reuss Voigt Hill
#
# Bulk Modulus (GPa) = 36.39205 55.93156 46.16180
# Shear Modulus (GPa) = -18.96971 23.75820 2.39425
#
# Velocity S-wave (km/s) = -3.04696 3.40991 1.08248
# Velocity P-wave (km/s) = 2.33066 6.54803 4.91471
#
# Compressibility (1/GPa) = 0.02747853
#
# Stress axis : x y z
#
# Youngs Moduli (GPa) = 87.88050 43.94731 101.48455
#
# Poissons Ratio (x) = 0.05922 0.43997
# Poissons Ratio (y) = 0.11843 0.26097
# Poissons Ratio (z) = 0.38099 0.11301
#
# Static dielectric constant tensor:
#      x y z
#    x 1.788110 0.000000 -0.048880 
#    y 0.000000 1.684400 0.000000 
#    z -0.048880 0.000000 1.755590 
# 
# From -- ./inp_files/97432.got.cif
#   From: 2010.05.17/outbox.cif.g08.bks.cpg/sg13_49_cif.got.tgz:97432.got - 2010.06.03 16:44:36.
