data_PCOD9232613
_publ_section_title
;
Structure prediction by ZEFSAII (Michael W. Deem and Ramdas Pophale) SiO2 
 PCOD9232613
Probable space group: P 2/C
;
_chemical_formula_sum "Si O2"
_cell_formula_units_Z 16
_cell_length_a 4.949112
_cell_length_b 8.612933
_cell_length_c 19.570958
_cell_angle_alpha 90.000000
_cell_angle_beta 55.309576
_cell_angle_gamma 90.000000
_cell_volume 685.943903
_symmetry_space_group_name_H-M "P 2/C"
_symmetry_group_IT_number 13
_symmetry_cell_setting 'monoclinic'
loop_
_space_group_symop_operation_xyz
x,y,z
-x,y,1/2-z
-x,-y,-z
x,-y,1/2+z
loop_
_atom_site_type_symbol
_atom_site_label
_atom_site_fract_x
_atom_site_fract_y
_atom_site_fract_z
Si Si1 0.531287 0.046772 0.393146
Si Si2 0.174195 0.503914 0.092010
Si Si3 0.034470 0.850772 0.082367
Si Si4 0.479519 0.643558 0.831709
O O1 0.322811 0.130731 0.483863
O O2 0.567744 0.177292 0.330963
O O3 0.862744 0.976340 0.375428
O O4 0.305342 0.904348 0.401628
O O5 0.031826 0.677287 0.110323
O O6 0.287920 0.450368 0.150522
O O7 0.903958 0.389875 0.097779
O O8 0.500000 0.500000 0.000000
O O9 0.500000 0.597520 0.750000
#
# Coordination Sequence:
#
# PCOD9232613 Si02
#       4
#     4   4   4   4
#     4  10  21  38  63  94 125 164 210 270 319 385
#     4  12  24  42  69 100 128 172 222 275 319 385
#     4  10  21  37  64  96 123 157 220 272 312 366
#     4  12  26  44  64  95 137 177 212 267 341 396
#
# _framework density 23.325521999999999
#
# number of rings (size 3 to 8) (size 9 to 14) (size 15 to 20)
#    0.000    1.000    2.500    4.500    7.000    0.000 
#    0.000    7.500    0.000    0.000    0.000    0.000 
#    0.000    0.000    0.000    0.000    0.000    0.000 
#
# Total GULP energy -89635.541318 kJ/mol
# GULP energy per Si atom -5602.221332 kJ/mol
# Density = 2.327243 g / cm^3
# Si number density = 23.325522 Si / 1000 Ang^3
#
#
#
# Elastic Constant Matrix: (Units=GPa)
#
#
# Indices 1 2 3 4 5 6 
#
# 1 92.9577 12.6897 15.5517 0.0000 21.8396 0.0000
# 2 12.6897 97.6576 26.6084 0.0000 24.9698 0.0000
# 3 15.5517 26.6084 38.0309 0.0000 17.4509 0.0000
# 4 0.0000 0.0000 0.0000 16.5366 0.0000 18.7825
# 5 21.8396 24.9698 17.4509 0.0000 38.9666 0.0000
# 6 0.0000 0.0000 0.0000 18.7825 0.0000 47.9464
#
#
#
# Elastic Compliance Matrix: (Units=1/GPa)
#
#
# Indices 1 2 3 4 5 6 
#
# 1 0.012599 0.000726 -0.002777 0.000000 -0.006283 0.000000
# 2 0.000726 0.013595 -0.007079 0.000000 -0.005948 0.000000
# 3 -0.002777 -0.007079 0.037240 0.000000 -0.010585 0.000000
# 4 0.000000 0.000000 0.000000 0.108948 0.000000 -0.042679
# 5 -0.006283 -0.005948 -0.010585 0.000000 0.037737 0.000000
# 6 0.000000 0.000000 0.000000 -0.042679 0.000000 0.037576
#
#
# Mechanical properties :
#
#
# Convention : Reuss Voigt Hill
#
# Bulk Modulus (GPa) = 22.13675 37.59397 29.86536
# Shear Modulus (GPa) = 17.79271 32.27632 25.03451
#
# Velocity S-wave (km/s) = 2.76488 3.72389 3.27963
# Velocity P-wave (km/s) = 4.43889 5.88574 5.21276
#
# Compressibility (1/GPa) = 0.04517374
#
# Stress axis : x y z
#
# Youngs Moduli (GPa) = 79.37003 73.55468 26.85279
#
# Poissons Ratio (x) = -0.05340 0.07457
# Poissons Ratio (y) = -0.05762 0.19010
# Poissons Ratio (z) = 0.22041 0.52072
#
# Static dielectric constant tensor:
#      x y z
#    x 1.834500 0.000000 -0.028940 
#    y 0.000000 1.844510 0.000000 
#    z -0.028940 0.000000 1.967120 
# 
# From -- ./inp_files/52837.got.cif
#   From: 2010.05.17/outbox.cif.g08.bks.cpg/sg13_27_cif.got.tgz:52837.got - 2010.06.03 16:44:36.
