data_PCOD9232473
_publ_section_title
;
Structure prediction by ZEFSAII (Michael W. Deem and Ramdas Pophale) SiO2 
 PCOD9232473
Probable space group: P 2/C
;
_chemical_formula_sum "Si O2"
_cell_formula_units_Z 18
_cell_length_a 10.663479
_cell_length_b 6.161460
_cell_length_c 22.210253
_cell_angle_alpha 90.000000
_cell_angle_beta 141.177670
_cell_angle_gamma 90.000000
_cell_volume 914.828151
_symmetry_space_group_name_H-M "P 2/C"
_symmetry_group_IT_number 13
_symmetry_cell_setting 'monoclinic'
loop_
_space_group_symop_operation_xyz
x,y,z
-x,y,1/2-z
-x,-y,-z
x,-y,1/2+z
loop_
_atom_site_type_symbol
_atom_site_label
_atom_site_fract_x
_atom_site_fract_y
_atom_site_fract_z
Si Si1 0.482660 0.632233 0.349688
Si Si2 0.235140 0.077748 0.839994
Si Si3 0.769260 0.989692 0.928029
Si Si4 0.406266 0.252991 0.024284
Si Si5 0.500000 0.318958 0.250000
O O1 0.311762 0.792686 0.309848
O O2 0.660246 0.778315 0.389040
O O3 0.563119 0.489868 0.435951
O O4 0.417823 0.467012 0.273427
O O5 0.000000 0.031718 0.750000
O O6 0.377027 0.865747 0.898896
O O7 0.293890 0.227055 0.919223
O O8 0.720450 0.883084 0.974297
O O9 0.665954 0.835247 0.840564
O O10 0.000000 0.000000 0.000000
#
# Coordination Sequence:
#
# PCOD9232473 Si02
#       5
#     4   4   4   4   2
#     4  10  21  38  58  83 119 154 192 241 293 349
#     4  10  21  37  59  84 114 154 196 240 291 345
#     4  10  22  38  59  86 118 155 195 243 294 348
#     4   9  21  38  55  84 119 149 194 246 286 344
#     4  10  22  38  58  86 118 150 196 246 290 350
#
# _framework density 19.675826000000001
#
# number of rings (size 3 to 8) (size 9 to 14) (size 15 to 20)
#    0.000    2.222    0.000    1.333    0.000   13.333 
#    0.000    0.000    0.000    0.000    0.000    0.000 
#    0.000    0.000    0.000    0.000    0.000    0.000 
#
# Total GULP energy -100531.736001 kJ/mol
# GULP energy per Si atom -5585.096444 kJ/mol
# Density = 1.963104 g / cm^3
# Si number density = 19.675826 Si / 1000 Ang^3
#
#
#
# Elastic Constant Matrix: (Units=GPa)
#
#
# Indices 1 2 3 4 5 6 
#
# 1 100.4211 29.1859 77.9355 0.0000 23.6511 0.0000
# 2 29.1859 79.7756 30.5129 0.0000 5.4733 0.0000
# 3 77.9355 30.5129 105.1976 0.0000 12.2179 0.0000
# 4 0.0000 0.0000 0.0000 6.0694 0.0000 -4.2809
# 5 23.6511 5.4733 12.2179 0.0000 36.7122 0.0000
# 6 0.0000 0.0000 0.0000 -4.2809 0.0000 14.9519
#
#
#
# Elastic Compliance Matrix: (Units=1/GPa)
#
#
# Indices 1 2 3 4 5 6 
#
# 1 0.027646 -0.002257 -0.018513 0.000000 -0.011313 0.000000
# 2 -0.002257 0.014305 -0.002494 0.000000 0.000152 0.000000
# 3 -0.018513 -0.002494 0.023422 0.000000 0.004504 0.000000
# 4 0.000000 0.000000 0.000000 0.206454 0.000000 0.059110
# 5 -0.011313 0.000152 0.004504 0.000000 0.033005 0.000000
# 6 0.000000 0.000000 0.000000 0.059110 0.000000 0.083805
#
#
# Mechanical properties :
#
#
# Convention : Reuss Voigt Hill
#
# Bulk Modulus (GPa) = 53.06982 62.29588 57.68285
# Shear Modulus (GPa) = 11.32638 21.39735 16.36187
#
# Velocity S-wave (km/s) = 2.40187 3.30130 2.88683
# Velocity P-wave (km/s) = 5.89259 6.80156 6.36333
#
# Compressibility (1/GPa) = 0.01884310
#
# Stress axis : x y z
#
# Youngs Moduli (GPa) = 36.17132 69.90729 42.69540
#
# Poissons Ratio (x) = 0.15780 0.79042
# Poissons Ratio (y) = 0.08165 0.10650
# Poissons Ratio (z) = 0.66964 0.17438
#
# Static dielectric constant tensor:
#      x y z
#    x 1.699680 0.000000 -0.056980 
#    y 0.000000 1.716970 0.000000 
#    z -0.056980 0.000000 1.679680 
# 
# From -- ./inp_files/31287.got.cif
#   From: 2010.05.17/outbox.cif.g08.bks.cpg/sg13_16_cif.got.tgz:31287.got - 2010.06.03 16:44:36.
