data_PCOD9232314
_publ_section_title
;
Structure prediction by ZEFSAII (Michael W. Deem and Ramdas Pophale) SiO2 
 PCOD9232314
Probable space group: P 2/C
;
_chemical_formula_sum "Si O2"
_cell_formula_units_Z 28
_cell_length_a 27.926352
_cell_length_b 9.061594
_cell_length_c 28.421592
_cell_angle_alpha 90.000000
_cell_angle_beta 169.287983
_cell_angle_gamma 90.000000
_cell_volume 1336.850423
_symmetry_space_group_name_H-M "P 2/C"
_symmetry_group_IT_number 13
_symmetry_cell_setting 'monoclinic'
loop_
_space_group_symop_operation_xyz
x,y,z
-x,y,1/2-z
-x,-y,-z
x,-y,1/2+z
loop_
_atom_site_type_symbol
_atom_site_label
_atom_site_fract_x
_atom_site_fract_y
_atom_site_fract_z
Si Si1 0.282080 0.970668 0.749998
Si Si2 0.611005 0.920358 0.250053
Si Si3 0.442385 0.232080 0.249984
Si Si4 0.105127 0.260561 0.250057
Si Si5 0.699293 0.374395 0.249994
Si Si6 0.057192 0.419003 0.750016
Si Si7 0.810928 0.459620 0.250006
O O1 0.299830 0.801226 0.749994
O O2 0.331066 0.064966 0.749987
O O3 0.000000 0.000000 0.500000
O O4 0.500000 0.000000 0.000000
O O5 0.844892 0.832521 0.499751
O O6 0.586630 0.080480 0.249940
O O7 0.345633 0.832393 0.000497
O O8 0.500000 0.204061 0.250000
O O9 0.679859 0.326430 0.499431
O O10 0.180874 0.326348 0.000447
O O11 0.079232 0.418478 0.249945
O O12 0.160799 0.307300 0.250020
O O13 0.754881 0.423841 0.250001
O O14 0.928588 0.445940 0.501154
O O15 0.426255 0.445924 0.998819
O O16 0.000000 0.436456 0.750000
#
# Coordination Sequence:
#
# PCOD9232314 Si02
#       7
#     4   4   4   4   4   4   4
#     4  12  25  41  62  88 132 176 220 267 324 393
#     4  12  26  41  66 100 132 177 219 267 341 383
#     4  10  23  45  70  99 132 168 219 274 320 402
#     4  12  25  41  65  96 135 168 211 280 314 398
#     4  10  21  37  57  83 112 166 210 256 305 368
#     4  10  23  43  70  98 130 172 215 266 332 393
#     4  10  21  36  58  84 118 155 210 260 308 355
#
# _framework density 20.944751
#
# number of rings (size 3 to 8) (size 9 to 14) (size 15 to 20)
#    0.000    1.143    0.000    6.000    4.000    3.429 
#    0.000    0.000    0.000    0.000    0.000    0.000 
#    0.000    0.000    0.000    0.000    0.000    0.000 
#
# Total GULP energy -156725.681813 kJ/mol
# GULP energy per Si atom -5597.345779 kJ/mol
# Density = 2.089708 g / cm^3
# Si number density = 20.944751 Si / 1000 Ang^3
#
#
#
# Elastic Constant Matrix: (Units=GPa)
#
#
# Indices 1 2 3 4 5 6 
#
# 1 83.7271 44.8245 42.3225 0.0000 -3.5987 0.0000
# 2 44.8245 164.8210 110.3135 0.0000 2.8179 0.0000
# 3 42.3225 110.3135 233.6927 0.0000 9.9676 0.0000
# 4 0.0000 0.0000 0.0000 41.2055 0.0000 0.2523
# 5 -3.5987 2.8179 9.9676 0.0000 -21.6486 0.0000
# 6 0.0000 0.0000 0.0000 0.2523 0.0000 35.0236
#
#
#
# Elastic Compliance Matrix: (Units=1/GPa)
#
#
# Indices 1 2 3 4 5 6 
#
# 1 0.013945 -0.003126 -0.000916 0.000000 -0.003147 0.000000
# 2 -0.003126 0.009557 -0.003943 0.000000 -0.000052 0.000000
# 3 -0.000916 -0.003943 0.006200 0.000000 0.002494 0.000000
# 4 0.000000 0.000000 0.000000 0.024270 0.000000 -0.000175
# 5 -0.003147 -0.000052 0.002494 0.000000 -0.044528 0.000000
# 6 0.000000 0.000000 0.000000 -0.000175 0.000000 0.028553
#
#
# Mechanical properties :
#
#
# Convention : Reuss Voigt Hill
#
# Bulk Modulus (GPa) = 72.81914 97.46242 85.14078
# Shear Modulus (GPa) = 85.40645 29.90147 57.65396
#
# Velocity S-wave (km/s) = 6.39262 3.78251 5.25228
# Velocity P-wave (km/s) = 9.45146 8.10621 8.80456
#
# Compressibility (1/GPa) = 0.01373265
#
# Stress axis : x y z
#
# Youngs Moduli (GPa) = 71.71247 104.63243 161.29110
#
# Poissons Ratio (x) = 0.32704 0.14770
# Poissons Ratio (y) = 0.22415 0.63600
# Poissons Ratio (z) = 0.06567 0.41258
#
# Static dielectric constant tensor:
#      x y z
#    x 1.791620 0.000000 -0.002790 
#    y 0.000000 1.690750 0.000000 
#    z -0.002790 0.000000 1.725160 
# 
# From -- ./inp_files/98111.got.cif
#   From: 2010.05.17/outbox.cif.g08.bks.cpg/sg13_50_cif.got.tgz:98111.got - 2010.06.03 16:44:36.
