data_PCOD9232730
_publ_section_title
;
Structure prediction by ZEFSAII (Michael W. Deem and Ramdas Pophale) SiO2 
 PCOD9232730
Probable space group: P 2/C
;
_chemical_formula_sum "Si O2"
_cell_formula_units_Z 20
_cell_length_a 12.826088
_cell_length_b 5.096013
_cell_length_c 33.558163
_cell_angle_alpha 90.000000
_cell_angle_beta 27.044411
_cell_angle_gamma 90.000000
_cell_volume 997.308974
_symmetry_space_group_name_H-M "P 2/C"
_symmetry_group_IT_number 13
_symmetry_cell_setting 'monoclinic'
loop_
_space_group_symop_operation_xyz
x,y,z
-x,y,1/2-z
-x,-y,-z
x,-y,1/2+z
loop_
_atom_site_type_symbol
_atom_site_label
_atom_site_fract_x
_atom_site_fract_y
_atom_site_fract_z
Si Si1 0.692776 0.927675 0.465891
Si Si2 0.490209 0.544730 0.174355
Si Si3 0.656505 0.038505 0.069681
Si Si4 0.071321 0.632610 0.433950
Si Si5 0.017697 0.434513 0.122913
O O1 0.597086 0.932143 0.543594
O O2 0.798131 0.641567 0.423229
O O3 0.500000 0.000000 0.500000
O O4 0.896424 0.143996 0.396224
O O5 0.557271 0.270051 0.130997
O O6 0.655111 0.625137 0.155178
O O7 0.229123 0.515427 0.276294
O O8 0.554107 0.770250 0.120972
O O9 0.932814 0.092456 0.978572
O O10 0.992772 0.478727 0.421328
O O11 0.000000 0.500000 0.500000
#
# Coordination Sequence:
#
# PCOD9232730 Si02
#       5
#     4   4   4   4   4
#     4  11  23  43  62  80 110 156 201 243 287 343
#     4  11  21  37  58  91 124 149 183 242 291 342
#     4  10  21  38  60  85 117 158 197 227 282 356
#     4   9  19  36  60  86 120 158 187 221 282 354
#     4  11  23  38  60  90 116 147 196 243 289 341
#
# _framework density 20.053965000000002
#
# number of rings (size 3 to 8) (size 9 to 14) (size 15 to 20)
#    0.000    1.600    0.000    6.600    0.000    4.800 
#    0.000   14.000    0.000    0.000    0.000    0.000 
#    0.000    0.000    0.000    0.000    0.000    0.000 
#
# Total GULP energy -111660.195190 kJ/mol
# GULP energy per Si atom -5583.009759 kJ/mol
# Density = 2.000832 g / cm^3
# Si number density = 20.053965 Si / 1000 Ang^3
#
#
#
# Elastic Constant Matrix: (Units=GPa)
#
#
# Indices 1 2 3 4 5 6 
#
# 1 109.0220 -19.6180 24.6086 0.0000 -4.8266 0.0000
# 2 -19.6180 56.8884 7.5715 0.0001 2.3891 0.0000
# 3 24.6086 7.5715 85.5662 0.0002 -4.7127 -0.0002
# 4 0.0000 0.0001 0.0002 28.5456 0.0000 -6.5794
# 5 -4.8266 2.3891 -4.7127 0.0000 13.0180 0.0000
# 6 0.0000 0.0000 -0.0002 -6.5794 0.0000 23.1376
#
#
#
# Elastic Compliance Matrix: (Units=1/GPa)
#
#
# Indices 1 2 3 4 5 6 
#
# 1 0.010748 0.004065 -0.003339 0.000000 0.002030 0.000000
# 2 0.004065 0.019523 -0.003072 0.000000 -0.003188 0.000000
# 3 -0.003339 -0.003072 0.013144 0.000000 0.004084 0.000000
# 4 0.000000 0.000000 0.000000 0.037489 0.000000 0.010660
# 5 0.002030 -0.003188 0.004084 0.000000 0.079633 0.000000
# 6 0.000000 0.000000 0.000000 0.010660 0.000000 0.046251
#
#
# Mechanical properties :
#
#
# Convention : Reuss Voigt Hill
#
# Bulk Modulus (GPa) = 25.82449 30.73342 28.27896
# Shear Modulus (GPa) = 22.28299 28.86788 25.57544
#
# Velocity S-wave (km/s) = 3.33701 3.79820 3.57505
# Velocity P-wave (km/s) = 5.26811 5.88165 5.58331
#
# Compressibility (1/GPa) = 0.03872293
#
# Stress axis : x y z
#
# Youngs Moduli (GPa) = 93.04450 51.22157 76.08085
#
# Poissons Ratio (x) = -0.20824 0.25403
# Poissons Ratio (y) = -0.37827 0.23374
# Poissons Ratio (z) = 0.31067 0.15737
#
# Static dielectric constant tensor:
#      x y z
#    x 1.704360 0.000000 -0.023480 
#    y 0.000000 1.719530 0.000000 
#    z -0.023480 0.000000 1.734630 
# 
# From -- ./inp_files/48598.got.cif
#   From: 2010.05.17/outbox.cif.g08.bks.cpg/sg13_25_cif.got.tgz:48598.got - 2010.06.03 16:44:36.
