data_PCOD9232897
_publ_section_title
;
Structure prediction by ZEFSAII (Michael W. Deem and Ramdas Pophale) SiO2 
 PCOD9232897
Probable space group: P 2/C
;
_chemical_formula_sum "Si O2"
_cell_formula_units_Z 32
_cell_length_a 6.839121
_cell_length_b 14.674964
_cell_length_c 16.633722
_cell_angle_alpha 90.000000
_cell_angle_beta 99.080397
_cell_angle_gamma 90.000000
_cell_volume 1648.502994
_symmetry_space_group_name_H-M "P 2/C"
_symmetry_group_IT_number 13
_symmetry_cell_setting 'monoclinic'
loop_
_space_group_symop_operation_xyz
x,y,z
-x,y,1/2-z
-x,-y,-z
x,-y,1/2+z
loop_
_atom_site_type_symbol
_atom_site_label
_atom_site_fract_x
_atom_site_fract_y
_atom_site_fract_z
Si Si1 0.349819 0.581355 0.666975
Si Si2 0.790207 0.096274 0.908655
Si Si3 0.869400 0.429755 0.937908
Si Si4 0.885460 0.903390 0.939051
Si Si5 0.028861 0.737353 0.663337
Si Si6 0.623721 0.323994 0.052984
Si Si7 0.973187 0.261095 0.654046
Si Si8 0.603223 0.835060 0.054495
O O1 0.500000 0.571313 0.750000
O O2 0.245502 0.488017 0.635749
O O3 0.175671 0.651864 0.676831
O O4 0.473017 0.621342 0.599734
O O5 0.558074 0.109602 0.905764
O O6 0.876906 0.179700 0.862641
O O7 0.848842 0.994485 0.885659
O O8 0.902265 0.099429 0.002576
O O9 0.988234 0.348203 0.901430
O O10 0.710653 0.385134 0.987203
O O11 0.000000 0.500000 0.000000
O O12 0.873721 0.812498 0.886989
O O13 0.728247 0.897448 0.001546
O O14 0.000000 0.775949 0.750000
O O15 0.816785 0.707544 0.615018
O O16 0.514870 0.238217 0.006579
O O17 0.758103 0.219647 0.619839
O O18 0.000000 0.282671 0.750000
#
# Coordination Sequence:
#
# PCOD9232897 Si02
#       8
#     4   4   4   4   4   4   4   4
#     4  12  26  42  65  97 129 168 217 268 333 393
#     4  10  21  41  66  98 129 171 217 269 318 382
#     4  12  25  44  68  93 125 172 220 272 325 387
#     4  10  21  38  67 100 131 166 220 266 316 387
#     4  12  23  40  64  94 135 171 204 265 329 383
#     4  12  22  42  68  92 128 168 218 264 318 390
#     4  11  26  44  65  94 135 171 215 277 333 388
#     4  11  20  40  72  93 122 174 220 260 319 390
#
# _framework density 19.411549999999998
#
# number of rings (size 3 to 8) (size 9 to 14) (size 15 to 20)
#    0.000    0.750    6.250    2.250    0.000    3.500 
#    0.000    0.000    5.500    0.000    0.000    0.000 
#    0.000    0.000    0.000    0.000    0.000    0.000 
#
# Total GULP energy -178824.310501 kJ/mol
# GULP energy per Si atom -5588.259703 kJ/mol
# Density = 1.936737 g / cm^3
# Si number density = 19.411550 Si / 1000 Ang^3
#
#
#
# Elastic Constant Matrix: (Units=GPa)
#
#
# Indices 1 2 3 4 5 6 
#
# 1 97.0936 13.7288 16.6754 0.0000 7.0580 0.0000
# 2 13.7288 72.7861 7.4790 0.0000 5.8031 0.0000
# 3 16.6754 7.4790 54.0812 0.0000 5.5918 0.0000
# 4 0.0000 0.0000 0.0000 4.9354 0.0000 6.6555
# 5 7.0580 5.8031 5.5918 0.0000 30.5041 0.0000
# 6 0.0000 0.0000 0.0000 6.6555 0.0000 34.0070
#
#
#
# Elastic Compliance Matrix: (Units=1/GPa)
#
#
# Indices 1 2 3 4 5 6 
#
# 1 0.011181 -0.001660 -0.003041 0.000000 -0.001714 0.000000
# 2 -0.001660 0.014349 -0.001254 0.000000 -0.002116 0.000000
# 3 -0.003041 -0.001254 0.019881 0.000000 -0.002702 0.000000
# 4 0.000000 0.000000 0.000000 0.275263 0.000000 -0.053872
# 5 -0.001714 -0.002116 -0.002702 0.000000 0.034077 0.000000
# 6 0.000000 0.000000 0.000000 -0.053872 0.000000 0.039949
#
#
# Mechanical properties :
#
#
# Convention : Reuss Voigt Hill
#
# Bulk Modulus (GPa) = 29.84842 33.30302 31.57572
# Shear Modulus (GPa) = 11.96811 26.29449 19.13130
#
# Velocity S-wave (km/s) = 2.48573 3.68445 3.14277
# Velocity P-wave (km/s) = 4.86297 5.94086 5.42873
#
# Compressibility (1/GPa) = 0.03350261
#
# Stress axis : x y z
#
# Youngs Moduli (GPa) = 89.43860 69.68890 50.29901
#
# Poissons Ratio (x) = 0.11567 0.15295
# Poissons Ratio (y) = 0.14845 0.06307
# Poissons Ratio (z) = 0.27196 0.08738
#
# Static dielectric constant tensor:
#      x y z
#    x 1.676110 0.000000 -0.000140 
#    y 0.000000 1.689870 0.000000 
#    z -0.000140 0.000000 1.689010 
# 
# From -- ./inp_files/61609.got.cif
#   From: 2010.05.17/outbox.cif.g08.bks.cpg/sg13_31_cif.got.tgz:61609.got - 2010.06.03 16:44:36.
