data_PCOD9232070
_publ_section_title
;
Structure prediction by ZEFSAII (Michael W. Deem and Ramdas Pophale) SiO2 
 PCOD9232070
Probable space group: P 2/C
;
_chemical_formula_sum "Si O2"
_cell_formula_units_Z 30
_cell_length_a 22.829868
_cell_length_b 5.514506
_cell_length_c 22.976023
_cell_angle_alpha 90.000000
_cell_angle_beta 155.040919
_cell_angle_gamma 90.000000
_cell_volume 1220.583145
_symmetry_space_group_name_H-M "P 2/C"
_symmetry_group_IT_number 13
_symmetry_cell_setting 'monoclinic'
loop_
_space_group_symop_operation_xyz
x,y,z
-x,y,1/2-z
-x,-y,-z
x,-y,1/2+z
loop_
_atom_site_type_symbol
_atom_site_label
_atom_site_fract_x
_atom_site_fract_y
_atom_site_fract_z
Si Si1 0.649035 0.436080 0.611753
Si Si2 0.079649 0.669192 0.652584
Si Si3 0.220775 0.373633 0.619431
Si Si4 0.960724 0.663591 0.272351
Si Si5 0.500000 0.639233 0.750000
Si Si6 0.269296 0.958475 0.388759
Si Si7 0.230581 0.877474 0.557160
Si Si8 0.528380 0.668342 0.393616
O O1 0.500000 0.500000 0.500000
O O2 0.787856 0.558419 0.762501
O O3 0.636782 0.539986 0.534515
O O4 0.668375 0.157759 0.614202
O O5 0.044463 0.486931 0.673325
O O6 0.142684 0.894370 0.744169
O O7 0.929260 0.692723 0.487035
O O8 0.223513 0.654044 0.598891
O O9 0.375116 0.337431 0.784944
O O10 0.232134 0.152950 0.581930
O O11 0.000000 0.514781 0.250000
O O12 0.089761 0.844991 0.394412
O O13 0.814825 0.797390 0.141246
O O14 0.368004 0.805453 0.645965
O O15 0.477447 0.465503 0.673307
O O16 0.399947 0.070075 0.540808
#
# Coordination Sequence:
#
# PCOD9232070 Si02
#       8
#     4   4   4   4   2   4   4   4
#     4  10  23  44  68  95 125 170 229 286 338 394
#     4   9  20  40  58  89 125 165 217 275 331 396
#     4  10  21  41  60  91 127 174 209 266 325 399
#     4  10  21  32  53  88 125 168 215 263 319 391
#     4  10  24  40  58  96 134 176 214 270 322 408
#     4  10  21  39  64  87 125 168 218 272 330 391
#     4  10  22  36  57  85 131 176 213 255 321 388
#     4  10  24  40  63  95 134 171 224 272 335 399
#
# _framework density 24.578415
#
# number of rings (size 3 to 8) (size 9 to 14) (size 15 to 20)
#    0.000    2.133    1.333    0.000    9.333    6.933 
#    0.000    0.667    0.000    1.600    0.000    0.000 
#    0.000    0.000    0.000    0.000    0.000    0.000 
#
# Total GULP energy -167085.831751 kJ/mol
# GULP energy per Si atom -5569.527725 kJ/mol
# Density = 2.452247 g / cm^3
# Si number density = 24.578415 Si / 1000 Ang^3
#
#
#
# Elastic Constant Matrix: (Units=GPa)
#
#
# Indices 1 2 3 4 5 6 
#
# 1 40.8197 12.8525 44.5805 0.0000 25.9594 0.0000
# 2 12.8525 41.1557 11.0526 0.0000 12.0341 0.0000
# 3 44.5805 11.0526 186.9933 0.0000 41.6742 0.0000
# 4 0.0000 0.0000 0.0000 36.5616 0.0000 -2.7938
# 5 25.9594 12.0341 41.6742 0.0000 45.4628 0.0000
# 6 0.0000 0.0000 0.0000 -2.7938 0.0000 2.7899
#
#
#
# Elastic Compliance Matrix: (Units=1/GPa)
#
#
# Indices 1 2 3 4 5 6 
#
# 1 0.045142 -0.007107 -0.006305 0.000000 -0.018116 0.000000
# 2 -0.007107 0.027455 0.000989 0.000000 -0.004116 0.000000
# 3 -0.006305 0.000989 0.007601 0.000000 -0.003630 0.000000
# 4 0.000000 0.000000 0.000000 0.029617 0.000000 0.029658
# 5 -0.018116 -0.004116 -0.003630 0.000000 0.036757 0.000000
# 6 0.000000 0.000000 0.000000 0.029658 0.000000 0.388137
#
#
# Mechanical properties :
#
#
# Convention : Reuss Voigt Hill
#
# Bulk Modulus (GPa) = 18.06601 45.10444 31.58523
# Shear Modulus (GPa) = 8.65042 30.32840 19.48941
#
# Velocity S-wave (km/s) = 1.87807 3.51657 2.81899
# Velocity P-wave (km/s) = 3.47407 5.90588 4.84503
#
# Compressibility (1/GPa) = 0.05535257
#
# Stress axis : x y z
#
# Youngs Moduli (GPa) = 22.15227 36.42280 131.55553
#
# Poissons Ratio (x) = 0.25886 0.82943
# Poissons Ratio (y) = 0.15744 -0.13009
# Poissons Ratio (z) = 0.13966 -0.03602
#
# Static dielectric constant tensor:
#      x y z
#    x 2.067540 0.000000 -0.060780 
#    y 0.000000 2.374160 0.000000 
#    z -0.060780 0.000000 1.969290 
# 
# From -- ./inp_files/97817.got.cif
#   From: 2010.05.17/outbox.cif.g08.bks.cpg/sg13_49_cif.got.tgz:97817.got - 2010.06.03 16:44:36.
