data_PCOD9232670
_publ_section_title
;
Structure prediction by ZEFSAII (Michael W. Deem and Ramdas Pophale) SiO2 
 PCOD9232670
Probable space group: P 2/C
;
_chemical_formula_sum "Si O2"
_cell_formula_units_Z 26
_cell_length_a 16.566683
_cell_length_b 11.879383
_cell_length_c 9.463500
_cell_angle_alpha 90.000000
_cell_angle_beta 49.169512
_cell_angle_gamma 90.000000
_cell_volume 1409.206679
_symmetry_space_group_name_H-M "P 2/C"
_symmetry_group_IT_number 13
_symmetry_cell_setting 'monoclinic'
loop_
_space_group_symop_operation_xyz
x,y,z
-x,y,1/2-z
-x,-y,-z
x,-y,1/2+z
loop_
_atom_site_type_symbol
_atom_site_label
_atom_site_fract_x
_atom_site_fract_y
_atom_site_fract_z
Si Si1 0.108692 0.567440 0.390936
Si Si2 0.825093 0.750771 0.408555
Si Si3 0.084494 0.989662 0.279280
Si Si4 0.837042 0.784750 0.728601
Si Si5 0.611319 0.387787 0.191075
Si Si6 0.688466 0.584613 0.906567
Si Si7 0.000000 0.682206 0.750000
O O1 0.116582 0.657522 0.255135
O O2 0.209227 0.485853 0.266705
O O3 0.000000 0.500000 0.500000
O O4 0.095767 0.616880 0.562876
O O5 0.855477 0.871071 0.307349
O O6 0.853635 0.764610 0.542028
O O7 0.703785 0.703420 0.549453
O O8 0.000000 0.006923 0.250000
O O9 0.171351 0.086386 0.212710
O O10 0.000000 0.000000 0.500000
O O11 0.737900 0.706193 0.886753
O O12 0.943357 0.747339 0.689021
O O13 0.500000 0.352751 0.250000
O O14 0.610795 0.401652 0.361041
O O15 0.641426 0.507857 0.084502
#
# Coordination Sequence:
#
# PCOD9232670 Si02
#       7
#     4   4   4   4   4   4   2
#     4  11  23  33  54  81 123 155 185 230 287 356
#     4  10  25  40  55  83 117 154 198 242 292 348
#     4  12  23  37  57  82 120 163 198 230 282 348
#     4  11  22  37  54  80 118 157 192 234 278 342
#     4  10  21  41  66  86 111 150 195 251 302 346
#     4  10  21  38  57  87 117 147 192 235 297 352
#     4  12  22  30  50  82 118 160 192 218 272 352
#
# _framework density 18.450095999999998
#
# number of rings (size 3 to 8) (size 9 to 14) (size 15 to 20)
#    0.000    1.231    3.846    2.308    4.308    0.000 
#    0.000    0.000    0.000    4.615    0.000    0.000 
#    0.000    0.000    0.000    0.000    0.000    0.000 
#
# Total GULP energy -145021.564589 kJ/mol
# GULP energy per Si atom -5577.752484 kJ/mol
# Density = 1.840810 g / cm^3
# Si number density = 18.450096 Si / 1000 Ang^3
#
#
#
# Elastic Constant Matrix: (Units=GPa)
#
#
# Indices 1 2 3 4 5 6 
#
# 1 116.4140 52.7912 24.9317 0.0000 9.9942 0.0000
# 2 52.7912 134.2878 35.1329 0.0000 7.6851 0.0000
# 3 24.9317 35.1329 50.0540 0.0000 10.6510 0.0000
# 4 0.0000 0.0000 0.0000 21.1286 0.0000 3.4621
# 5 9.9942 7.6851 10.6510 0.0000 23.3499 0.0000
# 6 0.0000 0.0000 0.0000 3.4621 0.0000 22.2496
#
#
#
# Elastic Compliance Matrix: (Units=1/GPa)
#
#
# Indices 1 2 3 4 5 6 
#
# 1 0.010914 -0.003509 -0.002464 0.000000 -0.002393 0.000000
# 2 -0.003509 0.010250 -0.005591 0.000000 0.000679 0.000000
# 3 -0.002464 -0.005591 0.027150 0.000000 -0.009489 0.000000
# 4 0.000000 0.000000 0.000000 0.048567 0.000000 -0.007557
# 5 -0.002393 0.000679 -0.009489 0.000000 0.047956 0.000000
# 6 0.000000 0.000000 0.000000 -0.007557 0.000000 0.046121
#
#
# Mechanical properties :
#
#
# Convention : Reuss Voigt Hill
#
# Bulk Modulus (GPa) = 39.70605 58.49637 49.10121
# Shear Modulus (GPa) = 22.47372 25.87230 24.17301
#
# Velocity S-wave (km/s) = 3.49389 3.74877 3.62357
# Velocity P-wave (km/s) = 6.15174 7.10716 6.64664
#
# Compressibility (1/GPa) = 0.02518508
#
# Stress axis : x y z
#
# Youngs Moduli (GPa) = 91.62136 97.56001 36.83305
#
# Poissons Ratio (x) = 0.34234 0.09077
# Poissons Ratio (y) = 0.32150 0.20594
# Poissons Ratio (z) = 0.22579 0.54547
#
# Static dielectric constant tensor:
#      x y z
#    x 1.785160 0.000000 0.219790 
#    y 0.000000 1.711650 0.000000 
#    z 0.219790 0.000000 1.956560 
# 
# From -- ./inp_files/18707.got.cif
#   From: 2010.05.17/outbox.cif.g08.bks.cpg/sg13_10_cif.got.tgz:18707.got - 2010.06.03 16:44:36.
