data_PCOD9232442
_publ_section_title
;
Structure prediction by ZEFSAII (Michael W. Deem and Ramdas Pophale) SiO2 
 PCOD9232442
Probable space group: P 2/C
;
_chemical_formula_sum "Si O2"
_cell_formula_units_Z 28
_cell_length_a 5.920730
_cell_length_b 17.698192
_cell_length_c 15.045006
_cell_angle_alpha 90.000000
_cell_angle_beta 130.781696
_cell_angle_gamma 90.000000
_cell_volume 1193.738738
_symmetry_space_group_name_H-M "P 2/C"
_symmetry_group_IT_number 13
_symmetry_cell_setting 'monoclinic'
loop_
_space_group_symop_operation_xyz
x,y,z
-x,y,1/2-z
-x,-y,-z
x,-y,1/2+z
loop_
_atom_site_type_symbol
_atom_site_label
_atom_site_fract_x
_atom_site_fract_y
_atom_site_fract_z
Si Si1 0.719622 0.445030 0.938177
Si Si2 0.260597 0.907306 0.602914
Si Si3 0.974910 0.780297 0.848165
Si Si4 0.672554 0.426589 0.136307
Si Si5 0.122488 0.313296 0.007009
Si Si6 0.632350 0.184657 0.538971
Si Si7 0.432658 0.922863 0.134603
O O1 0.428394 0.495315 0.840237
O O2 0.689831 0.434786 0.035398
O O3 0.000000 0.500000 0.000000
O O4 0.827287 0.365767 0.924619
O O5 0.404890 0.858064 0.563324
O O6 0.193603 0.860285 0.675943
O O7 0.914914 0.914212 0.480491
O O8 0.439146 0.986005 0.643917
O O9 0.000000 0.765020 0.750000
O O10 0.837446 0.723993 0.885068
O O11 0.311261 0.779726 0.972891
O O12 0.412040 0.366278 0.079809
O O13 0.000000 0.403850 0.250000
O O14 0.140496 0.251299 0.931593
O O15 0.647952 0.120254 0.619777
O O16 0.500000 0.891975 0.250000
#
# Coordination Sequence:
#
# PCOD9232442 Si02
#       7
#     4   4   4   4   4   4   4
#     4   9  20  37  59  96 123 166 201 257 315 372
#     4   9  21  39  57  91 123 160 215 272 327 384
#     4  10  22  36  57  93 129 168 209 263 331 396
#     4  10  21  38  64  98 126 166 210 259 319 388
#     4  10  21  37  59  90 132 173 209 261 329 387
#     4  10  21  37  57  88 122 171 212 266 321 392
#     4  10  21  38  61  89 120 165 220 272 324 377
#
# _framework density 23.455718000000001
#
# number of rings (size 3 to 8) (size 9 to 14) (size 15 to 20)
#    0.000    2.286    0.000    1.286    2.000    8.000 
#    0.000    0.000    0.000    0.000  267.429    0.000 
#    0.000    0.000    0.000    0.000    0.000    0.000 
#
# Total GULP energy -156029.322714 kJ/mol
# GULP energy per Si atom -5572.475811 kJ/mol
# Density = 2.340233 g / cm^3
# Si number density = 23.455718 Si / 1000 Ang^3
#
#
#
# Elastic Constant Matrix: (Units=GPa)
#
#
# Indices 1 2 3 4 5 6 
#
# 1 135.4473 81.4972 28.6656 0.0000 -32.6205 0.0000
# 2 81.4972 148.4119 31.0214 0.0000 -23.0096 0.0000
# 3 28.6656 31.0214 35.0369 0.0000 -21.6910 0.0000
# 4 0.0000 0.0000 0.0000 13.4828 0.0000 -9.8815
# 5 -32.6205 -23.0096 -21.6910 0.0000 38.7182 0.0000
# 6 0.0000 0.0000 0.0000 -9.8815 0.0000 54.9965
#
#
#
# Elastic Compliance Matrix: (Units=1/GPa)
#
#
# Indices 1 2 3 4 5 6 
#
# 1 0.012637 -0.005657 -0.001256 0.000000 0.006582 0.000000
# 2 -0.005657 0.010839 -0.006019 0.000000 -0.001696 0.000000
# 3 -0.001256 -0.006019 0.049036 0.000000 0.022835 0.000000
# 4 0.000000 0.000000 0.000000 0.085416 0.000000 0.015347
# 5 0.006582 -0.001696 0.022835 0.000000 0.043158 0.000000
# 6 0.000000 0.000000 0.000000 0.015347 0.000000 0.020940
#
#
# Mechanical properties :
#
#
# Convention : Reuss Voigt Hill
#
# Bulk Modulus (GPa) = 21.43707 66.80716 44.12212
# Shear Modulus (GPa) = 18.97958 33.28696 26.13327
#
# Velocity S-wave (km/s) = 2.84767 3.77124 3.34152
# Velocity P-wave (km/s) = 4.46895 6.89253 5.80855
#
# Compressibility (1/GPa) = 0.04664816
#
# Stress axis : x y z
#
# Youngs Moduli (GPa) = 79.12999 92.25641 20.39322
#
# Poissons Ratio (x) = 0.52185 0.02562
# Poissons Ratio (y) = 0.44760 0.12275
# Poissons Ratio (z) = 0.09942 0.55532
#
# Static dielectric constant tensor:
#      x y z
#    x 1.844180 0.000000 -0.004250 
#    y 0.000000 2.028440 0.000000 
#    z -0.004250 0.000000 1.898300 
# 
# From -- ./inp_files/44508.got.cif
#   From: 2010.05.17/outbox.cif.g08.bks.cpg/sg13_23_cif.got.tgz:44508.got - 2010.06.03 16:44:36.
