data_PCOD9232403
_publ_section_title
;
Structure prediction by ZEFSAII (Michael W. Deem and Ramdas Pophale) SiO2 
 PCOD9232403
Probable space group: P 2/C
;
_chemical_formula_sum "Si O2"
_cell_formula_units_Z 28
_cell_length_a 7.698922
_cell_length_b 12.321629
_cell_length_c 15.124006
_cell_angle_alpha 90.000000
_cell_angle_beta 119.603315
_cell_angle_gamma 90.000000
_cell_volume 1247.434260
_symmetry_space_group_name_H-M "P 2/C"
_symmetry_group_IT_number 13
_symmetry_cell_setting 'monoclinic'
loop_
_space_group_symop_operation_xyz
x,y,z
-x,y,1/2-z
-x,-y,-z
x,-y,1/2+z
loop_
_atom_site_type_symbol
_atom_site_label
_atom_site_fract_x
_atom_site_fract_y
_atom_site_fract_z
Si Si1 0.430342 0.219656 0.020632
Si Si2 0.055805 0.487176 0.412427
Si Si3 0.560772 0.404110 0.920241
Si Si4 0.769274 0.890483 0.723701
Si Si5 0.277933 0.693326 0.662005
Si Si6 0.236353 0.870873 0.306053
Si Si7 0.239119 0.360020 0.718949
O O1 0.615076 0.161607 0.115176
O O2 0.300857 0.282296 0.063028
O O3 0.515028 0.305285 0.972600
O O4 0.311926 0.138779 0.926109
O O5 0.904897 0.385280 0.352808
O O6 0.983796 0.593357 0.342551
O O7 0.000000 0.500000 0.500000
O O8 0.292897 0.474059 0.481036
O O9 0.359896 0.437090 0.817804
O O10 0.683760 0.369935 0.862353
O O11 0.754618 0.811157 0.803324
O O12 0.000000 0.889037 0.750000
O O13 0.701874 0.014732 0.720692
O O14 0.500000 0.653971 0.750000
O O15 0.278202 0.761498 0.261582
O O16 0.000000 0.873006 0.250000
#
# Coordination Sequence:
#
# PCOD9232403 Si02
#       7
#     4   4   4   4   4   4   4
#     4  10  21  41  64  92 129 158 211 258 317 370
#     4  10  21  36  67  87 123 166 212 252 308 367
#     4   9  19  38  63  89 119 170 205 253 304 368
#     4  10  21  43  65  92 122 162 211 259 314 374
#     4  10  23  40  64  91 128 162 205 265 313 368
#     4  10  22  40  63  93 129 162 207 258 311 376
#     4   9  20  39  60  92 128 163 208 255 310 365
#
# _framework density 22.446072999999998
#
# number of rings (size 3 to 8) (size 9 to 14) (size 15 to 20)
#    0.000    2.286    0.000    1.286    8.000    0.000 
#   18.000    7.857    0.000    0.000    0.000    0.000 
#    0.000    0.000    0.000    0.000    0.000    0.000 
#
# Total GULP energy -156114.593670 kJ/mol
# GULP energy per Si atom -5575.521203 kJ/mol
# Density = 2.239499 g / cm^3
# Si number density = 22.446073 Si / 1000 Ang^3
#
#
#
# Elastic Constant Matrix: (Units=GPa)
#
#
# Indices 1 2 3 4 5 6 
#
# 1 69.6103 17.2842 44.7018 0.0000 14.9811 0.0000
# 2 17.2842 118.9076 67.9117 0.0000 5.2577 0.0000
# 3 44.7018 67.9117 141.6898 0.0000 2.1276 0.0000
# 4 0.0000 0.0000 0.0000 59.4339 0.0000 9.8717
# 5 14.9811 5.2577 2.1276 0.0000 45.5419 0.0000
# 6 0.0000 0.0000 0.0000 9.8717 0.0000 31.1947
#
#
#
# Elastic Compliance Matrix: (Units=1/GPa)
#
#
# Indices 1 2 3 4 5 6 
#
# 1 0.019740 0.001257 -0.006735 0.000000 -0.006324 0.000000
# 2 0.001257 0.011713 -0.005988 0.000000 -0.001486 0.000000
# 3 -0.006735 -0.005988 0.012018 0.000000 0.002345 0.000000
# 4 0.000000 0.000000 0.000000 0.017759 0.000000 -0.005620
# 5 -0.006324 -0.001486 0.002345 0.000000 0.024100 0.000000
# 6 0.000000 0.000000 0.000000 -0.005620 0.000000 0.033835
#
#
# Mechanical properties :
#
#
# Convention : Reuss Voigt Hill
#
# Bulk Modulus (GPa) = 48.69205 65.55590 57.12398
# Shear Modulus (GPa) = 33.56990 40.58810 37.07900
#
# Velocity S-wave (km/s) = 3.87147 4.25696 4.06878
# Velocity P-wave (km/s) = 6.45944 7.30970 6.89768
#
# Compressibility (1/GPa) = 0.02053723
#
# Stress axis : x y z
#
# Youngs Moduli (GPa) = 50.65922 85.37557 83.21195
#
# Poissons Ratio (x) = -0.10731 0.56045
# Poissons Ratio (y) = -0.06368 0.49829
# Poissons Ratio (z) = 0.34120 0.51125
#
# Static dielectric constant tensor:
#      x y z
#    x 2.151020 0.000000 0.101320 
#    y 0.000000 1.913780 0.000000 
#    z 0.101320 0.000000 1.876060 
# 
# From -- ./inp_files/47029.got.cif
#   From: 2010.05.17/outbox.cif.g08.bks.cpg/sg13_24_cif.got.tgz:47029.got - 2010.06.03 16:44:36.
