data_PCOD9232850
_publ_section_title
;
Structure prediction by ZEFSAII (Michael W. Deem and Ramdas Pophale) SiO2 
 PCOD9232850
Probable space group: P 2/C
;
_chemical_formula_sum "Si O2"
_cell_formula_units_Z 32
_cell_length_a 12.043738
_cell_length_b 9.513533
_cell_length_c 30.161347
_cell_angle_alpha 90.000000
_cell_angle_beta 27.495062
_cell_angle_gamma 90.000000
_cell_volume 1595.465996
_symmetry_space_group_name_H-M "P 2/C"
_symmetry_group_IT_number 13
_symmetry_cell_setting 'monoclinic'
loop_
_space_group_symop_operation_xyz
x,y,z
-x,y,1/2-z
-x,-y,-z
x,-y,1/2+z
loop_
_atom_site_type_symbol
_atom_site_label
_atom_site_fract_x
_atom_site_fract_y
_atom_site_fract_z
Si Si1 0.804041 0.164061 0.612141
Si Si2 0.349002 0.975531 0.009128
Si Si3 0.146584 0.865600 0.302231
Si Si4 0.692285 0.662502 0.761022
Si Si5 0.747753 0.138867 0.101618
Si Si6 0.475054 0.642060 0.352120
Si Si7 0.219979 0.891957 0.705573
Si Si8 0.901295 0.247357 0.445507
O O1 0.770527 0.137694 0.675809
O O2 0.676490 0.299745 0.636545
O O3 0.087264 0.169453 0.499738
O O4 0.706835 0.027680 0.619943
O O5 0.533326 0.927065 0.906357
O O6 0.220544 0.119506 0.038341
O O7 0.500000 0.000000 0.000000
O O8 0.141677 0.862116 0.092518
O O9 0.289826 0.740646 0.227997
O O10 0.195306 0.005123 0.256448
O O11 0.490782 0.769507 0.813153
O O12 0.563379 0.514913 0.813519
O O13 0.774774 0.734762 0.777493
O O14 0.924820 0.660444 0.647025
O O15 0.921508 0.178480 0.080839
O O16 0.301116 0.667659 0.455708
O O17 0.000000 0.915367 0.750000
#
# Coordination Sequence:
#
# PCOD9232850 Si02
#       8
#     4   4   4   4   4   4   4   4
#     4  10  21  38  64 101 135 178 230 276 335 401
#     4  12  23  42  72 103 129 166 228 294 342 393
#     4  12  22  41  67  99 131 175 225 286 337 389
#     4  12  25  42  66  97 142 189 221 271 342 409
#     4  10  21  38  66  96 135 179 227 282 334 397
#     4  11  27  42  64  99 145 182 222 272 333 423
#     4  12  24  44  72 101 131 176 237 285 339 399
#     4  11  23  42  66  97 133 176 230 282 338 394
#
# _framework density 20.056835
#
# number of rings (size 3 to 8) (size 9 to 14) (size 15 to 20)
#    0.000    0.750    5.000    2.250    1.750    7.000 
#    0.000    1.875    0.000    3.000    0.000    0.000 
#    0.000    0.000    0.000    0.000    0.000    0.000 
#
# Total GULP energy -178972.033394 kJ/mol
# GULP energy per Si atom -5592.876044 kJ/mol
# Density = 2.001119 g / cm^3
# Si number density = 20.056835 Si / 1000 Ang^3
#
#
#
# Elastic Constant Matrix: (Units=GPa)
#
#
# Indices 1 2 3 4 5 6 
#
# 1 102.8059 36.0926 46.0915 0.0000 -1.0945 0.0000
# 2 36.0926 112.0382 56.3173 0.0000 3.9463 0.0000
# 3 46.0915 56.3173 198.0930 0.0000 11.9927 0.0000
# 4 0.0000 0.0000 0.0000 28.1832 0.0000 -6.2417
# 5 -1.0945 3.9463 11.9927 0.0000 36.6847 0.0000
# 6 0.0000 0.0000 0.0000 -6.2417 0.0000 17.3267
#
#
#
# Elastic Compliance Matrix: (Units=1/GPa)
#
#
# Indices 1 2 3 4 5 6 
#
# 1 0.011610 -0.002787 -0.001988 0.000000 0.001296 0.000000
# 2 -0.002787 0.011083 -0.002474 0.000000 -0.000467 0.000000
# 3 -0.001988 -0.002474 0.006327 0.000000 -0.001861 0.000000
# 4 0.000000 0.000000 0.000000 0.038558 0.000000 0.013890
# 5 0.001296 -0.000467 -0.001861 0.000000 0.027957 0.000000
# 6 0.000000 0.000000 0.000000 0.013890 0.000000 0.062718
#
#
# Mechanical properties :
#
#
# Convention : Reuss Voigt Hill
#
# Bulk Modulus (GPa) = 68.85592 76.66000 72.75796
# Shear Modulus (GPa) = 28.15435 34.73461 31.44448
#
# Velocity S-wave (km/s) = 3.75070 4.16602 3.96380
# Velocity P-wave (km/s) = 7.29122 7.83870 7.56991
#
# Compressibility (1/GPa) = 0.01452308
#
# Stress axis : x y z
#
# Youngs Moduli (GPa) = 86.12995 90.22448 158.05894
#
# Poissons Ratio (x) = 0.25143 0.31416
# Poissons Ratio (y) = 0.24002 0.39109
# Poissons Ratio (z) = 0.17120 0.22325
#
# Static dielectric constant tensor:
#      x y z
#    x 1.720610 0.000000 0.003810 
#    y 0.000000 1.681430 0.000000 
#    z 0.003810 0.000000 1.766770 
# 
# From -- ./inp_files/96659.got.cif
#   From: 2010.05.17/outbox.cif.g08.bks.cpg/sg13_49_cif.got.tgz:96659.got - 2010.06.03 16:44:36.
