data_PCOD9232166
_publ_section_title
;
Structure prediction by ZEFSAII (Michael W. Deem and Ramdas Pophale) SiO2 
 PCOD9232166
Probable space group: P 2/C
;
_chemical_formula_sum "Si O2"
_cell_formula_units_Z 30
_cell_length_a 25.875692
_cell_length_b 6.478529
_cell_length_c 13.841024
_cell_angle_alpha 90.000000
_cell_angle_beta 137.903861
_cell_angle_gamma 90.000000
_cell_volume 1555.447868
_symmetry_space_group_name_H-M "P 2/C"
_symmetry_group_IT_number 13
_symmetry_cell_setting 'monoclinic'
loop_
_space_group_symop_operation_xyz
x,y,z
-x,y,1/2-z
-x,-y,-z
x,-y,1/2+z
loop_
_atom_site_type_symbol
_atom_site_label
_atom_site_fract_x
_atom_site_fract_y
_atom_site_fract_z
Si Si1 0.729612 0.796473 0.275055
Si Si2 0.354704 0.596159 0.888600
Si Si3 0.000000 0.604097 0.250000
Si Si4 0.109204 0.223217 0.403075
Si Si5 0.990929 0.014997 0.874046
Si Si6 0.668785 0.018734 0.025637
Si Si7 0.472507 0.730856 0.606952
Si Si8 0.631260 0.081291 0.259724
O O1 0.711461 0.574100 0.206523
O O2 0.802619 0.790511 0.445441
O O3 0.736579 0.946778 0.191880
O O4 0.656421 0.876913 0.236517
O O5 0.344707 0.735745 0.779519
O O6 0.347690 0.742893 0.972572
O O7 0.434260 0.465145 0.000857
O O8 0.073879 0.453007 0.351306
O O9 0.995113 0.755490 0.335403
O O10 0.060284 0.107813 0.418380
O O11 0.085268 0.100450 0.272864
O O12 0.000000 0.000000 0.000000
O O13 0.594702 0.893513 0.962522
O O14 0.672913 0.948041 0.920785
O O15 0.500000 0.652588 0.750000
O O16 0.542210 0.859874 0.656228
#
# Coordination Sequence:
#
# PCOD9232166 Si02
#       8
#     4   4   2   4   4   4   4   4
#     4  10  22  37  53  80 114 147 180 216 269 329
#     4  10  21  35  55  78 107 144 186 231 278 328
#     4   8  18  36  56  80 114 140 174 222 258 308
#     4   9  20  36  55  83 116 145 175 216 266 320
#     4   9  19  37  62  86 107 139 180 220 265 316
#     4   9  21  38  53  76 110 144 183 232 278 323
#     4   9  19  35  56  80 106 140 184 234 282 327
#     4  10  21  37  56  79 108 143 186 231 277 327
#
# _framework density 19.287047999999999
#
# number of rings (size 3 to 8) (size 9 to 14) (size 15 to 20)
#    0.000    2.933    0.000    0.400    0.000   18.133 
#    0.000    2.667    0.000    0.000    0.000    0.000 
#    0.000    0.000    0.000    0.000    0.000    0.000 
#
# Total GULP energy -167026.115574 kJ/mol
# GULP energy per Si atom -5567.537186 kJ/mol
# Density = 1.924315 g / cm^3
# Si number density = 19.287048 Si / 1000 Ang^3
#
#
#
# Elastic Constant Matrix: (Units=GPa)
#
#
# Indices 1 2 3 4 5 6 
#
# 1 42.0419 26.6559 38.1091 0.0000 -26.7711 0.0000
# 2 26.6559 123.6408 51.4216 0.0000 -10.0022 0.0000
# 3 38.1091 51.4216 135.1318 0.0000 -24.7684 0.0000
# 4 0.0000 0.0000 0.0000 13.8153 0.0000 -7.3561
# 5 -26.7711 -10.0022 -24.7684 0.0000 32.7942 0.0000
# 6 0.0000 0.0000 0.0000 -7.3561 0.0000 10.7510
#
#
#
# Elastic Compliance Matrix: (Units=1/GPa)
#
#
# Indices 1 2 3 4 5 6 
#
# 1 0.062066 -0.007008 -0.006896 0.000000 0.043320 0.000000
# 2 -0.007008 0.010401 -0.002842 0.000000 -0.004695 0.000000
# 3 -0.006896 -0.002842 0.010720 0.000000 0.001600 0.000000
# 4 0.000000 0.000000 0.000000 0.113867 0.000000 0.077911
# 5 0.043320 -0.004695 0.001600 0.000000 0.065633 0.000000
# 6 0.000000 0.000000 0.000000 0.077911 0.000000 0.146323
#
#
# Mechanical properties :
#
#
# Convention : Reuss Voigt Hill
#
# Bulk Modulus (GPa) = 20.12348 59.24307 39.68327
# Shear Modulus (GPa) = 10.89164 23.78063 17.33614
#
# Velocity S-wave (km/s) = 2.37895 3.51520 3.00133
# Velocity P-wave (km/s) = 4.24290 6.87449 5.71230
#
# Compressibility (1/GPa) = 0.04969318
#
# Stress axis : x y z
#
# Youngs Moduli (GPa) = 16.11196 96.14446 93.28556
#
# Poissons Ratio (x) = 0.67379 0.64334
# Poissons Ratio (y) = 0.11291 0.26513
# Poissons Ratio (z) = 0.11111 0.27325
#
# Static dielectric constant tensor:
#      x y z
#    x 1.683270 0.000000 -0.015410 
#    y 0.000000 1.679260 0.000000 
#    z -0.015410 0.000000 1.743740 
# 
# From -- ./inp_files/59222.got.cif
#   From: 2010.05.17/outbox.cif.g08.bks.cpg/sg13_30_cif.got.tgz:59222.got - 2010.06.03 16:44:36.
