data_PCOD9232845
_publ_section_title
;
Structure prediction by ZEFSAII (Michael W. Deem and Ramdas Pophale) SiO2 
 PCOD9232845
Probable space group: P 2/C
;
_chemical_formula_sum "Si O2"
_cell_formula_units_Z 32
_cell_length_a 16.928096
_cell_length_b 5.608335
_cell_length_c 28.268157
_cell_angle_alpha 90.000000
_cell_angle_beta 150.867292
_cell_angle_gamma 90.000000
_cell_volume 1306.533501
_symmetry_space_group_name_H-M "P 2/C"
_symmetry_group_IT_number 13
_symmetry_cell_setting 'monoclinic'
loop_
_space_group_symop_operation_xyz
x,y,z
-x,y,1/2-z
-x,-y,-z
x,-y,1/2+z
loop_
_atom_site_type_symbol
_atom_site_label
_atom_site_fract_x
_atom_site_fract_y
_atom_site_fract_z
Si Si1 0.643185 0.632545 0.706426
Si Si2 0.880397 0.493401 0.248337
Si Si3 0.791398 0.967014 0.937718
Si Si4 0.423431 0.703493 0.128809
Si Si5 0.893703 0.721880 0.902695
Si Si6 0.230031 0.988839 0.348572
Si Si7 0.451343 0.991634 0.551827
Si Si8 0.901863 0.411351 0.553426
O O1 0.736765 0.510121 0.712400
O O2 0.581320 0.459819 0.715795
O O3 0.770590 0.815671 0.797383
O O4 0.488217 0.757905 0.602240
O O5 0.858574 0.738105 0.208050
O O6 0.038895 0.514980 0.363922
O O7 0.860302 0.238784 0.211270
O O8 0.798309 0.763771 0.901384
O O9 0.618745 0.086262 0.856981
O O10 0.856423 0.861717 0.021505
O O11 0.933988 0.150255 0.999292
O O12 0.440421 0.804401 0.084846
O O13 0.260377 0.550556 0.044205
O O14 0.955381 0.478195 0.909858
O O15 0.389396 0.986265 0.397974
O O16 0.297809 0.988245 0.437250
#
# Coordination Sequence:
#
# PCOD9232845 Si02
#       8
#     4   4   4   4   4   4   4   4
#     4  10  21  38  63  96 128 170 216 275 336 405
#     4  10  22  39  68  97 124 167 230 280 325 394
#     4  10  21  40  66  93 127 171 220 277 332 398
#     4  11  22  39  59  91 130 179 203 272 342 404
#     4   9  21  40  66  96 122 165 229 274 327 394
#     4  10  22  39  67  98 125 168 227 285 321 399
#     4  10  22  37  63  89 132 165 216 266 344 391
#     4  10  22  38  65  89 131 166 221 273 336 396
#
# _framework density 24.492291000000002
#
# number of rings (size 3 to 8) (size 9 to 14) (size 15 to 20)
#    0.000    2.000    1.250    1.125    8.750    1.500 
#    0.000    4.375    0.000    3.000    0.000    0.000 
#    0.000    0.000    0.000    0.000    0.000    0.000 
#
# Total GULP energy -178562.989352 kJ/mol
# GULP energy per Si atom -5580.093417 kJ/mol
# Density = 2.443655 g / cm^3
# Si number density = 24.492291 Si / 1000 Ang^3
#
#
#
# Elastic Constant Matrix: (Units=GPa)
#
#
# Indices 1 2 3 4 5 6 
#
# 1 104.9960 23.3371 33.9602 0.0000 11.7348 0.0000
# 2 23.3371 83.0175 27.8331 0.0000 -7.8866 0.0000
# 3 33.9602 27.8331 76.4922 0.0000 -16.9354 0.0000
# 4 0.0000 0.0000 0.0000 334.7472 0.0000 713.2611
# 5 11.7348 -7.8866 -16.9354 0.0000 36.2055 0.0000
# 6 0.0000 0.0000 0.0000 713.2611 0.0000 1668.9808
#
#
#
# Elastic Compliance Matrix: (Units=1/GPa)
#
#
# Indices 1 2 3 4 5 6 
#
# 1 0.013069 -0.002155 -0.006760 0.000000 -0.007867 0.000000
# 2 -0.002155 0.014092 -0.003722 0.000000 0.002027 0.000000
# 3 -0.006760 -0.003722 0.019783 0.000000 0.010634 0.000000
# 4 0.000000 0.000000 0.000000 0.033416 0.000000 -0.014281
# 5 -0.007867 0.002027 0.010634 0.000000 0.035586 0.000000
# 6 0.000000 0.000000 0.000000 -0.014281 0.000000 0.006702
#
#
# Mechanical properties :
#
#
# Convention : Reuss Voigt Hill
#
# Bulk Modulus (GPa) = 46.14644 48.30740 47.22692
# Shear Modulus (GPa) = 32.22793 419.94506 226.08649
#
# Velocity S-wave (km/s) = 3.63139 13.10848 9.61819
# Velocity P-wave (km/s) = 6.03860 15.77581 11.94447
#
# Compressibility (1/GPa) = 0.02167014
#
# Stress axis : x y z
#
# Youngs Moduli (GPa) = 76.51802 70.96292 50.54811
#
# Poissons Ratio (x) = 0.15291 0.34170
# Poissons Ratio (y) = 0.16488 0.18815
# Poissons Ratio (z) = 0.51725 0.26414
#
# Static dielectric constant tensor:
#      x y z
#    x 1.968720 0.000000 0.004080 
#    y 0.000000 2.060140 0.000000 
#    z 0.004080 0.000000 1.961230 
# 
# From -- ./inp_files/97258.got.cif
#   From: 2010.05.17/outbox.cif.g08.bks.cpg/sg13_49_cif.got.tgz:97258.got - 2010.06.03 16:44:36.
