data_PCOD9232574
_publ_section_title
;
Structure prediction by ZEFSAII (Michael W. Deem and Ramdas Pophale) SiO2 
 PCOD9232574
Probable space group: P 2/C
;
_chemical_formula_sum "Si O2"
_cell_formula_units_Z 26
_cell_length_a 11.078885
_cell_length_b 9.602616
_cell_length_c 15.757080
_cell_angle_alpha 90.000000
_cell_angle_beta 135.326969
_cell_angle_gamma 90.000000
_cell_volume 1178.565650
_symmetry_space_group_name_H-M "P 2/C"
_symmetry_group_IT_number 13
_symmetry_cell_setting 'monoclinic'
loop_
_space_group_symop_operation_xyz
x,y,z
-x,y,1/2-z
-x,-y,-z
x,-y,1/2+z
loop_
_atom_site_type_symbol
_atom_site_label
_atom_site_fract_x
_atom_site_fract_y
_atom_site_fract_z
Si Si1 0.565047 0.453880 0.684366
Si Si2 0.710017 0.170098 0.721693
Si Si3 0.884605 0.122383 0.983864
Si Si4 0.000000 0.750000 0.250000
Si Si5 0.710017 0.329902 0.488324
Si Si6 0.884605 0.622383 0.900741
Si Si7 0.565047 0.953880 0.880681
O O1 0.500000 0.430404 0.750000
O O2 0.605071 0.311656 0.656454
O O3 0.412302 0.539522 0.566386
O O4 0.739011 0.546458 0.772528
O O5 0.779160 0.186167 0.852252
O O6 0.587698 0.039521 0.654084
O O7 0.875603 0.160365 0.746203
O O8 0.739011 0.046458 0.966483
O O9 1.000000 0.250000 0.076887
O O10 0.000000 0.000000 0.000000
O O11 0.124396 0.660365 0.370599
O O12 0.779160 0.313833 0.426908
O O13 0.605071 0.188344 0.448617
O O14 0.000000 0.500000 0.000000
O O15 0.500000 0.930404 0.750000
#
# Coordination Sequence:
#
# PCOD9232574 Si02
#       7
#     4   4   4   2   4   4   4
#     4  10  21  37  62  94 120 147 196 254 312 353
#     4  11  23  39  61  88 121 164 196 248 300 360
#     4  11  19  34  60  94 123 151 191 244 308 354
#     4  12  24  44  60  78 122 168 212 240 288 368
#     4  11  23  39  61  88 121 164 196 248 300 360
#     4  11  19  34  60  94 123 151 191 244 308 354
#     4  10  21  37  62  94 120 147 196 254 312 353
#
# _framework density 22.060713
#
# number of rings (size 3 to 8) (size 9 to 14) (size 15 to 20)
#    0.000    1.231    4.615    2.769    4.308    1.231 
#    0.000    0.000    0.000    1.846    0.000    0.000 
#    0.000    0.000    0.000    0.000    0.000    0.000 
#
# Total GULP energy -145384.781905 kJ/mol
# GULP energy per Si atom -5591.722381 kJ/mol
# Density = 2.201050 g / cm^3
# Si number density = 22.060713 Si / 1000 Ang^3
#
#
#
# Elastic Constant Matrix: (Units=GPa)
#
#
# Indices 1 2 3 4 5 6 
#
# 1 64.4194 35.2580 19.5582 0.0000 27.6700 0.0000
# 2 35.2580 117.1078 48.9848 0.0000 20.7945 0.0000
# 3 19.5582 48.9848 100.9736 0.0000 27.7042 0.0000
# 4 0.0000 0.0000 0.0000 28.0959 0.0000 17.6578
# 5 27.6700 20.7945 27.7042 0.0000 31.6157 0.0000
# 6 0.0000 0.0000 0.0000 17.6578 0.0000 16.4400
#
#
#
# Elastic Compliance Matrix: (Units=1/GPa)
#
#
# Indices 1 2 3 4 5 6 
#
# 1 0.027795 -0.005779 0.004017 0.000000 -0.024045 0.000000
# 2 -0.005779 0.012179 -0.005238 0.000000 0.001637 0.000000
# 3 0.004017 -0.005238 0.015385 0.000000 -0.013552 0.000000
# 4 0.000000 0.000000 0.000000 0.109527 0.000000 -0.117640
# 5 -0.024045 0.001637 -0.013552 0.000000 0.063472 0.000000
# 6 0.000000 0.000000 0.000000 -0.117640 0.000000 0.187181
#
#
# Mechanical properties :
#
#
# Convention : Reuss Voigt Hill
#
# Bulk Modulus (GPa) = 24.17885 54.45588 39.31736
# Shear Modulus (GPa) = 11.27837 27.14363 19.21100
#
# Velocity S-wave (km/s) = 2.26352 3.51152 2.95417
# Velocity P-wave (km/s) = 4.22082 6.41710 5.43114
#
# Compressibility (1/GPa) = 0.04135846
#
# Stress axis : x y z
#
# Youngs Moduli (GPa) = 35.97821 82.10549 64.99830
#
# Poissons Ratio (x) = 0.47448 -0.26110
# Poissons Ratio (y) = 0.20791 0.34049
# Poissons Ratio (z) = -0.14452 0.43010
#
# Static dielectric constant tensor:
#      x y z
#    x 1.859270 0.000000 -0.033280 
#    y 0.000000 1.822650 0.000000 
#    z -0.033280 0.000000 1.837300 
# 
# From -- ./inp_files/78325.got.cif
#   From: 2010.05.17/outbox.cif.g08.bks.cpg/sg13_40_cif.got.tgz:78325.got - 2010.06.03 16:44:36.
