data_PCOD9232296
_publ_section_title
;
Structure prediction by ZEFSAII (Michael W. Deem and Ramdas Pophale) SiO2 
 PCOD9232296
Probable space group: P 2/C
;
_chemical_formula_sum "Si O2"
_cell_formula_units_Z 28
_cell_length_a 9.492657
_cell_length_b 30.152442
_cell_length_c 5.209508
_cell_angle_alpha 90.000000
_cell_angle_beta 67.748003
_cell_angle_gamma 90.000000
_cell_volume 1380.054460
_symmetry_space_group_name_H-M "P 2/C"
_symmetry_group_IT_number 13
_symmetry_cell_setting 'monoclinic'
loop_
_space_group_symop_operation_xyz
x,y,z
-x,y,1/2-z
-x,-y,-z
x,-y,1/2+z
loop_
_atom_site_type_symbol
_atom_site_label
_atom_site_fract_x
_atom_site_fract_y
_atom_site_fract_z
Si Si1 0.181255 0.248327 0.129893
Si Si2 0.067685 0.950548 0.946038
Si Si3 0.607109 0.612668 0.428098
Si Si4 0.399911 0.830006 0.561733
Si Si5 0.183571 0.302658 0.628368
Si Si6 0.400640 0.066322 0.064566
Si Si7 0.178914 0.471208 0.618636
O O1 0.257969 0.202536 0.158981
O O2 0.224130 0.284420 0.318033
O O3 0.000000 0.243571 0.250000
O O4 0.221636 0.265938 0.818811
O O5 0.243903 0.956278 0.756666
O O6 0.000000 0.925374 0.750000
O O7 0.000000 0.929174 0.250000
O O8 0.000000 0.000000 0.000000
O O9 0.500000 0.612154 0.250000
O O10 0.723071 0.654002 0.357784
O O11 0.709638 0.568680 0.387301
O O12 0.500000 0.615836 0.750000
O O13 0.500000 0.826629 0.750000
O O14 0.361226 0.881819 0.547289
O O15 0.500000 0.816056 0.250000
O O16 0.000000 0.310404 0.750000
O O17 0.500000 0.063834 0.250000
O O18 0.500000 0.050664 0.750000
O O19 0.203874 0.490924 0.317279
O O20 0.000000 0.457819 0.750000
#
# Coordination Sequence:
#
# PCOD9232296 Si02
#       7
#     4   4   4   4   4   4   4
#     4  10  21  37  58  84 111 148 192 235 282 333
#     4  10  21  39  59  86 118 150 194 245 295 343
#     4  12  25  38  58  88 116 147 188 235 289 336
#     4  10  21  36  57  84 115 150 189 235 289 346
#     4  10  22  40  58  79 115 154 191 231 277 342
#     4  10  21  39  60  85 118 158 198 239 294 360
#     4  10  22  41  63  84 111 150 190 229 282 346
#
# _framework density 20.289055000000001
#
# number of rings (size 3 to 8) (size 9 to 14) (size 15 to 20)
#    0.000    1.714    0.000    3.857    0.000    5.714 
#    0.000   16.429    0.000    0.000    0.000    0.000 
#    0.000    0.000    0.000    0.000    0.000    0.000 
#
# Total GULP energy -156294.785025 kJ/mol
# GULP energy per Si atom -5581.956608 kJ/mol
# Density = 2.024288 g / cm^3
# Si number density = 20.289055 Si / 1000 Ang^3
#
#
#
# Elastic Constant Matrix: (Units=GPa)
#
#
# Indices 1 2 3 4 5 6 
#
# 1 112.5514 46.0509 45.7830 0.0000 5.2529 0.0000
# 2 46.0509 64.2417 11.7746 0.0000 -14.5454 0.0000
# 3 45.7830 11.7746 126.3650 0.0000 19.1141 0.0000
# 4 0.0000 0.0000 0.0000 -22.9551 0.0000 49.1837
# 5 5.2529 -14.5454 19.1141 0.0000 36.7209 0.0000
# 6 0.0000 0.0000 0.0000 49.1837 0.0000 143.4905
#
#
#
# Elastic Compliance Matrix: (Units=1/GPa)
#
#
# Indices 1 2 3 4 5 6 
#
# 1 0.015268 -0.011321 -0.003765 0.000000 -0.004709 0.000000
# 2 -0.011321 0.026489 -0.000216 0.000000 0.012224 0.000000
# 3 -0.003765 -0.000216 0.010018 0.000000 -0.004761 0.000000
# 4 0.000000 0.000000 0.000000 -0.025117 0.000000 0.008609
# 5 -0.004709 0.012224 -0.004761 0.000000 0.035226 0.000000
# 6 0.000000 0.000000 0.000000 0.008609 0.000000 0.004018
#
#
# Mechanical properties :
#
#
# Convention : Reuss Voigt Hill
#
# Bulk Modulus (GPa) = 47.23120 56.70836 51.96978
# Shear Modulus (GPa) = 48.28076 44.75455 46.51766
#
# Velocity S-wave (km/s) = 4.88345 4.70174 4.79346
# Velocity P-wave (km/s) = 7.42477 7.58195 7.50377
#
# Compressibility (1/GPa) = 0.02117245
#
# Stress axis : x y z
#
# Youngs Moduli (GPa) = 65.49723 37.75220 99.82224
#
# Poissons Ratio (x) = 0.42738 0.37579
# Poissons Ratio (y) = 0.74147 0.02152
# Poissons Ratio (z) = 0.24657 0.00814
#
# Static dielectric constant tensor:
#      x y z
#    x 1.583910 0.000000 0.137870 
#    y 0.000000 1.688060 0.000000 
#    z 0.137870 0.000000 1.603200 
# 
# From -- ./inp_files/2674.got.cif
#   From: 2010.05.17/outbox.cif.g08.bks.cpg/sg13_2_cif.got.tgz:2674.got - 2010.06.03 16:44:36.
