data_PCOD9232598
_publ_section_title
;
Structure prediction by ZEFSAII (Michael W. Deem and Ramdas Pophale) SiO2 
 PCOD9232598
Probable space group: P 2/C
;
_chemical_formula_sum "Si O2"
_cell_formula_units_Z 32
_cell_length_a 9.856934
_cell_length_b 11.498797
_cell_length_c 19.824778
_cell_angle_alpha 90.000000
_cell_angle_beta 43.681507
_cell_angle_gamma 90.000000
_cell_volume 1551.886635
_symmetry_space_group_name_H-M "P 2/C"
_symmetry_group_IT_number 13
_symmetry_cell_setting 'monoclinic'
loop_
_space_group_symop_operation_xyz
x,y,z
-x,y,1/2-z
-x,-y,-z
x,-y,1/2+z
loop_
_atom_site_type_symbol
_atom_site_label
_atom_site_fract_x
_atom_site_fract_y
_atom_site_fract_z
Si Si1 0.676426 0.944429 0.891661
Si Si2 0.291774 0.391502 0.153056
Si Si3 0.127108 0.676628 0.925332
Si Si4 0.230531 0.423734 0.871933
Si Si5 0.376656 0.778132 0.944614
Si Si6 0.208521 0.193284 0.652030
Si Si7 0.593493 0.631215 0.329754
Si Si8 0.065269 0.265184 0.139284
O O1 0.551335 0.872451 0.882346
O O2 0.826170 0.853554 0.874533
O O3 0.785410 0.058752 0.827945
O O4 0.500000 0.000000 0.000000
O O5 0.507959 0.341924 0.085427
O O6 0.299847 0.523458 0.171955
O O7 0.220520 0.366489 0.102700
O O8 0.134658 0.312160 0.251623
O O9 0.236950 0.562770 0.855608
O O10 0.263850 0.765758 0.915584
O O11 0.997659 0.737806 0.915067
O O12 0.984876 0.618425 0.031663
O O13 0.297722 0.355978 0.781273
O O14 0.374872 0.398253 0.882762
O O15 0.244361 0.798856 0.058751
O O16 0.379916 0.260573 0.630325
O O17 0.000000 0.244055 0.750000
#
# Coordination Sequence:
#
# PCOD9232598 Si02
#       8
#     4   4   4   4   4   4   4   4
#     4   9  22  44  65  93 120 166 222 268 313 374
#     4  10  21  37  63  96 126 159 220 258 318 379
#     4  11  21  39  62  96 130 167 201 271 327 381
#     4  10  23  36  59  94 138 164 208 252 334 393
#     4  10  22  41  65  96 122 164 218 266 315 383
#     4  11  25  40  67  88 130 170 216 262 319 379
#     4  11  22  40  60  92 132 175 205 261 315 400
#     4  10  22  37  68  93 125 163 212 275 317 373
#
# _framework density 20.620062999999998
#
# number of rings (size 3 to 8) (size 9 to 14) (size 15 to 20)
#    0.000    1.750    2.500    0.750   10.500    3.000 
#    0.000    2.500    5.500    0.000    0.000    0.000 
#    0.000    0.000    0.000    0.000    0.000    0.000 
#
# Total GULP energy -178399.451770 kJ/mol
# GULP energy per Si atom -5574.982868 kJ/mol
# Density = 2.057313 g / cm^3
# Si number density = 20.620063 Si / 1000 Ang^3
#
#
#
# Elastic Constant Matrix: (Units=GPa)
#
#
# Indices 1 2 3 4 5 6 
#
# 1 152.9203 53.5988 -0.0479 0.0000 11.0094 0.0000
# 2 53.5988 101.4010 0.7055 0.0000 2.0802 0.0000
# 3 -0.0479 0.7055 32.0910 0.0000 -6.5189 0.0000
# 4 0.0000 0.0000 0.0000 16.5027 0.0000 -5.1428
# 5 11.0094 2.0802 -6.5189 0.0000 27.1995 0.0000
# 6 0.0000 0.0000 0.0000 -5.1428 0.0000 23.4725
#
#
#
# Elastic Compliance Matrix: (Units=1/GPa)
#
#
# Indices 1 2 3 4 5 6 
#
# 1 0.008275 -0.004306 -0.000532 0.000000 -0.003148 0.000000
# 2 -0.004306 0.012122 -0.000113 0.000000 0.000789 0.000000
# 3 -0.000532 -0.000113 0.032806 0.000000 0.008087 0.000000
# 4 0.000000 0.000000 0.000000 0.065037 0.000000 0.014250
# 5 -0.003148 0.000789 0.008087 0.000000 0.039917 0.000000
# 6 0.000000 0.000000 0.000000 0.014250 0.000000 0.045725
#
#
# Mechanical properties :
#
#
# Convention : Reuss Voigt Hill
#
# Bulk Modulus (GPa) = 23.09395 43.88057 33.48726
# Shear Modulus (GPa) = 21.90887 28.91198 25.41043
#
# Velocity S-wave (km/s) = 3.26314 3.74856 3.51424
# Velocity P-wave (km/s) = 5.04198 6.32948 5.72206
#
# Compressibility (1/GPa) = 0.04330137
#
# Stress axis : x y z
#
# Youngs Moduli (GPa) = 120.84638 82.49211 30.48245
#
# Poissons Ratio (x) = 0.35519 0.01623
# Poissons Ratio (y) = 0.52033 0.00344
# Poissons Ratio (z) = 0.06434 0.00930
#
# Static dielectric constant tensor:
#      x y z
#    x 1.752370 0.000000 -0.007710 
#    y 0.000000 1.756800 0.000000 
#    z -0.007710 0.000000 1.824660 
# 
# From -- ./inp_files/76413.got.cif
#   From: 2010.05.17/outbox.cif.g08.bks.cpg/sg13_39_cif.got.tgz:76413.got - 2010.06.03 16:44:36.
