data_PCOD9232247
_publ_section_title
;
Structure prediction by ZEFSAII (Michael W. Deem and Ramdas Pophale) SiO2 
 PCOD9232247
Probable space group: P 2/C
;
_chemical_formula_sum "Si O2"
_cell_formula_units_Z 26
_cell_length_a 22.931258
_cell_length_b 6.503587
_cell_length_c 25.255371
_cell_angle_alpha 90.000000
_cell_angle_beta 21.918141
_cell_angle_gamma 90.000000
_cell_volume 1405.953948
_symmetry_space_group_name_H-M "P 2/C"
_symmetry_group_IT_number 13
_symmetry_cell_setting 'monoclinic'
loop_
_space_group_symop_operation_xyz
x,y,z
-x,y,1/2-z
-x,-y,-z
x,-y,1/2+z
loop_
_atom_site_type_symbol
_atom_site_label
_atom_site_fract_x
_atom_site_fract_y
_atom_site_fract_z
Si Si1 0.196512 0.487145 0.397523
Si Si2 0.091079 0.522894 0.104110
Si Si3 0.386313 0.803991 0.091215
Si Si4 0.199139 0.287336 0.115627
Si Si5 0.000000 0.905134 0.250000
Si Si6 0.081083 0.198636 0.910101
Si Si7 0.487402 0.505714 0.423560
O O1 0.179537 0.497072 0.474645
O O2 0.160702 0.691614 0.393661
O O3 0.056779 0.338366 0.496981
O O4 0.370559 0.427999 0.232568
O O5 0.181220 0.405141 0.074967
O O6 0.059125 0.752053 0.153666
O O7 0.925683 0.401630 0.240760
O O8 0.209714 0.851858 0.257156
O O9 0.401107 0.689856 0.022485
O O10 0.440237 0.636873 0.089307
O O11 0.500000 0.000000 0.000000
O O12 0.368842 0.338660 0.994685
O O13 0.135192 0.057537 0.158581
O O14 0.000000 0.000000 0.000000
#
# Coordination Sequence:
#
# PCOD9232247 Si02
#       7
#     4   4   4   4   2   4   4
#     4  10  21  36  54  80 110 140 178 220 267 320
#     4   9  19  35  56  80 106 140 179 219 268 321
#     4  10  21  36  55  80 109 142 179 220 268 320
#     4   9  19  35  56  78 106 140 177 219 267 319
#     4   8  18  36  56  82 104 136 184 222 266 320
#     4  10  21  36  55  79 109 144 179 219 267 320
#     4  10  21  36  54  80 110 140 177 221 268 319
#
# _framework density 18.492781999999998
#
# number of rings (size 3 to 8) (size 9 to 14) (size 15 to 20)
#    0.000    2.769    0.000    1.846    0.000   10.462 
#    0.000    0.000    0.000    7.385    0.000    0.000 
#    0.000    0.000    0.000    0.000    0.000    0.000 
#
# Total GULP energy -144885.202638 kJ/mol
# GULP energy per Si atom -5572.507794 kJ/mol
# Density = 1.845069 g / cm^3
# Si number density = 18.492782 Si / 1000 Ang^3
#
#
#
# Elastic Constant Matrix: (Units=GPa)
#
#
# Indices 1 2 3 4 5 6 
#
# 1 37.2506 -8.1637 38.7433 0.0000 14.1826 0.0000
# 2 -8.1637 75.6755 39.1968 0.0000 17.1804 0.0000
# 3 38.7433 39.1968 167.2202 0.0000 25.2164 0.0000
# 4 0.0000 0.0000 0.0000 23.2217 0.0000 -1.2438
# 5 14.1826 17.1804 25.2164 0.0000 36.2553 0.0000
# 6 0.0000 0.0000 0.0000 -1.2438 0.0000 8.8137
#
#
#
# Elastic Compliance Matrix: (Units=1/GPa)
#
#
# Indices 1 2 3 4 5 6 
#
# 1 0.050897 0.016383 -0.012802 0.000000 -0.018769 0.000000
# 2 0.016383 0.021254 -0.007030 0.000000 -0.011591 0.000000
# 3 -0.012802 -0.007030 0.010430 0.000000 0.001085 0.000000
# 4 0.000000 0.000000 0.000000 0.043391 0.000000 0.006123
# 5 -0.018769 -0.011591 0.001085 0.000000 0.039663 0.000000
# 6 0.000000 0.000000 0.000000 0.006123 0.000000 0.114324
#
#
# Mechanical properties :
#
#
# Convention : Reuss Voigt Hill
#
# Bulk Modulus (GPa) = 13.21299 46.63322 29.92311
# Shear Modulus (GPa) = 16.02127 27.68282 21.85204
#
# Velocity S-wave (km/s) = 2.94658 3.87324 3.44125
# Velocity P-wave (km/s) = 4.32861 6.72863 5.65735
#
# Compressibility (1/GPa) = 0.07568310
#
# Stress axis : x y z
#
# Youngs Moduli (GPa) = 19.64763 47.04935 95.87270
#
# Poissons Ratio (x) = -0.77079 1.22736
# Poissons Ratio (y) = -0.32188 0.67397
# Poissons Ratio (z) = 0.25153 0.33075
#
# Static dielectric constant tensor:
#      x y z
#    x 1.787520 0.000000 -0.066660 
#    y 0.000000 1.639580 0.000000 
#    z -0.066660 0.000000 1.669430 
# 
# From -- ./inp_files/93951.got.cif
#   From: 2010.05.17/outbox.cif.g08.bks.cpg/sg13_47_cif.got.tgz:93951.got - 2010.06.03 16:44:36.
