data_PCOD9232358
_publ_section_title
;
Structure prediction by ZEFSAII (Michael W. Deem and Ramdas Pophale) SiO2 
 PCOD9232358
Probable space group: P 2/C
;
_chemical_formula_sum "Si O2"
_cell_formula_units_Z 18
_cell_length_a 5.331208
_cell_length_b 20.264023
_cell_length_c 9.831146
_cell_angle_alpha 90.000000
_cell_angle_beta 46.833438
_cell_angle_gamma 90.000000
_cell_volume 774.643983
_symmetry_space_group_name_H-M "P 2/C"
_symmetry_group_IT_number 13
_symmetry_cell_setting 'monoclinic'
loop_
_space_group_symop_operation_xyz
x,y,z
-x,y,1/2-z
-x,-y,-z
x,-y,1/2+z
loop_
_atom_site_type_symbol
_atom_site_label
_atom_site_fract_x
_atom_site_fract_y
_atom_site_fract_z
Si Si1 0.278734 0.309695 0.021125
Si Si2 0.668452 0.914332 0.538228
Si Si3 0.794180 0.542250 0.962025
Si Si4 0.000000 0.983537 0.750000
Si Si5 0.223587 0.236530 0.476721
O O1 0.310807 0.384410 0.954462
O O2 0.623907 0.281873 0.960627
O O3 0.000000 0.307034 0.250000
O O4 0.122673 0.264139 0.960977
O O5 0.500000 0.922086 0.750000
O O6 0.781262 0.839420 0.477396
O O7 0.976538 0.962682 0.381200
O O8 0.320836 0.936975 0.589304
O O9 0.000000 0.557086 0.750000
O O10 0.500000 0.500000 0.000000
O O11 0.000000 0.500000 0.000000
O O12 0.500000 0.239058 0.250000
#
# Coordination Sequence:
#
# PCOD9232358 Si02
#       5
#     4   4   4   2   4
#     4   9  18  34  56  89 113 156 205 252 290 370
#     4  10  21  36  61  84 119 158 205 255 313 369
#     4  11  22  38  64  93 127 164 209 258 313 374
#     4  10  22  38  56  90 118 154 206 256 316 370
#     4   9  18  31  58  83 115 152 205 249 303 356
#
# _framework density 23.23648
#
# number of rings (size 3 to 8) (size 9 to 14) (size 15 to 20)
#    0.000    2.222    0.000    2.667    7.778    3.556 
#    0.000    0.000   14.667    0.000    0.000    0.000 
#    0.000    0.000    0.000    0.000    0.000    0.000 
#
# Total GULP energy -100294.718368 kJ/mol
# GULP energy per Si atom -5571.928798 kJ/mol
# Density = 2.318359 g / cm^3
# Si number density = 23.236480 Si / 1000 Ang^3
#
#
#
# Elastic Constant Matrix: (Units=GPa)
#
#
# Indices 1 2 3 4 5 6 
#
# 1 156.4451 99.2789 17.8900 0.0000 10.8303 0.0000
# 2 99.2789 218.3598 25.7445 0.0000 6.3517 0.0000
# 3 17.8900 25.7445 87.4349 0.0000 11.8298 0.0000
# 4 0.0000 0.0000 0.0000 11.7114 0.0000 6.9179
# 5 10.8303 6.3517 11.8298 0.0000 31.7217 0.0000
# 6 0.0000 0.0000 0.0000 6.9179 0.0000 32.5949
#
#
#
# Elastic Compliance Matrix: (Units=1/GPa)
#
#
# Indices 1 2 3 4 5 6 
#
# 1 0.009161 -0.004056 -0.000386 0.000000 -0.002171 0.000000
# 2 -0.004056 0.006547 -0.001167 0.000000 0.000509 0.000000
# 3 -0.000386 -0.001167 0.012438 0.000000 -0.004273 0.000000
# 4 0.000000 0.000000 0.000000 0.097626 0.000000 -0.020720
# 5 -0.002171 0.000509 -0.004273 0.000000 0.033757 0.000000
# 6 0.000000 0.000000 0.000000 -0.020720 0.000000 0.035077
#
#
# Mechanical properties :
#
#
# Convention : Reuss Voigt Hill
#
# Bulk Modulus (GPa) = 59.07780 83.11852 71.09816
# Shear Modulus (GPa) = 23.64453 36.49403 30.06928
#
# Velocity S-wave (km/s) = 3.19338 3.96731 3.60120
# Velocity P-wave (km/s) = 6.25114 7.53886 6.92500
#
# Compressibility (1/GPa) = 0.01692683
#
# Stress axis : x y z
#
# Youngs Moduli (GPa) = 109.16383 152.75315 80.40083
#
# Poissons Ratio (x) = 0.61960 0.03105
# Poissons Ratio (y) = 0.44279 0.09379
# Poissons Ratio (z) = 0.04216 0.17819
#
# Static dielectric constant tensor:
#      x y z
#    x 2.019430 0.000000 0.008810 
#    y 0.000000 2.123510 0.000000 
#    z 0.008810 0.000000 1.940830 
# 
# From -- ./inp_files/9652.got.cif
#   From: 2010.05.17/outbox.cif.g08.bks.cpg/sg13_5_cif.got.tgz:9652.got - 2010.06.03 16:44:36.
