data_PCOD9232026
_publ_section_title
;
Structure prediction by ZEFSAII (Michael W. Deem and Ramdas Pophale) SiO2 
 PCOD9232026
Probable space group: P 2/C
;
_chemical_formula_sum "Si O2"
_cell_formula_units_Z 26
_cell_length_a 7.904907
_cell_length_b 12.624930
_cell_length_c 11.463264
_cell_angle_alpha 90.000000
_cell_angle_beta 92.249128
_cell_angle_gamma 90.000000
_cell_volume 1143.139794
_symmetry_space_group_name_H-M "P 2/C"
_symmetry_group_IT_number 13
_symmetry_cell_setting 'monoclinic'
loop_
_space_group_symop_operation_xyz
x,y,z
-x,y,1/2-z
-x,-y,-z
x,-y,1/2+z
loop_
_atom_site_type_symbol
_atom_site_label
_atom_site_fract_x
_atom_site_fract_y
_atom_site_fract_z
Si Si1 0.500000 0.644478 0.250000
Si Si2 0.325811 0.524350 0.059650
Si Si3 0.656870 0.169531 0.604892
Si Si4 0.500000 0.003105 0.750000
Si Si5 0.000000 0.183835 0.750000
Si Si6 0.807062 0.145501 0.201812
Si Si7 0.853197 0.739422 0.487832
Si Si8 0.780513 0.711076 0.898092
O O1 0.364529 0.568504 0.188575
O O2 0.409799 0.721821 0.338420
O O3 0.235129 0.625632 0.000297
O O4 0.242886 0.410473 0.069547
O O5 0.500000 0.500000 0.000000
O O6 0.840685 0.138328 0.667922
O O7 0.673181 0.205142 0.472037
O O8 0.476859 0.081231 0.860241
O O9 0.330580 0.934266 0.749858
O O10 0.893295 0.239602 0.852409
O O11 0.766456 0.258010 0.263348
O O12 0.000000 0.115449 0.250000
O O13 0.775116 0.164765 0.062740
O O14 0.031145 0.733938 0.556432
#
# Coordination Sequence:
#
# PCOD9232026 Si02
#       8
#     2   4   4   2   2   4   4   4
#     4  11  22  39  56 100 140 167 228 269 332 400
#     4  12  24  37  65  97 137 183 220 274 334 417
#     4  10  22  43  63 100 125 180 228 281 339 401
#     4  11  26  43  76  96 136 181 228 289 360 404
#     4  10  20  44  72  90 140 170 224 300 324 406
#     4  10  25  48  67 103 140 177 228 288 344 411
#     4  10  23  45  68  97 135 182 228 275 341 405
#     4  10  23  43  66  94 142 174 225 280 333 408
#
# _framework density 22.744373
#
# number of rings (size 3 to 8) (size 9 to 14) (size 15 to 20)
#    0.000    1.538    3.077    0.462    5.385    0.615 
#    6.923    2.308    0.000    0.000    0.000    0.000 
#    0.000    0.000    0.000    0.000    0.000    0.000 
#
# Total GULP energy -144876.349731 kJ/mol
# GULP energy per Si atom -5572.167297 kJ/mol
# Density = 2.269261 g / cm^3
# Si number density = 22.744373 Si / 1000 Ang^3
#
#
#
# Elastic Constant Matrix: (Units=GPa)
#
#
# Indices 1 2 3 4 5 6 
#
# 1 77.7330 43.0600 25.1739 0.0000 -25.9637 0.0000
# 2 43.0600 85.2877 39.0364 0.0000 -11.6108 0.0000
# 3 25.1739 39.0364 107.7030 0.0000 -15.2478 0.0000
# 4 0.0000 0.0000 0.0000 -15.2303 0.0000 48.9644
# 5 -25.9637 -11.6108 -15.2478 0.0000 26.4858 0.0000
# 6 0.0000 0.0000 0.0000 48.9644 0.0000 -64.8246
#
#
#
# Elastic Compliance Matrix: (Units=1/GPa)
#
#
# Indices 1 2 3 4 5 6 
#
# 1 0.025194 -0.010254 0.000749 0.000000 0.020633 0.000000
# 2 -0.010254 0.018537 -0.005002 0.000000 -0.004805 0.000000
# 3 0.000749 -0.005002 0.011667 0.000000 0.005258 0.000000
# 4 0.000000 0.000000 0.000000 0.045968 0.000000 0.034721
# 5 0.020633 -0.004805 0.005258 0.000000 0.058903 0.000000
# 6 0.000000 0.000000 0.000000 0.034721 0.000000 0.010800
#
#
# Mechanical properties :
#
#
# Convention : Reuss Voigt Hill
#
# Bulk Modulus (GPa) = 37.90174 53.91826 45.91000
# Shear Modulus (GPa) = 23.93736 0.18307 12.06021
#
# Velocity S-wave (km/s) = 3.24767 0.28402 2.30521
# Velocity P-wave (km/s) = 5.54649 4.88520 5.22632
#
# Compressibility (1/GPa) = 0.02638402
#
# Stress axis : x y z
#
# Youngs Moduli (GPa) = 39.69237 53.94525 85.71004
#
# Poissons Ratio (x) = 0.55313 -0.06418
# Poissons Ratio (y) = 0.40699 0.42876
# Poissons Ratio (z) = -0.02972 0.26986
#
# Static dielectric constant tensor:
#      x y z
#    x 1.894960 0.000000 0.068720 
#    y 0.000000 1.866010 0.000000 
#    z 0.068720 0.000000 1.140080 
# 
# From -- ./inp_files/29523.got.cif
#   From: 2010.05.17/outbox.cif.g08.bks.cpg/sg13_15_cif.got.tgz:29523.got - 2010.06.03 16:44:36.
