data_PCOD9232431
_publ_section_title
;
Structure prediction by ZEFSAII (Michael W. Deem and Ramdas Pophale) SiO2 
 PCOD9232431
Probable space group: P 2/C
;
_chemical_formula_sum "Si O2"
_cell_formula_units_Z 32
_cell_length_a 11.382066
_cell_length_b 17.552091
_cell_length_c 21.897163
_cell_angle_alpha 90.000000
_cell_angle_beta 157.311245
_cell_angle_gamma 90.000000
_cell_volume 1687.390395
_symmetry_space_group_name_H-M "P 2/C"
_symmetry_group_IT_number 13
_symmetry_cell_setting 'monoclinic'
loop_
_space_group_symop_operation_xyz
x,y,z
-x,y,1/2-z
-x,-y,-z
x,-y,1/2+z
loop_
_atom_site_type_symbol
_atom_site_label
_atom_site_fract_x
_atom_site_fract_y
_atom_site_fract_z
Si Si1 0.559550 0.961363 0.595170
Si Si2 0.150798 0.827716 0.600783
Si Si3 0.860775 0.583244 0.429531
Si Si4 0.713314 0.767913 0.571671
Si Si5 0.810948 0.809766 0.101407
Si Si6 0.848720 0.266036 0.848359
Si Si7 0.844325 0.300201 0.019336
Si Si8 0.169972 0.914418 0.951129
O O1 0.376341 0.882060 0.513319
O O2 0.906303 0.944681 0.779187
O O3 0.500000 0.000000 0.500000
O O4 0.424519 0.021776 0.577848
O O5 0.500000 0.841552 0.750000
O O6 0.985590 0.894292 0.559125
O O7 0.963238 0.795581 0.453035
O O8 0.113093 0.758799 0.631874
O O9 0.500000 0.574364 0.250000
O O10 0.948817 0.649834 0.421978
O O11 0.924391 0.622667 0.524825
O O12 0.000000 0.500000 0.500000
O O13 0.432982 0.756302 0.481702
O O14 0.787327 0.697944 0.563473
O O15 0.000000 0.786961 0.750000
O O16 0.681936 0.840163 0.510572
O O17 0.000000 0.840492 0.250000
O O18 0.004376 0.763685 0.144429
O O19 0.481612 0.271844 0.665436
#
# Coordination Sequence:
#
# PCOD9232431 Si02
#       8
#     4   4   4   4   4   4   4   4
#     4  12  22  37  55  82 112 152 198 245 295 352
#     4  10  21  37  57  81 111 147 192 245 294 336
#     4   9  19  38  61  87 117 152 189 232 279 342
#     4  11  20  37  57  86 118 147 186 246 296 331
#     4  12  22  35  61  89 112 151 200 238 293 356
#     4  10  21  39  60  89 117 152 193 238 287 350
#     4   9  20  37  60  86 120 148 188 240 284 343
#     4  11  23  38  54  79 113 148 195 249 295 342
#
# _framework density 18.964193000000002
#
# number of rings (size 3 to 8) (size 9 to 14) (size 15 to 20)
#    0.000    1.500    3.750    3.000    1.750    2.000 
#    0.000    3.750    0.000    3.000    0.000    0.000 
#    0.000    0.000    0.000    0.000    0.000    0.000 
#
# Total GULP energy -178422.079939 kJ/mol
# GULP energy per Si atom -5575.689998 kJ/mol
# Density = 1.892103 g / cm^3
# Si number density = 18.964193 Si / 1000 Ang^3
#
#
#
# Elastic Constant Matrix: (Units=GPa)
#
#
# Indices 1 2 3 4 5 6 
#
# 1 122.7597 48.5738 18.5876 0.0000 20.1834 0.0000
# 2 48.5738 90.1296 11.8288 0.0000 8.2788 0.0000
# 3 18.5876 11.8288 31.4822 0.0000 9.7967 0.0000
# 4 0.0000 0.0000 0.0000 25.9281 0.0000 7.6878
# 5 20.1834 8.2788 9.7967 0.0000 30.5354 0.0000
# 6 0.0000 0.0000 0.0000 7.6878 0.0000 23.3752
#
#
#
# Elastic Compliance Matrix: (Units=1/GPa)
#
#
# Indices 1 2 3 4 5 6 
#
# 1 0.011606 -0.005355 -0.003227 0.000000 -0.005184 0.000000
# 2 -0.005355 0.014247 -0.002323 0.000000 0.000422 0.000000
# 3 -0.003227 -0.002323 0.037418 0.000000 -0.009242 0.000000
# 4 0.000000 0.000000 0.000000 0.042736 0.000000 -0.014055
# 5 -0.005184 0.000422 -0.009242 0.000000 0.039026 0.000000
# 6 0.000000 0.000000 0.000000 -0.014055 0.000000 0.047403
#
#
# Mechanical properties :
#
#
# Convention : Reuss Voigt Hill
#
# Bulk Modulus (GPa) = 24.11889 44.70578 34.41234
# Shear Modulus (GPa) = 21.92347 26.99315 24.45831
#
# Velocity S-wave (km/s) = 3.40376 3.77686 3.59515
# Velocity P-wave (km/s) = 5.30972 6.53027 5.95137
#
# Compressibility (1/GPa) = 0.04146128
#
# Stress axis : x y z
#
# Youngs Moduli (GPa) = 86.16337 70.18913 26.72518
#
# Poissons Ratio (x) = 0.37587 0.08624
# Poissons Ratio (y) = 0.46141 0.06208
# Poissons Ratio (z) = 0.27805 0.16303
#
# Static dielectric constant tensor:
#      x y z
#    x 1.724890 0.000000 -0.000340 
#    y 0.000000 1.659550 0.000000 
#    z -0.000340 0.000000 1.707900 
# 
# From -- ./inp_files/86676.got.cif
#   From: 2010.05.17/outbox.cif.g08.bks.cpg/sg13_44_cif.got.tgz:86676.got - 2010.06.03 16:44:36.
