data_PCOD9232144
_publ_section_title
;
Structure prediction by ZEFSAII (Michael W. Deem and Ramdas Pophale) SiO2 
 PCOD9232144
Probable space group: P 2/C
;
_chemical_formula_sum "Si O2"
_cell_formula_units_Z 30
_cell_length_a 21.146176
_cell_length_b 8.880254
_cell_length_c 9.198145
_cell_angle_alpha 90.000000
_cell_angle_beta 122.279652
_cell_angle_gamma 90.000000
_cell_volume 1460.313858
_symmetry_space_group_name_H-M "P 2/C"
_symmetry_group_IT_number 13
_symmetry_cell_setting 'monoclinic'
loop_
_space_group_symop_operation_xyz
x,y,z
-x,y,1/2-z
-x,-y,-z
x,-y,1/2+z
loop_
_atom_site_type_symbol
_atom_site_label
_atom_site_fract_x
_atom_site_fract_y
_atom_site_fract_z
Si Si1 0.500000 0.906868 0.750000
Si Si2 0.599442 0.073675 0.622580
Si Si3 0.154309 0.117022 0.823027
Si Si4 0.935947 0.812286 0.787870
Si Si5 0.299902 0.907298 0.984784
Si Si6 0.823253 0.611389 0.334571
Si Si7 0.783787 0.628670 0.577440
Si Si8 0.929491 0.342781 0.567666
O O1 0.442932 0.831355 0.559838
O O2 0.544606 0.003967 0.681333
O O3 0.642403 0.956258 0.569340
O O4 0.662374 0.129399 0.812935
O O5 0.152238 0.222137 0.678200
O O6 0.127292 0.229653 0.918183
O O7 0.096551 0.979886 0.743959
O O8 0.235983 0.036020 0.931341
O O9 0.866499 0.702329 0.666868
O O10 0.000000 0.802029 0.750000
O O11 0.962260 0.753421 0.975602
O O12 0.261018 0.752345 0.889083
O O13 0.762083 0.613515 0.384675
O O14 0.787260 0.533266 0.150969
O O15 0.886565 0.490364 0.458304
O O16 0.000000 0.389155 0.750000
#
# Coordination Sequence:
#
# PCOD9232144 Si02
#       8
#     2   4   4   4   4   4   4   4
#     4   8  16  32  54  88 140 164 180 228 278 336
#     4   9  17  32  56  91 130 166 188 224 285 345
#     4  11  24  39  61  83 117 147 197 255 303 356
#     4  10  25  42  61  81 106 145 195 255 316 369
#     4  10  21  34  60  91 122 158 196 240 293 349
#     4  11  23  43  57  79 110 158 189 257 303 358
#     4  10  23  39  60  80 117 151 197 252 303 358
#     4  11  26  43  60  80 108 154 206 253 315 371
#
# _framework density 20.543530000000001
#
# number of rings (size 3 to 8) (size 9 to 14) (size 15 to 20)
#    0.000    1.867    1.333    1.200   11.200    2.133 
#    0.000    1.333    0.000    0.000    0.000    0.000 
#    0.000  247.467    0.000    0.000    0.000    0.000 
#
# Total GULP energy -167069.722215 kJ/mol
# GULP energy per Si atom -5568.990741 kJ/mol
# Density = 2.049677 g / cm^3
# Si number density = 20.543530 Si / 1000 Ang^3
#
#
#
# Elastic Constant Matrix: (Units=GPa)
#
#
# Indices 1 2 3 4 5 6 
#
# 1 91.9755 20.0589 30.4877 0.0000 -17.5134 0.0000
# 2 20.0589 64.9542 9.9137 0.0000 -0.8753 0.0000
# 3 30.4877 9.9137 92.7289 0.0000 -13.5953 0.0000
# 4 0.0000 0.0000 0.0000 8.3268 0.0000 -15.1286
# 5 -17.5134 -0.8753 -13.5953 0.0000 33.1237 0.0000
# 6 0.0000 0.0000 0.0000 -15.1286 0.0000 6.6809
#
#
#
# Elastic Compliance Matrix: (Units=1/GPa)
#
#
# Indices 1 2 3 4 5 6 
#
# 1 0.013900 -0.003708 -0.003310 0.000000 0.005893 0.000000
# 2 -0.003708 0.016643 -0.000833 0.000000 -0.001863 0.000000
# 3 -0.003310 -0.000833 0.012451 0.000000 0.003338 0.000000
# 4 0.000000 0.000000 0.000000 -0.038563 0.000000 -0.087325
# 5 0.005893 -0.001863 0.003338 0.000000 0.034627 0.000000
# 6 0.000000 0.000000 0.000000 -0.087325 0.000000 -0.048064
#
#
# Mechanical properties :
#
#
# Convention : Reuss Voigt Hill
#
# Bulk Modulus (GPa) = 36.64118 41.17545 38.90831
# Shear Modulus (GPa) = 316.58846 22.23949 169.41398
#
# Velocity S-wave (km/s) = 12.42742 3.29379 9.09092
# Velocity P-wave (km/s) = 14.95980 5.87809 11.36546
#
# Compressibility (1/GPa) = 0.02729170
#
# Stress axis : x y z
#
# Youngs Moduli (GPa) = 71.94043 60.08659 80.31582
#
# Poissons Ratio (x) = 0.22281 0.26583
# Poissons Ratio (y) = 0.26676 0.06692
# Poissons Ratio (z) = 0.23811 0.05007
#
# Static dielectric constant tensor:
#      x y z
#    x 1.804960 0.000000 0.030470 
#    y 0.000000 1.707970 0.000000 
#    z 0.030470 0.000000 1.916440 
# 
# From -- ./inp_files/23960.got.cif
#   From: 2010.05.17/outbox.cif.g08.bks.cpg/sg13_12_cif.got.tgz:23960.got - 2010.06.03 16:44:36.
