data_PCOD9232167
_publ_section_title
;
Structure prediction by ZEFSAII (Michael W. Deem and Ramdas Pophale) SiO2 
 PCOD9232167
Probable space group: P 2/C
;
_chemical_formula_sum "Si O2"
_cell_formula_units_Z 24
_cell_length_a 12.470891
_cell_length_b 12.684342
_cell_length_c 8.591414
_cell_angle_alpha 90.000000
_cell_angle_beta 106.621153
_cell_angle_gamma 90.000000
_cell_volume 1302.248787
_symmetry_space_group_name_H-M "P 2/C"
_symmetry_group_IT_number 13
_symmetry_cell_setting 'monoclinic'
loop_
_space_group_symop_operation_xyz
x,y,z
-x,y,1/2-z
-x,-y,-z
x,-y,1/2+z
loop_
_atom_site_type_symbol
_atom_site_label
_atom_site_fract_x
_atom_site_fract_y
_atom_site_fract_z
Si Si1 0.109608 0.572393 0.016617
Si Si2 0.627972 0.346576 0.343804
Si Si3 0.274903 0.469243 0.841018
Si Si4 0.203467 0.846858 0.557228
Si Si5 0.874586 0.953286 0.277176
Si Si6 0.972233 0.202170 0.065360
O O1 0.188923 0.594022 0.196963
O O2 0.190563 0.516869 0.930466
O O3 0.000000 0.500000 0.000000
O O4 0.078884 0.684293 0.936745
O O5 0.500000 0.324290 0.250000
O O6 0.641635 0.397828 0.522374
O O7 0.670812 0.436525 0.238882
O O8 0.700776 0.238773 0.369442
O O9 0.203513 0.900986 0.387136
O O10 0.086808 0.783412 0.517881
O O11 0.181712 0.941021 0.674217
O O12 0.000000 0.959869 0.250000
O O13 0.897209 0.878538 0.436203
O O14 0.000000 0.165631 0.250000
#
# Coordination Sequence:
#
# PCOD9232167 Si02
#       6
#     4   4   4   4   4   4
#     4  11  20  32  53  87 122 151 181 225 286 357
#     4  11  23  41  61  81 107 149 200 246 286 332
#     4  10  22  37  56  82 115 150 184 230 288 349
#     4  11  21  36  56  80 110 148 188 232 281 334
#     4  10  21  35  55  82 115 148 183 225 284 359
#     4  11  19  31  52  82 116 150 181 220 278 353
#
# _framework density 18.429656000000001
#
# number of rings (size 3 to 8) (size 9 to 14) (size 15 to 20)
#    0.000    1.333    0.000    9.500    0.000    2.667 
#    0.000    0.833    0.000    0.000    0.000    0.000 
#    0.000    0.000    0.000    0.000    0.000    0.000 
#
# Total GULP energy -133779.045963 kJ/mol
# GULP energy per Si atom -5574.126915 kJ/mol
# Density = 1.838771 g / cm^3
# Si number density = 18.429656 Si / 1000 Ang^3
#
#
#
# Elastic Constant Matrix: (Units=GPa)
#
#
# Indices 1 2 3 4 5 6 
#
# 1 69.0697 33.0934 34.0151 0.0000 25.5378 0.0000
# 2 33.0934 88.5054 43.7246 0.0000 14.8669 0.0000
# 3 34.0151 43.7246 131.2575 0.0000 8.2276 0.0000
# 4 0.0000 0.0000 0.0000 12.9099 0.0000 -2.0074
# 5 25.5378 14.8669 8.2276 0.0000 27.3319 0.0000
# 6 0.0000 0.0000 0.0000 -2.0074 0.0000 20.6423
#
#
#
# Elastic Compliance Matrix: (Units=1/GPa)
#
#
# Indices 1 2 3 4 5 6 
#
# 1 0.026315 -0.004297 -0.004070 0.000000 -0.021025 0.000000
# 2 -0.004297 0.015310 -0.003787 0.000000 -0.003172 0.000000
# 3 -0.004070 -0.003787 0.009752 0.000000 0.002928 0.000000
# 4 0.000000 0.000000 0.000000 0.078649 0.000000 0.007648
# 5 -0.021025 -0.003172 0.002928 0.000000 0.057077 0.000000
# 6 0.000000 0.000000 0.000000 0.007648 0.000000 0.049188
#
#
# Mechanical properties :
#
#
# Convention : Reuss Voigt Hill
#
# Bulk Modulus (GPa) = 36.94541 56.72209 46.83375
# Shear Modulus (GPa) = 18.54443 24.04344 21.29393
#
# Velocity S-wave (km/s) = 3.17555 3.61585 3.40283
# Velocity P-wave (km/s) = 5.79100 6.94816 6.39581
#
# Compressibility (1/GPa) = 0.02706696
#
# Stress axis : x y z
#
# Youngs Moduli (GPa) = 38.00057 65.31887 102.54768
#
# Poissons Ratio (x) = 0.28068 0.41739
# Poissons Ratio (y) = 0.16329 0.38840
# Poissons Ratio (z) = 0.15467 0.24739
#
# Static dielectric constant tensor:
#      x y z
#    x 1.634280 0.000000 0.113980 
#    y 0.000000 1.662330 0.000000 
#    z 0.113980 0.000000 0.256300 
# 
# From -- ./inp_files/18614.got.cif
#   From: 2010.05.17/outbox.cif.g08.bks.cpg/sg13_10_cif.got.tgz:18614.got - 2010.06.03 16:44:36.
