data_PCOD9232706
_publ_section_title
;
Structure prediction by ZEFSAII (Michael W. Deem and Ramdas Pophale) SiO2 
 PCOD9232706
Probable space group: P 2/C
;
_chemical_formula_sum "Si O2"
_cell_formula_units_Z 16
_cell_length_a 9.500738
_cell_length_b 7.292785
_cell_length_c 22.697887
_cell_angle_alpha 90.000000
_cell_angle_beta 26.042634
_cell_angle_gamma 90.000000
_cell_volume 690.462497
_symmetry_space_group_name_H-M "P 2/C"
_symmetry_group_IT_number 13
_symmetry_cell_setting 'monoclinic'
loop_
_space_group_symop_operation_xyz
x,y,z
-x,y,1/2-z
-x,-y,-z
x,-y,1/2+z
loop_
_atom_site_type_symbol
_atom_site_label
_atom_site_fract_x
_atom_site_fract_y
_atom_site_fract_z
Si Si1 0.500000 0.500000 0.500000
Si Si2 0.199760 0.151648 0.051060
Si Si3 0.806130 0.672573 0.596219
Si Si4 0.590508 0.179678 0.361836
Si Si5 0.000000 0.499841 0.750000
O O1 0.599041 0.330855 0.508691
O O2 0.104121 0.418780 0.650169
O O3 0.018197 0.195995 0.058023
O O4 0.923826 0.128097 0.204596
O O5 0.434075 0.979891 0.957732
O O6 0.500000 0.612102 0.750000
O O7 0.657864 0.771617 0.595433
O O8 0.000000 0.500000 0.500000
O O9 0.681282 0.365206 0.365637
#
# Coordination Sequence:
#
# PCOD9232706 Si02
#       5
#     2   4   4   4   2
#     4  10  22  38  58  84 116 154 194 244 302 364
#     4  10  22  39  60  87 120 157 203 254 306 366
#     4  10  21  38  59  86 119 156 203 253 304 365
#     4  10  22  38  58  86 118 155 201 252 304 363
#     4  10  22  38  56  86 118 152 200 244 300 368
#
# _framework density 23.172874
#
# number of rings (size 3 to 8) (size 9 to 14) (size 15 to 20)
#    0.000    2.000    0.000    2.250    0.000    9.000 
#    0.000    0.000    0.000    0.000    0.000    0.000 
#    0.000    0.000    0.000    0.000    0.000    0.000 
#
# Total GULP energy -89120.538754 kJ/mol
# GULP energy per Si atom -5570.033672 kJ/mol
# Density = 2.312013 g / cm^3
# Si number density = 23.172874 Si / 1000 Ang^3
#
#
#
# Elastic Constant Matrix: (Units=GPa)
#
#
# Indices 1 2 3 4 5 6 
#
# 1 125.3006 41.2288 25.8391 0.0000 -9.1491 0.0000
# 2 41.2288 125.5519 95.1803 0.0000 1.2969 0.0000
# 3 25.8391 95.1803 130.3566 0.0000 10.9234 0.0000
# 4 0.0000 0.0000 0.0000 49.1450 0.0000 -3.3770
# 5 -9.1491 1.2969 10.9234 0.0000 38.7341 0.0000
# 6 0.0000 0.0000 0.0000 -3.3770 0.0000 17.1286
#
#
#
# Elastic Compliance Matrix: (Units=1/GPa)
#
#
# Indices 1 2 3 4 5 6 
#
# 1 0.009154 -0.003397 0.000487 0.000000 0.002139 0.000000
# 2 -0.003397 0.019484 -0.013756 0.000000 0.002425 0.000000
# 3 0.000487 -0.013756 0.017996 0.000000 -0.004499 0.000000
# 4 0.000000 0.000000 0.000000 0.020627 0.000000 0.004067
# 5 0.002139 0.002425 -0.004499 0.000000 0.027510 0.000000
# 6 0.000000 0.000000 0.000000 0.004067 0.000000 0.059184
#
#
# Mechanical properties :
#
#
# Convention : Reuss Voigt Hill
#
# Bulk Modulus (GPa) = 75.18188 78.41173 76.79681
# Shear Modulus (GPa) = 26.07958 35.59893 30.83925
#
# Velocity S-wave (km/s) = 3.35839 3.92373 3.65202
# Velocity P-wave (km/s) = 6.89585 7.37826 7.14113
#
# Compressibility (1/GPa) = 0.01330108
#
# Stress axis : x y z
#
# Youngs Moduli (GPa) = 109.23689 51.32547 55.56901
#
# Poissons Ratio (x) = 0.17436 -0.02704
# Poissons Ratio (y) = 0.37109 0.76439
# Poissons Ratio (z) = -0.05316 0.70602
#
# Static dielectric constant tensor:
#      x y z
#    x 1.973400 0.000000 0.117580 
#    y 0.000000 2.031270 0.000000 
#    z 0.117580 0.000000 1.500890 
# 
# From -- ./inp_files/31171.got.cif
#   From: 2010.05.17/outbox.cif.g08.bks.cpg/sg13_16_cif.got.tgz:31171.got - 2010.06.03 16:44:36.
