data_PCOD9232098
_publ_section_title
;
Structure prediction by ZEFSAII (Michael W. Deem and Ramdas Pophale) SiO2 
 PCOD9232098
Probable space group: P 2/C
;
_chemical_formula_sum "Si O2"
_cell_formula_units_Z 32
_cell_length_a 18.666841
_cell_length_b 5.265711
_cell_length_c 21.393743
_cell_angle_alpha 90.000000
_cell_angle_beta 54.195107
_cell_angle_gamma 90.000000
_cell_volume 1705.465347
_symmetry_space_group_name_H-M "P 2/C"
_symmetry_group_IT_number 13
_symmetry_cell_setting 'monoclinic'
loop_
_space_group_symop_operation_xyz
x,y,z
-x,y,1/2-z
-x,-y,-z
x,-y,1/2+z
loop_
_atom_site_type_symbol
_atom_site_label
_atom_site_fract_x
_atom_site_fract_y
_atom_site_fract_z
Si Si1 0.078871 0.173976 0.578862
Si Si2 0.789019 0.828303 0.295765
Si Si3 0.402918 0.685224 0.086577
Si Si4 0.778592 0.860612 0.932129
Si Si5 0.104869 0.501560 0.952515
Si Si6 0.887068 0.997065 0.127580
Si Si7 0.089073 0.517773 0.192282
Si Si8 0.412034 0.186293 0.997707
O O1 0.113592 0.409106 0.519471
O O2 0.055552 0.267937 0.660785
O O3 0.991594 0.044127 0.592900
O O4 0.162591 0.992285 0.545395
O O5 0.690739 0.728791 0.332802
O O6 0.828853 0.988769 0.219593
O O7 0.862997 0.614189 0.270201
O O8 0.781415 0.970371 0.366613
O O9 0.401187 0.405388 0.056651
O O10 0.412477 0.904225 0.027876
O O11 0.492793 0.738723 0.079213
O O12 0.832200 0.615980 0.883935
O O13 0.676566 0.805176 0.998123
O O14 0.136271 0.237294 0.906998
O O15 0.132244 0.740428 0.896609
O O16 0.000000 0.500000 0.000000
O O17 0.000000 0.358470 0.250000
#
# Coordination Sequence:
#
# PCOD9232098 Si02
#       8
#     4   4   4   4   4   4   4   4
#     4  10  22  34  49  72 103 141 178 216 254 307
#     4  10  21  34  47  82 107 141 173 213 269 323
#     4   9  17  31  52  69 108 135 169 212 255 315
#     4  10  22  30  51  75 111 139 178 209 263 328
#     4  10  23  39  54  73  97 141 189 228 256 297
#     4  11  23  36  56  73 105 139 181 224 264 308
#     4  11  21  31  48  74 114 146 169 205 262 325
#     4   9  17  32  48  75 101 141 169 208 257 309
#
# _framework density 18.763209
#
# number of rings (size 3 to 8) (size 9 to 14) (size 15 to 20)
#    0.000    2.000    2.500    1.500    8.750    0.000 
#    0.000    0.000    0.000    0.000    0.000    0.875 
#    0.000    0.000    0.000    0.000    0.000    0.000 
#
# Total GULP energy -178218.602351 kJ/mol
# GULP energy per Si atom -5569.331323 kJ/mol
# Density = 1.872050 g / cm^3
# Si number density = 18.763209 Si / 1000 Ang^3
#
#
#
# Elastic Constant Matrix: (Units=GPa)
#
#
# Indices 1 2 3 4 5 6 
#
# 1 86.6173 5.5857 38.2570 0.0000 -34.0570 0.0000
# 2 5.5857 66.5923 8.1027 0.0000 0.5356 0.0000
# 3 38.2570 8.1027 52.8510 0.0000 -7.8775 0.0000
# 4 0.0000 0.0000 0.0000 11.6283 0.0000 -4.4822
# 5 -34.0570 0.5356 -7.8775 0.0000 30.6561 0.0000
# 6 0.0000 0.0000 0.0000 -4.4822 0.0000 19.0021
#
#
#
# Elastic Compliance Matrix: (Units=1/GPa)
#
#
# Indices 1 2 3 4 5 6 
#
# 1 0.031622 -0.000677 -0.018247 0.000000 0.030453 0.000000
# 2 -0.000677 0.015341 -0.002094 0.000000 -0.001558 0.000000
# 3 -0.018247 -0.002094 0.030607 0.000000 -0.012370 0.000000
# 4 0.000000 0.000000 0.000000 0.094598 0.000000 0.022313
# 5 0.030453 -0.001558 -0.012370 0.000000 0.063300 0.000000
# 6 0.000000 0.000000 0.000000 0.022313 0.000000 0.057889
#
#
# Mechanical properties :
#
#
# Convention : Reuss Voigt Hill
#
# Bulk Modulus (GPa) = 28.14288 34.43902 31.29095
# Shear Modulus (GPa) = 14.39941 22.53166 18.46554
#
# Velocity S-wave (km/s) = 2.77325 3.46908 3.14050
# Velocity P-wave (km/s) = 5.02853 5.86859 5.46473
#
# Compressibility (1/GPa) = 0.03553297
#
# Stress axis : x y z
#
# Youngs Moduli (GPa) = 31.62383 65.18533 32.67244
#
# Poissons Ratio (x) = 0.04414 0.59618
# Poissons Ratio (y) = 0.02141 0.06842
# Poissons Ratio (z) = 0.57704 0.13650
#
# Static dielectric constant tensor:
#      x y z
#    x 1.703330 0.000000 -0.003340 
#    y 0.000000 2.200620 0.000000 
#    z -0.003340 0.000000 1.630830 
# 
# From -- ./inp_files/72222.got.cif
#   From: 2010.05.17/outbox.cif.g08.bks.cpg/sg13_37_cif.got.tgz:72222.got - 2010.06.03 16:44:36.
