data_PCOD9232952
_publ_section_title
;
Structure prediction by ZEFSAII (Michael W. Deem and Ramdas Pophale) SiO2 
 PCOD9232952
Probable space group: P 2/C
;
_chemical_formula_sum "Si O2"
_cell_formula_units_Z 30
_cell_length_a 13.199251
_cell_length_b 8.482485
_cell_length_c 12.799932
_cell_angle_alpha 90.000000
_cell_angle_beta 83.160346
_cell_angle_gamma 90.000000
_cell_volume 1422.912737
_symmetry_space_group_name_H-M "P 2/C"
_symmetry_group_IT_number 13
_symmetry_cell_setting 'monoclinic'
loop_
_space_group_symop_operation_xyz
x,y,z
-x,y,1/2-z
-x,-y,-z
x,-y,1/2+z
loop_
_atom_site_type_symbol
_atom_site_label
_atom_site_fract_x
_atom_site_fract_y
_atom_site_fract_z
Si Si1 0.521922 0.774732 0.419219
Si Si2 0.094295 0.044633 0.562322
Si Si3 0.329672 0.587730 0.406352
Si Si4 0.260658 0.288816 0.530125
Si Si5 0.812348 0.459237 0.763733
Si Si6 0.000000 0.269914 0.750000
Si Si7 0.237512 0.772507 0.621446
Si Si8 0.454317 0.120083 0.150491
O O1 0.447935 0.639840 0.384250
O O2 0.642895 0.758588 0.410562
O O3 0.491523 0.789005 0.544138
O O4 0.502250 0.942903 0.367914
O O5 0.188923 0.146339 0.501296
O O6 0.049924 0.153510 0.659715
O O7 0.147022 0.888594 0.601330
O O8 0.000000 0.000000 0.500000
O O9 0.306770 0.406903 0.439323
O O10 0.273357 0.607523 0.303388
O O11 0.280418 0.689935 0.508568
O O12 0.194614 0.391560 0.618282
O O13 0.917737 0.388192 0.708552
O O14 0.797761 0.643546 0.788998
O O15 0.332329 0.869062 0.658974
O O16 0.500000 0.189528 0.250000
#
# Coordination Sequence:
#
# PCOD9232952 Si02
#       8
#     4   4   4   4   4   2   4   4
#     4  10  21  39  59  91 129 164 208 253 306 389
#     4  11  23  42  67  90 123 166 211 270 327 370
#     4  10  22  38  62  91 122 170 202 250 321 378
#     4  10  22  40  59  91 127 156 211 262 303 383
#     4  10  23  41  62  87 126 166 208 263 316 372
#     4  10  24  42  60  92 120 156 216 264 316 376
#     4  10  22  42  61  93 129 157 216 265 305 391
#     4  10  22  37  61  93 127 166 205 256 313 373
#
# _framework density 21.083514000000001
#
# number of rings (size 3 to 8) (size 9 to 14) (size 15 to 20)
#    0.000    1.867    1.333    1.200    3.733    2.667 
#    0.000    4.000    0.000    0.000    0.000    0.000 
#    0.000    0.000    0.000    0.000    0.000    0.000 
#
# Total GULP energy -167261.105929 kJ/mol
# GULP energy per Si atom -5575.370198 kJ/mol
# Density = 2.103553 g / cm^3
# Si number density = 21.083514 Si / 1000 Ang^3
#
#
#
# Elastic Constant Matrix: (Units=GPa)
#
#
# Indices 1 2 3 4 5 6 
#
# 1 139.1597 61.7739 29.8650 0.0000 22.2562 0.0000
# 2 61.7739 89.1899 30.1298 0.0000 3.5243 0.0000
# 3 29.8650 30.1298 64.3413 0.0000 21.3852 0.0000
# 4 0.0000 0.0000 0.0000 -123.1041 0.0000 76.7334
# 5 22.2562 3.5243 21.3852 0.0000 32.3700 0.0000
# 6 0.0000 0.0000 0.0000 76.7334 0.0000 -10.6004
#
#
#
# Elastic Compliance Matrix: (Units=1/GPa)
#
#
# Indices 1 2 3 4 5 6 
#
# 1 0.011917 -0.008272 0.000982 0.000000 -0.007942 0.000000
# 2 -0.008272 0.019363 -0.008223 0.000000 0.009012 0.000000
# 3 0.000982 -0.008223 0.024172 0.000000 -0.015749 0.000000
# 4 0.000000 0.000000 0.000000 0.002313 0.000000 0.016743
# 5 -0.007942 0.009012 -0.015749 0.000000 0.045776 0.000000
# 6 0.000000 0.000000 0.000000 0.016743 0.000000 0.026861
#
#
# Mechanical properties :
#
#
# Convention : Reuss Voigt Hill
#
# Bulk Modulus (GPa) = 40.94143 59.58094 50.26118
# Shear Modulus (GPa) = 29.48622 -8.87211 10.30705
#
# Velocity S-wave (km/s) = 3.74377 -2.05359 2.21343
# Velocity P-wave (km/s) = 6.17645 4.76423 5.51573
#
# Compressibility (1/GPa) = 0.02442514
#
# Stress axis : x y z
#
# Youngs Moduli (GPa) = 83.91064 51.64476 41.37086
#
# Poissons Ratio (x) = 0.42720 -0.04061
# Poissons Ratio (y) = 0.69410 0.34020
# Poissons Ratio (z) = -0.08236 0.42468
#
# Static dielectric constant tensor:
#      x y z
#    x 1.838840 0.000000 -0.047240 
#    y 0.000000 1.792790 0.000000 
#    z -0.047240 0.000000 1.758330 
# 
# From -- ./inp_files/50052.got.cif
#   From: 2010.05.17/outbox.cif.g08.bks.cpg/sg13_26_cif.got.tgz:50052.got - 2010.06.03 16:44:36.
