data_PCOD9232055
_publ_section_title
;
Structure prediction by ZEFSAII (Michael W. Deem and Ramdas Pophale) SiO2 
 PCOD9232055
Probable space group: P 2/C
;
_chemical_formula_sum "Si O2"
_cell_formula_units_Z 28
_cell_length_a 6.168086
_cell_length_b 11.997926
_cell_length_c 20.869829
_cell_angle_alpha 90.000000
_cell_angle_beta 86.490970
_cell_angle_gamma 90.000000
_cell_volume 1541.560221
_symmetry_space_group_name_H-M "P 2/C"
_symmetry_group_IT_number 13
_symmetry_cell_setting 'monoclinic'
loop_
_space_group_symop_operation_xyz
x,y,z
-x,y,1/2-z
-x,-y,-z
x,-y,1/2+z
loop_
_atom_site_type_symbol
_atom_site_label
_atom_site_fract_x
_atom_site_fract_y
_atom_site_fract_z
Si Si1 0.800286 0.248155 0.112005
Si Si2 0.019111 0.819683 0.016357
Si Si3 0.473711 0.445454 0.103177
Si Si4 0.198420 0.413614 0.979232
Si Si5 0.172015 0.672798 0.689984
Si Si6 0.297933 0.013360 0.053125
Si Si7 0.529140 0.109250 0.316992
O O1 0.639140 0.350118 0.121360
O O2 0.707952 0.147924 0.155108
O O3 0.032273 0.286398 0.131826
O O4 0.800835 0.217157 0.038223
O O5 0.903608 0.705162 0.038482
O O6 0.146497 0.903057 0.060578
O O7 0.849675 0.892923 0.978322
O O8 0.632939 0.544517 0.078306
O O9 0.300752 0.437693 0.164546
O O10 0.342689 0.410610 0.041390
O O11 0.000000 0.500000 0.000000
O O12 0.328838 0.778612 0.700690
O O13 0.000000 0.655057 0.750000
O O14 0.369890 0.049627 0.122848
O O15 0.500000 0.000000 0.000000
O O16 0.500000 0.047373 0.250000
#
# Coordination Sequence:
#
# PCOD9232055 Si02
#       7
#     4   4   4   4   4   4   4
#     4  11  18  34  53  83 120 149 185 244 293 364
#     4  11  21  35  56  80 123 160 192 236 307 351
#     4  10  21  30  53  84 117 151 187 238 299 361
#     4  11  20  35  55  82 120 156 192 241 293 357
#     4  11  20  33  53  81 120 156 184 243 311 366
#     4  11  23  35  54  83 125 156 192 249 300 353
#     4  11  21  33  53  81 116 160 196 237 299 370
#
# _framework density 18.163416000000002
#
# number of rings (size 3 to 8) (size 9 to 14) (size 15 to 20)
#    0.000    1.143    7.143    0.857    0.000    0.000 
#    0.000    0.000    0.000    0.000    0.000    0.000 
#   42.857    0.000    0.000    0.000    0.000    0.000 
#
# Total GULP energy -155909.933790 kJ/mol
# GULP energy per Si atom -5568.211921 kJ/mol
# Density = 1.812208 g / cm^3
# Si number density = 18.163416 Si / 1000 Ang^3
#
#
#
# Elastic Constant Matrix: (Units=GPa)
#
#
# Indices 1 2 3 4 5 6 
#
# 1 81.4001 43.4919 31.8330 0.0000 -5.9286 0.0000
# 2 43.4919 95.1139 39.2622 0.0000 -8.6997 0.0000
# 3 31.8330 39.2622 101.4819 0.0000 -11.8318 0.0000
# 4 0.0000 0.0000 0.0000 20.9459 0.0000 0.0664
# 5 -5.9286 -8.6997 -11.8318 0.0000 42.3441 0.0000
# 6 0.0000 0.0000 0.0000 0.0664 0.0000 13.9946
#
#
#
# Elastic Compliance Matrix: (Units=1/GPa)
#
#
# Indices 1 2 3 4 5 6 
#
# 1 0.016879 -0.006571 -0.002723 0.000000 0.000252 0.000000
# 2 -0.006571 0.015135 -0.003658 0.000000 0.001167 0.000000
# 3 -0.002723 -0.003658 0.012395 0.000000 0.002331 0.000000
# 4 0.000000 0.000000 0.000000 0.047743 0.000000 -0.000226
# 5 0.000252 0.001167 0.002331 0.000000 0.024542 0.000000
# 6 0.000000 0.000000 0.000000 -0.000226 0.000000 0.071457
#
#
# Mechanical properties :
#
#
# Convention : Reuss Voigt Hill
#
# Bulk Modulus (GPa) = 54.03980 56.35221 55.19601
# Shear Modulus (GPa) = 22.70402 26.35084 24.52743
#
# Velocity S-wave (km/s) = 3.53935 3.81302 3.67873
# Velocity P-wave (km/s) = 6.82050 7.10479 6.96410
#
# Compressibility (1/GPa) = 0.01850488
#
# Stress axis : x y z
#
# Youngs Moduli (GPa) = 59.24463 66.07067 80.67626
#
# Poissons Ratio (x) = 0.43416 0.21968
# Poissons Ratio (y) = 0.38930 0.29514
# Poissons Ratio (z) = 0.16132 0.24171
#
# Static dielectric constant tensor:
#      x y z
#    x 1.695190 0.000000 -0.041160 
#    y 0.000000 1.681730 0.000000 
#    z -0.041160 0.000000 1.681910 
# 
# From -- ./inp_files/73400.got.cif
#   From: 2010.05.17/outbox.cif.g08.bks.cpg/sg13_37_cif.got.tgz:73400.got - 2010.06.03 16:44:36.
