data_PCOD9232831
_publ_section_title
;
Structure prediction by ZEFSAII (Michael W. Deem and Ramdas Pophale) SiO2 
 PCOD9232831
Probable space group: P 2/C
;
_chemical_formula_sum "Si O2"
_cell_formula_units_Z 24
_cell_length_a 11.938227
_cell_length_b 12.876411
_cell_length_c 23.201116
_cell_angle_alpha 90.000000
_cell_angle_beta 159.761647
_cell_angle_gamma 90.000000
_cell_volume 1233.749998
_symmetry_space_group_name_H-M "P 2/C"
_symmetry_group_IT_number 13
_symmetry_cell_setting 'monoclinic'
loop_
_space_group_symop_operation_xyz
x,y,z
-x,y,1/2-z
-x,-y,-z
x,-y,1/2+z
loop_
_atom_site_type_symbol
_atom_site_label
_atom_site_fract_x
_atom_site_fract_y
_atom_site_fract_z
Si Si1 0.388099 0.619543 0.942683
Si Si2 0.461628 0.704240 0.360375
Si Si3 0.723674 0.456153 0.908155
Si Si4 0.296414 0.342260 0.026627
Si Si5 0.593197 0.130541 0.361234
Si Si6 0.651808 0.912238 0.259081
O O1 0.563932 0.656569 0.969920
O O2 0.000000 0.624238 0.750000
O O3 0.500000 0.500000 0.000000
O O4 0.496530 0.682621 0.051769
O O5 0.736094 0.635459 0.460620
O O6 0.479698 0.821825 0.346106
O O7 0.098221 0.664333 0.167153
O O8 0.500000 0.410285 0.750000
O O9 0.611570 0.555816 0.891651
O O10 0.000000 0.500000 0.000000
O O11 0.446197 0.240426 0.127730
O O12 0.500000 0.143378 0.250000
O O13 0.969631 0.104216 0.549419
O O14 0.408303 0.028084 0.293394
O O15 0.500000 0.904658 0.250000
#
# Coordination Sequence:
#
# PCOD9232831 Si02
#       6
#     4   4   4   4   4   4
#     4  12  26  42  63  88 121 166 210 254 303 366
#     4  11  24  42  63  88 125 164 205 253 308 362
#     4  12  24  38  59  92 126 160 199 249 310 368
#     4  11  24  42  63  89 125 164 206 253 305 365
#     4  10  21  39  62  93 125 162 202 251 307 364
#     4  10  21  38  63  91 126 162 201 252 306 365
#
# _framework density 19.452887
#
# number of rings (size 3 to 8) (size 9 to 14) (size 15 to 20)
#    0.000    1.000    3.333    4.500    4.667    2.667 
#    0.000    0.833    0.000    0.000    0.000    0.000 
#    0.000    0.000    0.000    0.000    0.000    0.000 
#
# Total GULP energy -133946.560276 kJ/mol
# GULP energy per Si atom -5581.106678 kJ/mol
# Density = 1.940861 g / cm^3
# Si number density = 19.452887 Si / 1000 Ang^3
#
#
#
# Elastic Constant Matrix: (Units=GPa)
#
#
# Indices 1 2 3 4 5 6 
#
# 1 125.5183 53.8463 20.1524 0.0000 -19.6484 0.0000
# 2 53.8463 141.3027 29.7734 0.0000 -33.8936 0.0000
# 3 20.1524 29.7734 39.0922 0.0000 -9.0789 0.0000
# 4 0.0000 0.0000 0.0000 28.3593 0.0000 -3.2289
# 5 -19.6484 -33.8936 -9.0789 0.0000 27.9374 0.0000
# 6 0.0000 0.0000 0.0000 -3.2289 0.0000 26.7026
#
#
#
# Elastic Compliance Matrix: (Units=1/GPa)
#
#
# Indices 1 2 3 4 5 6 
#
# 1 0.009933 -0.002511 -0.002480 0.000000 0.003134 0.000000
# 2 -0.002511 0.011691 -0.005112 0.000000 0.010756 0.000000
# 3 -0.002480 -0.005112 0.031267 0.000000 0.002215 0.000000
# 4 0.000000 0.000000 0.000000 0.035754 0.000000 0.004323
# 5 0.003134 0.010756 0.002215 0.000000 0.051768 0.000000
# 6 0.000000 0.000000 0.000000 0.004323 0.000000 0.037972
#
#
# Mechanical properties :
#
#
# Convention : Reuss Voigt Hill
#
# Bulk Modulus (GPa) = 30.59521 57.05082 43.82301
# Shear Modulus (GPa) = 23.86801 30.07594 26.97198
#
# Velocity S-wave (km/s) = 3.50661 3.93630 3.72765
# Velocity P-wave (km/s) = 5.67072 7.07465 6.41123
#
# Compressibility (1/GPa) = 0.03268485
#
# Stress axis : x y z
#
# Youngs Moduli (GPa) = 100.67587 85.53614 31.98282
#
# Poissons Ratio (x) = 0.21477 0.07933
# Poissons Ratio (y) = 0.25278 0.16348
# Poissons Ratio (z) = 0.24972 0.43723
#
# Static dielectric constant tensor:
#      x y z
#    x 1.637270 0.000000 0.040010 
#    y 0.000000 1.769330 0.000000 
#    z 0.040010 0.000000 1.785160 
# 
# From -- ./inp_files/86628.got.cif
#   From: 2010.05.17/outbox.cif.g08.bks.cpg/sg13_44_cif.got.tgz:86628.got - 2010.06.03 16:44:36.
