data_PCOD9232715
_publ_section_title
;
Structure prediction by ZEFSAII (Michael W. Deem and Ramdas Pophale) SiO2 
 PCOD9232715
Probable space group: P 2/C
;
_chemical_formula_sum "Si O2"
_cell_formula_units_Z 32
_cell_length_a 11.336645
_cell_length_b 12.980579
_cell_length_c 22.164869
_cell_angle_alpha 90.000000
_cell_angle_beta 31.066235
_cell_angle_gamma 90.000000
_cell_volume 1683.129687
_symmetry_space_group_name_H-M "P 2/C"
_symmetry_group_IT_number 13
_symmetry_cell_setting 'monoclinic'
loop_
_space_group_symop_operation_xyz
x,y,z
-x,y,1/2-z
-x,-y,-z
x,-y,1/2+z
loop_
_atom_site_type_symbol
_atom_site_label
_atom_site_fract_x
_atom_site_fract_y
_atom_site_fract_z
Si Si1 0.348151 0.295619 0.682217
Si Si2 0.758636 0.804986 0.155684
Si Si3 0.064317 0.018424 0.540967
Si Si4 0.164140 0.274545 0.236334
Si Si5 0.719985 0.494940 0.356921
Si Si6 0.137453 0.785171 0.525385
Si Si7 0.247931 0.896954 0.150704
Si Si8 0.511048 0.911207 0.582868
O O1 0.252432 0.286774 0.791834
O O2 0.327389 0.409067 0.665761
O O3 0.606707 0.251866 0.572013
O O4 0.226817 0.213135 0.691828
O O5 0.500000 0.833611 0.250000
O O6 0.869759 0.900166 0.143427
O O7 0.885400 0.778102 0.037454
O O8 0.303197 0.075688 0.446242
O O9 0.089614 0.906568 0.560270
O O10 0.000000 0.000000 0.500000
O O11 0.290794 0.381435 0.167296
O O12 0.333000 0.179130 0.170268
O O13 0.000000 0.255230 0.250000
O O14 0.020841 0.279854 0.360881
O O15 0.500000 0.500000 0.500000
O O16 0.000000 0.503422 0.250000
O O17 0.000000 0.944711 0.250000
O O18 0.394775 0.978290 0.123904
O O19 0.360769 0.885911 0.035840
#
# Coordination Sequence:
#
# PCOD9232715 Si02
#       8
#     4   4   4   4   4   4   4   4
#     4  11  20  38  63  90 126 168 218 265 321 390
#     4   9  21  37  61  90 122 168 217 263 318 388
#     4  10  21  38  59  87 128 175 214 256 315 394
#     4  11  24  40  63  92 129 170 211 267 334 390
#     4  11  24  43  68  97 128 173 221 271 330 396
#     4  10  21  39  60  87 127 167 215 264 321 387
#     4  11  22  33  56  89 125 156 196 257 319 378
#     4  11  23  36  56  92 127 159 205 254 328 385
#
# _framework density 19.012201000000001
#
# number of rings (size 3 to 8) (size 9 to 14) (size 15 to 20)
#    0.000    1.500    1.250    4.500    5.250    1.000 
#    0.000    2.500    0.000    7.500    0.000    0.000 
#    0.000    0.000    0.000    0.000    0.000    0.000 
#
# Total GULP energy -178402.069239 kJ/mol
# GULP energy per Si atom -5575.064664 kJ/mol
# Density = 1.896893 g / cm^3
# Si number density = 19.012201 Si / 1000 Ang^3
#
#
#
# Elastic Constant Matrix: (Units=GPa)
#
#
# Indices 1 2 3 4 5 6 
#
# 1 94.6725 43.5263 45.5450 0.0000 -7.1869 0.0000
# 2 43.5263 98.8034 31.5702 0.0000 5.2458 0.0000
# 3 45.5450 31.5702 114.9294 0.0000 23.8830 0.0000
# 4 0.0000 0.0000 0.0000 30.3109 0.0000 -1.1767
# 5 -7.1869 5.2458 23.8830 0.0000 29.4084 0.0000
# 6 0.0000 0.0000 0.0000 -1.1767 0.0000 -30.2261
#
#
#
# Elastic Compliance Matrix: (Units=1/GPa)
#
#
# Indices 1 2 3 4 5 6 
#
# 1 0.018113 -0.006058 -0.008010 0.000000 0.012013 0.000000
# 2 -0.006058 0.013130 -0.000495 0.000000 -0.003420 0.000000
# 3 -0.008010 -0.000495 0.014917 0.000000 -0.013984 0.000000
# 4 0.000000 0.000000 0.000000 0.032942 0.000000 -0.001282
# 5 0.012013 -0.003420 -0.013984 0.000000 0.048906 0.000000
# 6 0.000000 0.000000 0.000000 -0.001282 0.000000 -0.033034
#
#
# Mechanical properties :
#
#
# Convention : Reuss Voigt Hill
#
# Bulk Modulus (GPa) = 58.70748 61.07650 59.89199
# Shear Modulus (GPa) = 38.52706 18.41622 28.47164
#
# Velocity S-wave (km/s) = 4.50648 3.11570 3.87401
# Velocity P-wave (km/s) = 7.61733 6.71849 7.18198
#
# Compressibility (1/GPa) = 0.01703360
#
# Stress axis : x y z
#
# Youngs Moduli (GPa) = 55.20776 76.16367 67.03596
#
# Poissons Ratio (x) = 0.46139 0.53698
# Poissons Ratio (y) = 0.33444 0.03320
# Poissons Ratio (z) = 0.44223 0.03772
#
# Static dielectric constant tensor:
#      x y z
#    x 1.668400 0.000000 -0.028110 
#    y 0.000000 1.638240 0.000000 
#    z -0.028110 0.000000 1.742190 
# 
# From -- ./inp_files/86599.got.cif
#   From: 2010.05.17/outbox.cif.g08.bks.cpg/sg13_44_cif.got.tgz:86599.got - 2010.06.03 16:44:36.
