data_PCOD9232635
_publ_section_title
;
Structure prediction by ZEFSAII (Michael W. Deem and Ramdas Pophale) SiO2 
 PCOD9232635
Probable space group: P 2/C
;
_chemical_formula_sum "Si O2"
_cell_formula_units_Z 26
_cell_length_a 25.683695
_cell_length_b 5.523449
_cell_length_c 14.562310
_cell_angle_alpha 90.000000
_cell_angle_beta 146.846822
_cell_angle_gamma 90.000000
_cell_volume 1129.768758
_symmetry_space_group_name_H-M "P 2/C"
_symmetry_group_IT_number 13
_symmetry_cell_setting 'monoclinic'
loop_
_space_group_symop_operation_xyz
x,y,z
-x,y,1/2-z
-x,-y,-z
x,-y,1/2+z
loop_
_atom_site_type_symbol
_atom_site_label
_atom_site_fract_x
_atom_site_fract_y
_atom_site_fract_z
Si Si1 0.800224 0.791717 0.477471
Si Si2 0.344582 0.593387 0.755906
Si Si3 0.794894 0.973895 0.276363
Si Si4 0.000000 0.397563 0.250000
Si Si5 0.502452 0.198015 0.584199
Si Si6 0.664272 0.019220 0.419031
Si Si7 0.088930 0.533884 0.563952
O O1 0.753961 0.541383 0.373459
O O2 0.778356 0.976197 0.362071
O O3 0.912182 0.764309 0.655979
O O4 0.743873 0.852429 0.486496
O O5 0.422726 0.395957 0.840706
O O6 0.335445 0.757914 0.651953
O O7 0.395182 0.702190 0.921771
O O8 0.854731 0.723994 0.349036
O O9 0.849840 0.221700 0.330444
O O10 0.701313 0.940020 0.075683
O O11 0.042128 0.552809 0.394263
O O12 0.500000 0.000000 0.500000
O O13 0.558604 0.088988 0.753015
O O14 0.000000 0.500000 0.500000
#
# Coordination Sequence:
#
# PCOD9232635 Si02
#       7
#     4   4   4   2   4   4   4
#     4  10  23  41  60  96 129 177 222 274 333 398
#     4   9  18  35  64  91 122 168 212 269 327 399
#     4  11  26  40  64  98 132 168 223 278 329 397
#     4  10  24  42  64  90 130 174 222 268 332 388
#     4   8  16  34  61  95 120 159 217 263 328 403
#     4  10  21  37  68  90 130 174 217 272 341 393
#     4  11  25  43  63  93 130 173 225 278 327 396
#
# _framework density 23.013559999999998
#
# number of rings (size 3 to 8) (size 9 to 14) (size 15 to 20)
#    0.000    2.154    0.000    1.385   10.769    3.692 
#    0.000    0.000    0.000   42.462    0.000    0.000 
#    0.000    0.000    0.000    0.000    0.000    0.000 
#
# Total GULP energy -145063.749127 kJ/mol
# GULP energy per Si atom -5579.374966 kJ/mol
# Density = 2.296118 g / cm^3
# Si number density = 23.013560 Si / 1000 Ang^3
#
#
#
# Elastic Constant Matrix: (Units=GPa)
#
#
# Indices 1 2 3 4 5 6 
#
# 1 67.0542 13.0198 15.8432 0.0000 -3.1761 0.0000
# 2 13.0198 104.2367 46.3758 0.0000 2.5035 0.0000
# 3 15.8432 46.3758 176.7202 0.0000 -4.9784 0.0000
# 4 0.0000 0.0000 0.0000 29.6369 0.0000 12.6932
# 5 -3.1761 2.5035 -4.9784 0.0000 33.7082 0.0000
# 6 0.0000 0.0000 0.0000 12.6932 0.0000 19.2451
#
#
#
# Elastic Compliance Matrix: (Units=1/GPa)
#
#
# Indices 1 2 3 4 5 6 
#
# 1 0.015505 -0.001552 -0.000942 0.000000 0.001437 0.000000
# 2 -0.001552 0.011068 -0.002804 0.000000 -0.001382 0.000000
# 3 -0.000942 -0.002804 0.006510 0.000000 0.001081 0.000000
# 4 0.000000 0.000000 0.000000 0.047026 0.000000 -0.031016
# 5 0.001437 -0.001382 0.001081 0.000000 0.030064 0.000000
# 6 0.000000 0.000000 0.000000 -0.031016 0.000000 0.072418
#
#
# Mechanical properties :
#
#
# Convention : Reuss Voigt Hill
#
# Bulk Modulus (GPa) = 44.47250 55.38762 49.93006
# Shear Modulus (GPa) = 24.91481 34.70286 29.80883
#
# Velocity S-wave (km/s) = 3.29388 3.88742 3.60289
# Velocity P-wave (km/s) = 5.81658 6.65350 6.24907
#
# Compressibility (1/GPa) = 0.02248580
#
# Stress axis : x y z
#
# Youngs Moduli (GPa) = 64.49378 90.34806 153.62074
#
# Poissons Ratio (x) = 0.14022 0.14476
# Poissons Ratio (y) = 0.10009 0.43081
# Poissons Ratio (z) = 0.06077 0.25337
#
# Static dielectric constant tensor:
#      x y z
#    x 1.880740 0.000000 -0.003380 
#    y 0.000000 1.959190 0.000000 
#    z -0.003380 0.000000 1.874980 
# 
# From -- ./inp_files/59794.got.cif
#   From: 2010.05.17/outbox.cif.g08.bks.cpg/sg13_30_cif.got.tgz:59794.got - 2010.06.03 16:44:36.
