data_PCOD9232053
_publ_section_title
;
Structure prediction by ZEFSAII (Michael W. Deem and Ramdas Pophale) SiO2 
 PCOD9232053
Probable space group: P 2/C
;
_chemical_formula_sum "Si O2"
_cell_formula_units_Z 32
_cell_length_a 14.171057
_cell_length_b 5.735511
_cell_length_c 19.321401
_cell_angle_alpha 90.000000
_cell_angle_beta 108.457101
_cell_angle_gamma 90.000000
_cell_volume 1489.629363
_symmetry_space_group_name_H-M "P 2/C"
_symmetry_group_IT_number 13
_symmetry_cell_setting 'monoclinic'
loop_
_space_group_symop_operation_xyz
x,y,z
-x,y,1/2-z
-x,-y,-z
x,-y,1/2+z
loop_
_atom_site_type_symbol
_atom_site_label
_atom_site_fract_x
_atom_site_fract_y
_atom_site_fract_z
Si Si1 0.604902 0.060989 0.315532
Si Si2 0.842840 0.400580 0.470623
Si Si3 0.510365 0.082985 0.925348
Si Si4 0.007714 0.196431 0.441392
Si Si5 0.327012 0.390247 0.497545
Si Si6 0.176833 0.982913 0.412827
Si Si7 0.623012 0.554521 0.271388
Si Si8 0.686469 0.708240 0.141063
O O1 0.500000 0.058101 0.250000
O O2 0.578979 0.064033 0.390780
O O3 0.652973 0.809104 0.309307
O O4 0.655233 0.303802 0.308327
O O5 0.919185 0.597683 0.516074
O O6 0.737293 0.521217 0.452841
O O7 0.831355 0.198282 0.525463
O O8 0.896066 0.299290 0.414872
O O9 0.566168 0.328048 0.947064
O O10 0.401247 0.103677 0.869837
O O11 0.500000 0.000000 0.000000
O O12 0.067314 0.098936 0.389118
O O13 0.000000 0.000000 0.500000
O O14 0.334426 0.565092 0.434554
O O15 0.263845 0.168384 0.452827
O O16 0.211921 0.843441 0.353085
O O17 0.500000 0.555906 0.250000
O O18 0.668912 0.555657 0.204586
#
# Coordination Sequence:
#
# PCOD9232053 Si02
#       8
#     4   4   4   4   4   4   4   4
#     4  10  22  40  55  73  97 141 205 233 282 333
#     4   8  15  28  42  67  98 140 175 206 271 340
#     4  12  23  35  53  77 104 148 196 243 290 339
#     4   8  13  25  47  64  95 139 176 203 264 343
#     4  10  21  30  46  73 108 138 185 232 283 335
#     4   9  17  29  43  72 103 136 178 219 274 332
#     4  10  21  36  58  69  98 143 202 231 278 326
#     4  11  21  34  50  75 104 147 194 239 285 334
#
# _framework density 21.481852
#
# number of rings (size 3 to 8) (size 9 to 14) (size 15 to 20)
#    0.000    2.250    3.750    0.375    5.250    1.000 
#    0.000    0.000    0.000    0.000    0.000    0.000 
#    0.000    0.000    0.000  146.250    7.750    0.000 
#
# Total GULP energy -178137.426481 kJ/mol
# GULP energy per Si atom -5566.794578 kJ/mol
# Density = 2.143296 g / cm^3
# Si number density = 21.481852 Si / 1000 Ang^3
#
#
#
# Elastic Constant Matrix: (Units=GPa)
#
#
# Indices 1 2 3 4 5 6 
#
# 1 113.6513 26.9279 29.4089 0.0000 -45.1854 0.0000
# 2 26.9279 100.6006 21.2972 0.0000 -16.1738 0.0000
# 3 29.4089 21.2972 77.2931 0.0000 -31.7378 0.0000
# 4 0.0000 0.0000 0.0000 22.1561 0.0000 -10.7660
# 5 -45.1854 -16.1738 -31.7378 0.0000 31.2038 0.0000
# 6 0.0000 0.0000 0.0000 -10.7660 0.0000 43.4902
#
#
#
# Elastic Compliance Matrix: (Units=1/GPa)
#
#
# Indices 1 2 3 4 5 6 
#
# 1 0.023907 -0.001379 0.008938 0.000000 0.042995 0.000000
# 2 -0.001379 0.010985 -0.001690 0.000000 0.001978 0.000000
# 3 0.008938 -0.001690 0.025684 0.000000 0.038191 0.000000
# 4 0.000000 0.000000 0.000000 0.051306 0.000000 0.012701
# 5 0.042995 0.001978 0.038191 0.000000 0.134177 0.000000
# 6 0.000000 0.000000 0.000000 0.012701 0.000000 0.026138
#
#
# Mechanical properties :
#
#
# Convention : Reuss Voigt Hill
#
# Bulk Modulus (GPa) = 13.82836 49.64589 31.73713
# Shear Modulus (GPa) = 17.57080 33.63077 25.60078
#
# Velocity S-wave (km/s) = 2.86306 3.96099 3.45590
# Velocity P-wave (km/s) = 4.16902 6.63928 5.54350
#
# Compressibility (1/GPa) = 0.07231515
#
# Stress axis : x y z
#
# Youngs Moduli (GPa) = 41.82961 91.03156 38.93404
#
# Poissons Ratio (x) = 0.12553 -0.34800
# Poissons Ratio (y) = 0.05768 0.06579
# Poissons Ratio (z) = -0.37388 0.15383
#
# Static dielectric constant tensor:
#      x y z
#    x 1.866910 0.000000 -0.065810 
#    y 0.000000 1.875730 0.000000 
#    z -0.065810 0.000000 1.868190 
# 
# From -- ./inp_files/79056.got.cif
#   From: 2010.05.17/outbox.cif.g08.bks.cpg/sg13_40_cif.got.tgz:79056.got - 2010.06.03 16:44:36.
