data_PCOD9232019
_publ_section_title
;
Structure prediction by ZEFSAII (Michael W. Deem and Ramdas Pophale) SiO2 
 PCOD9232019
Probable space group: P 2/C
;
_chemical_formula_sum "Si O2"
_cell_formula_units_Z 26
_cell_length_a 14.693926
_cell_length_b 13.007929
_cell_length_c 9.157375
_cell_angle_alpha 90.000000
_cell_angle_beta 136.386005
_cell_angle_gamma 90.000000
_cell_volume 1207.363199
_symmetry_space_group_name_H-M "P 2/C"
_symmetry_group_IT_number 13
_symmetry_cell_setting 'monoclinic'
loop_
_space_group_symop_operation_xyz
x,y,z
-x,y,1/2-z
-x,-y,-z
x,-y,1/2+z
loop_
_atom_site_type_symbol
_atom_site_label
_atom_site_fract_x
_atom_site_fract_y
_atom_site_fract_z
Si Si1 0.235238 0.587148 0.869635
Si Si2 0.558059 0.800881 0.977641
Si Si3 0.370735 0.571144 0.341279
Si Si4 0.218015 0.144362 0.582307
Si Si5 0.688316 0.195751 0.118619
Si Si6 0.914951 0.060482 0.523105
Si Si7 0.000000 0.306956 0.250000
O O1 0.256904 0.483852 0.804300
O O2 0.292546 0.681973 0.842262
O O3 0.089481 0.622793 0.749148
O O4 0.320399 0.579414 0.117118
O O5 0.500000 0.812213 0.750000
O O6 0.443936 0.836934 0.955197
O O7 0.593491 0.682390 0.054059
O O8 0.694082 0.858725 0.170664
O O9 0.500000 0.500000 0.500000
O O10 0.308639 0.176084 0.550826
O O11 0.101911 0.229699 0.450364
O O12 0.161455 0.032632 0.487464
O O13 0.814214 0.137834 0.330965
O O14 0.000000 0.000000 0.500000
O O15 0.000000 0.111996 0.750000
#
# Coordination Sequence:
#
# PCOD9232019 Si02
#       7
#     4   4   4   4   4   4   2
#     4  11  24  42  69 103 136 186 238 291 356 419
#     4  12  26  42  68 106 142 181 240 299 353 416
#     4  12  23  42  73  98 136 186 239 288 353 428
#     4  11  23  46  74 100 142 191 232 287 362 432
#     4  11  24  45  70 101 142 189 231 295 357 422
#     4  12  24  45  75 105 139 187 241 283 354 438
#     4  10  20  44  70 100 140 192 228 288 360 422
#
# _framework density 21.534531000000001
#
# number of rings (size 3 to 8) (size 9 to 14) (size 15 to 20)
#    0.000    0.615    6.923    2.769    2.154    1.231 
#    0.000    0.000    1.692    0.000    0.000    0.000 
#    0.000    0.000    0.000    0.000    0.000    0.000 
#
# Total GULP energy -145432.680194 kJ/mol
# GULP energy per Si atom -5593.564623 kJ/mol
# Density = 2.148552 g / cm^3
# Si number density = 21.534531 Si / 1000 Ang^3
#
#
#
# Elastic Constant Matrix: (Units=GPa)
#
#
# Indices 1 2 3 4 5 6 
#
# 1 67.3069 12.5906 32.9715 0.0000 13.8145 0.0000
# 2 12.5906 47.4392 32.8287 0.0000 -2.6214 0.0000
# 3 32.9715 32.8287 149.1897 0.0000 3.8054 0.0000
# 4 0.0000 0.0000 0.0000 38.6672 0.0000 2.7122
# 5 13.8145 -2.6214 3.8054 0.0000 24.1509 0.0000
# 6 0.0000 0.0000 0.0000 2.7122 0.0000 27.7301
#
#
#
# Elastic Compliance Matrix: (Units=1/GPa)
#
#
# Indices 1 2 3 4 5 6 
#
# 1 0.019336 -0.003506 -0.003223 0.000000 -0.010933 0.000000
# 2 -0.003506 0.025813 -0.005048 0.000000 0.005602 0.000000
# 3 -0.003223 -0.005048 0.008527 0.000000 -0.000048 0.000000
# 4 0.000000 0.000000 0.000000 0.026040 0.000000 -0.002547
# 5 -0.010933 0.005602 -0.000048 0.000000 0.048276 0.000000
# 6 0.000000 0.000000 0.000000 -0.002547 0.000000 0.036311
#
#
# Mechanical properties :
#
#
# Convention : Reuss Voigt Hill
#
# Bulk Modulus (GPa) = 33.19776 46.74638 39.97207
# Shear Modulus (GPa) = 25.26559 30.47931 27.87245
#
# Velocity S-wave (km/s) = 3.42900 3.76622 3.60156
# Velocity P-wave (km/s) = 5.57915 6.37709 5.99142
#
# Compressibility (1/GPa) = 0.03012251
#
# Stress axis : x y z
#
# Youngs Moduli (GPa) = 51.71730 38.74013 117.27100
#
# Poissons Ratio (x) = 0.13580 0.37797
# Poissons Ratio (y) = 0.18130 0.59201
# Poissons Ratio (z) = 0.16669 0.19557
#
# Static dielectric constant tensor:
#      x y z
#    x 1.810520 0.000000 0.025400 
#    y 0.000000 1.768850 0.000000 
#    z 0.025400 0.000000 1.783320 
# 
# From -- ./inp_files/19925.got.cif
#   From: 2010.05.17/outbox.cif.g08.bks.cpg/sg13_10_cif.got.tgz:19925.got - 2010.06.03 16:44:36.
