data_PCOD9232275
_publ_section_title
;
Structure prediction by ZEFSAII (Michael W. Deem and Ramdas Pophale) SiO2 
 PCOD9232275
Probable space group: P 2/C
;
_chemical_formula_sum "Si O2"
_cell_formula_units_Z 20
_cell_length_a 7.855817
_cell_length_b 24.775658
_cell_length_c 8.797649
_cell_angle_alpha 90.000000
_cell_angle_beta 35.765949
_cell_angle_gamma 90.000000
_cell_volume 1000.805166
_symmetry_space_group_name_H-M "P 2/C"
_symmetry_group_IT_number 13
_symmetry_cell_setting 'monoclinic'
loop_
_space_group_symop_operation_xyz
x,y,z
-x,y,1/2-z
-x,-y,-z
x,-y,1/2+z
loop_
_atom_site_type_symbol
_atom_site_label
_atom_site_fract_x
_atom_site_fract_y
_atom_site_fract_z
Si Si1 0.152729 0.548551 0.476902
Si Si2 0.155933 0.667624 0.473623
Si Si3 0.655940 0.160638 0.302976
Si Si4 0.848894 0.777783 0.195303
Si Si5 0.660244 0.047682 0.473399
O O1 0.500000 0.541002 0.250000
O O2 0.092140 0.608168 0.451658
O O3 0.000000 0.500000 0.500000
O O4 0.000000 0.550404 0.750000
O O5 0.500000 0.667788 0.250000
O O6 0.097562 0.718663 0.410405
O O7 0.000000 0.673155 0.750000
O O8 0.500000 0.158220 0.250000
O O9 0.480743 0.203638 0.534103
O O10 0.643135 0.102820 0.390245
O O11 0.983159 0.180389 0.035061
O O12 0.000000 0.780329 0.250000
O O13 0.000000 0.034109 0.250000
O O14 0.500000 0.000000 0.500000
O O15 0.500000 0.054970 0.750000
#
# Coordination Sequence:
#
# PCOD9232275 Si02
#       5
#     4   4   4   4   4
#     4  10  21  38  58  84 115 153 196 243 294 345
#     4  10  21  36  56  82 115 149 189 239 289 341
#     4  10  22  40  60  85 119 152 190 239 287 340
#     4  10  21  37  58  85 116 152 190 234 288 343
#     4  12  26  43  65  92 120 156 198 241 291 347
#
# _framework density 19.983910000000002
#
# number of rings (size 3 to 8) (size 9 to 14) (size 15 to 20)
#    0.000    1.600    0.000    4.200    0.000    8.000 
#    0.000    3.000    0.000    0.000    0.000    0.000 
#    0.000    0.000    0.000    0.000    0.000    0.000 
#
# Total GULP energy -111748.994178 kJ/mol
# GULP energy per Si atom -5587.449709 kJ/mol
# Density = 1.993843 g / cm^3
# Si number density = 19.983910 Si / 1000 Ang^3
#
#
#
# Elastic Constant Matrix: (Units=GPa)
#
#
# Indices 1 2 3 4 5 6 
#
# 1 33.4091 45.2826 43.5132 0.0000 -2.4273 0.0000
# 2 45.2826 175.4995 58.4900 0.0000 19.2092 0.0000
# 3 43.5132 58.4900 168.9265 0.0000 -2.1581 0.0000
# 4 0.0000 0.0000 0.0000 6.9797 0.0000 -35.3707
# 5 -2.4273 19.2092 -2.1581 0.0000 25.9394 0.0000
# 6 0.0000 0.0000 0.0000 -35.3707 0.0000 -21.1856
#
#
#
# Elastic Compliance Matrix: (Units=1/GPa)
#
#
# Indices 1 2 3 4 5 6 
#
# 1 0.067111 -0.015189 -0.011816 0.000000 0.016545 0.000000
# 2 -0.015189 0.010587 0.000129 0.000000 -0.009250 0.000000
# 3 -0.011816 0.000129 0.008913 0.000000 -0.000459 0.000000
# 4 0.000000 0.000000 0.000000 0.015144 0.000000 -0.025284
# 5 0.016545 -0.009250 -0.000459 0.000000 0.046912 0.000000
# 6 0.000000 0.000000 0.000000 -0.025284 0.000000 -0.004989
#
#
# Mechanical properties :
#
#
# Convention : Reuss Voigt Hill
#
# Bulk Modulus (GPa) = 30.43441 74.71188 52.57315
# Shear Modulus (GPa) = 23.99429 17.71664 20.85547
#
# Velocity S-wave (km/s) = 3.46884 2.98072 3.23400
# Velocity P-wave (km/s) = 5.59521 7.02235 6.34901
#
# Compressibility (1/GPa) = 0.03285754
#
# Stress axis : x y z
#
# Youngs Moduli (GPa) = 14.90068 94.45824 112.19463
#
# Poissons Ratio (x) = 1.43471 1.32575
# Poissons Ratio (y) = 0.22632 -0.01444
# Poissons Ratio (z) = 0.17607 -0.01215
#
# Static dielectric constant tensor:
#      x y z
#    x 1.679100 0.000000 -0.006150 
#    y 0.000000 1.730480 0.000000 
#    z -0.006150 0.000000 1.688920 
# 
# From -- ./inp_files/13784.got.cif
#   From: 2010.05.17/outbox.cif.g08.bks.cpg/sg13_7_cif.got.tgz:13784.got - 2010.06.03 16:44:36.
