data_PCOD9232710
_publ_section_title
;
Structure prediction by ZEFSAII (Michael W. Deem and Ramdas Pophale) SiO2 
 PCOD9232710
Probable space group: P 2/C
;
_chemical_formula_sum "Si O2"
_cell_formula_units_Z 26
_cell_length_a 12.693931
_cell_length_b 20.112430
_cell_length_c 5.105556
_cell_angle_alpha 90.000000
_cell_angle_beta 110.717475
_cell_angle_gamma 90.000000
_cell_volume 1219.190181
_symmetry_space_group_name_H-M "P 2/C"
_symmetry_group_IT_number 13
_symmetry_cell_setting 'monoclinic'
loop_
_space_group_symop_operation_xyz
x,y,z
-x,y,1/2-z
-x,-y,-z
x,-y,1/2+z
loop_
_atom_site_type_symbol
_atom_site_label
_atom_site_fract_x
_atom_site_fract_y
_atom_site_fract_z
Si Si1 0.376808 0.152115 0.758342
Si Si2 0.126852 0.471603 0.651210
Si Si3 0.189450 0.675209 0.335294
Si Si4 0.318813 0.716482 0.958335
Si Si5 0.000000 0.862899 0.750000
Si Si6 0.808292 0.043755 0.840263
Si Si7 0.500000 0.756072 0.750000
Si Si8 0.000000 0.220929 0.750000
O O1 0.500000 0.137240 0.750000
O O2 0.310747 0.204694 0.517572
O O3 0.305324 0.086579 0.735136
O O4 0.405862 0.195507 0.041735
O O5 0.182368 0.482516 0.419786
O O6 0.132053 0.396203 0.747509
O O7 0.000000 0.500000 0.500000
O O8 0.236360 0.687460 0.666411
O O9 0.097517 0.732751 0.215712
O O10 0.287344 0.681875 0.203932
O O11 0.441514 0.714036 0.927976
O O12 0.907469 0.908309 0.525257
O O13 0.044330 0.820244 0.540272
O O14 0.814598 0.017357 0.549921
#
# Coordination Sequence:
#
# PCOD9232710 Si02
#       8
#     4   4   4   4   2   4   2   2
#     4  10  23  42  69  97 135 162 207 280 362 403
#     4  10  21  38  59  86 136 186 215 258 312 368
#     4  12  23  38  64 102 134 173 229 261 316 407
#     4  11  23  40  66  99 133 168 209 273 337 405
#     4  12  26  45  66  85 130 180 222 276 338 388
#     4  12  27  44  65  89 123 175 228 272 318 408
#     4  10  22  44  70  98 138 164 202 278 368 408
#     4  12  24  39  64  95 128 168 212 286 328 374
#
# _framework density 21.325628999999999
#
# number of rings (size 3 to 8) (size 9 to 14) (size 15 to 20)
#    0.000    0.923    1.538    6.000    4.308    3.077 
#    0.000    0.000    0.000    0.000    0.000   10.769 
#    0.000    0.000    0.000    0.000    0.000    0.000 
#
# Total GULP energy -145176.447975 kJ/mol
# GULP energy per Si atom -5583.709537 kJ/mol
# Density = 2.127709 g / cm^3
# Si number density = 21.325629 Si / 1000 Ang^3
#
#
#
# Elastic Constant Matrix: (Units=GPa)
#
#
# Indices 1 2 3 4 5 6 
#
# 1 57.3838 23.8749 15.6176 0.0000 -0.1494 0.0000
# 2 23.8749 81.6248 20.8165 0.0000 11.4810 0.0000
# 3 15.6176 20.8165 115.9136 0.0000 -11.1420 0.0000
# 4 0.0000 0.0000 0.0000 19.9472 0.0000 3.2711
# 5 -0.1494 11.4810 -11.1420 0.0000 34.7347 0.0000
# 6 0.0000 0.0000 0.0000 3.2711 0.0000 68.1162
#
#
#
# Elastic Compliance Matrix: (Units=1/GPa)
#
#
# Indices 1 2 3 4 5 6 
#
# 1 0.020238 -0.005732 -0.001555 0.000000 0.001483 0.000000
# 2 -0.005732 0.015419 -0.002568 0.000000 -0.005945 0.000000
# 3 -0.001555 -0.002568 0.009677 0.000000 0.003946 0.000000
# 4 0.000000 0.000000 0.000000 0.050530 0.000000 -0.002427
# 5 0.001483 -0.005945 0.003946 0.000000 0.032027 0.000000
# 6 0.000000 0.000000 0.000000 -0.002427 0.000000 0.014797
#
#
# Mechanical properties :
#
#
# Convention : Reuss Voigt Hill
#
# Bulk Modulus (GPa) = 39.02486 41.72671 40.37578
# Shear Modulus (GPa) = 29.25005 37.53383 33.39194
#
# Velocity S-wave (km/s) = 3.70752 4.19983 3.96133
# Velocity P-wave (km/s) = 6.05531 6.56712 6.31640
#
# Compressibility (1/GPa) = 0.02562469
#
# Stress axis : x y z
#
# Youngs Moduli (GPa) = 49.41138 64.85587 103.33595
#
# Poissons Ratio (x) = 0.37173 0.16068
# Poissons Ratio (y) = 0.28321 0.26539
# Poissons Ratio (z) = 0.07683 0.16656
#
# Static dielectric constant tensor:
#      x y z
#    x 1.772540 0.000000 -0.023530 
#    y 0.000000 1.752620 0.000000 
#    z -0.023530 0.000000 1.818240 
# 
# From -- ./inp_files/5309.got.cif
#   From: 2010.05.17/outbox.cif.g08.bks.cpg/sg13_3_cif.got.tgz:5309.got - 2010.06.03 16:44:36.
