data_PCOD9232787
_publ_section_title
;
Structure prediction by ZEFSAII (Michael W. Deem and Ramdas Pophale) SiO2 
 PCOD9232787
Probable space group: P 2/C
;
_chemical_formula_sum "Si O2"
_cell_formula_units_Z 32
_cell_length_a 31.840787
_cell_length_b 5.246526
_cell_length_c 14.004217
_cell_angle_alpha 90.000000
_cell_angle_beta 140.425645
_cell_angle_gamma 90.000000
_cell_volume 1490.416946
_symmetry_space_group_name_H-M "P 2/C"
_symmetry_group_IT_number 13
_symmetry_cell_setting 'monoclinic'
loop_
_space_group_symop_operation_xyz
x,y,z
-x,y,1/2-z
-x,-y,-z
x,-y,1/2+z
loop_
_atom_site_type_symbol
_atom_site_label
_atom_site_fract_x
_atom_site_fract_y
_atom_site_fract_z
Si Si1 0.527211 0.378463 0.405224
Si Si2 0.064467 0.532331 0.925413
Si Si3 0.472904 0.878429 0.310117
Si Si4 0.935619 0.966213 0.950354
Si Si5 0.336796 0.999296 0.650051
Si Si6 0.793932 0.574647 0.828838
Si Si7 0.336757 0.503798 0.778174
Si Si8 0.206111 0.925103 0.299285
O O1 0.500000 0.342124 0.250000
O O2 0.483087 0.601415 0.372767
O O3 0.602478 0.464639 0.542670
O O4 0.517055 0.101470 0.432261
O O5 0.062543 0.819289 0.963020
O O6 0.000000 0.489290 0.750000
O O7 0.064566 0.320343 0.009332
O O8 0.134765 0.477902 0.998219
O O9 0.500000 0.842158 0.250000
O O10 0.397595 0.963933 0.183838
O O11 0.865279 0.026509 0.777629
O O12 0.000000 0.000000 0.000000
O O13 0.333636 0.252249 0.708210
O O14 0.349597 0.752213 0.736961
O O15 0.268040 0.962698 0.475636
O O16 0.732005 0.539347 0.788336
O O17 0.790796 0.355924 0.741504
O O18 0.791400 0.856015 0.778267
#
# Coordination Sequence:
#
# PCOD9232787 Si02
#       8
#     4   4   4   4   4   4   4   4
#     4  10  23  40  63  88 115 160 205 235 312 371
#     4  10  21  38  61  94 124 166 208 252 300 359
#     4  10  23  40  63  88 115 160 205 235 312 371
#     4  10  21  38  61  94 124 166 208 252 300 359
#     4  12  26  41  64  96 124 153 203 265 312 350
#     4  10  23  41  65  88 125 170 209 239 303 381
#     4  12  26  41  64  96 124 153 203 265 312 350
#     4  10  23  41  65  88 125 170 209 239 303 381
#
# _framework density 21.470503000000001
#
# number of rings (size 3 to 8) (size 9 to 14) (size 15 to 20)
#    0.000    1.500    0.000    3.750    7.000    5.000 
#    0.000    0.000    0.000    0.000    0.000    0.000 
#    0.000    0.000    0.000    0.000    0.000    0.000 
#
# Total GULP energy -178846.516950 kJ/mol
# GULP energy per Si atom -5588.953655 kJ/mol
# Density = 2.142164 g / cm^3
# Si number density = 21.470503 Si / 1000 Ang^3
#
#
#
# Elastic Constant Matrix: (Units=GPa)
#
#
# Indices 1 2 3 4 5 6 
#
# 1 86.8401 2.5436 48.0432 0.0000 31.5931 0.0000
# 2 2.5436 128.1451 -2.0518 0.0000 -2.6978 0.0000
# 3 48.0432 -2.0518 128.9651 0.0000 35.0529 0.0000
# 4 0.0000 0.0000 0.0000 27.0144 0.0000 5.7154
# 5 31.5931 -2.6978 35.0529 0.0000 35.8151 0.0000
# 6 0.0000 0.0000 0.0000 5.7154 0.0000 22.2995
#
#
#
# Elastic Compliance Matrix: (Units=1/GPa)
#
#
# Indices 1 2 3 4 5 6 
#
# 1 0.017956 -0.000676 -0.003244 0.000000 -0.012715 0.000000
# 2 -0.000676 0.007842 0.000074 0.000000 0.001115 0.000000
# 3 -0.003244 0.000074 0.011151 0.000000 -0.008046 0.000000
# 4 0.000000 0.000000 0.000000 0.039140 0.000000 -0.010032
# 5 -0.012715 0.001115 -0.008046 0.000000 0.047097 0.000000
# 6 0.000000 0.000000 0.000000 -0.010032 0.000000 0.047415
#
#
# Mechanical properties :
#
#
# Convention : Reuss Voigt Hill
#
# Bulk Modulus (GPa) = 34.18162 49.00227 41.59194
# Shear Modulus (GPa) = 26.58956 36.72016 31.65486
#
# Velocity S-wave (km/s) = 3.52294 4.14002 3.84388
# Velocity P-wave (km/s) = 5.70114 6.76207 6.25414
#
# Compressibility (1/GPa) = 0.02925549
#
# Stress axis : x y z
#
# Youngs Moduli (GPa) = 55.69277 127.52294 89.68111
#
# Poissons Ratio (x) = 0.08621 0.29090
# Poissons Ratio (y) = 0.03765 -0.00659
# Poissons Ratio (z) = 0.18065 -0.00938
#
# Static dielectric constant tensor:
#      x y z
#    x 1.710200 0.000000 0.048150 
#    y 0.000000 1.813490 0.000000 
#    z 0.048150 0.000000 1.745790 
# 
# From -- ./inp_files/59774.got.cif
#   From: 2010.05.17/outbox.cif.g08.bks.cpg/sg13_30_cif.got.tgz:59774.got - 2010.06.03 16:44:36.
