data_PCOD9232219
_publ_section_title
;
Structure prediction by ZEFSAII (Michael W. Deem and Ramdas Pophale) SiO2 
 PCOD9232219
Probable space group: P 2/C
;
_chemical_formula_sum "Si O2"
_cell_formula_units_Z 20
_cell_length_a 9.105846
_cell_length_b 5.362608
_cell_length_c 18.153783
_cell_angle_alpha 90.000000
_cell_angle_beta 59.896881
_cell_angle_gamma 90.000000
_cell_volume 766.905606
_symmetry_space_group_name_H-M "P 2/C"
_symmetry_group_IT_number 13
_symmetry_cell_setting 'monoclinic'
loop_
_space_group_symop_operation_xyz
x,y,z
-x,y,1/2-z
-x,-y,-z
x,-y,1/2+z
loop_
_atom_site_type_symbol
_atom_site_label
_atom_site_fract_x
_atom_site_fract_y
_atom_site_fract_z
Si Si1 0.817650 0.246617 0.079566
Si Si2 0.686575 0.255362 0.672745
Si Si3 0.126737 0.401841 0.285273
Si Si4 0.727373 0.250933 0.952925
Si Si5 0.650642 0.237512 0.387757
O O1 0.700604 0.490868 0.121743
O O2 0.933906 0.279001 0.122992
O O3 0.869796 0.257657 0.981413
O O4 0.736057 0.979211 0.112581
O O5 0.500000 0.224768 0.750000
O O6 0.815249 0.320181 0.707137
O O7 0.296939 0.268297 0.210849
O O8 0.000000 0.388241 0.250000
O O9 0.547781 0.220503 0.041792
O O10 0.713207 0.507954 0.912008
O O11 0.735874 0.012442 0.898277
#
# Coordination Sequence:
#
# PCOD9232219 Si02
#       5
#     4   4   4   4   4
#     4  10  22  38  63  90 123 161 213 258 309 367
#     4  10  21  35  64  90 118 158 209 266 299 357
#     4  10  25  43  63  94 131 168 210 256 318 380
#     4  10  21  39  60  94 123 159 210 260 312 368
#     4  10  22  37  63  89 128 163 201 261 317 365
#
# _framework density 26.078828999999999
#
# number of rings (size 3 to 8) (size 9 to 14) (size 15 to 20)
#    1.200    0.800    0.000    3.000    5.600    2.400 
#    0.000    2.000    0.000    0.000    0.000    0.000 
#    0.000    0.000    0.000    0.000    0.000    0.000 
#
# Total GULP energy -111822.473340 kJ/mol
# GULP energy per Si atom -5591.123667 kJ/mol
# Density = 2.601947 g / cm^3
# Si number density = 26.078829 Si / 1000 Ang^3
#
#
#
# Elastic Constant Matrix: (Units=GPa)
#
#
# Indices 1 2 3 4 5 6 
#
# 1 58.7510 34.2555 32.7718 0.0000 15.4012 0.0000
# 2 34.2555 199.8584 51.5907 0.0000 18.3401 0.0000
# 3 32.7718 51.5907 102.9016 0.0000 16.6333 0.0000
# 4 0.0000 0.0000 0.0000 58.4395 0.0000 9.5368
# 5 15.4012 18.3401 16.6333 0.0000 53.8917 0.0000
# 6 0.0000 0.0000 0.0000 9.5368 0.0000 12.2148
#
#
#
# Elastic Compliance Matrix: (Units=1/GPa)
#
#
# Indices 1 2 3 4 5 6 
#
# 1 0.022292 -0.002054 -0.005423 0.000000 -0.003998 0.000000
# 2 -0.002054 0.006002 -0.002231 0.000000 -0.000767 0.000000
# 3 -0.005423 -0.002231 0.012831 0.000000 -0.001651 0.000000
# 4 0.000000 0.000000 0.000000 0.019610 0.000000 -0.015311
# 5 -0.003998 -0.000767 -0.001651 0.000000 0.020469 0.000000
# 6 0.000000 0.000000 0.000000 -0.015311 0.000000 0.093822
#
#
# Mechanical properties :
#
#
# Convention : Reuss Voigt Hill
#
# Bulk Modulus (GPa) = 46.06701 66.52746 56.29723
# Shear Modulus (GPa) = 24.79196 41.10206 32.94701
#
# Velocity S-wave (km/s) = 3.08661 3.97428 3.55824
# Velocity P-wave (km/s) = 5.51414 6.82828 6.20609
#
# Compressibility (1/GPa) = 0.02170751
#
# Stress axis : x y z
#
# Youngs Moduli (GPa) = 44.85957 166.61488 77.93830
#
# Poissons Ratio (x) = 0.34222 0.42270
# Poissons Ratio (y) = 0.09214 0.17388
# Poissons Ratio (z) = 0.24329 0.37171
#
# Static dielectric constant tensor:
#      x y z
#    x 2.207080 0.000000 0.031580 
#    y 0.000000 1.948100 0.000000 
#    z 0.031580 0.000000 2.036860 
# 
# From -- ./inp_files/64869.got.cif
#   From: 2010.05.17/outbox.cif.g08.bks.cpg/sg13_33_cif.got.tgz:64869.got - 2010.06.03 16:44:36.
