data_PCOD9232139
_publ_section_title
;
Structure prediction by ZEFSAII (Michael W. Deem and Ramdas Pophale) SiO2 
 PCOD9232139
Probable space group: P 2/C
;
_chemical_formula_sum "Si O2"
_cell_formula_units_Z 30
_cell_length_a 14.314191
_cell_length_b 18.372659
_cell_length_c 5.650293
_cell_angle_alpha 90.000000
_cell_angle_beta 69.929338
_cell_angle_gamma 90.000000
_cell_volume 1395.726384
_symmetry_space_group_name_H-M "P 2/C"
_symmetry_group_IT_number 13
_symmetry_cell_setting 'monoclinic'
loop_
_space_group_symop_operation_xyz
x,y,z
-x,y,1/2-z
-x,-y,-z
x,-y,1/2+z
loop_
_atom_site_type_symbol
_atom_site_label
_atom_site_fract_x
_atom_site_fract_y
_atom_site_fract_z
Si Si1 0.398796 0.315109 0.188540
Si Si2 0.500000 0.041985 0.250000
Si Si3 0.940157 0.186611 0.549008
Si Si4 0.386184 0.472609 0.063604
Si Si5 0.712264 0.906270 0.675221
Si Si6 0.250689 0.238252 0.607791
Si Si7 0.390443 0.826779 0.372858
Si Si8 0.881370 0.976459 0.994113
O O1 0.500000 0.324959 0.250000
O O2 0.388450 0.385550 0.034383
O O3 0.298332 0.305632 0.429597
O O4 0.405638 0.238536 0.047571
O O5 0.396458 0.085987 0.345741
O O6 0.500000 0.000000 0.500000
O O7 0.851632 0.244999 0.662080
O O8 0.887533 0.107939 0.556485
O O9 0.000000 0.183940 0.750000
O O10 0.000000 0.199469 0.250000
O O11 0.342525 0.492214 0.362081
O O12 0.500000 0.500000 0.000000
O O13 0.765477 0.831864 0.548657
O O14 0.778564 0.975992 0.564593
O O15 0.683350 0.888966 0.970593
O O16 0.339292 0.212096 0.699823
O O17 0.500000 0.857749 0.250000
O O18 0.921771 0.017768 0.191640
#
# Coordination Sequence:
#
# PCOD9232139 Si02
#       8
#     4   2   4   4   4   4   4   4
#     4  11  22  37  62  99 134 192 222 252 310 377
#     4  12  28  40  58  82 114 162 198 254 316 400
#     4  12  29  50  71  93 120 159 217 290 363 410
#     4  10  21  34  58  92 148 188 221 256 290 346
#     4  11  25  42  57  86 119 158 211 272 329 393
#     4  11  25  44  64  90 128 167 224 276 318 399
#     4  11  23  37  65  87 129 175 224 258 314 389
#     4  12  24  44  68  88 117 147 202 273 355 416
#
# _framework density 21.494181999999999
#
# number of rings (size 3 to 8) (size 9 to 14) (size 15 to 20)
#    0.000    0.800    4.000    3.200   12.133    1.600 
#    0.000    0.000    0.000    0.000    0.000    0.000 
#    0.000    3.200    0.000    0.000    0.000    0.000 
#
# Total GULP energy -167517.620795 kJ/mol
# GULP energy per Si atom -5583.920693 kJ/mol
# Density = 2.144526 g / cm^3
# Si number density = 21.494182 Si / 1000 Ang^3
#
#
#
# Elastic Constant Matrix: (Units=GPa)
#
#
# Indices 1 2 3 4 5 6 
#
# 1 81.1821 6.8047 29.6181 0.0000 -2.7696 0.0000
# 2 6.8047 72.0780 24.7221 0.0000 -10.3008 0.0000
# 3 29.6181 24.7221 122.7118 0.0000 -7.8025 0.0000
# 4 0.0000 0.0000 0.0000 34.4610 0.0000 -3.8919
# 5 -2.7696 -10.3008 -7.8025 0.0000 41.7395 0.0000
# 6 0.0000 0.0000 0.0000 -3.8919 0.0000 8.7326
#
#
#
# Elastic Compliance Matrix: (Units=1/GPa)
#
#
# Indices 1 2 3 4 5 6 
#
# 1 0.013512 -0.000135 -0.003218 0.000000 0.000262 0.000000
# 2 -0.000135 0.015327 -0.002849 0.000000 0.003241 0.000000
# 3 -0.003218 -0.002849 0.009555 0.000000 0.000869 0.000000
# 4 0.000000 0.000000 0.000000 0.030556 0.000000 0.013618
# 5 0.000262 0.003241 0.000869 0.000000 0.024938 0.000000
# 6 0.000000 0.000000 0.000000 0.013618 0.000000 0.120582
#
#
# Mechanical properties :
#
#
# Convention : Reuss Voigt Hill
#
# Bulk Modulus (GPa) = 38.47447 44.25132 41.36289
# Shear Modulus (GPa) = 21.22808 31.30843 26.26825
#
# Velocity S-wave (km/s) = 3.14605 3.82068 3.49966
# Velocity P-wave (km/s) = 5.57993 6.33212 5.96789
#
# Compressibility (1/GPa) = 0.02599126
#
# Stress axis : x y z
#
# Youngs Moduli (GPa) = 74.00782 65.24429 104.65625
#
# Poissons Ratio (x) = 0.00878 0.33674
# Poissons Ratio (y) = 0.00996 0.29820
# Poissons Ratio (z) = 0.23812 0.18590
#
# Static dielectric constant tensor:
#      x y z
#    x 1.878140 0.000000 -0.016310 
#    y 0.000000 1.717220 0.000000 
#    z -0.016310 0.000000 1.966430 
# 
# From -- ./inp_files/5338.got.cif
#   From: 2010.05.17/outbox.cif.g08.bks.cpg/sg13_3_cif.got.tgz:5338.got - 2010.06.03 16:44:36.
