data_PCOD9232240
_publ_section_title
;
Structure prediction by ZEFSAII (Michael W. Deem and Ramdas Pophale) SiO2 
 PCOD9232240
Probable space group: P 2/C
;
_chemical_formula_sum "Si O2"
_cell_formula_units_Z 30
_cell_length_a 19.134926
_cell_length_b 17.639414
_cell_length_c 5.179549
_cell_angle_alpha 90.000000
_cell_angle_beta 63.274857
_cell_angle_gamma 90.000000
_cell_volume 1561.489331
_symmetry_space_group_name_H-M "P 2/C"
_symmetry_group_IT_number 13
_symmetry_cell_setting 'monoclinic'
loop_
_space_group_symop_operation_xyz
x,y,z
-x,y,1/2-z
-x,-y,-z
x,-y,1/2+z
loop_
_atom_site_type_symbol
_atom_site_label
_atom_site_fract_x
_atom_site_fract_y
_atom_site_fract_z
Si Si1 0.000000 0.322326 0.250000
Si Si2 0.702655 0.451183 0.568119
Si Si3 0.656367 0.958057 0.403874
Si Si4 0.116363 0.552343 0.735059
Si Si5 0.048840 0.174002 0.927384
Si Si6 0.447608 0.649073 0.093294
Si Si7 0.448482 0.172275 0.590467
Si Si8 0.843724 0.044042 0.639485
O O1 0.941286 0.376805 0.194670
O O2 0.950249 0.264079 0.511850
O O3 0.694156 0.480752 0.289630
O O4 0.792463 0.423148 0.438089
O O5 0.634636 0.393647 0.758308
O O6 0.626027 0.879531 0.338736
O O7 0.749955 0.956667 0.271659
O O8 0.629230 0.980022 0.736403
O O9 0.103276 0.505632 0.019103
O O10 0.127829 0.126331 0.812528
O O11 0.000000 0.162439 0.750000
O O12 0.000000 0.142060 0.250000
O O13 0.500000 0.624680 0.250000
O O14 0.430926 0.738720 0.147895
O O15 0.500000 0.636414 0.750000
O O16 0.500000 0.148457 0.750000
O O17 0.500000 0.163702 0.250000
O O18 0.870872 0.015302 0.313924
#
# Coordination Sequence:
#
# PCOD9232240 Si02
#       8
#     2   4   4   4   4   4   4   4
#     4  10  24  38  60  84 118 142 192 232 280 334
#     4  10  21  37  56  85 112 141 187 229 271 324
#     4  10  21  36  56  81 107 142 186 228 274 322
#     4  10  22  38  61  83 111 150 187 229 281 335
#     4  10  23  37  56  86 112 142 184 230 272 334
#     4  10  21  36  56  81 112 149 183 219 276 332
#     4  10  21  36  54  78 111 144 183 224 271 328
#     4  10  21  38  58  80 112 148 186 227 276 336
#
# _framework density 19.212429
#
# number of rings (size 3 to 8) (size 9 to 14) (size 15 to 20)
#    0.400    1.600    0.000    2.800    1.867    5.867 
#    0.000    0.000    5.867    0.000    0.000    0.000 
#    0.000    0.000    0.000    0.000    0.000    0.000 
#
# Total GULP energy -167278.093329 kJ/mol
# GULP energy per Si atom -5575.936444 kJ/mol
# Density = 1.916870 g / cm^3
# Si number density = 19.212429 Si / 1000 Ang^3
#
#
#
# Elastic Constant Matrix: (Units=GPa)
#
#
# Indices 1 2 3 4 5 6 
#
# 1 91.9101 58.9610 25.1394 0.0000 21.6765 0.0000
# 2 58.9610 69.2047 9.1814 0.0000 -0.1864 0.0000
# 3 25.1394 9.1814 49.9691 0.0000 27.2590 0.0000
# 4 0.0000 0.0000 0.0000 1.7774 0.0000 0.7043
# 5 21.6765 -0.1864 27.2590 0.0000 31.0356 0.0000
# 6 0.0000 0.0000 0.0000 0.7043 0.0000 26.2454
#
#
#
# Elastic Compliance Matrix: (Units=1/GPa)
#
#
# Indices 1 2 3 4 5 6 
#
# 1 0.038210 -0.033018 0.002899 0.000000 -0.029432 0.000000
# 2 -0.033018 0.043718 -0.007958 0.000000 0.030313 0.000000
# 3 0.002899 -0.007958 0.040599 0.000000 -0.037732 0.000000
# 4 0.000000 0.000000 0.000000 0.568671 0.000000 -0.015260
# 5 -0.029432 0.030313 -0.037732 0.000000 0.086100 0.000000
# 6 0.000000 0.000000 0.000000 -0.015260 0.000000 0.038511
#
#
# Mechanical properties :
#
#
# Convention : Reuss Voigt Hill
#
# Bulk Modulus (GPa) = 21.56405 44.18305 32.87355
# Shear Modulus (GPa) = 5.51013 19.66514 12.58764
#
# Velocity S-wave (km/s) = 1.69536 3.20279 2.56243
# Velocity P-wave (km/s) = 3.88339 6.06005 5.08944
#
# Compressibility (1/GPa) = 0.04637348
#
# Stress axis : x y z
#
# Youngs Moduli (GPa) = 26.17142 22.87401 24.63100
#
# Poissons Ratio (x) = 0.75525 -0.07141
# Poissons Ratio (y) = 0.86412 0.19601
# Poissons Ratio (z) = -0.07587 0.18203
#
# Static dielectric constant tensor:
#      x y z
#    x 1.646360 0.000000 0.012190 
#    y 0.000000 1.669700 0.000000 
#    z 0.012190 0.000000 1.664110 
# 
# From -- ./inp_files/5353.got.cif
#   From: 2010.05.17/outbox.cif.g08.bks.cpg/sg13_3_cif.got.tgz:5353.got - 2010.06.03 16:44:36.
