data_PCOD9232872
_publ_section_title
;
Structure prediction by ZEFSAII (Michael W. Deem and Ramdas Pophale) SiO2 
 PCOD9232872
Probable space group: P 2/C
;
_chemical_formula_sum "Si O2"
_cell_formula_units_Z 28
_cell_length_a 8.338448
_cell_length_b 16.959268
_cell_length_c 9.644933
_cell_angle_alpha 90.000000
_cell_angle_beta 95.260569
_cell_angle_gamma 90.000000
_cell_volume 1358.183485
_symmetry_space_group_name_H-M "P 2/C"
_symmetry_group_IT_number 13
_symmetry_cell_setting 'monoclinic'
loop_
_space_group_symop_operation_xyz
x,y,z
-x,y,1/2-z
-x,-y,-z
x,-y,1/2+z
loop_
_atom_site_type_symbol
_atom_site_label
_atom_site_fract_x
_atom_site_fract_y
_atom_site_fract_z
Si Si1 0.620711 0.977077 0.632977
Si Si2 0.000000 0.747596 0.250000
Si Si3 0.806607 0.335110 0.236711
Si Si4 0.753775 0.654627 0.409330
Si Si5 0.191028 0.841961 0.727136
Si Si6 0.126113 0.491981 0.135702
Si Si7 0.500000 0.771795 0.250000
Si Si8 0.747674 0.135312 0.589356
O O1 0.500000 0.979121 0.750000
O O2 0.712895 0.894048 0.652271
O O3 0.500000 0.000000 0.500000
O O4 0.751601 0.046957 0.649219
O O5 0.917088 0.692874 0.359583
O O6 0.879250 0.805220 0.160359
O O7 0.748690 0.248419 0.271460
O O8 0.780793 0.409001 0.337165
O O9 0.000000 0.328332 0.250000
O O10 0.752309 0.350088 0.075139
O O11 0.752442 0.565067 0.356143
O O12 0.621605 0.713483 0.338501
O O13 0.228947 0.871227 0.574152
O O14 0.000000 0.845241 0.750000
O O15 0.000000 0.498404 0.250000
O O16 0.000000 0.500000 0.000000
O O17 0.415343 0.826354 0.359789
#
# Coordination Sequence:
#
# PCOD9232872 Si02
#       8
#     4   2   4   4   4   4   2   4
#     4  12  26  45  69  97 137 189 229 277 354 429
#     4  10  22  36  70  98 130 174 232 300 340 392
#     4  10  21  38  64  98 133 173 227 285 345 399
#     4  11  21  40  64  98 135 180 231 285 343 414
#     4  11  26  44  71 101 138 176 237 297 345 405
#     4  11  20  35  66  98 131 175 228 286 342 399
#     4  10  26  42  68  96 144 188 224 278 354 426
#     4  11  24  45  67 100 134 181 235 283 350 416
#
# _framework density 20.615770999999999
#
# number of rings (size 3 to 8) (size 9 to 14) (size 15 to 20)
#    0.000    1.143    5.714    1.714    3.000    1.714 
#    0.000    0.714    1.571    0.000    0.000    0.000 
#    0.000    0.000    0.000    0.000    0.000    0.000 
#
# Total GULP energy -156171.213274 kJ/mol
# GULP energy per Si atom -5577.543331 kJ/mol
# Density = 2.056885 g / cm^3
# Si number density = 20.615771 Si / 1000 Ang^3
#
#
#
# Elastic Constant Matrix: (Units=GPa)
#
#
# Indices 1 2 3 4 5 6 
#
# 1 47.0656 27.7072 30.2171 0.0000 -3.8080 0.0000
# 2 27.7072 153.0315 13.4000 0.0000 9.9514 0.0000
# 3 30.2171 13.4000 87.6527 0.0000 7.5575 0.0000
# 4 0.0000 0.0000 0.0000 32.0744 0.0000 2.8228
# 5 -3.8080 9.9514 7.5575 0.0000 23.9840 0.0000
# 6 0.0000 0.0000 0.0000 2.8228 0.0000 26.1371
#
#
#
# Elastic Compliance Matrix: (Units=1/GPa)
#
#
# Indices 1 2 3 4 5 6 
#
# 1 0.032808 -0.005667 -0.011406 0.000000 0.011154 0.000000
# 2 -0.005667 0.007751 0.001155 0.000000 -0.004480 0.000000
# 3 -0.011406 0.001155 0.015790 0.000000 -0.007266 0.000000
# 4 0.000000 0.000000 0.000000 0.031477 0.000000 -0.003399
# 5 0.011154 -0.004480 -0.007266 0.000000 0.047614 0.000000
# 6 0.000000 0.000000 0.000000 -0.003399 0.000000 0.038627
#
#
# Mechanical properties :
#
#
# Convention : Reuss Voigt Hill
#
# Bulk Modulus (GPa) = 40.79227 47.82203 44.30715
# Shear Modulus (GPa) = 23.35655 30.86747 27.11201
#
# Velocity S-wave (km/s) = 3.36958 3.87366 3.63038
# Velocity P-wave (km/s) = 5.91343 6.57679 6.25391
#
# Compressibility (1/GPa) = 0.02451445
#
# Stress axis : x y z
#
# Youngs Moduli (GPa) = 30.48041 129.01954 63.32933
#
# Poissons Ratio (x) = 0.73111 0.72230
# Poissons Ratio (y) = 0.17272 -0.07314
# Poissons Ratio (z) = 0.34764 -0.14900
#
# Static dielectric constant tensor:
#      x y z
#    x 1.725590 0.000000 -0.033110 
#    y 0.000000 1.799170 0.000000 
#    z -0.033110 0.000000 1.648920 
# 
# From -- ./inp_files/13127.got.cif
#   From: 2010.05.17/outbox.cif.g08.bks.cpg/sg13_7_cif.got.tgz:13127.got - 2010.06.03 16:44:36.
