data_PCOD9232683
_publ_section_title
;
Structure prediction by ZEFSAII (Michael W. Deem and Ramdas Pophale) SiO2 
 PCOD9232683
Probable space group: P 2/C
;
_chemical_formula_sum "Si O2"
_cell_formula_units_Z 28
_cell_length_a 10.279819
_cell_length_b 27.447110
_cell_length_c 5.049719
_cell_angle_alpha 90.000000
_cell_angle_beta 116.174728
_cell_angle_gamma 90.000000
_cell_volume 1278.677510
_symmetry_space_group_name_H-M "P 2/C"
_symmetry_group_IT_number 13
_symmetry_cell_setting 'monoclinic'
loop_
_space_group_symop_operation_xyz
x,y,z
-x,y,1/2-z
-x,-y,-z
x,-y,1/2+z
loop_
_atom_site_type_symbol
_atom_site_label
_atom_site_fract_x
_atom_site_fract_y
_atom_site_fract_z
Si Si1 0.168162 0.031868 0.920205
Si Si2 0.934906 0.445991 0.946950
Si Si3 0.664287 0.411828 0.917727
Si Si4 0.330939 0.348384 0.078197
Si Si5 0.330108 0.790675 0.095985
Si Si6 0.597091 0.893717 0.095458
Si Si7 0.828450 0.251420 0.548509
O O1 0.280953 0.071323 0.915931
O O2 0.000000 0.048007 0.750000
O O3 0.188412 0.985995 0.738983
O O4 0.769544 0.450801 0.879252
O O5 0.000000 0.421208 0.750000
O O6 0.000000 0.416864 0.250000
O O7 0.000000 0.500000 0.000000
O O8 0.500000 0.428091 0.750000
O O9 0.687700 0.366237 0.739383
O O10 0.687828 0.393850 0.237444
O O11 0.500000 0.332210 0.250000
O O12 0.221226 0.306314 0.060710
O O13 0.500000 0.775733 0.250000
O O14 0.334099 0.846441 0.201824
O O15 0.247871 0.760347 0.243314
O O16 0.246076 0.782295 0.744742
O O17 0.500000 0.916131 0.250000
O O18 0.500000 0.879514 0.750000
O O19 0.000000 0.245680 0.750000
#
# Coordination Sequence:
#
# PCOD9232683 Si02
#       7
#     4   4   4   4   4   4   4
#     4  10  22  40  62  90 126 165 203 254 324 388
#     4  10  21  38  58  85 118 155 193 239 302 360
#     4  10  21  38  61  88 118 157 207 251 296 365
#     4  10  21  38  62  90 121 162 204 251 312 370
#     4  11  23  43  65  87 126 173 211 254 314 382
#     4  11  23  40  64  94 122 162 218 264 311 373
#     4  12  25  41  63  96 127 160 210 265 314 370
#
# _framework density 21.897624
#
# number of rings (size 3 to 8) (size 9 to 14) (size 15 to 20)
#    0.000    1.429    0.000    6.000    0.000    5.143 
#    0.000    8.571    0.000    0.000    0.000    0.000 
#    0.000    0.000    0.000    0.000    0.000    0.000 
#
# Total GULP energy -156274.605197 kJ/mol
# GULP energy per Si atom -5581.235900 kJ/mol
# Density = 2.184778 g / cm^3
# Si number density = 21.897624 Si / 1000 Ang^3
#
#
#
# Elastic Constant Matrix: (Units=GPa)
#
#
# Indices 1 2 3 4 5 6 
#
# 1 181.6783 41.9565 50.2556 0.0000 11.2371 0.0000
# 2 41.9565 41.0830 7.6717 0.0000 25.9302 0.0000
# 3 50.2556 7.6717 111.3352 0.0000 -5.3646 0.0000
# 4 0.0000 0.0000 0.0000 15.9094 0.0000 -2.1334
# 5 11.2371 25.9302 -5.3646 0.0000 46.5018 0.0000
# 6 0.0000 0.0000 0.0000 -2.1334 0.0000 105.6195
#
#
#
# Elastic Compliance Matrix: (Units=1/GPa)
#
#
# Indices 1 2 3 4 5 6 
#
# 1 0.008469 -0.010166 -0.002964 0.000000 0.003280 0.000000
# 2 -0.010166 0.051270 -0.000204 0.000000 -0.026156 0.000000
# 3 -0.002964 -0.000204 0.010432 0.000000 0.002034 0.000000
# 4 0.000000 0.000000 0.000000 0.063027 0.000000 0.001273
# 5 0.003280 -0.026156 0.002034 0.000000 0.035532 0.000000
# 6 0.000000 0.000000 0.000000 0.001273 0.000000 0.009494
#
#
# Mechanical properties :
#
#
# Convention : Reuss Voigt Hill
#
# Bulk Modulus (GPa) = 22.98742 59.31823 41.15283
# Shear Modulus (GPa) = 22.79016 49.22031 36.00524
#
# Velocity S-wave (km/s) = 3.22958 4.74618 4.05934
# Velocity P-wave (km/s) = 4.94241 7.56193 6.38788
#
# Compressibility (1/GPa) = 0.04350205
#
# Stress axis : x y z
#
# Youngs Moduli (GPa) = 118.07733 19.50455 95.85877
#
# Poissons Ratio (x) = 0.19828 0.28415
# Poissons Ratio (y) = 1.20036 0.01959
# Poissons Ratio (z) = 0.35002 0.00399
#
# Static dielectric constant tensor:
#      x y z
#    x 2.067240 0.000000 -0.041300 
#    y 0.000000 1.814900 0.000000 
#    z -0.041300 0.000000 1.951220 
# 
# From -- ./inp_files/2749.got.cif
#   From: 2010.05.17/outbox.cif.g08.bks.cpg/sg13_2_cif.got.tgz:2749.got - 2010.06.03 16:44:36.
