data_PCOD9232684
_publ_section_title
;
Structure prediction by ZEFSAII (Michael W. Deem and Ramdas Pophale) SiO2 
 PCOD9232684
Probable space group: P 2/C
;
_chemical_formula_sum "Si O2"
_cell_formula_units_Z 26
_cell_length_a 25.082646
_cell_length_b 6.023332
_cell_length_c 21.876263
_cell_angle_alpha 90.000000
_cell_angle_beta 160.216383
_cell_angle_gamma 90.000000
_cell_volume 1118.670080
_symmetry_space_group_name_H-M "P 2/C"
_symmetry_group_IT_number 13
_symmetry_cell_setting 'monoclinic'
loop_
_space_group_symop_operation_xyz
x,y,z
-x,y,1/2-z
-x,-y,-z
x,-y,1/2+z
loop_
_atom_site_type_symbol
_atom_site_label
_atom_site_fract_x
_atom_site_fract_y
_atom_site_fract_z
Si Si1 0.088931 0.787111 0.903808
Si Si2 0.635345 0.128675 0.302347
Si Si3 0.912030 0.040422 0.321102
Si Si4 0.500000 0.463241 0.250000
Si Si5 0.680955 0.506091 0.265517
Si Si6 0.135326 0.318243 0.641825
Si Si7 0.401321 0.251808 0.532483
O O1 0.000000 0.688825 0.750000
O O2 0.964718 0.932423 0.808487
O O3 0.228713 0.954030 0.036355
O O4 0.172196 0.604427 0.036499
O O5 0.612789 0.312726 0.329932
O O6 0.667133 0.251816 0.271966
O O7 0.475268 0.989140 0.125406
O O8 0.850315 0.803030 0.277684
O O9 0.066852 0.118579 0.525332
O O10 0.771343 0.215013 0.179787
O O11 0.595737 0.613482 0.401052
O O12 0.719936 0.573354 0.238312
O O13 0.524330 0.628078 0.120354
O O14 0.000000 0.500000 0.500000
#
# Coordination Sequence:
#
# PCOD9232684 Si02
#       7
#     4   4   4   2   4   4   4
#     4  10  22  37  59  88 124 155 197 248 304 360
#     4  10  21  38  58  85 118 165 195 244 302 361
#     4  10  23  39  63  89 118 160 199 248 306 354
#     4  10  22  36  60  82 126 158 200 242 294 364
#     4   9  21  40  58  86 120 159 203 254 297 357
#     4  10  21  42  63  85 120 158 206 255 299 356
#     4  10  22  39  60  88 124 158 202 249 302 360
#
# _framework density 23.241883999999999
#
# number of rings (size 3 to 8) (size 9 to 14) (size 15 to 20)
#    0.000    2.154    0.000    1.385    8.615    4.923 
#    2.769    1.538    0.000    0.000    0.000    0.000 
#    0.000    0.000    0.000    0.000    0.000    0.000 
#
# Total GULP energy -145348.159453 kJ/mol
# GULP energy per Si atom -5590.313825 kJ/mol
# Density = 2.318898 g / cm^3
# Si number density = 23.241884 Si / 1000 Ang^3
#
#
#
# Elastic Constant Matrix: (Units=GPa)
#
#
# Indices 1 2 3 4 5 6 
#
# 1 76.9295 4.8865 12.7437 0.0000 7.9689 0.0000
# 2 4.8865 64.4889 3.2127 0.0000 -7.5448 0.0000
# 3 12.7437 3.2127 70.9401 0.0000 0.9156 0.0000
# 4 0.0000 0.0000 0.0000 18.5009 0.0000 -4.2174
# 5 7.9689 -7.5448 0.9156 0.0000 22.7550 0.0000
# 6 0.0000 0.0000 0.0000 -4.2174 0.0000 32.1379
#
#
#
# Elastic Compliance Matrix: (Units=1/GPa)
#
#
# Indices 1 2 3 4 5 6 
#
# 1 0.014047 -0.001571 -0.002383 0.000000 -0.005344 0.000000
# 2 -0.001571 0.016354 -0.000536 0.000000 0.005994 0.000000
# 3 -0.002383 -0.000536 0.014548 0.000000 0.000072 0.000000
# 4 0.000000 0.000000 0.000000 0.055718 0.000000 0.007312
# 5 -0.005344 0.005994 0.000072 0.000000 0.047803 0.000000
# 6 0.000000 0.000000 0.000000 0.007312 0.000000 0.032075
#
#
# Mechanical properties :
#
#
# Convention : Reuss Voigt Hill
#
# Bulk Modulus (GPa) = 27.80209 28.22715 28.01462
# Shear Modulus (GPa) = 24.81214 27.44645 26.12930
#
# Velocity S-wave (km/s) = 3.27090 3.44016 3.35660
# Velocity P-wave (km/s) = 5.12378 5.28686 5.20596
#
# Compressibility (1/GPa) = 0.03596852
#
# Stress axis : x y z
#
# Youngs Moduli (GPa) = 71.18905 61.14885 68.73856
#
# Poissons Ratio (x) = 0.09606 0.16382
# Poissons Ratio (y) = 0.11183 0.03683
# Poissons Ratio (z) = 0.16966 0.03276
#
# Static dielectric constant tensor:
#      x y z
#    x 1.910710 0.000000 -0.017440 
#    y 0.000000 1.879090 0.000000 
#    z -0.017440 0.000000 1.879650 
# 
# From -- ./inp_files/89406.got.cif
#   From: 2010.05.17/outbox.cif.g08.bks.cpg/sg13_45_cif.got.tgz:89406.got - 2010.06.03 16:44:36.
