data_PCOD9232048
_publ_section_title
;
Structure prediction by ZEFSAII (Michael W. Deem and Ramdas Pophale) SiO2 
 PCOD9232048
Probable space group: P 2/C
;
_chemical_formula_sum "Si O2"
_cell_formula_units_Z 14
_cell_length_a 5.167595
_cell_length_b 7.850975
_cell_length_c 13.675999
_cell_angle_alpha 90.000000
_cell_angle_beta 67.697291
_cell_angle_gamma 90.000000
_cell_volume 513.337378
_symmetry_space_group_name_H-M "P 2/C"
_symmetry_group_IT_number 13
_symmetry_cell_setting 'monoclinic'
loop_
_space_group_symop_operation_xyz
x,y,z
-x,y,1/2-z
-x,-y,-z
x,-y,1/2+z
loop_
_atom_site_type_symbol
_atom_site_label
_atom_site_fract_x
_atom_site_fract_y
_atom_site_fract_z
Si Si1 0.235133 0.425617 0.091883
Si Si2 0.169196 0.279402 0.825790
Si Si3 0.026592 0.913427 0.865612
Si Si4 0.500000 0.316332 0.250000
O O1 0.317987 0.417315 0.195856
O O2 0.196876 0.227452 0.069673
O O3 0.500000 0.500000 0.000000
O O4 0.032767 0.451289 0.891214
O O5 0.500000 0.266942 0.750000
O O6 0.000000 0.269655 0.750000
O O7 0.065105 0.105907 0.894658
O O8 0.310415 0.809360 0.840684
O O9 0.000000 0.919596 0.750000
#
# Coordination Sequence:
#
# PCOD9232048 Si02
#       4
#     4   4   4   2
#     4  11  26  43  71 112 147 187 241 303 368 434
#     4  11  24  43  74 104 139 197 247 290 363 441
#     4   9  20  41  69  99 141 184 243 293 357 421
#     4  10  20  46  74  98 144 194 232 302 360 422
#
# _framework density 27.272511999999999
#
# number of rings (size 3 to 8) (size 9 to 14) (size 15 to 20)
#    0.000    1.714    1.429    2.571    8.000    2.286 
#    0.000    1.429    0.000    0.000    0.000    0.000 
#    0.000    0.000    0.000    0.000    0.000    0.000 
#
# Total GULP energy -78238.272855 kJ/mol
# GULP energy per Si atom -5588.448061 kJ/mol
# Density = 2.721044 g / cm^3
# Si number density = 27.272512 Si / 1000 Ang^3
#
#
#
# Elastic Constant Matrix: (Units=GPa)
#
#
# Indices 1 2 3 4 5 6 
#
# 1 181.2275 59.6693 41.6630 0.0000 -0.2998 0.0000
# 2 59.6693 233.5139 80.7395 0.0000 18.7474 0.0000
# 3 41.6630 80.7395 94.1975 0.0000 -5.2012 0.0000
# 4 0.0000 0.0000 0.0000 23.6303 0.0000 -18.2911
# 5 -0.2998 18.7474 -5.2012 0.0000 29.0358 0.0000
# 6 0.0000 0.0000 0.0000 -18.2911 0.0000 -23.5455
#
#
#
# Elastic Compliance Matrix: (Units=1/GPa)
#
#
# Indices 1 2 3 4 5 6 
#
# 1 0.006280 -0.000964 -0.001933 0.000000 0.000341 0.000000
# 2 -0.000964 0.007017 -0.005897 0.000000 -0.005597 0.000000
# 3 -0.001933 -0.005897 0.016902 0.000000 0.006815 0.000000
# 4 0.000000 0.000000 0.000000 0.026427 0.000000 -0.020530
# 5 0.000341 -0.005597 0.006815 0.000000 0.039278 0.000000
# 6 0.000000 0.000000 0.000000 -0.020530 0.000000 -0.026523
#
#
# Mechanical properties :
#
#
# Convention : Reuss Voigt Hill
#
# Bulk Modulus (GPa) = 79.29323 97.00919 88.15121
# Shear Modulus (GPa) = 54.84029 27.61525 41.22777
#
# Velocity S-wave (km/s) = 4.48909 3.18554 3.89227
# Velocity P-wave (km/s) = 7.48377 7.01268 7.25205
#
# Compressibility (1/GPa) = 0.01261142
#
# Stress axis : x y z
#
# Youngs Moduli (GPa) = 159.23154 142.50917 59.16512
#
# Poissons Ratio (x) = 0.13736 0.11435
# Poissons Ratio (y) = 0.15348 0.34891
# Poissons Ratio (z) = 0.30774 0.84042
#
# Static dielectric constant tensor:
#      x y z
#    x 2.170520 0.000000 0.071080 
#    y 0.000000 2.244300 0.000000 
#    z 0.071080 0.000000 2.439380 
# 
# From -- ./inp_files/25258.got.cif
#   From: 2010.05.17/outbox.cif.g08.bks.cpg/sg13_13_cif.got.tgz:25258.got - 2010.06.03 16:44:36.
