data_PCOD9232709
_publ_section_title
;
Structure prediction by ZEFSAII (Michael W. Deem and Ramdas Pophale) SiO2 
 PCOD9232709
Probable space group: P 2/C
;
_chemical_formula_sum "Si O2"
_cell_formula_units_Z 20
_cell_length_a 15.779826
_cell_length_b 5.081914
_cell_length_c 24.522195
_cell_angle_alpha 90.000000
_cell_angle_beta 155.709660
_cell_angle_gamma 90.000000
_cell_volume 808.931323
_symmetry_space_group_name_H-M "P 2/C"
_symmetry_group_IT_number 13
_symmetry_cell_setting 'monoclinic'
loop_
_space_group_symop_operation_xyz
x,y,z
-x,y,1/2-z
-x,-y,-z
x,-y,1/2+z
loop_
_atom_site_type_symbol
_atom_site_label
_atom_site_fract_x
_atom_site_fract_y
_atom_site_fract_z
Si Si1 0.176423 0.397189 0.033923
Si Si2 0.379232 0.099957 0.621127
Si Si3 0.663925 0.792524 0.650180
Si Si4 0.280705 0.550075 0.214376
Si Si5 0.786837 0.274989 0.657592
O O1 0.198112 0.685465 0.020986
O O2 0.286649 0.424133 0.157446
O O3 0.283372 0.185036 0.058084
O O4 0.943728 0.323459 0.910947
O O5 0.500000 0.091041 0.750000
O O6 0.541022 0.233559 0.675507
O O7 0.701426 0.677918 0.731519
O O8 0.750322 0.567333 0.659568
O O9 0.416868 0.802720 0.496353
O O10 0.772982 0.064618 0.698675
O O11 0.000000 0.256673 0.750000
#
# Coordination Sequence:
#
# PCOD9232709 Si02
#       5
#     4   4   4   4   4
#     4  10  23  39  60  91 131 177 216 261 319 375
#     4  10  21  38  59  86 128 176 217 261 316 372
#     4  10  23  41  67  97 123 165 215 262 329 393
#     4  10  23  42  65  93 132 170 221 273 315 388
#     4  10  22  44  67  93 129 161 205 273 335 393
#
# _framework density 24.723980999999998
#
# number of rings (size 3 to 8) (size 9 to 14) (size 15 to 20)
#    0.000    2.000    0.000    2.400    0.000   16.800 
#    0.000   10.000    0.000    0.000    0.000    0.000 
#    0.000    0.000    0.000    0.000    0.000    0.000 
#
# Total GULP energy -112059.235971 kJ/mol
# GULP energy per Si atom -5602.961799 kJ/mol
# Density = 2.466771 g / cm^3
# Si number density = 24.723981 Si / 1000 Ang^3
#
#
#
# Elastic Constant Matrix: (Units=GPa)
#
#
# Indices 1 2 3 4 5 6 
#
# 1 87.4904 21.1858 59.6590 0.0000 26.9033 0.0000
# 2 21.1858 106.4653 33.4364 0.0000 17.3258 0.0000
# 3 59.6590 33.4364 88.0184 0.0000 40.2951 0.0000
# 4 0.0000 0.0000 0.0000 17.7298 0.0000 -1.2270
# 5 26.9033 17.3258 40.2951 0.0000 51.0183 0.0000
# 6 0.0000 0.0000 0.0000 -1.2270 0.0000 32.7395
#
#
#
# Elastic Compliance Matrix: (Units=1/GPa)
#
#
# Indices 1 2 3 4 5 6 
#
# 1 0.021265 0.000330 -0.014651 0.000000 0.000246 0.000000
# 2 0.000330 0.010684 -0.003981 0.000000 -0.000658 0.000000
# 3 -0.014651 -0.003981 0.029210 0.000000 -0.013993 0.000000
# 4 0.000000 0.000000 0.000000 0.056549 0.000000 0.002119
# 5 0.000246 -0.000658 -0.013993 0.000000 0.030746 0.000000
# 6 0.000000 0.000000 0.000000 0.002119 0.000000 0.030624
#
#
# Mechanical properties :
#
#
# Convention : Reuss Voigt Hill
#
# Bulk Modulus (GPa) = 40.72647 56.72625 48.72636
# Shear Modulus (GPa) = 22.33456 31.47705 26.90581
#
# Velocity S-wave (km/s) = 3.00885 3.57198 3.30244
# Velocity P-wave (km/s) = 5.34594 6.32500 5.85597
#
# Compressibility (1/GPa) = 0.02455406
#
# Stress axis : x y z
#
# Youngs Moduli (GPa) = 47.02575 93.59359 34.23453
#
# Poissons Ratio (x) = -0.03086 0.50159
# Poissons Ratio (y) = -0.01551 0.13629
# Poissons Ratio (z) = 0.68900 0.37261
#
# Static dielectric constant tensor:
#      x y z
#    x 1.980610 0.000000 -0.012500 
#    y 0.000000 1.940000 0.000000 
#    z -0.012500 0.000000 1.975600 
# 
# From -- ./inp_files/97090.got.cif
#   From: 2010.05.17/outbox.cif.g08.bks.cpg/sg13_49_cif.got.tgz:97090.got - 2010.06.03 16:44:36.
