data_PCOD9232491
_publ_section_title
;
Structure prediction by ZEFSAII (Michael W. Deem and Ramdas Pophale) SiO2 
 PCOD9232491
Probable space group: P 2/C
;
_chemical_formula_sum "Si O2"
_cell_formula_units_Z 24
_cell_length_a 5.435731
_cell_length_b 11.721263
_cell_length_c 22.841419
_cell_angle_alpha 90.000000
_cell_angle_beta 128.094264
_cell_angle_gamma 90.000000
_cell_volume 1145.324126
_symmetry_space_group_name_H-M "P 2/C"
_symmetry_group_IT_number 13
_symmetry_cell_setting 'monoclinic'
loop_
_space_group_symop_operation_xyz
x,y,z
-x,y,1/2-z
-x,-y,-z
x,-y,1/2+z
loop_
_atom_site_type_symbol
_atom_site_label
_atom_site_fract_x
_atom_site_fract_y
_atom_site_fract_z
Si Si1 0.610921 0.860908 0.332396
Si Si2 0.667230 0.819414 0.037660
Si Si3 0.636737 0.977679 0.934591
Si Si4 0.402307 0.438359 0.080477
Si Si5 0.363080 0.375371 0.796421
Si Si6 0.201019 0.381117 0.459433
O O1 0.500000 0.876200 0.250000
O O2 0.580950 0.982452 0.360300
O O3 0.403429 0.755005 0.324431
O O4 0.963705 0.812898 0.395174
O O5 0.555630 0.926661 0.058966
O O6 0.456503 0.709741 0.019346
O O7 0.586043 0.857432 0.958755
O O8 0.000000 0.000000 0.000000
O O9 0.457916 0.535138 0.136752
O O10 0.723786 0.393638 0.098482
O O11 0.151068 0.352372 0.072125
O O12 0.253042 0.499099 0.000997
O O13 0.500000 0.379743 0.750000
O O14 0.000000 0.403638 0.750000
#
# Coordination Sequence:
#
# PCOD9232491 Si02
#       6
#     4   4   4   4   4   4
#     4  10  23  34  58  91 124 162 192 251 318 378
#     4  10  21  37  59  89 120 159 204 255 307 362
#     4   9  20  37  58  84 121 156 201 253 309 360
#     4  10  22  37  55  90 118 161 200 248 299 355
#     4  11  24  38  60  89 126 163 196 246 309 378
#     4  10  22  34  61  85 123 154 200 256 295 352
#
# _framework density 20.954768000000001
#
# number of rings (size 3 to 8) (size 9 to 14) (size 15 to 20)
#    0.000    2.000    0.000    2.000   21.000    0.000 
#    0.000    0.000    0.000    1.000   21.667    0.000 
#    0.000    0.000    0.000    0.000    0.000    0.000 
#
# Total GULP energy -133681.875726 kJ/mol
# GULP energy per Si atom -5570.078155 kJ/mol
# Density = 2.090707 g / cm^3
# Si number density = 20.954768 Si / 1000 Ang^3
#
#
#
# Elastic Constant Matrix: (Units=GPa)
#
#
# Indices 1 2 3 4 5 6 
#
# 1 130.2089 27.8313 32.7867 0.0000 -6.9092 0.0000
# 2 27.8313 42.8553 35.2371 0.0000 -2.9333 0.0000
# 3 32.7867 35.2371 97.7934 0.0000 -15.7039 0.0000
# 4 0.0000 0.0000 0.0000 33.1778 0.0000 1.2566
# 5 -6.9092 -2.9333 -15.7039 0.0000 31.1389 0.0000
# 6 0.0000 0.0000 0.0000 1.2566 0.0000 31.5246
#
#
#
# Elastic Compliance Matrix: (Units=1/GPa)
#
#
# Indices 1 2 3 4 5 6 
#
# 1 0.009060 -0.004901 -0.001113 0.000000 0.000987 0.000000
# 2 -0.004901 0.036097 -0.011961 0.000000 -0.003719 0.000000
# 3 -0.001113 -0.011961 0.015982 0.000000 0.006686 0.000000
# 4 0.000000 0.000000 0.000000 0.030186 0.000000 -0.001203
# 5 0.000987 -0.003719 0.006686 0.000000 0.035355 0.000000
# 6 0.000000 0.000000 0.000000 -0.001203 0.000000 0.031769
#
#
# Mechanical properties :
#
#
# Convention : Reuss Voigt Hill
#
# Bulk Modulus (GPa) = 39.69842 51.39643 45.54743
# Shear Modulus (GPa) = 24.65529 30.83510 27.74520
#
# Velocity S-wave (km/s) = 3.43388 3.84019 3.64270
# Velocity P-wave (km/s) = 5.89134 6.65156 6.28296
#
# Compressibility (1/GPa) = 0.02518992
#
# Stress axis : x y z
#
# Youngs Moduli (GPa) = 110.37269 27.70301 62.56964
#
# Poissons Ratio (x) = 0.13578 0.06964
# Poissons Ratio (y) = 0.54096 0.74837
# Poissons Ratio (z) = 0.12285 0.33134
#
# Static dielectric constant tensor:
#      x y z
#    x 1.895970 0.000000 -0.042660 
#    y 0.000000 1.773030 0.000000 
#    z -0.042660 0.000000 1.741370 
# 
# From -- ./inp_files/83623.got.cif
#   From: 2010.05.17/outbox.cif.g08.bks.cpg/sg13_42_cif.got.tgz:83623.got - 2010.06.03 16:44:36.
