data_PCOD9232109
_publ_section_title
;
Structure prediction by ZEFSAII (Michael W. Deem and Ramdas Pophale) SiO2 
 PCOD9232109
Probable space group: P 2/C
;
_chemical_formula_sum "Si O2"
_cell_formula_units_Z 28
_cell_length_a 33.733390
_cell_length_b 7.084517
_cell_length_c 33.304068
_cell_angle_alpha 90.000000
_cell_angle_beta 170.849160
_cell_angle_gamma 90.000000
_cell_volume 1265.779169
_symmetry_space_group_name_H-M "P 2/C"
_symmetry_group_IT_number 13
_symmetry_cell_setting 'monoclinic'
loop_
_space_group_symop_operation_xyz
x,y,z
-x,y,1/2-z
-x,-y,-z
x,-y,1/2+z
loop_
_atom_site_type_symbol
_atom_site_label
_atom_site_fract_x
_atom_site_fract_y
_atom_site_fract_z
Si Si1 0.750000 0.025522 0.524984
Si Si2 0.749999 0.675153 0.847480
Si Si3 0.249998 0.275461 0.415063
Si Si4 0.750001 0.719987 0.104488
Si Si5 0.250000 0.818242 0.220260
Si Si6 0.749998 0.769332 0.368187
Si Si7 0.750000 0.237250 0.253684
O O1 0.750000 0.150098 0.565328
O O2 0.000000 0.063236 0.750000
O O3 0.750000 0.808771 0.540404
O O4 0.500000 0.063236 0.250000
O O5 0.498359 0.748686 0.617226
O O6 0.749999 0.450220 0.855175
O O7 0.750000 0.707900 0.800008
O O8 0.001639 0.748686 0.120507
O O9 0.249999 0.501500 0.410588
O O10 0.499693 0.201380 0.643012
O O11 0.000302 0.201380 0.143622
O O12 0.250000 0.877328 0.173909
O O13 0.499709 0.705880 0.480488
O O14 0.250000 0.007056 0.247192
O O15 0.000291 0.705880 0.981069
#
# Coordination Sequence:
#
# PCOD9232109 Si02
#       7
#     4   4   4   4   4   4   4
#     4  12  26  42  66  96 118 154 194 230 302 366
#     4  10  21  38  60  85 116 159 202 241 293 344
#     4  10  23  41  62  91 121 154 197 243 290 350
#     4  10  23  41  62  91 121 154 197 243 290 350
#     4  10  21  34  51  82 118 155 198 246 295 336
#     4  10  21  38  60  85 116 159 202 241 293 344
#     4  10  21  34  51  82 118 155 198 246 295 336
#
# _framework density 22.120764000000001
#
# number of rings (size 3 to 8) (size 9 to 14) (size 15 to 20)
#    0.000    1.714    0.000    3.429    4.000    2.286 
#    0.000    0.000    0.000    0.000    0.000    0.000 
#    0.000    0.000    0.000    0.000    0.000    0.000 
#
# Total GULP energy -156656.759008 kJ/mol
# GULP energy per Si atom -5594.884250 kJ/mol
# Density = 2.207042 g / cm^3
# Si number density = 22.120764 Si / 1000 Ang^3
#
#
#
# Elastic Constant Matrix: (Units=GPa)
#
#
# Indices 1 2 3 4 5 6 
#
# 1 113.5844 9.2667 85.3420 0.0000 8.7362 0.0000
# 2 9.2667 59.2847 18.0944 0.0000 1.1663 0.0000
# 3 85.3420 18.0944 243.3702 0.0000 8.4123 0.0000
# 4 0.0000 0.0000 0.0000 -49.7171 0.0000 -11.7534
# 5 8.7362 1.1663 8.4123 0.0000 47.1375 0.0000
# 6 0.0000 0.0000 0.0000 -11.7534 0.0000 39.2296
#
#
#
# Elastic Compliance Matrix: (Units=1/GPa)
#
#
# Indices 1 2 3 4 5 6 
#
# 1 0.012077 -0.000595 -0.004139 0.000000 -0.001485 0.000000
# 2 -0.000595 0.017291 -0.001072 0.000000 -0.000126 0.000000
# 3 -0.004139 -0.001072 0.005648 0.000000 -0.000214 0.000000
# 4 0.000000 0.000000 0.000000 -0.018783 0.000000 -0.005628
# 5 -0.001485 -0.000126 -0.000214 0.000000 0.021531 0.000000
# 6 0.000000 0.000000 0.000000 -0.005628 0.000000 0.023805
#
#
# Mechanical properties :
#
#
# Convention : Reuss Voigt Hill
#
# Bulk Modulus (GPa) = 42.73297 71.29396 57.01347
# Shear Modulus (GPa) = 61.74199 27.56577 44.65388
#
# Velocity S-wave (km/s) = 5.28885 3.53391 4.49780
# Velocity P-wave (km/s) = 7.52701 6.99648 7.26659
#
# Compressibility (1/GPa) = 0.02340113
#
# Stress axis : x y z
#
# Youngs Moduli (GPa) = 82.80239 57.83492 177.06417
#
# Poissons Ratio (x) = 0.03442 0.73294
# Poissons Ratio (y) = 0.04928 0.18990
# Poissons Ratio (z) = 0.34275 0.06203
#
# Static dielectric constant tensor:
#      x y z
#    x 1.740610 0.000000 0.000990 
#    y 0.000000 1.863490 0.000000 
#    z 0.000990 0.000000 1.748140 
# 
# From -- ./inp_files/98083.got.cif
#   From: 2010.05.17/outbox.cif.g08.bks.cpg/sg13_50_cif.got.tgz:98083.got - 2010.06.03 16:44:36.
