data_PCOD9232179
_publ_section_title
;
Structure prediction by ZEFSAII (Michael W. Deem and Ramdas Pophale) SiO2 
 PCOD9232179
Probable space group: P 2/C
;
_chemical_formula_sum "Si O2"
_cell_formula_units_Z 18
_cell_length_a 7.580164
_cell_length_b 11.597721
_cell_length_c 8.927936
_cell_angle_alpha 90.000000
_cell_angle_beta 89.929434
_cell_angle_gamma 90.000000
_cell_volume 784.877714
_symmetry_space_group_name_H-M "P 2/C"
_symmetry_group_IT_number 13
_symmetry_cell_setting 'monoclinic'
loop_
_space_group_symop_operation_xyz
x,y,z
-x,y,1/2-z
-x,-y,-z
x,-y,1/2+z
loop_
_atom_site_type_symbol
_atom_site_label
_atom_site_fract_x
_atom_site_fract_y
_atom_site_fract_z
Si Si1 0.740222 0.966030 0.748303
Si Si2 0.500000 0.458849 0.250000
Si Si3 0.675070 0.162636 0.531845
Si Si4 0.624652 0.346214 0.959759
Si Si5 0.908441 0.155312 0.967400
O O1 0.638369 0.056060 0.642180
O O2 0.852457 0.050617 0.857921
O O3 0.850219 0.888202 0.631732
O O4 0.643362 0.881316 0.863410
O O5 0.386303 0.384892 0.366909
O O6 0.383097 0.542060 0.144972
O O7 0.551245 0.269666 0.567403
O O8 0.885221 0.183007 0.543226
O O9 0.789723 0.264861 0.928616
#
# Coordination Sequence:
#
# PCOD9232179 Si02
#       5
#     4   2   4   4   4
#     4  10  21  35  56  89 129 150 177 223 268 335
#     4  10  24  46  58  80 112 140 192 266 290 304
#     4  11  21  37  58  87 119 153 183 221 276 341
#     4  11  24  41  62  80 110 149 194 241 288 330
#     4  11  21  37  58  87 119 153 183 221 276 341
#
# _framework density 22.933509000000001
#
# number of rings (size 3 to 8) (size 9 to 14) (size 15 to 20)
#    0.000    1.333    0.000    8.000    0.000    5.333 
#    0.000    6.667    0.000    0.000    0.000    0.000 
#    0.000    0.000    0.000    0.000    0.000    0.000 
#
# Total GULP energy -100839.945843 kJ/mol
# GULP energy per Si atom -5602.219213 kJ/mol
# Density = 2.288131 g / cm^3
# Si number density = 22.933509 Si / 1000 Ang^3
#
#
#
# Elastic Constant Matrix: (Units=GPa)
#
#
# Indices 1 2 3 4 5 6 
#
# 1 108.9569 36.4383 13.6741 0.0000 -5.3069 0.0000
# 2 36.4383 64.7176 -8.5846 0.0000 -2.7332 0.0000
# 3 13.6741 -8.5846 110.5371 0.0000 -4.0356 0.0000
# 4 0.0000 0.0000 0.0000 43.8931 0.0000 4.3411
# 5 -5.3069 -2.7332 -4.0356 0.0000 29.1121 0.0000
# 6 0.0000 0.0000 0.0000 4.3411 0.0000 23.2984
#
#
#
# Elastic Compliance Matrix: (Units=1/GPa)
#
#
# Indices 1 2 3 4 5 6 
#
# 1 0.011766 -0.006830 -0.001941 0.000000 0.001235 0.000000
# 2 -0.006830 0.019656 0.002405 0.000000 0.000934 0.000000
# 3 -0.001941 0.002405 0.009517 0.000000 0.001191 0.000000
# 4 0.000000 0.000000 0.000000 0.023210 0.000000 -0.004325
# 5 0.001235 0.000934 0.001191 0.000000 0.034828 0.000000
# 6 0.000000 0.000000 0.000000 -0.004325 0.000000 0.043727
#
#
# Mechanical properties :
#
#
# Convention : Reuss Voigt Hill
#
# Bulk Modulus (GPa) = 35.45068 40.80747 38.12907
# Shear Modulus (GPa) = 30.33298 35.43964 32.88631
#
# Velocity S-wave (km/s) = 3.64077 3.93532 3.79091
# Velocity P-wave (km/s) = 5.75892 6.20334 5.98526
#
# Compressibility (1/GPa) = 0.02820821
#
# Stress axis : x y z
#
# Youngs Moduli (GPa) = 84.99256 50.87588 105.07358
#
# Poissons Ratio (x) = 0.34747 0.20393
# Poissons Ratio (y) = 0.58048 -0.25275
# Poissons Ratio (z) = 0.16496 -0.12238
#
# Static dielectric constant tensor:
#      x y z
#    x 1.918960 0.000000 0.032980 
#    y 0.000000 1.799710 0.000000 
#    z 0.032980 0.000000 1.911410 
# 
# From -- ./inp_files/11764.got.cif
#   From: 2010.05.17/outbox.cif.g08.bks.cpg/sg13_6_cif.got.tgz:11764.got - 2010.06.03 16:44:36.
