data_PCOD9232313
_publ_section_title
;
Structure prediction by ZEFSAII (Michael W. Deem and Ramdas Pophale) SiO2 
 PCOD9232313
Probable space group: P 2/C
;
_chemical_formula_sum "Si O2"
_cell_formula_units_Z 26
_cell_length_a 16.764770
_cell_length_b 6.526399
_cell_length_c 14.089491
_cell_angle_alpha 90.000000
_cell_angle_beta 112.220897
_cell_angle_gamma 90.000000
_cell_volume 1427.092545
_symmetry_space_group_name_H-M "P 2/C"
_symmetry_group_IT_number 13
_symmetry_cell_setting 'monoclinic'
loop_
_space_group_symop_operation_xyz
x,y,z
-x,y,1/2-z
-x,-y,-z
x,-y,1/2+z
loop_
_atom_site_type_symbol
_atom_site_label
_atom_site_fract_x
_atom_site_fract_y
_atom_site_fract_z
Si Si1 0.500021 0.518038 0.613110
Si Si2 0.500000 0.142741 0.750000
Si Si3 0.378861 0.762034 0.695236
Si Si4 0.074871 0.969340 0.893440
Si Si5 0.186711 0.907317 0.614166
Si Si6 0.095681 0.818938 0.200939
Si Si7 0.037256 0.600336 0.612998
O O1 0.500000 0.500000 0.500000
O O2 0.500906 0.293372 0.660486
O O3 0.418083 0.638368 0.622525
O O4 0.580942 0.641985 0.695754
O O5 0.419837 0.988596 0.712465
O O6 0.277509 0.794828 0.650920
O O7 0.096113 0.065101 0.801152
O O8 0.990676 0.096083 0.890028
O O9 0.153369 0.010083 0.998362
O O10 0.039248 0.737654 0.876453
O O11 0.116277 0.747306 0.621416
O O12 0.177884 0.104633 0.679303
O O13 0.077195 0.578903 0.195992
O O14 0.000000 0.500000 0.500000
#
# Coordination Sequence:
#
# PCOD9232313 Si02
#       7
#     4   2   4   4   4   4   4
#     4   9  19  41  64  87 115 154 197 224 289 381
#     4   8  18  40  62  78 116 152 178 234 292 356
#     4   9  21  37  59  91 118 148 190 244 302 344
#     4  10  21  37  57  84 115 157 211 248 290 359
#     4  11  21  39  54  89 125 145 200 260 297 353
#     4  10  21  36  58  83 114 161 207 245 294 360
#     4  11  19  39  62  76 115 173 200 243 305 346
#
# _framework density 18.218862000000001
#
# number of rings (size 3 to 8) (size 9 to 14) (size 15 to 20)
#    0.000    2.462    3.077    0.923    0.000    9.846 
#    8.308    0.000    0.000    0.000    0.000    0.000 
#    0.000    0.000    0.000    0.000    0.000    0.000 
#
# Total GULP energy -144860.818371 kJ/mol
# GULP energy per Si atom -5571.569937 kJ/mol
# Density = 1.817739 g / cm^3
# Si number density = 18.218862 Si / 1000 Ang^3
#
#
#
# Elastic Constant Matrix: (Units=GPa)
#
#
# Indices 1 2 3 4 5 6 
#
# 1 99.8408 39.8486 68.6613 0.0000 10.0841 0.0000
# 2 39.8486 138.5427 64.0613 0.0000 -11.5620 0.0000
# 3 68.6613 64.0613 128.3764 0.0000 -23.4041 0.0000
# 4 0.0000 0.0000 0.0000 20.0510 0.0000 -2.0008
# 5 10.0841 -11.5620 -23.4041 0.0000 30.3590 0.0000
# 6 0.0000 0.0000 0.0000 -2.0008 0.0000 14.6248
#
#
#
# Elastic Compliance Matrix: (Units=1/GPa)
#
#
# Indices 1 2 3 4 5 6 
#
# 1 0.023117 -0.001190 -0.015420 0.000000 -0.020020 0.000000
# 2 -0.001190 0.009444 -0.003896 0.000000 0.000988 0.000000
# 3 -0.015420 -0.003896 0.021694 0.000000 0.020362 0.000000
# 4 0.000000 0.000000 0.000000 0.050563 0.000000 0.006918
# 5 -0.020020 0.000988 0.020362 0.000000 0.055662 0.000000
# 6 0.000000 0.000000 0.000000 0.006918 0.000000 0.069323
#
#
# Mechanical properties :
#
#
# Convention : Reuss Voigt Hill
#
# Bulk Modulus (GPa) = 75.51381 79.10028 77.30705
# Shear Modulus (GPa) = 18.16656 25.95288 22.05972
#
# Velocity S-wave (km/s) = 3.16116 3.77836 3.48346
# Velocity P-wave (km/s) = 7.40689 7.90858 7.66184
#
# Compressibility (1/GPa) = 0.01324261
#
# Stress axis : x y z
#
# Youngs Moduli (GPa) = 43.25739 105.88398 46.09671
#
# Poissons Ratio (x) = 0.12597 0.71082
# Poissons Ratio (y) = 0.05146 0.17961
# Poissons Ratio (z) = 0.66704 0.41256
#
# Static dielectric constant tensor:
#      x y z
#    x 1.641530 0.000000 -0.019550 
#    y 0.000000 1.674600 0.000000 
#    z -0.019550 0.000000 1.664620 
# 
# From -- ./inp_files/54514.got.cif
#   From: 2010.05.17/outbox.cif.g08.bks.cpg/sg13_28_cif.got.tgz:54514.got - 2010.06.03 16:44:36.
