data_PCOD9232994
_publ_section_title
;
Structure prediction by ZEFSAII (Michael W. Deem and Ramdas Pophale) SiO2 
 PCOD9232994
Probable space group: P 2/C
;
_chemical_formula_sum "Si O2"
_cell_formula_units_Z 28
_cell_length_a 16.234398
_cell_length_b 5.304123
_cell_length_c 14.743617
_cell_angle_alpha 90.000000
_cell_angle_beta 96.165586
_cell_angle_gamma 90.000000
_cell_volume 1262.218126
_symmetry_space_group_name_H-M "P 2/C"
_symmetry_group_IT_number 13
_symmetry_cell_setting 'monoclinic'
loop_
_space_group_symop_operation_xyz
x,y,z
-x,y,1/2-z
-x,-y,-z
x,-y,1/2+z
loop_
_atom_site_type_symbol
_atom_site_label
_atom_site_fract_x
_atom_site_fract_y
_atom_site_fract_z
Si Si1 0.560726 0.436219 0.140773
Si Si2 0.640200 0.045557 0.723439
Si Si3 0.920620 0.197510 0.920516
Si Si4 0.906648 0.696451 0.037303
Si Si5 0.378660 0.421540 0.041867
Si Si6 0.738596 0.064474 0.562170
Si Si7 0.746120 0.752759 0.389401
O O1 0.591552 0.697456 0.189737
O O2 0.463956 0.432138 0.105528
O O3 0.584249 0.198179 0.204017
O O4 0.605561 0.410256 0.047165
O O5 0.715538 0.004561 0.661549
O O6 0.681658 0.081681 0.825418
O O7 0.836428 0.250345 0.854910
O O8 0.012477 0.243309 0.891937
O O9 0.915088 0.417153 0.997252
O O10 0.915477 0.912386 0.959276
O O11 0.816180 0.743005 0.068688
O O12 0.303328 0.497788 0.098283
O O13 0.347144 0.169435 0.990626
O O14 0.762066 0.853522 0.492682
#
# Coordination Sequence:
#
# PCOD9232994 Si02
#       7
#     4   4   4   4   4   4   4
#     4  10  24  42  59  85 119 152 204 250 303 351
#     4  11  25  40  59  89 120 157 199 256 292 364
#     4   9  18  32  55  87 114 148 196 236 290 353
#     4   9  17  32  57  84 114 151 191 239 289 355
#     4  10  21  39  64  82 115 160 199 248 304 360
#     4  10  21  39  62  84 121 155 202 238 313 347
#     4  11  22  38  61  89 119 160 201 246 303 365
#
# _framework density 22.183171999999999
#
# number of rings (size 3 to 8) (size 9 to 14) (size 15 to 20)
#    0.000    2.000    2.857    0.000    4.000    2.286 
#    0.000    0.714    0.000    0.000    0.000    8.000 
#    0.000    0.000    0.000    0.000    0.000    0.000 
#
# Total GULP energy -156052.569700 kJ/mol
# GULP energy per Si atom -5573.306061 kJ/mol
# Density = 2.213268 g / cm^3
# Si number density = 22.183172 Si / 1000 Ang^3
#
#
#
# Elastic Constant Matrix: (Units=GPa)
#
#
# Indices 1 2 3 4 5 6 
#
# 1 108.0937 17.5564 23.5117 0.0000 28.2019 0.0000
# 2 17.5564 107.6341 19.1921 0.0000 8.6875 0.0000
# 3 23.5117 19.1921 53.7492 0.0000 2.1753 0.0000
# 4 0.0000 0.0000 0.0000 19.8781 0.0000 11.7984
# 5 28.2019 8.6875 2.1753 0.0000 31.8514 0.0000
# 6 0.0000 0.0000 0.0000 11.7984 0.0000 18.5761
#
#
#
# Elastic Compliance Matrix: (Units=1/GPa)
#
#
# Indices 1 2 3 4 5 6 
#
# 1 0.013446 -0.000323 -0.005303 0.000000 -0.011455 0.000000
# 2 -0.000323 0.010128 -0.003384 0.000000 -0.002245 0.000000
# 3 -0.005303 -0.003384 0.021966 0.000000 0.004118 0.000000
# 4 0.000000 0.000000 0.000000 0.080746 0.000000 -0.051285
# 5 -0.011455 -0.002245 0.004118 0.000000 0.041869 0.000000
# 6 0.000000 0.000000 0.000000 -0.051285 0.000000 0.086405
#
#
# Mechanical properties :
#
#
# Convention : Reuss Voigt Hill
#
# Bulk Modulus (GPa) = 36.33709 43.33306 39.83508
# Shear Modulus (GPa) = 17.74601 28.00891 22.87746
#
# Velocity S-wave (km/s) = 2.83145 3.55719 3.21487
# Velocity P-wave (km/s) = 5.20630 6.03723 5.63709
#
# Compressibility (1/GPa) = 0.02752009
#
# Stress axis : x y z
#
# Youngs Moduli (GPa) = 74.37335 98.73522 45.52447
#
# Poissons Ratio (x) = 0.03190 0.24140
# Poissons Ratio (y) = 0.02403 0.15406
# Poissons Ratio (z) = 0.39437 0.33414
#
# Static dielectric constant tensor:
#      x y z
#    x 1.950650 0.000000 -0.010090 
#    y 0.000000 1.846150 0.000000 
#    z -0.010090 0.000000 1.809260 
# 
# From -- ./inp_files/54480.got.cif
#   From: 2010.05.17/outbox.cif.g08.bks.cpg/sg13_28_cif.got.tgz:54480.got - 2010.06.03 16:44:36.
