data_PCOD9232606
_publ_section_title
;
Structure prediction by ZEFSAII (Michael W. Deem and Ramdas Pophale) SiO2 
 PCOD9232606
Probable space group: P 2/C
;
_chemical_formula_sum "Si O2"
_cell_formula_units_Z 24
_cell_length_a 14.714996
_cell_length_b 11.525236
_cell_length_c 20.284248
_cell_angle_alpha 90.000000
_cell_angle_beta 161.516143
_cell_angle_gamma 90.000000
_cell_volume 1090.635074
_symmetry_space_group_name_H-M "P 2/C"
_symmetry_group_IT_number 13
_symmetry_cell_setting 'monoclinic'
loop_
_space_group_symop_operation_xyz
x,y,z
-x,y,1/2-z
-x,-y,-z
x,-y,1/2+z
loop_
_atom_site_type_symbol
_atom_site_label
_atom_site_fract_x
_atom_site_fract_y
_atom_site_fract_z
Si Si1 0.664113 0.418545 0.208131
Si Si2 0.890743 0.333969 0.871979
Si Si3 0.702855 0.929616 0.777741
Si Si4 0.343635 0.291514 0.082664
Si Si5 0.587438 0.165105 0.926461
Si Si6 0.842862 0.783618 0.745420
O O1 0.699158 0.554477 0.222518
O O2 0.367199 0.369966 0.034122
O O3 0.746789 0.343211 0.202193
O O4 0.891459 0.378629 0.421469
O O5 0.705703 0.235358 0.779183
O O6 0.034816 0.280130 0.904631
O O7 0.544663 0.822795 0.708598
O O8 0.752617 0.873592 0.740240
O O9 0.467869 0.029892 0.619456
O O10 0.000000 0.000000 0.000000
O O11 0.500000 0.359852 0.250000
O O12 0.702177 0.185519 0.079169
O O13 0.818348 0.209640 0.033431
#
# Coordination Sequence:
#
# PCOD9232606 Si02
#       6
#     4   4   4   4   4   4
#     4   9  20  39  62  89 123 156 202 256 301 355
#     4  10  21  37  64  93 118 159 203 256 306 353
#     4  11  23  39  65  88 121 162 203 259 303 360
#     4   9  19  36  57  91 121 147 200 250 302 361
#     4  11  24  39  62  87 125 166 200 246 308 365
#     4  10  24  43  57  89 125 162 205 247 300 376
#
# _framework density 22.005527000000001
#
# number of rings (size 3 to 8) (size 9 to 14) (size 15 to 20)
#    0.000    2.000    0.000    3.500    7.000    2.667 
#    0.000    2.500    0.000    0.000    0.000    0.000 
#    0.000    0.000    0.000    0.000    0.000    0.000 
#
# Total GULP energy -133768.480316 kJ/mol
# GULP energy per Si atom -5573.686680 kJ/mol
# Density = 2.195544 g / cm^3
# Si number density = 22.005527 Si / 1000 Ang^3
#
#
#
# Elastic Constant Matrix: (Units=GPa)
#
#
# Indices 1 2 3 4 5 6 
#
# 1 110.2025 25.5584 19.9400 0.0000 24.5678 0.0000
# 2 25.5584 122.2522 6.7918 0.0000 4.7497 0.0000
# 3 19.9400 6.7918 28.3383 0.0000 12.7775 0.0000
# 4 0.0000 0.0000 0.0000 -1.7574 0.0000 10.7780
# 5 24.5678 4.7497 12.7775 0.0000 29.7936 0.0000
# 6 0.0000 0.0000 0.0000 10.7780 0.0000 6.3186
#
#
#
# Elastic Compliance Matrix: (Units=1/GPa)
#
#
# Indices 1 2 3 4 5 6 
#
# 1 0.012069 -0.001972 -0.004555 0.000000 -0.007684 0.000000
# 2 -0.001972 0.008620 -0.000982 0.000000 0.000673 0.000000
# 3 -0.004555 -0.000982 0.045826 0.000000 -0.015741 0.000000
# 4 0.000000 0.000000 0.000000 -0.049647 0.000000 0.084686
# 5 -0.007684 0.000673 -0.015741 0.000000 0.046544 0.000000
# 6 0.000000 0.000000 0.000000 0.084686 0.000000 0.013808
#
#
# Mechanical properties :
#
#
# Convention : Reuss Voigt Hill
#
# Bulk Modulus (GPa) = 19.41825 40.59703 30.00764
# Shear Modulus (GPa) = 45.70299 20.77117 33.23708
#
# Velocity S-wave (km/s) = 4.56223 3.07564 3.89060
# Velocity P-wave (km/s) = 6.04941 5.57686 5.81793
#
# Compressibility (1/GPa) = 0.05149796
#
# Stress axis : x y z
#
# Youngs Moduli (GPa) = 82.85960 116.00380 21.82183
#
# Poissons Ratio (x) = 0.22870 0.09939
# Poissons Ratio (y) = 0.16336 0.02143
# Poissons Ratio (z) = 0.37741 0.11393
#
# Static dielectric constant tensor:
#      x y z
#    x 1.852470 0.000000 0.036700 
#    y 0.000000 1.809070 0.000000 
#    z 0.036700 0.000000 1.943350 
# 
# From -- ./inp_files/80215.got.cif
#   From: 2010.05.17/outbox.cif.g08.bks.cpg/sg13_41_cif.got.tgz:80215.got - 2010.06.03 16:44:36.
