data_PCOD9232396
_publ_section_title
;
Structure prediction by ZEFSAII (Michael W. Deem and Ramdas Pophale) SiO2 
 PCOD9232396
Probable space group: P 2/C
;
_chemical_formula_sum "Si O2"
_cell_formula_units_Z 20
_cell_length_a 5.252695
_cell_length_b 20.677613
_cell_length_c 8.503208
_cell_angle_alpha 90.000000
_cell_angle_beta 96.622601
_cell_angle_gamma 90.000000
_cell_volume 917.397987
_symmetry_space_group_name_H-M "P 2/C"
_symmetry_group_IT_number 13
_symmetry_cell_setting 'monoclinic'
loop_
_space_group_symop_operation_xyz
x,y,z
-x,y,1/2-z
-x,-y,-z
x,-y,1/2+z
loop_
_atom_site_type_symbol
_atom_site_label
_atom_site_fract_x
_atom_site_fract_y
_atom_site_fract_z
Si Si1 0.500000 0.259189 0.250000
Si Si2 0.000000 0.825022 0.750000
Si Si3 0.000000 0.530258 0.750000
Si Si4 0.853307 0.411144 0.533624
Si Si5 0.500000 0.978191 0.250000
Si Si6 0.175542 0.058282 0.452127
Si Si7 0.386105 0.671282 0.081551
O O1 0.243308 0.216549 0.213852
O O2 0.433059 0.293902 0.414386
O O3 0.934886 0.872955 0.600833
O O4 0.875187 0.480252 0.620900
O O5 0.169835 0.576209 0.653824
O O6 0.594084 0.384650 0.583867
O O7 0.100823 0.362318 0.574243
O O8 0.607926 0.936088 0.399258
O O9 0.294905 0.027397 0.305272
O O10 0.000000 0.000000 0.500000
O O11 0.500000 0.706587 0.250000
#
# Coordination Sequence:
#
# PCOD9232396 Si02
#       7
#     2   2   2   4   2   4   4
#     4  12  29  48  72  96 134 182 245 302 332 384
#     4  12  26  47  72 102 139 172 232 296 340 402
#     4  10  22  37  62 108 141 168 214 286 354 416
#     4  11  23  39  66 100 139 174 222 281 350 423
#     4  10  21  36  66 100 140 184 211 252 324 456
#     4  11  21  40  67 102 140 179 212 264 348 436
#     4  12  24  48  69  93 129 192 235 280 343 408
#
# _framework density 21.800788000000001
#
# number of rings (size 3 to 8) (size 9 to 14) (size 15 to 20)
#    0.000    0.800    4.000    3.000    2.800    4.800 
#    1.800    0.000    0.000    0.000    0.000    0.000 
#    0.000    0.000    0.000    0.000    0.000    0.000 
#
# Total GULP energy -111384.640849 kJ/mol
# GULP energy per Si atom -5569.232042 kJ/mol
# Density = 2.175117 g / cm^3
# Si number density = 21.800788 Si / 1000 Ang^3
#
#
#
# Elastic Constant Matrix: (Units=GPa)
#
#
# Indices 1 2 3 4 5 6 
#
# 1 111.8170 31.5030 10.4368 0.0000 -15.1988 0.0000
# 2 31.5030 50.8630 33.5393 0.0000 4.5107 0.0000
# 3 10.4368 33.5393 133.0281 0.0000 -2.8836 0.0000
# 4 0.0000 0.0000 0.0000 -19.4902 0.0000 14.2684
# 5 -15.1988 4.5107 -2.8836 0.0000 41.3406 0.0000
# 6 0.0000 0.0000 0.0000 14.2684 0.0000 49.3190
#
#
#
# Elastic Compliance Matrix: (Units=1/GPa)
#
#
# Indices 1 2 3 4 5 6 
#
# 1 0.012065 -0.008894 0.001415 0.000000 0.005505 0.000000
# 2 -0.008894 0.030513 -0.007149 0.000000 -0.007098 0.000000
# 3 0.001415 -0.007149 0.009251 0.000000 0.001946 0.000000
# 4 0.000000 0.000000 0.000000 -0.042340 0.000000 0.012249
# 5 0.005505 -0.007098 0.001946 0.000000 0.027123 0.000000
# 6 0.000000 0.000000 0.000000 0.012249 0.000000 0.016732
#
#
# Mechanical properties :
#
#
# Convention : Reuss Voigt Hill
#
# Bulk Modulus (GPa) = 44.30098 49.62960 46.96529
# Shear Modulus (GPa) = 55.47863 28.91582 42.19722
#
# Velocity S-wave (km/s) = 5.05007 3.64588 4.40430
# Velocity P-wave (km/s) = 7.37355 6.36693 6.88865
#
# Compressibility (1/GPa) = 0.02257286
#
# Stress axis : x y z
#
# Youngs Moduli (GPa) = 82.88314 32.77284 108.09891
#
# Poissons Ratio (x) = 0.29149 -0.15298
# Poissons Ratio (y) = 0.73718 0.77281
# Poissons Ratio (z) = -0.11729 0.23430
#
# Static dielectric constant tensor:
#      x y z
#    x 1.817330 0.000000 0.042880 
#    y 0.000000 1.830980 0.000000 
#    z 0.042880 0.000000 1.935500 
# 
# From -- ./inp_files/9598.got.cif
#   From: 2010.05.17/outbox.cif.g08.bks.cpg/sg13_5_cif.got.tgz:9598.got - 2010.06.03 16:44:36.
