data_PCOD9232135
_publ_section_title
;
Structure prediction by ZEFSAII (Michael W. Deem and Ramdas Pophale) SiO2 
 PCOD9232135
Probable space group: P 2/C
;
_chemical_formula_sum "Si O2"
_cell_formula_units_Z 30
_cell_length_a 9.540958
_cell_length_b 18.271433
_cell_length_c 9.414592
_cell_angle_alpha 90.000000
_cell_angle_beta 112.017915
_cell_angle_gamma 90.000000
_cell_volume 1521.517911
_symmetry_space_group_name_H-M "P 2/C"
_symmetry_group_IT_number 13
_symmetry_cell_setting 'monoclinic'
loop_
_space_group_symop_operation_xyz
x,y,z
-x,y,1/2-z
-x,-y,-z
x,-y,1/2+z
loop_
_atom_site_type_symbol
_atom_site_label
_atom_site_fract_x
_atom_site_fract_y
_atom_site_fract_z
Si Si1 0.436799 0.336866 0.524008
Si Si2 0.500000 0.377153 0.250000
Si Si3 0.749373 0.294691 0.793390
Si Si4 0.557690 0.102205 0.420158
Si Si5 0.136320 0.452031 0.700246
Si Si6 0.685945 0.501224 0.478950
Si Si7 0.637043 0.932372 0.398685
Si Si8 0.167709 0.863913 0.261583
O O1 0.424680 0.332018 0.349484
O O2 0.600475 0.310369 0.640103
O O3 0.314661 0.292880 0.570182
O O4 0.403953 0.421965 0.555621
O O5 0.609398 0.431821 0.376855
O O6 0.854522 0.365018 0.813575
O O7 0.829769 0.220442 0.783892
O O8 0.500000 0.136462 0.250000
O O9 0.408503 0.098199 0.464317
O O10 0.700792 0.131033 0.566408
O O11 0.613837 0.019463 0.404781
O O12 0.164131 0.484748 0.556666
O O13 0.000000 0.471797 0.750000
O O14 0.278327 0.480941 0.846381
O O15 0.500000 0.902964 0.250000
O O16 0.780518 0.910383 0.358336
O O17 0.000000 0.885149 0.250000
#
# Coordination Sequence:
#
# PCOD9232135 Si02
#       8
#     4   2   4   4   4   4   4   4
#     4  10  21  34  58  81 103 147 192 253 295 347
#     4  12  18  34  56  80 108 118 182 258 302 320
#     4  10  22  38  54  80 111 152 199 234 292 360
#     4   9  18  37  63  95 121 155 201 250 289 339
#     4  11  21  35  53  75 110 152 187 231 299 368
#     4  11  20  34  53  83 107 134 187 249 300 340
#     4   8  17  35  63  91 125 160 201 242 288 349
#     4  11  23  39  62  90 126 168 201 242 302 369
#
# _framework density 19.717153
#
# number of rings (size 3 to 8) (size 9 to 14) (size 15 to 20)
#    0.000    1.867    2.667    3.600    5.600    0.533 
#    1.200    0.667    0.000    0.000    0.000    0.000 
#    0.000    0.000    0.000    0.000    0.000    0.000 
#
# Total GULP energy -167141.763655 kJ/mol
# GULP energy per Si atom -5571.392122 kJ/mol
# Density = 1.967228 g / cm^3
# Si number density = 19.717153 Si / 1000 Ang^3
#
#
#
# Elastic Constant Matrix: (Units=GPa)
#
#
# Indices 1 2 3 4 5 6 
#
# 1 116.7186 15.1589 30.3471 0.0000 -31.7440 0.0000
# 2 15.1589 38.6852 20.6191 0.0000 -11.1719 0.0000
# 3 30.3471 20.6191 118.6221 0.0000 -31.6551 0.0000
# 4 0.0000 0.0000 0.0000 15.8301 0.0000 -11.4096
# 5 -31.7440 -11.1719 -31.6551 0.0000 31.1629 0.0000
# 6 0.0000 0.0000 0.0000 -11.4096 0.0000 3.9369
#
#
#
# Elastic Compliance Matrix: (Units=1/GPa)
#
#
# Indices 1 2 3 4 5 6 
#
# 1 0.011923 -0.001409 0.000413 0.000000 0.012060 0.000000
# 2 -0.001409 0.029852 -0.003232 0.000000 0.005984 0.000000
# 3 0.000413 -0.003232 0.011921 0.000000 0.011371 0.000000
# 4 0.000000 0.000000 0.000000 -0.058018 0.000000 -0.168142
# 5 0.012060 0.005984 0.011371 0.000000 0.058070 0.000000
# 6 0.000000 0.000000 0.000000 -0.168142 0.000000 -0.233288
#
#
# Mechanical properties :
#
#
# Convention : Reuss Voigt Hill
#
# Bulk Modulus (GPa) = 22.10445 45.14178 33.62312
# Shear Modulus (GPa) = -32.05053 24.04604 -4.00224
#
# Velocity S-wave (km/s) = -4.03614 3.49599 -1.42627
# Velocity P-wave (km/s) = 3.23813 6.26421 3.79176
#
# Compressibility (1/GPa) = 0.04523976
#
# Stress axis : x y z
#
# Youngs Moduli (GPa) = 83.87022 33.49812 83.88805
#
# Poissons Ratio (x) = 0.04722 -0.03464
# Poissons Ratio (y) = 0.11821 0.27109
# Poissons Ratio (z) = -0.03463 0.10825
#
# Static dielectric constant tensor:
#      x y z
#    x 1.755220 0.000000 -0.015310 
#    y 0.000000 1.697580 0.000000 
#    z -0.015310 0.000000 1.726310 
# 
# From -- ./inp_files/13509.got.cif
#   From: 2010.05.17/outbox.cif.g08.bks.cpg/sg13_7_cif.got.tgz:13509.got - 2010.06.03 16:44:36.
