data_PCOD9232680
_publ_section_title
;
Structure prediction by ZEFSAII (Michael W. Deem and Ramdas Pophale) SiO2 
 PCOD9232680
Probable space group: P 2/C
;
_chemical_formula_sum "Si O2"
_cell_formula_units_Z 32
_cell_length_a 11.490718
_cell_length_b 21.984212
_cell_length_c 8.920904
_cell_angle_alpha 90.000000
_cell_angle_beta 43.103473
_cell_angle_gamma 90.000000
_cell_volume 1539.890419
_symmetry_space_group_name_H-M "P 2/C"
_symmetry_group_IT_number 13
_symmetry_cell_setting 'monoclinic'
loop_
_space_group_symop_operation_xyz
x,y,z
-x,y,1/2-z
-x,-y,-z
x,-y,1/2+z
loop_
_atom_site_type_symbol
_atom_site_label
_atom_site_fract_x
_atom_site_fract_y
_atom_site_fract_z
Si Si1 0.550752 0.937703 0.872965
Si Si2 0.053123 0.563961 0.876830
Si Si3 0.555374 0.562802 0.875085
Si Si4 0.954087 0.813025 0.620071
Si Si5 0.046819 0.936237 0.031338
Si Si6 0.453373 0.305713 0.121023
Si Si7 0.042753 0.311664 0.534207
Si Si8 0.544035 0.183794 0.535200
O O1 0.500000 0.940711 0.750000
O O2 0.752632 0.932482 0.682318
O O3 0.476674 0.876899 0.018071
O O4 0.500000 0.000000 0.000000
O O5 0.249572 0.567199 0.749342
O O6 0.976838 0.626675 0.016783
O O7 0.000000 0.562183 0.750000
O O8 0.000000 0.500000 0.000000
O O9 0.500000 0.559323 0.750000
O O10 0.479623 0.628349 0.995356
O O11 0.500000 0.500000 0.000000
O O12 0.023610 0.874865 0.479424
O O13 0.019479 0.752174 0.476498
O O14 0.000000 0.811124 0.750000
O O15 0.747513 0.814230 0.813261
O O16 0.000000 0.936940 0.250000
O O17 0.000000 0.000000 0.000000
O O18 0.500000 0.297483 0.250000
O O19 0.247280 0.308838 0.315314
O O20 0.520058 0.248071 0.967838
O O21 0.000000 0.314694 0.750000
O O22 0.500000 0.179217 0.750000
#
# Coordination Sequence:
#
# PCOD9232680 Si02
#       8
#     4   4   4   4   4   4   4   4
#     4  11  23  39  60  85 116 150 189 235 284 342
#     4  11  22  37  59  87 118 153 198 247 295 355
#     4  10  21  38  58  82 116 153 191 239 293 349
#     4  10  22  39  58  84 116 149 191 240 288 347
#     4  11  23  39  60  86 116 152 192 237 289 347
#     4   9  20  38  57  82 113 147 191 237 283 344
#     4  10  21  38  59  84 115 153 194 241 295 347
#     4  10  22  38  58  84 113 147 188 234 286 339
#
# _framework density 20.780698999999998
#
# number of rings (size 3 to 8) (size 9 to 14) (size 15 to 20)
#    0.000    1.750    0.000    3.750    0.000    7.500 
#    0.000    1.250    0.000    0.000    0.000    0.000 
#    0.000    0.000    0.000    0.000    0.000    0.000 
#
# Total GULP energy -178456.374374 kJ/mol
# GULP energy per Si atom -5576.761699 kJ/mol
# Density = 2.073340 g / cm^3
# Si number density = 20.780699 Si / 1000 Ang^3
#
#
#
# Elastic Constant Matrix: (Units=GPa)
#
#
# Indices 1 2 3 4 5 6 
#
# 1 104.1283 77.1028 26.3290 0.0000 34.2218 0.0000
# 2 77.1028 279.2680 89.0200 0.0000 57.3737 0.0000
# 3 26.3290 89.0200 85.9309 0.0000 37.2225 0.0000
# 4 0.0000 0.0000 0.0000 66.4623 0.0000 27.1822
# 5 34.2218 57.3737 37.2225 0.0000 50.6936 0.0000
# 6 0.0000 0.0000 0.0000 27.1822 0.0000 42.5854
#
#
#
# Elastic Compliance Matrix: (Units=1/GPa)
#
#
# Indices 1 2 3 4 5 6 
#
# 1 0.013683 -0.002895 0.002036 0.000000 -0.007455 0.000000
# 2 -0.002895 0.006268 -0.004957 0.000000 -0.001500 0.000000
# 3 0.002036 -0.004957 0.020990 0.000000 -0.011177 0.000000
# 4 0.000000 0.000000 0.000000 0.020362 0.000000 -0.012997
# 5 -0.007455 -0.001500 -0.011177 0.000000 0.034664 0.000000
# 6 0.000000 0.000000 0.000000 -0.012997 0.000000 0.031778
#
#
# Mechanical properties :
#
#
# Convention : Reuss Voigt Hill
#
# Bulk Modulus (GPa) = 34.11874 94.91451 64.51662
# Shear Modulus (GPa) = 33.52442 50.40660 41.96551
#
# Velocity S-wave (km/s) = 4.02088 4.93043 4.49870
# Velocity P-wave (km/s) = 6.16529 8.84227 7.62222
#
# Compressibility (1/GPa) = 0.02930941
#
# Stress axis : x y z
#
# Youngs Moduli (GPa) = 73.08603 159.53191 47.64265
#
# Poissons Ratio (x) = 0.46185 -0.09701
# Poissons Ratio (y) = 0.21159 0.23615
# Poissons Ratio (z) = -0.14882 0.79075
#
# Static dielectric constant tensor:
#      x y z
#    x 1.776820 0.000000 -0.085010 
#    y 0.000000 1.769990 0.000000 
#    z -0.085010 0.000000 1.752630 
# 
# From -- ./inp_files/17288.got.cif
#   From: 2010.05.17/outbox.cif.g08.bks.cpg/sg13_9_cif.got.tgz:17288.got - 2010.06.03 16:44:36.
