data_PCOD9232163
_publ_section_title
;
Structure prediction by ZEFSAII (Michael W. Deem and Ramdas Pophale) SiO2 
 PCOD9232163
Probable space group: P 2/C
;
_chemical_formula_sum "Si O2"
_cell_formula_units_Z 32
_cell_length_a 11.532456
_cell_length_b 9.375834
_cell_length_c 22.808698
_cell_angle_alpha 90.000000
_cell_angle_beta 42.474753
_cell_angle_gamma 90.000000
_cell_volume 1665.354220
_symmetry_space_group_name_H-M "P 2/C"
_symmetry_group_IT_number 13
_symmetry_cell_setting 'monoclinic'
loop_
_space_group_symop_operation_xyz
x,y,z
-x,y,1/2-z
-x,-y,-z
x,-y,1/2+z
loop_
_atom_site_type_symbol
_atom_site_label
_atom_site_fract_x
_atom_site_fract_y
_atom_site_fract_z
Si Si1 0.237397 0.130304 0.311388
Si Si2 0.118633 0.446729 0.372530
Si Si3 0.251431 0.443288 0.446142
Si Si4 0.503781 0.599322 0.055729
Si Si5 0.124628 0.071952 0.754216
Si Si6 0.379016 0.873287 0.883310
Si Si7 0.868575 0.395155 0.752382
Si Si8 0.510070 0.922450 0.058249
O O1 0.133718 0.276945 0.358127
O O2 0.422333 0.158223 0.210313
O O3 0.285573 0.075462 0.358514
O O4 0.134462 0.020803 0.309165
O O5 0.246820 0.479899 0.378655
O O6 0.160055 0.518309 0.295708
O O7 0.932717 0.506516 0.460535
O O8 0.392054 0.523434 0.431639
O O9 0.289810 0.274409 0.435867
O O10 0.308915 0.615727 0.147971
O O11 0.571769 0.760860 0.023872
O O12 0.500000 0.500000 0.000000
O O13 0.068390 0.235271 0.786828
O O14 0.317764 0.078018 0.656859
O O15 0.000000 0.013230 0.750000
O O16 0.381336 0.988327 0.934494
O O17 0.000000 0.461544 0.750000
O O18 0.500000 0.000000 0.000000
#
# Coordination Sequence:
#
# PCOD9232163 Si02
#       8
#     4   4   4   4   4   4   4   4
#     4   9  18  34  56  80 104 139 185 225 268 321
#     4  10  21  36  56  81 109 143 182 225 274 325
#     4  10  21  37  55  80 112 143 181 227 272 323
#     4  11  22  36  57  83 110 142 183 228 272 326
#     4   9  20  36  54  78 107 138 175 221 269 323
#     4   9  18  35  56  77 108 144 178 223 273 324
#     4  10  21  37  56  79 109 144 178 220 277 328
#     4  10  21  35  54  80 107 141 180 219 272 328
#
# _framework density 19.215132000000001
#
# number of rings (size 3 to 8) (size 9 to 14) (size 15 to 20)
#    0.000    2.250    0.000    2.250    0.000    7.000 
#    0.000    2.500    0.000    5.250    0.000    0.000 
#    0.000    0.000    0.000    0.000    0.000    0.000 
#
# Total GULP energy -178499.180658 kJ/mol
# GULP energy per Si atom -5578.099396 kJ/mol
# Density = 1.917140 g / cm^3
# Si number density = 19.215132 Si / 1000 Ang^3
#
#
#
# Elastic Constant Matrix: (Units=GPa)
#
#
# Indices 1 2 3 4 5 6 
#
# 1 142.6547 80.7451 28.7708 0.0000 33.0081 0.0000
# 2 80.7451 115.4271 44.6875 0.0000 38.3363 0.0000
# 3 28.7708 44.6875 51.3588 0.0000 29.1224 0.0000
# 4 0.0000 0.0000 0.0000 25.5756 0.0000 6.8466
# 5 33.0081 38.3363 29.1224 0.0000 34.9626 0.0000
# 6 0.0000 0.0000 0.0000 6.8466 0.0000 8.4145
#
#
#
# Elastic Compliance Matrix: (Units=1/GPa)
#
#
# Indices 1 2 3 4 5 6 
#
# 1 0.012082 -0.007880 0.003140 0.000000 -0.005381 0.000000
# 2 -0.007880 0.019979 -0.009032 0.000000 -0.006944 0.000000
# 3 0.003140 -0.009032 0.041002 0.000000 -0.027214 0.000000
# 4 0.000000 0.000000 0.000000 0.049988 0.000000 -0.040673
# 5 -0.005381 -0.006944 -0.027214 0.000000 0.063965 0.000000
# 6 0.000000 0.000000 0.000000 -0.040673 0.000000 0.151936
#
#
# Mechanical properties :
#
#
# Convention : Reuss Voigt Hill
#
# Bulk Modulus (GPa) = 21.96909 68.64972 45.30941
# Shear Modulus (GPa) = 13.10037 24.13969 18.62003
#
# Velocity S-wave (km/s) = 2.61391 3.54826 3.11630
# Velocity P-wave (km/s) = 4.53521 7.25199 6.04812
#
# Compressibility (1/GPa) = 0.04551849
#
# Stress axis : x y z
#
# Youngs Moduli (GPa) = 82.76651 50.05316 24.38911
#
# Poissons Ratio (x) = 0.39442 -0.07657
# Poissons Ratio (y) = 0.65221 0.22028
# Poissons Ratio (z) = -0.25986 0.45207
#
# Static dielectric constant tensor:
#      x y z
#    x 1.672830 0.000000 -0.013850 
#    y 0.000000 1.675730 0.000000 
#    z -0.013850 0.000000 1.672820 
# 
# From -- ./inp_files/78268.got.cif
#   From: 2010.05.17/outbox.cif.g08.bks.cpg/sg13_40_cif.got.tgz:78268.got - 2010.06.03 16:44:36.
