data_PCOD9232451
_publ_section_title
;
Structure prediction by ZEFSAII (Michael W. Deem and Ramdas Pophale) SiO2 
 PCOD9232451
Probable space group: P 2/C
;
_chemical_formula_sum "Si O2"
_cell_formula_units_Z 22
_cell_length_a 10.167422
_cell_length_b 6.831043
_cell_length_c 22.635421
_cell_angle_alpha 90.000000
_cell_angle_beta 144.317873
_cell_angle_gamma 90.000000
_cell_volume 917.000098
_symmetry_space_group_name_H-M "P 2/C"
_symmetry_group_IT_number 13
_symmetry_cell_setting 'monoclinic'
loop_
_space_group_symop_operation_xyz
x,y,z
-x,y,1/2-z
-x,-y,-z
x,-y,1/2+z
loop_
_atom_site_type_symbol
_atom_site_label
_atom_site_fract_x
_atom_site_fract_y
_atom_site_fract_z
Si Si1 0.481220 0.535312 0.063549
Si Si2 0.399390 0.045900 0.587915
Si Si3 0.111454 0.354574 0.124095
Si Si4 0.930502 0.715257 0.029094
Si Si5 0.500000 0.053785 0.250000
Si Si6 0.170980 0.758750 0.764381
O O1 0.442906 0.758293 0.068520
O O2 0.709512 0.445526 0.174245
O O3 0.500000 0.500000 0.000000
O O4 0.275367 0.421573 0.021755
O O5 0.165088 0.928312 0.489155
O O6 0.400969 0.068857 0.659954
O O7 0.616471 0.907452 0.657071
O O8 0.323086 0.211874 0.209273
O O9 0.009490 0.295098 0.149671
O O10 0.136004 0.590742 0.131452
O O11 0.041046 0.299487 0.031462
O O12 0.000000 0.836745 0.750000
#
# Coordination Sequence:
#
# PCOD9232451 Si02
#       6
#     4   4   4   4   2   4
#     4  11  23  38  57  83 116 154 198 245 296 354
#     4   9  20  37  58  85 116 156 196 241 298 354
#     4   9  17  36  59  84 116 153 193 242 297 348
#     4   9  19  36  59  83 117 154 193 243 293 353
#     4   8  16  34  60  88 120 152 200 252 298 360
#     4  10  21  37  58  84 116 151 193 245 295 352
#
# _framework density 23.991273
#
# number of rings (size 3 to 8) (size 9 to 14) (size 15 to 20)
#    0.000    2.545    0.000    2.182    0.000    5.091 
#    0.000   13.636    0.000    0.000    0.000    0.000 
#    0.000    0.000    0.000    0.000    0.000    0.000 
#
# Total GULP energy -122481.479198 kJ/mol
# GULP energy per Si atom -5567.339964 kJ/mol
# Density = 2.393667 g / cm^3
# Si number density = 23.991273 Si / 1000 Ang^3
#
#
#
# Elastic Constant Matrix: (Units=GPa)
#
#
# Indices 1 2 3 4 5 6 
#
# 1 82.2087 54.7317 17.1646 0.0000 -13.7302 0.0000
# 2 54.7317 176.3730 67.0225 0.0000 -22.2720 0.0000
# 3 17.1646 67.0225 78.8633 0.0000 -7.7623 0.0000
# 4 0.0000 0.0000 0.0000 39.8324 0.0000 17.3046
# 5 -13.7302 -22.2720 -7.7623 0.0000 22.4201 0.0000
# 6 0.0000 0.0000 0.0000 17.3046 0.0000 53.1446
#
#
#
# Elastic Compliance Matrix: (Units=1/GPa)
#
#
# Indices 1 2 3 4 5 6 
#
# 1 0.015965 -0.004643 0.001014 0.000000 0.005516 0.000000
# 2 -0.004643 0.010604 -0.007500 0.000000 0.005094 0.000000
# 3 0.001014 -0.007500 0.018802 0.000000 -0.000320 0.000000
# 4 0.000000 0.000000 0.000000 0.029242 0.000000 -0.009521
# 5 0.005516 0.005094 -0.000320 0.000000 0.052930 0.000000
# 6 0.000000 0.000000 0.000000 -0.009521 0.000000 0.021917
#
#
# Mechanical properties :
#
#
# Convention : Reuss Voigt Hill
#
# Bulk Modulus (GPa) = 43.26598 68.36475 55.81537
# Shear Modulus (GPa) = 27.86744 36.31449 32.09096
#
# Velocity S-wave (km/s) = 3.41187 3.89479 3.66130
# Velocity P-wave (km/s) = 5.79606 6.98451 6.41786
#
# Compressibility (1/GPa) = 0.02311284
#
# Stress axis : x y z
#
# Youngs Moduli (GPa) = 62.63780 94.30595 53.18653
#
# Poissons Ratio (x) = 0.43786 -0.05393
# Poissons Ratio (y) = 0.29083 0.39889
# Poissons Ratio (z) = -0.06352 0.70727
#
# Static dielectric constant tensor:
#      x y z
#    x 1.718880 0.000000 0.385170 
#    y 0.000000 2.031240 0.000000 
#    z 0.385170 0.000000 1.714450 
# 
# From -- ./inp_files/85911.got.cif
#   From: 2010.05.17/outbox.cif.g08.bks.cpg/sg13_43_cif.got.tgz:85911.got - 2010.06.03 16:44:36.
