data_PCOD9232533
_publ_section_title
;
Structure prediction by ZEFSAII (Michael W. Deem and Ramdas Pophale) SiO2 
 PCOD9232533
Probable space group: P 2/C
;
_chemical_formula_sum "Si O2"
_cell_formula_units_Z 26
_cell_length_a 18.779407
_cell_length_b 5.461826
_cell_length_c 9.989597
_cell_angle_alpha 90.000000
_cell_angle_beta 87.048755
_cell_angle_gamma 90.000000
_cell_volume 1023.272539
_symmetry_space_group_name_H-M "P 2/C"
_symmetry_group_IT_number 13
_symmetry_cell_setting 'monoclinic'
loop_
_space_group_symop_operation_xyz
x,y,z
-x,y,1/2-z
-x,-y,-z
x,-y,1/2+z
loop_
_atom_site_type_symbol
_atom_site_label
_atom_site_fract_x
_atom_site_fract_y
_atom_site_fract_z
Si Si1 0.630993 0.242349 0.918519
Si Si2 0.802454 0.834435 0.692124
Si Si3 0.060724 0.153472 0.136502
Si Si4 0.099679 0.655441 0.057780
Si Si5 0.437608 0.448909 0.834926
Si Si6 0.232991 0.333323 0.722040
Si Si7 0.500000 0.000000 0.000000
O O1 0.614334 0.353580 0.773829
O O2 0.716059 0.245516 0.904534
O O3 0.599907 0.393826 0.047387
O O4 0.584450 0.998392 0.937633
O O5 0.860277 0.870253 0.805479
O O6 0.850486 0.744352 0.566227
O O7 0.750077 0.608980 0.731257
O O8 0.766429 0.101167 0.677754
O O9 0.068666 0.386444 0.039508
O O10 0.000000 0.217370 0.250000
O O11 0.046560 0.879891 0.086573
O O12 0.151849 0.633625 0.180495
O O13 0.500000 0.602149 0.750000
O O14 0.480727 0.228248 0.900700
#
# Coordination Sequence:
#
# PCOD9232533 Si02
#       7
#     4   4   4   4   4   4   2
#     4  11  25  41  67  95 127 174 222 280 339 410
#     4  10  22  41  61  89 129 167 214 268 326 388
#     4  10  21  37  60  93 125 164 218 263 323 390
#     4  10  21  39  61  87 130 168 206 274 319 389
#     4  10  23  43  65  94 130 167 216 279 344 400
#     4  10  24  40  62  93 124 168 217 266 328 395
#     4  10  22  40  62  92 128 160 212 270 334 388
#
# _framework density 25.408674999999999
#
# number of rings (size 3 to 8) (size 9 to 14) (size 15 to 20)
#    0.000    1.846    0.000    3.231    4.308    8.000 
#    0.000    0.000    0.000    0.000    0.000    0.000 
#    0.000    0.000    0.000    0.000    0.000    0.000 
#
# Total GULP energy -144748.096575 kJ/mol
# GULP energy per Si atom -5567.234484 kJ/mol
# Density = 2.535084 g / cm^3
# Si number density = 25.408675 Si / 1000 Ang^3
#
#
#
# Elastic Constant Matrix: (Units=GPa)
#
#
# Indices 1 2 3 4 5 6 
#
# 1 74.4097 25.3577 11.0617 0.0000 -7.1266 0.0000
# 2 25.3577 128.3676 31.1194 0.0000 -2.5656 0.0000
# 3 11.0617 31.1194 88.6361 0.0000 -14.8712 0.0000
# 4 0.0000 0.0000 0.0000 41.2782 0.0000 -10.5773
# 5 -7.1266 -2.5656 -14.8712 0.0000 42.2647 0.0000
# 6 0.0000 0.0000 0.0000 -10.5773 0.0000 47.0316
#
#
#
# Elastic Compliance Matrix: (Units=1/GPa)
#
#
# Indices 1 2 3 4 5 6 
#
# 1 0.014648 -0.002726 -0.000515 0.000000 0.002123 0.000000
# 2 -0.002726 0.009035 -0.002994 0.000000 -0.000965 0.000000
# 3 -0.000515 -0.002994 0.013127 0.000000 0.004350 0.000000
# 4 0.000000 0.000000 0.000000 0.025707 0.000000 0.005782
# 5 0.002123 -0.000965 0.004350 0.000000 0.025491 0.000000
# 6 0.000000 0.000000 0.000000 0.005782 0.000000 0.022563
#
#
# Mechanical properties :
#
#
# Convention : Reuss Voigt Hill
#
# Bulk Modulus (GPa) = 41.08285 47.38789 44.23537
# Shear Modulus (GPa) = 38.12301 41.03985 39.58143
#
# Velocity S-wave (km/s) = 3.87769 4.02330 3.95117
# Velocity P-wave (km/s) = 6.02101 6.34613 6.18571
#
# Compressibility (1/GPa) = 0.02434106
#
# Stress axis : x y z
#
# Youngs Moduli (GPa) = 68.26827 110.67851 76.17709
#
# Poissons Ratio (x) = 0.30175 0.03920
# Poissons Ratio (y) = 0.18613 0.22806
# Poissons Ratio (z) = 0.03513 0.33135
#
# Static dielectric constant tensor:
#      x y z
#    x 2.162070 0.000000 0.075170 
#    y 0.000000 2.142480 0.000000 
#    z 0.075170 0.000000 2.052100 
# 
# From -- ./inp_files/39835.got.cif
#   From: 2010.05.17/outbox.cif.g08.bks.cpg/sg13_20_cif.got.tgz:39835.got - 2010.06.03 16:44:36.
