data_PCOD9232025
_publ_section_title
;
Structure prediction by ZEFSAII (Michael W. Deem and Ramdas Pophale) SiO2 
 PCOD9232025
Probable space group: P 2/C
;
_chemical_formula_sum "Si O2"
_cell_formula_units_Z 24
_cell_length_a 8.340819
_cell_length_b 11.953378
_cell_length_c 11.718509
_cell_angle_alpha 90.000000
_cell_angle_beta 119.985559
_cell_angle_gamma 90.000000
_cell_volume 1011.965062
_symmetry_space_group_name_H-M "P 2/C"
_symmetry_group_IT_number 13
_symmetry_cell_setting 'monoclinic'
loop_
_space_group_symop_operation_xyz
x,y,z
-x,y,1/2-z
-x,-y,-z
x,-y,1/2+z
loop_
_atom_site_type_symbol
_atom_site_label
_atom_site_fract_x
_atom_site_fract_y
_atom_site_fract_z
Si Si1 0.826281 0.990387 0.020732
Si Si2 0.190724 0.514213 0.499123
Si Si3 0.669927 0.706493 0.387680
Si Si4 0.935455 0.742418 0.098901
Si Si5 0.000000 0.370910 0.250000
Si Si6 0.739244 0.186540 0.153485
Si Si7 0.500000 0.057768 0.250000
O O1 0.837013 0.862315 0.065113
O O2 0.830647 0.078316 0.124576
O O3 0.645679 0.010019 0.878425
O O4 0.000000 0.000000 0.000000
O O5 0.332862 0.429579 0.607079
O O6 0.138483 0.452714 0.363055
O O7 0.000000 0.500000 0.500000
O O8 0.208212 0.645870 0.490369
O O9 0.500000 0.744574 0.250000
O O10 0.873858 0.739670 0.409177
O O11 0.657306 0.751497 0.512627
O O12 0.000000 0.715395 0.250000
O O13 0.130474 0.277877 0.236218
O O14 0.606238 0.135441 0.198845
#
# Coordination Sequence:
#
# PCOD9232025 Si02
#       7
#     4   4   4   4   2   4   2
#     4  12  27  47  70 105 140 191 239 290 363 422
#     4   9  20  41  68 100 136 181 230 281 352 410
#     4  10  23  44  72 102 143 187 230 293 354 423
#     4  11  24  43  73 103 143 185 237 290 351 432
#     4  10  20  44  72 100 138 184 230 288 350 420
#     4  11  25  44  73 101 142 187 237 289 362 416
#     4  12  30  46  70 104 148 182 242 302 342 438
#
# _framework density 23.716235000000001
#
# number of rings (size 3 to 8) (size 9 to 14) (size 15 to 20)
#    0.000    1.333    2.500    1.500   11.667    0.000 
#    1.500    0.833    0.000    0.000    0.000    0.000 
#    0.000    0.000    0.000    0.000    0.000    0.000 
#
# Total GULP energy -134043.184485 kJ/mol
# GULP energy per Si atom -5585.132687 kJ/mol
# Density = 2.366226 g / cm^3
# Si number density = 23.716235 Si / 1000 Ang^3
#
#
#
# Elastic Constant Matrix: (Units=GPa)
#
#
# Indices 1 2 3 4 5 6 
#
# 1 63.1656 11.5651 26.0841 0.0000 -14.9806 0.0000
# 2 11.5651 165.1021 20.3536 0.0000 1.0838 0.0000
# 3 26.0841 20.3536 93.6130 0.0000 9.2624 0.0000
# 4 0.0000 0.0000 0.0000 17.9000 0.0000 5.9418
# 5 -14.9806 1.0838 9.2624 0.0000 49.8268 0.0000
# 6 0.0000 0.0000 0.0000 5.9418 0.0000 20.8746
#
#
#
# Elastic Compliance Matrix: (Units=1/GPa)
#
#
# Indices 1 2 3 4 5 6 
#
# 1 0.020243 -0.000701 -0.006206 0.000000 0.007255 0.000000
# 2 -0.000701 0.006249 -0.001150 0.000000 -0.000133 0.000000
# 3 -0.006206 -0.001150 0.013084 0.000000 -0.004273 0.000000
# 4 0.000000 0.000000 0.000000 0.061695 0.000000 -0.017561
# 5 0.007255 -0.000133 -0.004273 0.000000 0.023048 0.000000
# 6 0.000000 0.000000 0.000000 -0.017561 0.000000 0.052904
#
#
# Mechanical properties :
#
#
# Convention : Reuss Voigt Hill
#
# Bulk Modulus (GPa) = 42.62131 48.65402 45.63766
# Shear Modulus (GPa) = 24.85612 35.31215 30.08413
#
# Velocity S-wave (km/s) = 3.24089 3.86287 3.56547
# Velocity P-wave (km/s) = 5.65817 6.36045 6.01956
#
# Compressibility (1/GPa) = 0.02346244
#
# Stress axis : x y z
#
# Youngs Moduli (GPa) = 49.39969 160.03574 76.42691
#
# Poissons Ratio (x) = 0.11211 0.47431
# Poissons Ratio (y) = 0.03461 0.08791
# Poissons Ratio (z) = 0.30657 0.18408
#
# Static dielectric constant tensor:
#      x y z
#    x 1.883650 0.000000 0.032860 
#    y 0.000000 1.942390 0.000000 
#    z 0.032860 0.000000 1.906550 
# 
# From -- ./inp_files/29582.got.cif
#   From: 2010.05.17/outbox.cif.g08.bks.cpg/sg13_15_cif.got.tgz:29582.got - 2010.06.03 16:44:36.
