data_PCOD9232969
_publ_section_title
;
Structure prediction by ZEFSAII (Michael W. Deem and Ramdas Pophale) SiO2 
 PCOD9232969
Probable space group: P 2/C
;
_chemical_formula_sum "Si O2"
_cell_formula_units_Z 22
_cell_length_a 25.928533
_cell_length_b 7.980948
_cell_length_c 5.309875
_cell_angle_alpha 90.000000
_cell_angle_beta 83.552251
_cell_angle_gamma 90.000000
_cell_volume 1091.844893
_symmetry_space_group_name_H-M "P 2/C"
_symmetry_group_IT_number 13
_symmetry_cell_setting 'monoclinic'
loop_
_space_group_symop_operation_xyz
x,y,z
-x,y,1/2-z
-x,-y,-z
x,-y,1/2+z
loop_
_atom_site_type_symbol
_atom_site_label
_atom_site_fract_x
_atom_site_fract_y
_atom_site_fract_z
Si Si1 0.941774 0.426148 0.031817
Si Si2 0.206594 0.613453 0.886655
Si Si3 0.114595 0.111556 0.437666
Si Si4 0.708118 0.891980 0.657582
Si Si5 0.500000 0.389085 0.250000
Si Si6 0.584783 0.106141 0.233780
O O1 0.916530 0.499857 0.295753
O O2 0.937119 0.227295 0.034092
O O3 0.000000 0.500000 0.000000
O O4 0.204505 0.500320 0.637485
O O5 0.160717 0.752067 0.912206
O O6 0.259144 0.722791 0.858392
O O7 0.117054 0.000099 0.686414
O O8 0.646409 0.858581 0.692604
O O9 0.720625 0.001188 0.899618
O O10 0.500000 0.500000 0.500000
O O11 0.550228 0.269926 0.226259
O O12 0.573019 0.015102 0.504383
#
# Coordination Sequence:
#
# PCOD9232969 Si02
#       6
#     4   4   4   4   2   4
#     4  10  21  41  63  86 120 156 189 237 292 343
#     4  12  24  39  62  90 122 159 192 237 298 352
#     4  12  24  41  64  91 120 156 201 243 283 343
#     4  10  21  39  61  87 117 153 197 246 290 347
#     4  12  24  36  56  86 118 150 196 254 298 342
#     4  10  21  39  61  81 113 158 199 238 295 359
#
# _framework density 20.149383
#
# number of rings (size 3 to 8) (size 9 to 14) (size 15 to 20)
#    0.000    1.091    0.000    7.091    0.000    1.455 
#    0.000   10.909    0.000    0.000    0.000    0.000 
#    0.000    0.000    0.000    0.000    0.000    0.000 
#
# Total GULP energy -123025.203979 kJ/mol
# GULP energy per Si atom -5592.054726 kJ/mol
# Density = 2.010352 g / cm^3
# Si number density = 20.149383 Si / 1000 Ang^3
#
#
#
# Elastic Constant Matrix: (Units=GPa)
#
#
# Indices 1 2 3 4 5 6 
#
# 1 84.8811 79.6131 47.3816 0.0000 17.4009 0.0000
# 2 79.6131 174.3908 101.1171 0.0000 19.7743 0.0000
# 3 47.3816 101.1171 210.8414 0.0000 37.2005 0.0000
# 4 0.0000 0.0000 0.0000 55.1216 0.0000 3.7085
# 5 17.4009 19.7743 37.2005 0.0000 26.5526 0.0000
# 6 0.0000 0.0000 0.0000 3.7085 0.0000 46.4898
#
#
#
# Elastic Compliance Matrix: (Units=1/GPa)
#
#
# Indices 1 2 3 4 5 6 
#
# 1 0.022132 -0.009862 0.001354 0.000000 -0.009056 0.000000
# 2 -0.009862 0.012349 -0.004283 0.000000 0.003266 0.000000
# 3 0.001354 -0.004283 0.008085 0.000000 -0.009025 0.000000
# 4 0.000000 0.000000 0.000000 0.018240 0.000000 -0.001455
# 5 -0.009056 0.003266 -0.009025 0.000000 0.053808 0.000000
# 6 0.000000 0.000000 0.000000 -0.001455 0.000000 0.021626
#
#
# Mechanical properties :
#
#
# Convention : Reuss Voigt Hill
#
# Bulk Modulus (GPa) = 58.87601 102.92632 80.90117
# Shear Modulus (GPa) = 29.85406 41.76625 35.81015
#
# Velocity S-wave (km/s) = 3.85338 4.55777 4.22030
# Velocity P-wave (km/s) = 7.00580 8.88202 7.99911
#
# Compressibility (1/GPa) = 0.01698485
#
# Stress axis : x y z
#
# Youngs Moduli (GPa) = 45.18419 80.97730 123.68794
#
# Poissons Ratio (x) = 0.79857 -0.16745
# Poissons Ratio (y) = 0.44559 0.52970
# Poissons Ratio (z) = -0.06117 0.34679
#
# Static dielectric constant tensor:
#      x y z
#    x 0.642000 0.000000 0.156060 
#    y 0.000000 1.673630 0.000000 
#    z 0.156060 0.000000 1.688560 
# 
# From -- ./inp_files/7936.got.cif
#   From: 2010.05.17/outbox.cif.g08.bks.cpg/sg13_4_cif.got.tgz:7936.got - 2010.06.03 16:44:36.
