data_PCOD9232239
_publ_section_title
;
Structure prediction by ZEFSAII (Michael W. Deem and Ramdas Pophale) SiO2 
 PCOD9232239
Probable space group: P 2/C
;
_chemical_formula_sum "Si O2"
_cell_formula_units_Z 20
_cell_length_a 25.292118
_cell_length_b 8.279830
_cell_length_c 5.169221
_cell_angle_alpha 90.000000
_cell_angle_beta 81.410905
_cell_angle_gamma 90.000000
_cell_volume 1070.368973
_symmetry_space_group_name_H-M "P 2/C"
_symmetry_group_IT_number 13
_symmetry_cell_setting 'monoclinic'
loop_
_space_group_symop_operation_xyz
x,y,z
-x,y,1/2-z
-x,-y,-z
x,-y,1/2+z
loop_
_atom_site_type_symbol
_atom_site_label
_atom_site_fract_x
_atom_site_fract_y
_atom_site_fract_z
Si Si1 0.640326 0.895994 0.547163
Si Si2 0.766132 0.108164 0.992459
Si Si3 0.936341 0.893997 0.286196
Si Si4 0.147849 0.613216 0.112265
Si Si5 0.561565 0.606258 0.734911
O O1 0.703042 0.852003 0.525102
O O2 0.602558 0.747463 0.641876
O O3 0.630676 0.035145 0.767913
O O4 0.801720 0.266081 0.932323
O O5 0.777495 0.981001 0.754609
O O6 0.903335 0.731172 0.345935
O O7 0.000000 0.863510 0.250000
O O8 0.923243 0.019280 0.525371
O O9 0.148168 0.501449 0.363716
O O10 0.500000 0.662362 0.750000
O O11 0.568880 0.465654 0.515714
#
# Coordination Sequence:
#
# PCOD9232239 Si02
#       5
#     4   4   4   4   4
#     4  10  21  36  57  82 105 138 183 228 267 308
#     4  10  21  39  58  77 108 146 182 219 266 325
#     4  10  21  39  61  81 107 148 187 217 263 325
#     4  12  24  36  56  86 114 141 178 226 274 314
#     4  10  21  36  54  78 110 145 176 214 270 328
#
# _framework density 18.685148000000002
#
# number of rings (size 3 to 8) (size 9 to 14) (size 15 to 20)
#    0.000    1.600    0.000    4.800    0.000    3.200 
#    0.000    0.000    0.000    0.000    0.000    0.000 
#    0.000    0.000    0.000    0.000    0.000    0.000 
#
# Total GULP energy -111818.411284 kJ/mol
# GULP energy per Si atom -5590.920564 kJ/mol
# Density = 1.864262 g / cm^3
# Si number density = 18.685148 Si / 1000 Ang^3
#
#
#
# Elastic Constant Matrix: (Units=GPa)
#
#
# Indices 1 2 3 4 5 6 
#
# 1 70.2042 66.0765 28.0044 0.0000 -26.0548 0.0000
# 2 66.0765 106.7618 32.3432 0.0000 -27.7844 0.0000
# 3 28.0044 32.3432 111.5573 0.0000 -15.8261 0.0000
# 4 0.0000 0.0000 0.0000 67.2564 0.0000 -63.9791
# 5 -26.0548 -27.7844 -15.8261 0.0000 21.1894 0.0000
# 6 0.0000 0.0000 0.0000 -63.9791 0.0000 114.0361
#
#
#
# Elastic Compliance Matrix: (Units=1/GPa)
#
#
# Indices 1 2 3 4 5 6 
#
# 1 0.042416 -0.019012 -0.001424 0.000000 0.026163 0.000000
# 2 -0.019012 0.023018 -0.001046 0.000000 0.006023 0.000000
# 3 -0.001424 -0.001046 0.010270 0.000000 0.004547 0.000000
# 4 0.000000 0.000000 0.000000 0.031886 0.000000 0.017890
# 5 0.026163 0.006023 0.004547 0.000000 0.090658 0.000000
# 6 0.000000 0.000000 0.000000 0.017890 0.000000 0.018806
#
#
# Mechanical properties :
#
#
# Convention : Reuss Voigt Hill
#
# Bulk Modulus (GPa) = 30.54448 60.15240 45.34844
# Shear Modulus (GPa) = 18.45491 51.30301 34.87896
#
# Velocity S-wave (km/s) = 3.14614 5.24559 4.32518
# Velocity P-wave (km/s) = 5.43875 8.30366 7.01893
#
# Compressibility (1/GPa) = 0.03273914
#
# Stress axis : x y z
#
# Youngs Moduli (GPa) = 23.57618 43.44476 97.37103
#
# Poissons Ratio (x) = 0.82595 0.13868
# Poissons Ratio (y) = 0.44822 0.10189
# Poissons Ratio (z) = 0.03358 0.04546
#
# Static dielectric constant tensor:
#      x y z
#    x 1.639160 0.000000 -0.006930 
#    y 0.000000 1.587890 0.000000 
#    z -0.006930 0.000000 1.631860 
# 
# From -- ./inp_files/7627.got.cif
#   From: 2010.05.17/outbox.cif.g08.bks.cpg/sg13_4_cif.got.tgz:7627.got - 2010.06.03 16:44:36.
