data_PCOD9232841
_publ_section_title
;
Structure prediction by ZEFSAII (Michael W. Deem and Ramdas Pophale) SiO2 
 PCOD9232841
Probable space group: P 2/C
;
_chemical_formula_sum "Si O2"
_cell_formula_units_Z 18
_cell_length_a 5.200249
_cell_length_b 17.691002
_cell_length_c 9.154391
_cell_angle_alpha 90.000000
_cell_angle_beta 92.355049
_cell_angle_gamma 90.000000
_cell_volume 841.470816
_symmetry_space_group_name_H-M "P 2/C"
_symmetry_group_IT_number 13
_symmetry_cell_setting 'monoclinic'
loop_
_space_group_symop_operation_xyz
x,y,z
-x,y,1/2-z
-x,-y,-z
x,-y,1/2+z
loop_
_atom_site_type_symbol
_atom_site_label
_atom_site_fract_x
_atom_site_fract_y
_atom_site_fract_z
Si Si1 0.249467 0.538101 0.149095
Si Si2 0.067528 0.619598 0.580824
Si Si3 0.000000 0.979470 0.250000
Si Si4 0.305464 0.932126 0.532110
Si Si5 0.253190 0.228704 0.151682
O O1 0.500000 0.552729 0.250000
O O2 0.252797 0.453809 0.078948
O O3 0.000000 0.539111 0.250000
O O4 0.177508 0.597037 0.021344
O O5 0.176693 0.701565 0.545588
O O6 0.000000 0.626661 0.750000
O O7 0.198357 0.036053 0.181073
O O8 0.112686 0.933218 0.388650
O O9 0.355934 0.845035 0.568189
O O10 0.500000 0.000000 0.500000
O O11 0.500000 0.255154 0.250000
O O12 0.000000 0.211408 0.250000
#
# Coordination Sequence:
#
# PCOD9232841 Si02
#       5
#     4   4   2   4   4
#     4  10  21  38  63  94 129 173 218 269 321 390
#     4   9  21  39  64  92 129 174 222 265 324 388
#     4  10  22  38  64  88 122 156 216 262 322 400
#     4  11  22  40  64  93 123 169 213 269 328 397
#     4  11  23  40  64  94 128 168 217 275 322 389
#
# _framework density 21.391116
#
# number of rings (size 3 to 8) (size 9 to 14) (size 15 to 20)
#    0.000    1.778    1.111    2.667    3.111   11.556 
#    2.000    0.000    0.000    0.000    0.000    0.000 
#    0.000    0.000    0.000    0.000    0.000    0.000 
#
# Total GULP energy -100362.823637 kJ/mol
# GULP energy per Si atom -5575.712424 kJ/mol
# Density = 2.134243 g / cm^3
# Si number density = 21.391116 Si / 1000 Ang^3
#
#
#
# Elastic Constant Matrix: (Units=GPa)
#
#
# Indices 1 2 3 4 5 6 
#
# 1 111.1066 39.8635 30.7359 0.0000 18.2092 0.0000
# 2 39.8635 164.4647 36.6974 0.0000 14.6756 0.0000
# 3 30.7359 36.6974 82.1913 0.0000 19.9030 0.0000
# 4 0.0000 0.0000 0.0000 -1.1246 0.0000 -7.2811
# 5 18.2092 14.6756 19.9030 0.0000 48.9493 0.0000
# 6 0.0000 0.0000 0.0000 -7.2811 0.0000 11.0267
#
#
#
# Elastic Compliance Matrix: (Units=1/GPa)
#
#
# Indices 1 2 3 4 5 6 
#
# 1 0.010772 -0.001808 -0.002642 0.000000 -0.002391 0.000000
# 2 -0.001808 0.007091 -0.002372 0.000000 -0.000489 0.000000
# 3 -0.002642 -0.002372 0.015311 0.000000 -0.004532 0.000000
# 4 0.000000 0.000000 0.000000 -0.168564 0.000000 -0.111306
# 5 -0.002391 -0.000489 -0.004532 0.000000 0.023308 0.000000
# 6 0.000000 0.000000 0.000000 -0.111306 0.000000 0.017192
#
#
# Mechanical properties :
#
#
# Convention : Reuss Voigt Hill
#
# Bulk Modulus (GPa) = 51.20100 63.59515 57.39807
# Shear Modulus (GPa) = -66.90119 28.46800 -19.21660
#
# Velocity S-wave (km/s) = -5.59849 3.65202 -3.00049
# Velocity P-wave (km/s) = 4.21939 6.89762 3.85837
#
# Compressibility (1/GPa) = 0.01953087
#
# Stress axis : x y z
#
# Youngs Moduli (GPa) = 92.83539 141.01563 65.31259
#
# Poissons Ratio (x) = 0.25496 0.17255
# Poissons Ratio (y) = 0.16785 0.15490
# Poissons Ratio (z) = 0.24527 0.33444
#
# Static dielectric constant tensor:
#      x y z
#    x 1.863480 0.000000 0.027430 
#    y 0.000000 1.851890 0.000000 
#    z 0.027430 0.000000 1.823960 
# 
# From -- ./inp_files/9563.got.cif
#   From: 2010.05.17/outbox.cif.g08.bks.cpg/sg13_5_cif.got.tgz:9563.got - 2010.06.03 16:44:36.
