data_PCOD9232203
_publ_section_title
;
Structure prediction by ZEFSAII (Michael W. Deem and Ramdas Pophale) SiO2 
 PCOD9232203
Probable space group: P 2/C
;
_chemical_formula_sum "Si O2"
_cell_formula_units_Z 32
_cell_length_a 20.951638
_cell_length_b 11.457116
_cell_length_c 9.344542
_cell_angle_alpha 90.000000
_cell_angle_beta 48.009385
_cell_angle_gamma 90.000000
_cell_volume 1667.204263
_symmetry_space_group_name_H-M "P 2/C"
_symmetry_group_IT_number 13
_symmetry_cell_setting 'monoclinic'
loop_
_space_group_symop_operation_xyz
x,y,z
-x,y,1/2-z
-x,-y,-z
x,-y,1/2+z
loop_
_atom_site_type_symbol
_atom_site_label
_atom_site_fract_x
_atom_site_fract_y
_atom_site_fract_z
Si Si1 0.185952 0.122802 0.390752
Si Si2 0.657833 0.704157 0.854184
Si Si3 0.082676 0.318521 0.039212
Si Si4 0.917324 0.681479 0.287240
Si Si5 0.220939 0.500000 0.918592
Si Si6 0.185951 0.122802 0.051395
Si Si7 0.500000 0.375589 0.419329
Si Si8 0.657833 0.295843 0.672317
O O1 0.278013 0.187831 0.264696
O O2 0.119342 0.208226 0.570299
O O3 0.186865 0.000000 0.469704
O O4 0.166801 0.111931 0.249800
O O5 0.717449 0.588444 0.757986
O O6 0.584705 0.691190 0.845988
O O7 0.619499 0.711648 0.070751
O O8 0.060616 0.288904 0.909076
O O9 0.157209 0.415954 0.927324
O O10 0.119342 0.208225 0.071675
O O11 0.000000 0.361257 0.250000
O O12 0.842791 0.584044 0.398951
O O13 0.000000 0.638743 0.250000
O O14 0.282552 0.411556 0.910331
O O15 0.278013 0.187831 0.901266
O O16 0.500000 0.392487 0.250000
O O17 0.500000 0.500000 0.500000
O O18 0.415295 0.308809 0.600104
#
# Coordination Sequence:
#
# PCOD9232203 Si02
#       8
#     4   4   4   4   4   4   4   4
#     4  10  22  41  64  88 115 151 195 244 294 348
#     4  10  21  38  60  87 119 153 193 238 288 345
#     4  11  23  38  58  86 119 156 197 243 294 349
#     4  11  23  38  58  86 119 156 197 243 294 349
#     4  10  21  35  60  86 118 154 194 237 291 352
#     4  10  22  41  64  88 115 151 195 244 294 348
#     4  12  24  36  57  88 123 158 193 235 285 341
#     4  10  21  38  60  87 119 153 193 238 288 345
#
# _framework density 19.193809000000002
#
# number of rings (size 3 to 8) (size 9 to 14) (size 15 to 20)
#    0.000    1.500    1.250    3.750    0.000    9.500 
#    0.000    3.125    0.000    0.000    0.000    0.000 
#    0.000    0.000    0.000    0.000    0.000    0.000 
#
# Total GULP energy -178739.812941 kJ/mol
# GULP energy per Si atom -5585.619154 kJ/mol
# Density = 1.915012 g / cm^3
# Si number density = 19.193809 Si / 1000 Ang^3
#
#
#
# Elastic Constant Matrix: (Units=GPa)
#
#
# Indices 1 2 3 4 5 6 
#
# 1 119.2031 33.7290 67.9222 0.0000 21.4291 0.0000
# 2 33.7290 112.3879 37.3538 0.0000 10.2844 0.0000
# 3 67.9222 37.3538 135.4261 0.0000 24.5998 0.0000
# 4 0.0000 0.0000 0.0000 8.3133 0.0000 -1.0802
# 5 21.4291 10.2844 24.5998 0.0000 38.4134 0.0000
# 6 0.0000 0.0000 0.0000 -1.0802 0.0000 8.6942
#
#
#
# Elastic Compliance Matrix: (Units=1/GPa)
#
#
# Indices 1 2 3 4 5 6 
#
# 1 0.012382 -0.001711 -0.005168 0.000000 -0.003140 0.000000
# 2 -0.001711 0.010067 -0.001813 0.000000 -0.000579 0.000000
# 3 -0.005168 -0.001813 0.011163 0.000000 -0.003780 0.000000
# 4 0.000000 0.000000 0.000000 0.122263 0.000000 0.015191
# 5 -0.003140 -0.000579 -0.003780 0.000000 0.030360 0.000000
# 6 0.000000 0.000000 0.000000 0.015191 0.000000 0.116906
#
#
# Mechanical properties :
#
#
# Convention : Reuss Voigt Hill
#
# Bulk Modulus (GPa) = 61.62374 71.66969 66.64672
# Shear Modulus (GPa) = 15.34044 26.28499 20.81272
#
# Velocity S-wave (km/s) = 2.83015 3.70462 3.29651
# Velocity P-wave (km/s) = 6.54640 7.46459 7.02052
#
# Compressibility (1/GPa) = 0.01622751
#
# Stress axis : x y z
#
# Youngs Moduli (GPa) = 80.75966 99.33470 89.58249
#
# Poissons Ratio (x) = 0.16997 0.46296
# Poissons Ratio (y) = 0.13819 0.16244
# Poissons Ratio (z) = 0.41737 0.18012
#
# Static dielectric constant tensor:
#      x y z
#    x 1.670070 0.000000 -0.006350 
#    y 0.000000 1.648910 0.000000 
#    z -0.006350 0.000000 1.667830 
# 
# From -- ./inp_files/23346.got.cif
#   From: 2010.05.17/outbox.cif.g08.bks.cpg/sg13_12_cif.got.tgz:23346.got - 2010.06.03 16:44:36.
