data_PCOD9232647
_publ_section_title
;
Structure prediction by ZEFSAII (Michael W. Deem and Ramdas Pophale) SiO2 
 PCOD9232647
Probable space group: P 2/C
;
_chemical_formula_sum "Si O2"
_cell_formula_units_Z 20
_cell_length_a 19.731565
_cell_length_b 9.546038
_cell_length_c 8.487265
_cell_angle_alpha 90.000000
_cell_angle_beta 33.660138
_cell_angle_gamma 90.000000
_cell_volume 886.074601
_symmetry_space_group_name_H-M "P 2/C"
_symmetry_group_IT_number 13
_symmetry_cell_setting 'monoclinic'
loop_
_space_group_symop_operation_xyz
x,y,z
-x,y,1/2-z
-x,-y,-z
x,-y,1/2+z
loop_
_atom_site_type_symbol
_atom_site_label
_atom_site_fract_x
_atom_site_fract_y
_atom_site_fract_z
Si Si1 0.781391 0.650755 0.229893
Si Si2 0.457175 0.654990 0.618500
Si Si3 0.696210 0.147520 0.653158
Si Si4 0.363878 0.133823 0.067523
Si Si5 0.915446 0.594335 0.277816
O O1 0.639420 0.640993 0.554099
O O2 0.789770 0.775214 0.087265
O O3 0.846906 0.678207 0.271408
O O4 0.829485 0.512928 0.044807
O O5 0.500000 0.500000 0.500000
O O6 0.567404 0.767138 0.420871
O O7 0.384562 0.719296 0.611070
O O8 0.720505 0.152981 0.420853
O O9 0.681432 0.987112 0.730535
O O10 0.500000 0.085334 0.750000
O O11 0.000000 0.663746 0.250000
O O12 0.000000 0.500000 0.000000
#
# Coordination Sequence:
#
# PCOD9232647 Si02
#       5
#     4   4   4   4   4
#     4  11  21  35  60  87 118 162 202 248 311 368
#     4  11  23  36  55  92 133 165 200 245 292 359
#     4  11  22  37  57  86 126 171 209 243 292 364
#     4  10  21  38  54  78 127 180 212 242 282 347
#     4   9  21  40  59  85 117 148 194 260 321 366
#
# _framework density 22.571463000000001
#
# number of rings (size 3 to 8) (size 9 to 14) (size 15 to 20)
#    0.000    1.600    0.000    6.600    0.000   14.400 
#    0.000    0.000    0.000    0.000    0.000   72.800 
#    0.000    0.000    0.000    0.000    0.000    0.000 
#
# Total GULP energy -111634.462658 kJ/mol
# GULP energy per Si atom -5581.723133 kJ/mol
# Density = 2.252009 g / cm^3
# Si number density = 22.571463 Si / 1000 Ang^3
#
#
#
# Elastic Constant Matrix: (Units=GPa)
#
#
# Indices 1 2 3 4 5 6 
#
# 1 196.4069 65.2934 9.8561 0.0000 45.7915 0.0000
# 2 65.2934 128.2960 10.7472 0.0000 18.0545 0.0000
# 3 9.8561 10.7472 38.2222 0.0000 16.6555 0.0000
# 4 0.0000 0.0000 0.0000 16.9824 0.0000 12.4150
# 5 45.7915 18.0545 16.6555 0.0000 34.7796 0.0000
# 6 0.0000 0.0000 0.0000 12.4150 0.0000 37.8990
#
#
#
# Elastic Compliance Matrix: (Units=1/GPa)
#
#
# Indices 1 2 3 4 5 6 
#
# 1 0.008607 -0.003069 0.003649 0.000000 -0.011485 0.000000
# 2 -0.003069 0.009514 -0.001886 0.000000 0.000006 0.000000
# 3 0.003649 -0.001886 0.034649 0.000000 -0.020418 0.000000
# 4 0.000000 0.000000 0.000000 0.077427 0.000000 -0.025363
# 5 -0.011485 0.000006 -0.020418 0.000000 0.053649 0.000000
# 6 0.000000 0.000000 0.000000 -0.025363 0.000000 0.034695
#
#
# Mechanical properties :
#
#
# Convention : Reuss Voigt Hill
#
# Bulk Modulus (GPa) = 19.93792 59.41316 39.67554
# Shear Modulus (GPa) = 21.01968 36.40077 28.71022
#
# Velocity S-wave (km/s) = 3.05495 4.02019 3.57034
# Velocity P-wave (km/s) = 4.61476 6.92305 5.88322
#
# Compressibility (1/GPa) = 0.05015569
#
# Stress axis : x y z
#
# Youngs Moduli (GPa) = 116.19044 105.11067 28.86056
#
# Poissons Ratio (x) = 0.32263 -0.10530
# Poissons Ratio (y) = 0.35664 0.05443
# Poissons Ratio (z) = -0.42393 0.19825
#
# Static dielectric constant tensor:
#      x y z
#    x 2.002850 0.000000 -0.034250 
#    y 0.000000 1.622430 0.000000 
#    z -0.034250 0.000000 1.893240 
# 
# From -- ./inp_files/22656.got.cif
#   From: 2010.05.17/outbox.cif.g08.bks.cpg/sg13_12_cif.got.tgz:22656.got - 2010.06.03 16:44:36.
