data_PCOD9232446
_publ_section_title
;
Structure prediction by ZEFSAII (Michael W. Deem and Ramdas Pophale) SiO2 
 PCOD9232446
Probable space group: P 2/C
;
_chemical_formula_sum "Si O2"
_cell_formula_units_Z 28
_cell_length_a 5.147832
_cell_length_b 11.236559
_cell_length_c 18.401729
_cell_angle_alpha 90.000000
_cell_angle_beta 101.969537
_cell_angle_gamma 90.000000
_cell_volume 1041.285313
_symmetry_space_group_name_H-M "P 2/C"
_symmetry_group_IT_number 13
_symmetry_cell_setting 'monoclinic'
loop_
_space_group_symop_operation_xyz
x,y,z
-x,y,1/2-z
-x,-y,-z
x,-y,1/2+z
loop_
_atom_site_type_symbol
_atom_site_label
_atom_site_fract_x
_atom_site_fract_y
_atom_site_fract_z
Si Si1 0.542558 0.991937 0.832574
Si Si2 0.500000 0.000000 0.500000
Si Si3 0.997242 0.873657 0.920819
Si Si4 0.564878 0.362835 0.000799
Si Si5 0.947020 0.753265 0.048968
Si Si6 0.304832 0.270850 0.341841
Si Si7 0.000000 0.531045 0.750000
Si Si8 0.797799 0.701804 0.295701
O O1 0.500000 0.045433 0.750000
O O2 0.417049 0.855913 0.821635
O O3 0.854029 0.971074 0.865302
O O4 0.454591 0.039083 0.906353
O O5 0.276682 0.100533 0.473567
O O6 0.029098 0.766514 0.866328
O O7 0.838241 0.859887 0.988740
O O8 0.861379 0.330386 0.990343
O O9 0.323471 0.307261 0.940711
O O10 0.500000 0.500000 0.000000
O O11 0.524263 0.318438 0.081241
O O12 0.142512 0.769646 0.127054
O O13 0.234601 0.379695 0.286351
O O14 0.099184 0.436866 0.694572
O O15 0.500000 0.697343 0.250000
O O16 0.000000 0.757792 0.250000
#
# Coordination Sequence:
#
# PCOD9232446 Si02
#       8
#     4   2   4   4   4   4   2   4
#     4  11  22  42  71 101 138 171 221 290 368 445
#     4  10  24  44  68 102 134 176 222 296 368 450
#     4  10  22  42  68  97 134 174 228 289 368 436
#     4  11  22  36  59  92 130 179 232 282 343 414
#     4  11  22  41  64  90 133 180 237 288 352 413
#     4  10  21  37  57  97 129 173 224 281 346 420
#     4  10  22  36  56  90 140 178 234 284 352 408
#     4  10  23  40  59  86 131 190 241 295 341 407
#
# _framework density 26.889845000000001
#
# number of rings (size 3 to 8) (size 9 to 14) (size 15 to 20)
#    0.429    1.143    1.429    3.429    2.000    4.571 
#    0.000    0.714    0.000    0.000    0.000    0.000 
#    0.000    0.000    0.000    0.000    0.000    0.000 
#
# Total GULP energy -155895.488080 kJ/mol
# GULP energy per Si atom -5567.696003 kJ/mol
# Density = 2.682864 g / cm^3
# Si number density = 26.889845 Si / 1000 Ang^3
#
#
#
# Elastic Constant Matrix: (Units=GPa)
#
#
# Indices 1 2 3 4 5 6 
#
# 1 98.3383 0.1719 32.4014 0.0000 12.8546 0.0000
# 2 0.1719 135.2353 26.9011 0.0000 -4.1716 0.0000
# 3 32.4014 26.9011 176.1069 0.0000 4.6615 0.0000
# 4 0.0000 0.0000 0.0000 45.5276 0.0000 -0.5642
# 5 12.8546 -4.1716 4.6615 0.0000 53.9068 0.0000
# 6 0.0000 0.0000 0.0000 -0.5642 0.0000 12.0760
#
#
#
# Elastic Compliance Matrix: (Units=1/GPa)
#
#
# Indices 1 2 3 4 5 6 
#
# 1 0.011161 0.000315 -0.002036 0.000000 -0.002461 0.000000
# 2 0.000315 0.007661 -0.001245 0.000000 0.000625 0.000000
# 3 -0.002036 -0.001245 0.006247 0.000000 -0.000151 0.000000
# 4 0.000000 0.000000 0.000000 0.021977 0.000000 0.001027
# 5 -0.002461 0.000625 -0.000151 0.000000 0.019199 0.000000
# 6 0.000000 0.000000 0.000000 0.001027 0.000000 0.082857
#
#
# Mechanical properties :
#
#
# Convention : Reuss Voigt Hill
#
# Bulk Modulus (GPa) = 52.25524 58.73661 55.49592
# Shear Modulus (GPa) = 30.97628 45.64917 38.31273
#
# Velocity S-wave (km/s) = 3.39775 4.12471 3.77875
# Velocity P-wave (km/s) = 5.90493 6.67646 6.30251
#
# Compressibility (1/GPa) = 0.01913684
#
# Stress axis : x y z
#
# Youngs Moduli (GPa) = 89.59672 130.53097 160.07189
#
# Poissons Ratio (x) = -0.04112 0.32598
# Poissons Ratio (y) = -0.02822 0.19925
# Poissons Ratio (z) = 0.18246 0.16248
#
# Static dielectric constant tensor:
#      x y z
#    x 2.097540 0.000000 -0.008200 
#    y 0.000000 2.164070 0.000000 
#    z -0.008200 0.000000 2.160730 
# 
# From -- ./inp_files/61693.got.cif
#   From: 2010.05.17/outbox.cif.g08.bks.cpg/sg13_31_cif.got.tgz:61693.got - 2010.06.03 16:44:36.
