data_PCOD9232889
_publ_section_title
;
Structure prediction by ZEFSAII (Michael W. Deem and Ramdas Pophale) SiO2 
 PCOD9232889
Probable space group: P 2/C
;
_chemical_formula_sum "Si O2"
_cell_formula_units_Z 24
_cell_length_a 14.386580
_cell_length_b 5.729773
_cell_length_c 23.654793
_cell_angle_alpha 90.000000
_cell_angle_beta 29.429925
_cell_angle_gamma 90.000000
_cell_volume 958.104312
_symmetry_space_group_name_H-M "P 2/C"
_symmetry_group_IT_number 13
_symmetry_cell_setting 'monoclinic'
loop_
_space_group_symop_operation_xyz
x,y,z
-x,y,1/2-z
-x,-y,-z
x,-y,1/2+z
loop_
_atom_site_type_symbol
_atom_site_label
_atom_site_fract_x
_atom_site_fract_y
_atom_site_fract_z
Si Si1 0.136972 0.017520 0.101555
Si Si2 0.934580 0.378939 0.458301
Si Si3 0.547875 0.750630 0.004237
Si Si4 0.199880 0.230431 0.766541
Si Si5 0.238796 0.877321 0.848668
Si Si6 0.368481 0.749246 0.893530
O O1 0.100631 0.178689 0.067518
O O2 0.234175 0.193561 0.094430
O O3 0.934847 0.884686 0.211734
O O4 0.292488 0.831471 0.994818
O O5 0.742105 0.519327 0.566911
O O6 0.083985 0.546477 0.347672
O O7 0.042731 0.264240 0.453579
O O8 0.409133 0.738395 0.131775
O O9 0.500000 0.500000 0.000000
O O10 0.500000 0.000000 0.000000
O O11 0.216827 0.078185 0.814335
O O12 0.305547 0.928886 0.876747
O O13 0.409164 0.726387 0.730833
#
# Coordination Sequence:
#
# PCOD9232889 Si02
#       6
#     4   4   4   4   4   4
#     4  10  24  45  69 100 143 179 232 295 361 425
#     4  10  23  38  67  96 142 178 232 283 351 418
#     4  12  30  50  79 104 139 186 244 304 368 432
#     4  10  24  45  69 100 143 179 232 295 361 425
#     4  10  21  38  66 100 142 186 230 279 345 426
#     4  10  21  38  66 100 142 186 230 279 345 426
#
# _framework density 25.049465999999999
#
# number of rings (size 3 to 8) (size 9 to 14) (size 15 to 20)
#    0.000    1.667    1.667    0.500   11.667    8.000 
#    0.000    3.333    0.000    0.000    0.000    0.000 
#    0.000    0.000    0.000    0.000    0.000    0.000 
#
# Total GULP energy -133979.582755 kJ/mol
# GULP energy per Si atom -5582.482615 kJ/mol
# Density = 2.499245 g / cm^3
# Si number density = 25.049466 Si / 1000 Ang^3
#
#
#
# Elastic Constant Matrix: (Units=GPa)
#
#
# Indices 1 2 3 4 5 6 
#
# 1 68.3538 21.9161 -1.1300 0.0000 -20.6034 0.0000
# 2 21.9161 76.8455 18.4716 0.0000 2.1256 0.0000
# 3 -1.1300 18.4716 85.9982 0.0000 -3.8464 0.0000
# 4 0.0000 0.0000 0.0000 31.0771 0.0000 -4.2373
# 5 -20.6034 2.1256 -3.8464 0.0000 39.6618 0.0000
# 6 0.0000 0.0000 0.0000 -4.2373 0.0000 32.4230
#
#
#
# Elastic Compliance Matrix: (Units=1/GPa)
#
#
# Indices 1 2 3 4 5 6 
#
# 1 0.020079 -0.006550 0.002162 0.000000 0.010991 0.000000
# 2 -0.006550 0.015900 -0.003708 0.000000 -0.004614 0.000000
# 3 0.002162 -0.003708 0.012567 0.000000 0.002541 0.000000
# 4 0.000000 0.000000 0.000000 0.032762 0.000000 0.004282
# 5 0.010991 -0.004614 0.002541 0.000000 0.031417 0.000000
# 6 0.000000 0.000000 0.000000 0.004282 0.000000 0.031402
#
#
# Mechanical properties :
#
#
# Convention : Reuss Voigt Hill
#
# Bulk Modulus (GPa) = 30.90772 34.41255 32.66014
# Shear Modulus (GPa) = 29.22247 33.42836 31.32542
#
# Velocity S-wave (km/s) = 3.41924 3.65704 3.54014
# Velocity P-wave (km/s) = 5.28713 5.62135 5.45680
#
# Compressibility (1/GPa) = 0.03235437
#
# Stress axis : x y z
#
# Youngs Moduli (GPa) = 49.80411 62.89284 79.57625
#
# Poissons Ratio (x) = 0.41196 -0.17207
# Poissons Ratio (y) = 0.32623 0.29504
# Poissons Ratio (z) = -0.10769 0.23318
#
# Static dielectric constant tensor:
#      x y z
#    x 2.009710 0.000000 -0.019540 
#    y 0.000000 2.083970 0.000000 
#    z -0.019540 0.000000 1.969030 
# 
# From -- ./inp_files/52350.got.cif
#   From: 2010.05.17/outbox.cif.g08.bks.cpg/sg13_27_cif.got.tgz:52350.got - 2010.06.03 16:44:36.
