data_PCOD9232116
_publ_section_title
;
Structure prediction by ZEFSAII (Michael W. Deem and Ramdas Pophale) SiO2 
 PCOD9232116
Probable space group: P 2/C
;
_chemical_formula_sum "Si O2"
_cell_formula_units_Z 22
_cell_length_a 9.998364
_cell_length_b 11.660496
_cell_length_c 8.974591
_cell_angle_alpha 90.000000
_cell_angle_beta 75.193803
_cell_angle_gamma 90.000000
_cell_volume 1011.568665
_symmetry_space_group_name_H-M "P 2/C"
_symmetry_group_IT_number 13
_symmetry_cell_setting 'monoclinic'
loop_
_space_group_symop_operation_xyz
x,y,z
-x,y,1/2-z
-x,-y,-z
x,-y,1/2+z
loop_
_atom_site_type_symbol
_atom_site_label
_atom_site_fract_x
_atom_site_fract_y
_atom_site_fract_z
Si Si1 0.318563 0.906776 0.066537
Si Si2 0.168941 0.343284 0.229228
Si Si3 0.863848 0.263251 0.697367
Si Si4 0.166990 0.489721 0.959709
Si Si5 0.872979 0.119958 0.397259
Si Si6 0.500000 0.949804 0.750000
O O1 0.238915 0.803648 0.166142
O O2 0.209185 0.004582 0.049339
O O3 0.408908 0.967492 0.170009
O O4 0.409035 0.880424 0.895244
O O5 0.210089 0.388863 0.379038
O O6 0.215760 0.217992 0.164681
O O7 0.000000 0.335959 0.250000
O O8 0.212223 0.446283 0.107429
O O9 0.799660 0.378595 0.649494
O O10 0.906608 0.181668 0.544825
O O11 0.000000 0.294374 0.750000
O O12 0.000000 0.500000 0.000000
O O13 0.000000 0.093201 0.250000
#
# Coordination Sequence:
#
# PCOD9232116 Si02
#       6
#     4   4   4   4   4   2
#     4  11  22  41  58  81 106 147 194 236 286 324
#     4   8  15  28  45  71 108 146 173 205 258 331
#     4  11  22  33  55  88 120 146 179 226 286 347
#     4   9  16  30  48  75 116 148 176 204 261 345
#     4  10  21  34  53  83 119 146 174 225 291 345
#     4  10  24  42  60  72 106 150 206 242 266 334
#
# _framework density 21.7484
#
# number of rings (size 3 to 8) (size 9 to 14) (size 15 to 20)
#    0.000    2.182    1.818    3.273    2.545    1.455 
#    0.000    0.000    0.000    0.000    0.000    7.636 
#    0.000    0.000    0.000    0.000    0.000    0.000 
#
# Total GULP energy -122779.479745 kJ/mol
# GULP energy per Si atom -5580.885443 kJ/mol
# Density = 2.169890 g / cm^3
# Si number density = 21.748400 Si / 1000 Ang^3
#
#
#
# Elastic Constant Matrix: (Units=GPa)
#
#
# Indices 1 2 3 4 5 6 
#
# 1 15.5791 -7.7914 15.7140 0.0000 0.9165 0.0000
# 2 -7.7914 62.8234 26.3872 0.0000 -13.4786 0.0000
# 3 15.7140 26.3872 133.6539 0.0000 -22.8159 0.0000
# 4 0.0000 0.0000 0.0000 -133.5174 0.0000 8.3990
# 5 0.9165 -13.4786 -22.8159 0.0000 27.4686 0.0000
# 6 0.0000 0.0000 0.0000 8.3990 0.0000 -1.8093
#
#
#
# Elastic Compliance Matrix: (Units=1/GPa)
#
#
# Indices 1 2 3 4 5 6 
#
# 1 0.086892 0.015269 -0.014503 0.000000 -0.007453 0.000000
# 2 0.015269 0.021134 -0.004992 0.000000 0.005714 0.000000
# 3 -0.014503 -0.004992 0.011463 0.000000 0.007555 0.000000
# 4 0.000000 0.000000 0.000000 -0.010579 0.000000 -0.049107
# 5 -0.007453 0.005714 0.007555 0.000000 0.045733 0.000000
# 6 0.000000 0.000000 0.000000 -0.049107 0.000000 -0.780639
#
#
# Mechanical properties :
#
#
# Convention : Reuss Voigt Hill
#
# Bulk Modulus (GPa) = 9.00611 31.18621 20.09616
# Shear Modulus (GPa) = -8.61279 -9.72187 -9.16733
#
# Velocity S-wave (km/s) = -1.99218 -2.11657 -2.05532
# Velocity P-wave (km/s) = 1.06850 2.89785 1.90471
#
# Compressibility (1/GPa) = 0.11103572
#
# Stress axis : x y z
#
# Youngs Moduli (GPa) = 11.50858 47.31689 87.24096
#
# Poissons Ratio (x) = -0.72247 1.26525
# Poissons Ratio (y) = -0.17572 0.43553
# Poissons Ratio (z) = 0.16691 0.23622
#
# Static dielectric constant tensor:
#      x y z
#    x 1.743210 0.000000 -0.216010 
#    y 0.000000 1.804810 0.000000 
#    z -0.216010 0.000000 1.181360 
# 
# From -- ./inp_files/15778.got.cif
#   From: 2010.05.17/outbox.cif.g08.bks.cpg/sg13_8_cif.got.tgz:15778.got - 2010.06.03 16:44:36.
