data_PCOD9232667
_publ_section_title
;
Structure prediction by ZEFSAII (Michael W. Deem and Ramdas Pophale) SiO2 
 PCOD9232667
Probable space group: P 2/C
;
_chemical_formula_sum "Si O2"
_cell_formula_units_Z 28
_cell_length_a 10.128210
_cell_length_b 27.469270
_cell_length_c 5.378536
_cell_angle_alpha 90.000000
_cell_angle_beta 95.045178
_cell_angle_gamma 90.000000
_cell_volume 1490.589390
_symmetry_space_group_name_H-M "P 2/C"
_symmetry_group_IT_number 13
_symmetry_cell_setting 'monoclinic'
loop_
_space_group_symop_operation_xyz
x,y,z
-x,y,1/2-z
-x,-y,-z
x,-y,1/2+z
loop_
_atom_site_type_symbol
_atom_site_label
_atom_site_fract_x
_atom_site_fract_y
_atom_site_fract_z
Si Si1 0.161837 0.971898 0.275372
Si Si2 0.160838 0.198930 0.273498
Si Si3 0.683854 0.390090 0.429917
Si Si4 0.347162 0.292085 0.331211
Si Si5 0.500000 0.665157 0.250000
Si Si6 0.500000 0.531628 0.750000
Si Si7 0.159893 0.139741 0.774143
Si Si8 0.842733 0.469941 0.717342
O O1 0.207884 0.915958 0.277421
O O2 0.000000 0.971430 0.250000
O O3 0.202731 0.999263 0.534300
O O4 0.249525 0.247369 0.278734
O O5 0.194893 0.169340 0.530907
O O6 0.000000 0.208030 0.250000
O O7 0.194455 0.167329 0.034455
O O8 0.721575 0.341277 0.288409
O O9 0.556940 0.370062 0.554306
O O10 0.626755 0.433257 0.254765
O O11 0.778410 0.417796 0.639169
O O12 0.500000 0.284675 0.250000
O O13 0.380835 0.302688 0.624514
O O14 0.500000 0.500000 0.500000
O O15 0.000000 0.137098 0.750000
O O16 0.810908 0.505635 0.477883
O O17 0.000000 0.463185 0.750000
#
# Coordination Sequence:
#
# PCOD9232667 Si02
#       8
#     4   4   4   4   2   2   4   4
#     4   9  15  24  43  73 110 156 195 228 283 346
#     4  10  21  38  57  84 114 155 195 237 291 342
#     4  11  22  39  58  85 110 143 178 227 279 333
#     4  10  23  40  61  82 115 151 189 243 289 341
#     4  10  21  40  60  80 114 140 178 235 290 326
#     4  12  23  34  58  86 108 134 170 215 274 340
#     4   9  18  32  51  78 120 155 193 244 288 338
#     4  10  23  42  60  83 114 147 178 216 269 334
#
# _framework density 18.784514999999999
#
# number of rings (size 3 to 8) (size 9 to 14) (size 15 to 20)
#    0.000    2.000    2.143    2.143    6.000    3.429 
#    2.571    0.000    0.000    0.000    0.000    0.000 
#    0.000   11.429    0.000    0.000    0.000    0.000 
#
# Total GULP energy -155978.135168 kJ/mol
# GULP energy per Si atom -5570.647685 kJ/mol
# Density = 1.874176 g / cm^3
# Si number density = 18.784515 Si / 1000 Ang^3
#
#
#
# Elastic Constant Matrix: (Units=GPa)
#
#
# Indices 1 2 3 4 5 6 
#
# 1 45.5735 50.8469 28.4506 0.0000 4.4934 0.0000
# 2 50.8469 188.6654 95.9850 0.0000 3.8624 0.0000
# 3 28.4506 95.9850 152.5713 0.0000 -5.6300 0.0000
# 4 0.0000 0.0000 0.0000 28.8293 0.0000 -1.3045
# 5 4.4934 3.8624 -5.6300 0.0000 18.4544 0.0000
# 6 0.0000 0.0000 0.0000 -1.3045 0.0000 24.2977
#
#
#
# Elastic Compliance Matrix: (Units=1/GPa)
#
#
# Indices 1 2 3 4 5 6 
#
# 1 0.032194 -0.007889 -0.001283 0.000000 -0.006579 0.000000
# 2 -0.007889 0.009916 -0.004827 0.000000 -0.001627 0.000000
# 3 -0.001283 -0.004827 0.009992 0.000000 0.004371 0.000000
# 4 0.000000 0.000000 0.000000 0.034771 0.000000 0.001867
# 5 -0.006579 -0.001627 0.004371 0.000000 0.057463 0.000000
# 6 0.000000 0.000000 0.000000 0.001867 0.000000 0.041256
#
#
# Mechanical properties :
#
#
# Convention : Reuss Voigt Hill
#
# Bulk Modulus (GPa) = 41.48829 81.93060 61.70944
# Shear Modulus (GPa) = 22.56057 28.41813 25.48935
#
# Velocity S-wave (km/s) = 3.46933 3.89376 3.68765
# Velocity P-wave (km/s) = 6.17922 7.99536 7.14523
#
# Compressibility (1/GPa) = 0.02410319
#
# Stress axis : x y z
#
# Youngs Moduli (GPa) = 31.06141 100.85021 100.08416
#
# Poissons Ratio (x) = 0.79563 0.12840
# Poissons Ratio (y) = 0.24505 0.48311
# Poissons Ratio (z) = 0.03985 0.48681
#
# Static dielectric constant tensor:
#      x y z
#    x 1.659270 0.000000 0.012990 
#    y 0.000000 1.658390 0.000000 
#    z 0.012990 0.000000 1.734520 
# 
# From -- ./inp_files/4176.got.cif
#   From: 2010.05.17/outbox.cif.g08.bks.cpg/sg13_3_cif.got.tgz:4176.got - 2010.06.03 16:44:36.
