data_PCOD9232145
_publ_section_title
;
Structure prediction by ZEFSAII (Michael W. Deem and Ramdas Pophale) SiO2 
 PCOD9232145
Probable space group: P 2/C
;
_chemical_formula_sum "Si O2"
_cell_formula_units_Z 32
_cell_length_a 12.064369
_cell_length_b 9.073303
_cell_length_c 30.533322
_cell_angle_alpha 90.000000
_cell_angle_beta 152.696701
_cell_angle_gamma 90.000000
_cell_volume 1533.110665
_symmetry_space_group_name_H-M "P 2/C"
_symmetry_group_IT_number 13
_symmetry_cell_setting 'monoclinic'
loop_
_space_group_symop_operation_xyz
x,y,z
-x,y,1/2-z
-x,-y,-z
x,-y,1/2+z
loop_
_atom_site_type_symbol
_atom_site_label
_atom_site_fract_x
_atom_site_fract_y
_atom_site_fract_z
Si Si1 0.203491 0.926972 0.101502
Si Si2 0.771115 0.342374 0.330999
Si Si3 0.833859 0.535852 0.651567
Si Si4 0.147250 0.209851 0.234434
Si Si5 0.835108 0.371359 0.961269
Si Si6 0.439113 0.405908 0.076357
Si Si7 0.754810 0.944188 0.280896
Si Si8 0.964522 0.632787 0.361895
O O1 0.470742 0.981994 0.182513
O O2 0.163847 0.959804 0.139185
O O3 0.218045 0.753052 0.093291
O O4 0.000000 0.000000 0.000000
O O5 0.500000 0.311337 0.250000
O O6 0.823636 0.259252 0.305171
O O7 0.983536 0.302427 0.439077
O O8 0.798803 0.514470 0.328590
O O9 0.567392 0.529433 0.577846
O O10 0.914400 0.447067 0.637359
O O11 0.000000 0.482714 0.750000
O O12 0.913042 0.706312 0.670788
O O13 0.376129 0.285430 0.339141
O O14 0.137484 0.036133 0.222333
O O15 0.619808 0.460730 0.910357
O O16 0.000000 0.500000 0.000000
O O17 0.186849 0.334751 0.972954
O O18 0.816019 0.773424 0.295064
#
# Coordination Sequence:
#
# PCOD9232145 Si02
#       8
#     4   4   4   4   4   4   4   4
#     4  11  26  42  59  90 135 171 210 258 317 389
#     4  10  21  34  61  85 121 156 206 255 309 373
#     4   9  20  40  68  91 121 159 211 265 318 370
#     4  10  22  39  60  86 121 170 211 249 313 380
#     4  11  23  37  63  95 120 159 209 254 321 380
#     4  10  21  40  70  93 123 162 212 270 319 372
#     4  11  26  39  61  89 131 172 209 256 324 375
#     4  10  22  39  61  95 123 158 208 269 314 375
#
# _framework density 20.872596999999999
#
# number of rings (size 3 to 8) (size 9 to 14) (size 15 to 20)
#    0.000    1.750    0.000    3.375   15.750    0.000 
#    0.000    2.500    0.000    0.000    0.000    0.000 
#    0.000    0.000    0.000    0.000    0.000    0.000 
#
# Total GULP energy -178528.385721 kJ/mol
# GULP energy per Si atom -5579.012054 kJ/mol
# Density = 2.082509 g / cm^3
# Si number density = 20.872597 Si / 1000 Ang^3
#
#
#
# Elastic Constant Matrix: (Units=GPa)
#
#
# Indices 1 2 3 4 5 6 
#
# 1 95.8573 14.1438 13.4820 0.0000 3.1184 0.0000
# 2 14.1438 87.0882 13.6396 0.0000 -0.1367 0.0000
# 3 13.4820 13.6396 76.0281 0.0000 -6.2466 0.0000
# 4 0.0000 0.0000 0.0000 11.3635 0.0000 -7.0472
# 5 3.1184 -0.1367 -6.2466 0.0000 34.9433 0.0000
# 6 0.0000 0.0000 0.0000 -7.0472 0.0000 24.0648
#
#
#
# Elastic Compliance Matrix: (Units=1/GPa)
#
#
# Indices 1 2 3 4 5 6 
#
# 1 0.010946 -0.001501 -0.001779 0.000000 -0.001301 0.000000
# 2 -0.001501 0.012024 -0.001904 0.000000 -0.000159 0.000000
# 3 -0.001779 -0.001904 0.014028 0.000000 0.002659 0.000000
# 4 0.000000 0.000000 0.000000 0.107530 0.000000 0.031489
# 5 -0.001301 -0.000159 0.002659 0.000000 0.029209 0.000000
# 6 0.000000 0.000000 0.000000 0.031489 0.000000 0.050776
#
#
# Mechanical properties :
#
#
# Convention : Reuss Voigt Hill
#
# Bulk Modulus (GPa) = 37.54993 37.94492 37.74743
# Shear Modulus (GPa) = 20.51216 28.58819 24.55018
#
# Velocity S-wave (km/s) = 3.13826 3.70490 3.43329
# Velocity P-wave (km/s) = 5.58217 6.04321 5.81726
#
# Compressibility (1/GPa) = 0.02663121
#
# Stress axis : x y z
#
# Youngs Moduli (GPa) = 91.35632 83.16434 71.28347
#
# Poissons Ratio (x) = 0.12485 0.12679
# Poissons Ratio (y) = 0.13715 0.13573
# Poissons Ratio (z) = 0.16249 0.15835
#
# Static dielectric constant tensor:
#      x y z
#    x 1.759170 0.000000 -0.014230 
#    y 0.000000 1.860690 0.000000 
#    z -0.014230 0.000000 1.737830 
# 
# From -- ./inp_files/96709.got.cif
#   From: 2010.05.17/outbox.cif.g08.bks.cpg/sg13_49_cif.got.tgz:96709.got - 2010.06.03 16:44:36.
