data_PCOD9232552
_publ_section_title
;
Structure prediction by ZEFSAII (Michael W. Deem and Ramdas Pophale) SiO2 
 PCOD9232552
Probable space group: P 2/C
;
_chemical_formula_sum "Si O2"
_cell_formula_units_Z 16
_cell_length_a 7.991260
_cell_length_b 19.038663
_cell_length_c 8.133551
_cell_angle_alpha 90.000000
_cell_angle_beta 144.909845
_cell_angle_gamma 90.000000
_cell_volume 711.373225
_symmetry_space_group_name_H-M "P 2/C"
_symmetry_group_IT_number 13
_symmetry_cell_setting 'monoclinic'
loop_
_space_group_symop_operation_xyz
x,y,z
-x,y,1/2-z
-x,-y,-z
x,-y,1/2+z
loop_
_atom_site_type_symbol
_atom_site_label
_atom_site_fract_x
_atom_site_fract_y
_atom_site_fract_z
Si Si1 0.687450 0.059271 0.059762
Si Si2 0.810949 0.714992 0.433067
Si Si3 0.812702 0.558379 0.440388
Si Si4 0.822685 0.170456 0.454564
O O1 0.765614 0.119111 0.255085
O O2 0.000000 0.031914 0.250000
O O3 0.500000 0.083199 0.750000
O O4 0.500000 0.000000 0.000000
O O5 0.500000 0.739798 0.250000
O O6 0.771713 0.635756 0.328731
O O7 0.972484 0.765918 0.438212
O O8 0.000000 0.714406 0.750000
O O9 0.500000 0.531409 0.250000
O O10 0.000000 0.500000 0.500000
O O11 0.000000 0.573544 0.750000
O O12 0.500000 0.193620 0.250000
O O13 0.000000 0.136850 0.750000
#
# Coordination Sequence:
#
# PCOD9232552 Si02
#       4
#     4   4   4   4
#     4  12  27  49  73  99 134 174 216 272 333 400
#     4  10  22  42  64  92 130 176 221 268 328 393
#     4  10  21  37  61  92 130 172 219 269 324 386
#     4  12  26  44  68 101 133 170 222 277 330 395
#
# _framework density 22.491709
#
# number of rings (size 3 to 8) (size 9 to 14) (size 15 to 20)
#    0.000    1.000    0.000    6.000    0.000    6.000 
#    0.000    0.000    0.000    0.000    0.000    0.000 
#    0.000    0.000    0.000    0.000    0.000    0.000 
#
# Total GULP energy -89495.321174 kJ/mol
# GULP energy per Si atom -5593.457573 kJ/mol
# Density = 2.244052 g / cm^3
# Si number density = 22.491709 Si / 1000 Ang^3
#
#
#
# Elastic Constant Matrix: (Units=GPa)
#
#
# Indices 1 2 3 4 5 6 
#
# 1 170.3110 102.5739 70.8408 0.0000 47.0026 0.0000
# 2 102.5739 141.0554 31.1164 0.0000 17.2291 0.0000
# 3 70.8408 31.1164 164.0328 0.0000 17.3856 0.0000
# 4 0.0000 0.0000 0.0000 26.4309 0.0000 5.8503
# 5 47.0026 17.2291 17.3856 0.0000 70.8424 0.0000
# 6 0.0000 0.0000 0.0000 5.8503 0.0000 25.1377
#
#
#
# Elastic Compliance Matrix: (Units=1/GPa)
#
#
# Indices 1 2 3 4 5 6 
#
# 1 0.014851 -0.009108 -0.003980 0.000000 -0.006662 0.000000
# 2 -0.009108 0.013142 0.001169 0.000000 0.002560 0.000000
# 3 -0.003980 0.001169 0.007540 0.000000 0.000506 0.000000
# 4 0.000000 0.000000 0.000000 0.039889 0.000000 -0.009283
# 5 -0.006662 0.002560 0.000506 0.000000 0.017789 0.000000
# 6 0.000000 0.000000 0.000000 -0.009283 0.000000 0.041941
#
#
# Mechanical properties :
#
#
# Convention : Reuss Voigt Hill
#
# Bulk Modulus (GPa) = 85.50369 98.27350 91.88860
# Shear Modulus (GPa) = 30.69600 42.54008 36.61804
#
# Velocity S-wave (km/s) = 3.69829 4.35370 4.03931
# Velocity P-wave (km/s) = 7.50564 8.31030 7.91820
#
# Compressibility (1/GPa) = 0.01169540
#
# Stress axis : x y z
#
# Youngs Moduli (GPa) = 67.33615 76.09237 132.63058
#
# Poissons Ratio (x) = 0.69303 0.52785
# Poissons Ratio (y) = 0.61328 -0.15506
# Poissons Ratio (z) = 0.26799 -0.08896
#
# Static dielectric constant tensor:
#      x y z
#    x 1.823780 0.000000 -0.034040 
#    y 0.000000 1.943310 0.000000 
#    z -0.034040 0.000000 1.780320 
# 
# From -- ./inp_files/13221.got.cif
#   From: 2010.05.17/outbox.cif.g08.bks.cpg/sg13_7_cif.got.tgz:13221.got - 2010.06.03 16:44:36.
