data_PCOD9232783
_publ_section_title
;
Structure prediction by ZEFSAII (Michael W. Deem and Ramdas Pophale) SiO2 
 PCOD9232783
Probable space group: P 2/C
;
_chemical_formula_sum "Si O2"
_cell_formula_units_Z 28
_cell_length_a 8.164118
_cell_length_b 8.362387
_cell_length_c 27.567588
_cell_angle_alpha 90.000000
_cell_angle_beta 130.234511
_cell_angle_gamma 90.000000
_cell_volume 1436.794001
_symmetry_space_group_name_H-M "P 2/C"
_symmetry_group_IT_number 13
_symmetry_cell_setting 'monoclinic'
loop_
_space_group_symop_operation_xyz
x,y,z
-x,y,1/2-z
-x,-y,-z
x,-y,1/2+z
loop_
_atom_site_type_symbol
_atom_site_label
_atom_site_fract_x
_atom_site_fract_y
_atom_site_fract_z
Si Si1 0.203473 0.968345 0.091455
Si Si2 0.561280 0.963411 0.089423
Si Si3 0.740038 0.487430 0.562850
Si Si4 0.293634 0.713680 0.181467
Si Si5 0.044276 0.368004 0.549083
Si Si6 0.896622 0.697779 0.178368
Si Si7 0.206421 0.157889 0.447648
O O1 0.387210 0.041228 0.092597
O O2 0.005147 0.068512 0.073591
O O3 0.320185 0.882753 0.159265
O O4 0.896875 0.188365 0.955721
O O5 0.706090 0.082554 0.085754
O O6 0.723851 0.841513 0.147158
O O7 0.409258 0.866334 0.022608
O O8 0.500000 0.500000 0.500000
O O9 0.774460 0.441336 0.625122
O O10 0.844993 0.656850 0.570194
O O11 0.842003 0.356251 0.546318
O O12 0.500000 0.662187 0.250000
O O13 0.231265 0.596658 0.124596
O O14 0.096019 0.732968 0.180546
O O15 0.000000 0.500000 0.500000
O O16 0.000000 0.660373 0.250000
#
# Coordination Sequence:
#
# PCOD9232783 Si02
#       7
#     4   4   4   4   4   4   4
#     4  10  21  38  61  93 127 158 212 257 325 374
#     4  11  21  37  63  96 120 170 199 266 312 383
#     4  11  22  39  62  90 129 164 204 272 320 368
#     4   9  19  36  61  88 123 161 212 263 307 385
#     4   9  20  35  58  91 121 156 214 257 317 377
#     4  11  22  40  64  93 120 168 220 254 318 393
#     4  11  22  38  62  91 137 153 214 258 327 373
#
# _framework density 19.487832000000001
#
# number of rings (size 3 to 8) (size 9 to 14) (size 15 to 20)
#    0.857    0.857    2.857    2.143    2.000    0.000 
#    0.000    0.714    0.000    0.857    0.000    0.000 
#    0.000    0.000    0.000    0.000    0.000    0.000 
#
# Total GULP energy -155934.754699 kJ/mol
# GULP energy per Si atom -5569.098382 kJ/mol
# Density = 1.944348 g / cm^3
# Si number density = 19.487832 Si / 1000 Ang^3
#
#
#
# Elastic Constant Matrix: (Units=GPa)
#
#
# Indices 1 2 3 4 5 6 
#
# 1 130.5021 34.7638 45.2986 0.0000 -2.3153 0.0000
# 2 34.7638 48.7399 16.6689 0.0000 -1.5360 0.0000
# 3 45.2986 16.6689 138.0807 0.0000 -3.4813 0.0000
# 4 0.0000 0.0000 0.0000 24.8984 0.0000 -3.8084
# 5 -2.3153 -1.5360 -3.4813 0.0000 34.7521 0.0000
# 6 0.0000 0.0000 0.0000 -3.8084 0.0000 25.7314
#
#
#
# Elastic Compliance Matrix: (Units=1/GPa)
#
#
# Indices 1 2 3 4 5 6 
#
# 1 0.010281 -0.006442 -0.002591 0.000000 0.000141 0.000000
# 2 -0.006442 0.025454 -0.000944 0.000000 0.000601 0.000000
# 3 -0.002591 -0.000944 0.008222 0.000000 0.000609 0.000000
# 4 0.000000 0.000000 0.000000 0.041094 0.000000 0.006082
# 5 0.000141 0.000601 0.000609 0.000000 0.028872 0.000000
# 6 0.000000 0.000000 0.000000 0.006082 0.000000 0.039763
#
#
# Mechanical properties :
#
#
# Convention : Reuss Voigt Hill
#
# Bulk Modulus (GPa) = 41.66551 56.75393 49.20972
# Shear Modulus (GPa) = 27.52684 31.78248 29.65466
#
# Velocity S-wave (km/s) = 3.76242 4.04281 3.90513
# Velocity P-wave (km/s) = 6.34831 7.13991 6.75572
#
# Compressibility (1/GPa) = 0.02400067
#
# Stress axis : x y z
#
# Youngs Moduli (GPa) = 97.26854 39.28692 121.63021
#
# Poissons Ratio (x) = 0.25309 0.31520
# Poissons Ratio (y) = 0.62661 0.11484
# Poissons Ratio (z) = 0.25207 0.03709
#
# Static dielectric constant tensor:
#      x y z
#    x 1.733990 0.000000 -0.008870 
#    y 0.000000 1.696440 0.000000 
#    z -0.008870 0.000000 1.713040 
# 
# From -- ./inp_files/91459.got.cif
#   From: 2010.05.17/outbox.cif.g08.bks.cpg/sg13_46_cif.got.tgz:91459.got - 2010.06.03 16:44:36.
