data_PCOD9232765
_publ_section_title
;
Structure prediction by ZEFSAII (Michael W. Deem and Ramdas Pophale) SiO2 
 PCOD9232765
Probable space group: P 2/C
;
_chemical_formula_sum "Si O2"
_cell_formula_units_Z 28
_cell_length_a 12.780681
_cell_length_b 5.161156
_cell_length_c 19.786050
_cell_angle_alpha 90.000000
_cell_angle_beta 96.913531
_cell_angle_gamma 90.000000
_cell_volume 1295.659153
_symmetry_space_group_name_H-M "P 2/C"
_symmetry_group_IT_number 13
_symmetry_cell_setting 'monoclinic'
loop_
_space_group_symop_operation_xyz
x,y,z
-x,y,1/2-z
-x,-y,-z
x,-y,1/2+z
loop_
_atom_site_type_symbol
_atom_site_label
_atom_site_fract_x
_atom_site_fract_y
_atom_site_fract_z
Si Si1 0.769530 0.851700 0.520039
Si Si2 0.539491 0.752237 0.462937
Si Si3 0.091376 0.382593 0.811705
Si Si4 0.426439 0.180012 0.678435
Si Si5 0.228412 0.105701 0.325824
Si Si6 0.090588 0.349136 0.965536
Si Si7 0.622517 0.318981 0.277338
O O1 0.665168 0.800526 0.469131
O O2 0.734459 0.922954 0.593942
O O3 0.820525 0.569024 0.529338
O O4 0.854407 0.077349 0.506533
O O5 0.500000 0.500000 0.500000
O O6 0.506611 0.742760 0.381848
O O7 0.500000 0.000000 0.500000
O O8 0.138155 0.672726 0.817280
O O9 0.054630 0.309396 0.884964
O O10 0.000000 0.366138 0.750000
O O11 0.181027 0.170961 0.801519
O O12 0.500000 0.138898 0.750000
O O13 0.344430 0.404931 0.690781
O O14 0.373139 0.901475 0.665619
O O15 0.316341 0.212717 0.282309
O O16 0.000000 0.500000 0.000000
O O17 0.500000 0.364471 0.250000
#
# Coordination Sequence:
#
# PCOD9232765 Si02
#       7
#     4   4   4   4   4   4   4
#     4  10  23  40  65  94 122 166 222 247 317 394
#     4  12  26  42  66  93 134 174 214 266 314 383
#     4  10  21  40  62  94 120 155 210 256 315 384
#     4  10  23  39  60  89 126 164 216 254 312 369
#     4  10  21  38  65  89 123 168 203 256 313 376
#     4  10  21  43  67  89 123 164 203 270 326 374
#     4  10  21  38  61  88 127 163 210 252 314 369
#
# _framework density 21.610620999999998
#
# number of rings (size 3 to 8) (size 9 to 14) (size 15 to 20)
#    0.000    1.714    0.000    3.429    8.000    0.000 
#    7.714    0.000    0.000    0.000    0.000    0.000 
#    0.000    0.000    0.000    0.000    0.000    0.000 
#
# Total GULP energy -156166.749418 kJ/mol
# GULP energy per Si atom -5577.383908 kJ/mol
# Density = 2.156143 g / cm^3
# Si number density = 21.610621 Si / 1000 Ang^3
#
#
#
# Elastic Constant Matrix: (Units=GPa)
#
#
# Indices 1 2 3 4 5 6 
#
# 1 37.1315 -13.3497 24.9709 0.0000 5.2001 0.0000
# 2 -13.3497 128.5286 2.6715 0.0000 9.3043 0.0000
# 3 24.9709 2.6715 87.2812 0.0000 -0.5413 0.0000
# 4 0.0000 0.0000 0.0000 24.6417 0.0000 -13.3291
# 5 5.2001 9.3043 -0.5413 0.0000 31.3159 0.0000
# 6 0.0000 0.0000 0.0000 -13.3291 0.0000 44.8327
#
#
#
# Elastic Compliance Matrix: (Units=1/GPa)
#
#
# Indices 1 2 3 4 5 6 
#
# 1 0.036889 0.004611 -0.010743 0.000000 -0.007681 0.000000
# 2 0.004611 0.008534 -0.001601 0.000000 -0.003329 0.000000
# 3 -0.010743 -0.001601 0.014595 0.000000 0.002512 0.000000
# 4 0.000000 0.000000 0.000000 0.048359 0.000000 0.014377
# 5 -0.007681 -0.003329 0.002512 0.000000 0.034241 0.000000
# 6 0.000000 0.000000 0.000000 0.014377 0.000000 0.026580
#
#
# Mechanical properties :
#
#
# Convention : Reuss Voigt Hill
#
# Bulk Modulus (GPa) = 22.44549 31.28074 26.86311
# Shear Modulus (GPa) = 25.06102 36.06797 30.56450
#
# Velocity S-wave (km/s) = 3.40908 4.08976 3.76483
# Velocity P-wave (km/s) = 5.08966 6.06693 5.59966
#
# Compressibility (1/GPa) = 0.04455238
#
# Stress axis : x y z
#
# Youngs Moduli (GPa) = 27.10822 117.18487 68.51548
#
# Poissons Ratio (x) = -0.54032 0.73604
# Poissons Ratio (y) = -0.12499 0.10969
# Poissons Ratio (z) = 0.29121 0.18761
#
# Static dielectric constant tensor:
#      x y z
#    x 2.427160 0.000000 0.295930 
#    y 0.000000 1.858560 0.000000 
#    z 0.295930 0.000000 1.982370 
# 
# From -- ./inp_files/77250.got.cif
#   From: 2010.05.17/outbox.cif.g08.bks.cpg/sg13_39_cif.got.tgz:77250.got - 2010.06.03 16:44:36.
