data_PCOD9232691
_publ_section_title
;
Structure prediction by ZEFSAII (Michael W. Deem and Ramdas Pophale) SiO2 
 PCOD9232691
Probable space group: P 2/C
;
_chemical_formula_sum "Si O2"
_cell_formula_units_Z 24
_cell_length_a 17.449519
_cell_length_b 7.199154
_cell_length_c 10.732905
_cell_angle_alpha 90.000000
_cell_angle_beta 131.125182
_cell_angle_gamma 90.000000
_cell_volume 1015.629755
_symmetry_space_group_name_H-M "P 2/C"
_symmetry_group_IT_number 13
_symmetry_cell_setting 'monoclinic'
loop_
_space_group_symop_operation_xyz
x,y,z
-x,y,1/2-z
-x,-y,-z
x,-y,1/2+z
loop_
_atom_site_type_symbol
_atom_site_label
_atom_site_fract_x
_atom_site_fract_y
_atom_site_fract_z
Si Si1 0.159079 0.019824 0.067445
Si Si2 0.107092 0.397907 0.094797
Si Si3 0.119784 0.643354 0.886181
Si Si4 0.474134 0.406360 0.098987
Si Si5 0.672883 0.876915 0.099311
Si Si6 0.373108 0.938948 0.707755
O O1 0.086213 0.185774 0.028384
O O2 0.256592 0.121875 0.109449
O O3 0.210921 0.921778 0.243924
O O4 0.126872 0.855403 0.941955
O O5 0.159347 0.383348 0.287277
O O6 0.161796 0.513448 0.042671
O O7 0.000000 0.500000 0.000000
O O8 0.000000 0.598071 0.750000
O O9 0.500000 0.521271 0.250000
O O10 0.548821 0.226902 0.189305
O O11 0.500000 0.500000 0.000000
O O12 0.359616 0.327896 0.975587
O O13 0.615766 0.913641 0.169563
O O14 0.630769 0.001875 0.940191
#
# Coordination Sequence:
#
# PCOD9232691 Si02
#       6
#     4   4   4   4   4   4
#     4  10  22  39  67  91 126 166 218 264 329 389
#     4  10  23  42  64  94 127 165 212 269 326 394
#     4  10  23  41  65  93 125 166 213 265 332 395
#     4  10  21  38  58  88 124 169 210 259 314 377
#     4   9  20  37  60  88 121 159 210 256 313 377
#     4   9  20  37  60  87 121 158 207 257 309 379
#
# _framework density 23.630658
#
# number of rings (size 3 to 8) (size 9 to 14) (size 15 to 20)
#    1.000    1.333    0.000    1.500    0.000   10.000 
#    0.000    3.333    0.000    0.000    0.000    0.000 
#    0.000    0.000    0.000    0.000    0.000    0.000 
#
# Total GULP energy -133633.730824 kJ/mol
# GULP energy per Si atom -5568.072118 kJ/mol
# Density = 2.357687 g / cm^3
# Si number density = 23.630658 Si / 1000 Ang^3
#
#
#
# Elastic Constant Matrix: (Units=GPa)
#
#
# Indices 1 2 3 4 5 6 
#
# 1 29.6262 23.5100 42.2798 0.0000 -21.4042 0.0000
# 2 23.5100 94.3332 55.1332 0.0000 -18.1998 0.0000
# 3 42.2798 55.1332 147.0872 0.0000 -53.4646 0.0000
# 4 0.0000 0.0000 0.0000 26.4406 0.0000 -10.3944
# 5 -21.4042 -18.1998 -53.4646 0.0000 41.0996 0.0000
# 6 0.0000 0.0000 0.0000 -10.3944 0.0000 32.1780
#
#
#
# Elastic Compliance Matrix: (Units=1/GPa)
#
#
# Indices 1 2 3 4 5 6 
#
# 1 0.067194 -0.007472 -0.009479 0.000000 0.019355 0.000000
# 2 -0.007472 0.014434 -0.004465 0.000000 -0.003308 0.000000
# 3 -0.009479 -0.004465 0.016473 0.000000 0.014516 0.000000
# 4 0.000000 0.000000 0.000000 0.043322 0.000000 0.013994
# 5 0.019355 -0.003308 0.014516 0.000000 0.051829 0.000000
# 6 0.000000 0.000000 0.000000 0.013994 0.000000 0.035598
#
#
# Mechanical properties :
#
#
# Convention : Reuss Voigt Hill
#
# Bulk Modulus (GPa) = 18.09315 56.98806 37.54061
# Shear Modulus (GPa) = 17.23514 29.95187 23.59350
#
# Velocity S-wave (km/s) = 2.70359 3.56406 3.16322
# Velocity P-wave (km/s) = 4.17362 6.41133 5.40945
#
# Compressibility (1/GPa) = 0.05526953
#
# Stress axis : x y z
#
# Youngs Moduli (GPa) = 14.88232 69.27915 60.70447
#
# Poissons Ratio (x) = 0.51768 0.57540
# Poissons Ratio (y) = 0.11121 0.27104
# Poissons Ratio (z) = 0.14106 0.30933
#
# Static dielectric constant tensor:
#      x y z
#    x 1.991210 0.000000 -0.030280 
#    y 0.000000 1.904440 0.000000 
#    z -0.030280 0.000000 1.957060 
# 
# From -- ./inp_files/41288.got.cif
#   From: 2010.05.17/outbox.cif.g08.bks.cpg/sg13_21_cif.got.tgz:41288.got - 2010.06.03 16:44:36.
