data_PCOD9232041
_publ_section_title
;
Structure prediction by ZEFSAII (Michael W. Deem and Ramdas Pophale) SiO2 
 PCOD9232041
Probable space group: P 2/C
;
_chemical_formula_sum "Si O2"
_cell_formula_units_Z 30
_cell_length_a 6.084977
_cell_length_b 8.823249
_cell_length_c 25.531414
_cell_angle_alpha 90.000000
_cell_angle_beta 72.486940
_cell_angle_gamma 90.000000
_cell_volume 1307.225832
_symmetry_space_group_name_H-M "P 2/C"
_symmetry_group_IT_number 13
_symmetry_cell_setting 'monoclinic'
loop_
_space_group_symop_operation_xyz
x,y,z
-x,y,1/2-z
-x,-y,-z
x,-y,1/2+z
loop_
_atom_site_type_symbol
_atom_site_label
_atom_site_fract_x
_atom_site_fract_y
_atom_site_fract_z
Si Si1 0.584655 0.694660 0.342284
Si Si2 0.294786 0.483491 0.557671
Si Si3 0.966490 0.197024 0.941873
Si Si4 0.026763 0.239542 0.385851
Si Si5 0.756848 0.013028 0.869524
Si Si6 0.310867 0.453900 0.307882
Si Si7 0.712237 0.961980 0.548765
Si Si8 0.000000 0.436708 0.750000
O O1 0.620150 0.604954 0.395237
O O2 0.605700 0.876017 0.343878
O O3 0.364796 0.613009 0.332161
O O4 0.785607 0.655573 0.286450
O O5 0.500000 0.500000 0.500000
O O6 0.095588 0.371705 0.549609
O O7 0.164622 0.639215 0.581823
O O8 0.922502 0.135502 0.886546
O O9 0.772449 0.106962 0.988726
O O10 0.205807 0.136218 0.948373
O O11 0.261598 0.324462 0.352657
O O12 0.113567 0.129672 0.425771
O O13 0.920509 0.130510 0.348252
O O14 0.552082 0.942992 0.919091
O O15 0.500000 0.420381 0.250000
O O16 0.073916 0.465184 0.293826
#
# Coordination Sequence:
#
# PCOD9232041 Si02
#       8
#     4   4   4   4   4   4   4   2
#     4  10  23  41  68  93 125 174 222 262 323 400
#     4  11  23  39  63  96 137 171 220 273 323 387
#     4   9  21  38  56  85 122 185 221 262 311 387
#     4  11  24  39  62  97 131 165 213 274 332 384
#     4  10  22  39  60  89 130 169 210 268 325 388
#     4  10  23  41  70  98 122 168 219 272 331 393
#     4  10  21  37  60  84 132 176 219 259 328 386
#     4  10  20  46  70  92 126 162 222 272 322 378
#
# _framework density 22.949361
#
# number of rings (size 3 to 8) (size 9 to 14) (size 15 to 20)
#    0.000    1.867    1.333    1.200    5.600    6.933 
#    0.000    2.000    0.000    0.000    0.000    0.000 
#    0.000    0.000    0.000    0.000    0.000    0.000 
#
# Total GULP energy -167240.010714 kJ/mol
# GULP energy per Si atom -5574.667024 kJ/mol
# Density = 2.289713 g / cm^3
# Si number density = 22.949361 Si / 1000 Ang^3
#
#
#
# Elastic Constant Matrix: (Units=GPa)
#
#
# Indices 1 2 3 4 5 6 
#
# 1 47.3908 31.6629 3.6758 0.0000 -1.3214 0.0000
# 2 31.6629 142.3663 21.1365 0.0000 -0.8357 0.0000
# 3 3.6758 21.1365 58.2142 0.0000 -5.6033 0.0000
# 4 0.0000 0.0000 0.0000 14.9663 0.0000 -0.4751
# 5 -1.3214 -0.8357 -5.6033 0.0000 32.4201 0.0000
# 6 0.0000 0.0000 0.0000 -0.4751 0.0000 38.8132
#
#
#
# Elastic Compliance Matrix: (Units=1/GPa)
#
#
# Indices 1 2 3 4 5 6 
#
# 1 0.024825 -0.005598 0.000558 0.000000 0.000964 0.000000
# 2 -0.005598 0.008689 -0.002849 0.000000 -0.000497 0.000000
# 3 0.000558 -0.002849 0.018480 0.000000 0.003143 0.000000
# 4 0.000000 0.000000 0.000000 0.066843 0.000000 0.000818
# 5 0.000964 -0.000497 0.003143 0.000000 0.031415 0.000000
# 6 0.000000 0.000000 0.000000 0.000818 0.000000 0.025774
#
#
# Mechanical properties :
#
#
# Convention : Reuss Voigt Hill
#
# Bulk Modulus (GPa) = 27.61301 40.10241 33.85771
# Shear Modulus (GPa) = 24.52453 30.00632 27.26543
#
# Velocity S-wave (km/s) = 3.27255 3.61986 3.45058
# Velocity P-wave (km/s) = 5.13203 5.91468 5.53720
#
# Compressibility (1/GPa) = 0.03621481
#
# Stress axis : x y z
#
# Youngs Moduli (GPa) = 40.28173 115.08352 54.11326
#
# Poissons Ratio (x) = 0.64428 -0.03019
# Poissons Ratio (y) = 0.22551 0.15418
# Poissons Ratio (z) = -0.02247 0.32790
#
# Static dielectric constant tensor:
#      x y z
#    x 1.924720 0.000000 0.037870 
#    y 0.000000 1.957360 0.000000 
#    z 0.037870 0.000000 1.911880 
# 
# From -- ./inp_files/95034.got.cif
#   From: 2010.05.17/outbox.cif.g08.bks.cpg/sg13_48_cif.got.tgz:95034.got - 2010.06.03 16:44:36.
