data_PCOD9232294
_publ_section_title
;
Structure prediction by ZEFSAII (Michael W. Deem and Ramdas Pophale) SiO2 
 PCOD9232294
Probable space group: P 2/C
;
_chemical_formula_sum "Si O2"
_cell_formula_units_Z 28
_cell_length_a 36.489095
_cell_length_b 7.785765
_cell_length_c 36.264755
_cell_angle_alpha 90.000000
_cell_angle_beta 8.138572
_cell_angle_gamma 90.000000
_cell_volume 1458.523005
_symmetry_space_group_name_H-M "P 2/C"
_symmetry_group_IT_number 13
_symmetry_cell_setting 'monoclinic'
loop_
_space_group_symop_operation_xyz
x,y,z
-x,y,1/2-z
-x,-y,-z
x,-y,1/2+z
loop_
_atom_site_type_symbol
_atom_site_label
_atom_site_fract_x
_atom_site_fract_y
_atom_site_fract_z
Si Si1 0.001792 0.369874 0.179544
Si Si2 0.936685 0.638592 0.093895
Si Si3 0.000000 0.628770 0.250000
Si Si4 0.991662 0.631545 0.393206
Si Si5 0.501791 0.130125 0.679544
Si Si6 0.436685 0.861408 0.593895
Si Si7 0.508338 0.868454 0.606794
Si Si8 0.500000 0.871229 0.750000
O O1 0.987484 0.475944 0.155841
O O2 0.994812 0.507323 0.219454
O O3 0.763076 0.240118 0.420837
O O4 0.263076 0.259881 0.920837
O O5 0.981481 0.573145 0.091025
O O6 0.644489 0.707672 0.382144
O O7 0.000000 0.500000 0.000000
O O8 0.144489 0.792328 0.882144
O O9 0.750000 0.749999 0.500000
O O10 0.721133 0.731399 0.657912
O O11 0.221133 0.768600 0.157912
O O12 0.487484 0.024055 0.655841
O O13 0.494811 0.992676 0.719455
O O14 0.481482 0.926855 0.591024
O O15 0.500000 0.000000 0.500000
#
# Coordination Sequence:
#
# PCOD9232294 Si02
#       8
#     4   4   2   4   4   4   4   2
#     4  12  24  39  60  89 117 144 186 240 280 322
#     4  10  21  36  57  82 113 148 189 234 279 333
#     4  12  24  42  64  84 114 156 188 222 278 344
#     4  10  21  39  58  81 113 153 190 225 278 344
#     4  12  24  39  60  89 117 144 186 240 280 322
#     4  10  21  36  57  82 113 148 189 234 279 333
#     4  10  21  39  58  81 113 153 190 225 278 344
#     4  12  24  42  64  84 114 156 188 222 278 344
#
# _framework density 19.197502
#
# number of rings (size 3 to 8) (size 9 to 14) (size 15 to 20)
#    0.000    1.143    0.000    6.857    0.000    2.286 
#    0.000    0.000    0.000    0.000    0.000    0.000 
#    0.000    0.000    0.000    0.000    0.000    0.000 
#
# Total GULP energy -156647.540036 kJ/mol
# GULP energy per Si atom -5594.555001 kJ/mol
# Density = 1.915381 g / cm^3
# Si number density = 19.197502 Si / 1000 Ang^3
#
#
#
# Elastic Constant Matrix: (Units=GPa)
#
#
# Indices 1 2 3 4 5 6 
#
# 1 172.9956 153.6881 93.5662 0.0000 24.0012 0.0000
# 2 153.6881 191.0707 112.8934 0.0000 18.2859 0.0000
# 3 93.5662 112.8934 186.3020 0.0000 12.4584 0.0000
# 4 0.0000 0.0000 0.0000 45.8600 0.0000 14.4003
# 5 24.0012 18.2859 12.4584 0.0000 23.9184 0.0000
# 6 0.0000 0.0000 0.0000 14.4003 0.0000 49.0817
#
#
#
# Elastic Compliance Matrix: (Units=1/GPa)
#
#
# Indices 1 2 3 4 5 6 
#
# 1 0.022005 -0.016595 -0.000381 0.000000 -0.009196 0.000000
# 2 -0.016595 0.021013 -0.004599 0.000000 0.002982 0.000000
# 3 -0.000381 -0.004599 0.008376 0.000000 -0.000465 0.000000
# 4 0.000000 0.000000 0.000000 0.024018 0.000000 -0.007047
# 5 -0.009196 0.002982 -0.000465 0.000000 0.048999 0.000000
# 6 0.000000 0.000000 0.000000 -0.007047 0.000000 0.022442
#
#
# Mechanical properties :
#
#
# Convention : Reuss Voigt Hill
#
# Bulk Modulus (GPa) = 121.25774 141.18486 131.22130
# Shear Modulus (GPa) = 25.94042 36.45339 31.19690
#
# Velocity S-wave (km/s) = 3.67991 4.36232 4.03556
# Velocity P-wave (km/s) = 9.01976 9.95370 9.49821
#
# Compressibility (1/GPa) = 0.00824690
#
# Stress axis : x y z
#
# Youngs Moduli (GPa) = 45.44493 47.58934 119.38196
#
# Poissons Ratio (x) = 0.78972 0.04544
# Poissons Ratio (y) = 0.75414 0.54898
# Poissons Ratio (z) = 0.01730 0.21884
#
# Static dielectric constant tensor:
#      x y z
#    x 1.657200 0.000000 0.005300 
#    y 0.000000 1.618070 0.000000 
#    z 0.005300 0.000000 1.635190 
# 
# From -- ./inp_files/98067.got.cif
#   From: 2010.05.17/outbox.cif.g08.bks.cpg/sg13_50_cif.got.tgz:98067.got - 2010.06.03 16:44:36.
