data_PCOD9232346
_publ_section_title
;
Structure prediction by ZEFSAII (Michael W. Deem and Ramdas Pophale) SiO2 
 PCOD9232346
Probable space group: P 2/C
;
_chemical_formula_sum "Si O2"
_cell_formula_units_Z 32
_cell_length_a 7.463162
_cell_length_b 17.157357
_cell_length_c 21.267671
_cell_angle_alpha 90.000000
_cell_angle_beta 145.671076
_cell_angle_gamma 90.000000
_cell_volume 1535.777872
_symmetry_space_group_name_H-M "P 2/C"
_symmetry_group_IT_number 13
_symmetry_cell_setting 'monoclinic'
loop_
_space_group_symop_operation_xyz
x,y,z
-x,y,1/2-z
-x,-y,-z
x,-y,1/2+z
loop_
_atom_site_type_symbol
_atom_site_label
_atom_site_fract_x
_atom_site_fract_y
_atom_site_fract_z
Si Si1 0.742143 0.887286 0.731205
Si Si2 0.816565 0.226050 0.075858
Si Si3 0.365835 0.188574 0.614453
Si Si4 0.531883 0.645462 0.185318
Si Si5 0.755680 0.158769 0.509432
Si Si6 0.926302 0.478810 0.663521
Si Si7 0.867146 0.941490 0.283235
Si Si8 0.232689 0.403410 0.479228
O O1 0.407707 0.878213 0.599622
O O2 0.000000 0.891011 0.750000
O O3 0.861142 0.813026 0.804833
O O4 0.780049 0.970181 0.775790
O O5 0.518987 0.208605 0.035998
O O6 0.745467 0.183138 0.989440
O O7 0.832454 0.318227 0.068289
O O8 0.581638 0.265781 0.678309
O O9 0.559376 0.113849 0.692589
O O10 0.066712 0.202886 0.573787
O O11 0.500000 0.646753 0.250000
O O12 0.249254 0.610521 0.059352
O O13 0.828222 0.590758 0.261073
O O14 0.879448 0.095161 0.595240
O O15 0.582733 0.437270 0.563834
O O16 0.979671 0.532591 0.617818
O O17 0.000000 0.525373 0.750000
O O18 0.000000 0.939667 0.250000
#
# Coordination Sequence:
#
# PCOD9232346 Si02
#       8
#     4   4   4   4   4   4   4   4
#     4   9  23  40  62  89 121 168 212 251 317 377
#     4  10  22  42  65  88 125 166 206 257 313 368
#     4  11  24  39  63  98 118 161 215 255 316 371
#     4  10  21  36  60  89 127 152 199 255 300 372
#     4  11  23  41  62  90 125 163 208 261 311 373
#     4   9  19  36  61  92 121 154 199 249 300 371
#     4  11  22  38  64  88 123 164 206 262 315 367
#     4   9  20  37  62  90 115 161 203 242 311 370
#
# _framework density 20.836345999999999
#
# number of rings (size 3 to 8) (size 9 to 14) (size 15 to 20)
#    0.000    2.000    1.250    1.125    5.250    5.000 
#    2.250    0.000    5.500    0.000    0.000    0.000 
#    0.000    0.000    0.000    0.000    0.000    0.000 
#
# Total GULP energy -178449.311992 kJ/mol
# GULP energy per Si atom -5576.541000 kJ/mol
# Density = 2.078892 g / cm^3
# Si number density = 20.836346 Si / 1000 Ang^3
#
#
#
# Elastic Constant Matrix: (Units=GPa)
#
#
# Indices 1 2 3 4 5 6 
#
# 1 45.5067 7.2615 14.5907 0.0000 -11.3683 0.0000
# 2 7.2615 101.5326 60.9561 0.0000 -13.4361 0.0000
# 3 14.5907 60.9561 111.9440 0.0000 -19.0627 0.0000
# 4 0.0000 0.0000 0.0000 24.1560 0.0000 -5.7312
# 5 -11.3683 -13.4361 -19.0627 0.0000 27.9041 0.0000
# 6 0.0000 0.0000 0.0000 -5.7312 0.0000 16.0002
#
#
#
# Elastic Compliance Matrix: (Units=1/GPa)
#
#
# Indices 1 2 3 4 5 6 
#
# 1 0.024779 0.000651 -0.002050 0.000000 0.009008 0.000000
# 2 0.000651 0.014731 -0.007755 0.000000 0.002060 0.000000
# 3 -0.002050 -0.007755 0.014310 0.000000 0.005206 0.000000
# 4 0.000000 0.000000 0.000000 0.045243 0.000000 0.016206
# 5 0.009008 0.002060 0.005206 0.000000 0.044056 0.000000
# 6 0.000000 0.000000 0.000000 0.016206 0.000000 0.068304
#
#
# Mechanical properties :
#
#
# Convention : Reuss Voigt Hill
#
# Bulk Modulus (GPa) = 28.16114 47.17775 37.66945
# Shear Modulus (GPa) = 20.69812 25.35706 23.02759
#
# Velocity S-wave (km/s) = 3.15519 3.49228 3.32801
# Velocity P-wave (km/s) = 5.17865 6.24120 5.73459
#
# Compressibility (1/GPa) = 0.03550992
#
# Stress axis : x y z
#
# Youngs Moduli (GPa) = 40.35751 67.88305 69.88203
#
# Poissons Ratio (x) = -0.04417 0.14326
# Poissons Ratio (y) = -0.02626 0.54197
# Poissons Ratio (z) = 0.08273 0.52646
#
# Static dielectric constant tensor:
#      x y z
#    x 1.826820 0.000000 -0.060030 
#    y 0.000000 1.734950 0.000000 
#    z -0.060030 0.000000 1.828860 
# 
# From -- ./inp_files/85363.got.cif
#   From: 2010.05.17/outbox.cif.g08.bks.cpg/sg13_43_cif.got.tgz:85363.got - 2010.06.03 16:44:36.
