data_PCOD9232931
_publ_section_title
;
Structure prediction by ZEFSAII (Michael W. Deem and Ramdas Pophale) SiO2 
 PCOD9232931
Probable space group: P 2/C
;
_chemical_formula_sum "Si O2"
_cell_formula_units_Z 30
_cell_length_a 7.706642
_cell_length_b 6.066046
_cell_length_c 31.073725
_cell_angle_alpha 90.000000
_cell_angle_beta 72.129877
_cell_angle_gamma 90.000000
_cell_volume 1382.576473
_symmetry_space_group_name_H-M "P 2/C"
_symmetry_group_IT_number 13
_symmetry_cell_setting 'monoclinic'
loop_
_space_group_symop_operation_xyz
x,y,z
-x,y,1/2-z
-x,-y,-z
x,-y,1/2+z
loop_
_atom_site_type_symbol
_atom_site_label
_atom_site_fract_x
_atom_site_fract_y
_atom_site_fract_z
Si Si1 0.429459 0.528683 0.929898
Si Si2 0.734662 0.022008 0.322350
Si Si3 0.191762 0.859772 0.439475
Si Si4 0.809272 0.229198 0.987495
Si Si5 0.218640 0.686548 0.102825
Si Si6 0.972672 0.399746 0.173682
Si Si7 0.000000 0.271871 0.750000
Si Si8 0.320101 0.161714 0.358753
O O1 0.644848 0.519784 0.914325
O O2 0.359163 0.666609 0.894655
O O3 0.373264 0.278477 0.926664
O O4 0.330922 0.602871 0.980861
O O5 0.523144 0.082861 0.330058
O O6 0.864117 0.230986 0.324883
O O7 0.738533 0.848332 0.361333
O O8 0.835029 0.887878 0.276723
O O9 0.194083 0.032416 0.478242
O O10 0.194158 0.981203 0.393283
O O11 0.020130 0.704098 0.463794
O O12 0.761674 0.174168 0.942262
O O13 0.034281 0.559056 0.129676
O O14 0.942923 0.566191 0.215536
O O15 0.797572 0.264938 0.170696
#
# Coordination Sequence:
#
# PCOD9232931 Si02
#       8
#     4   4   4   4   4   4   2   4
#     4  11  21  38  60  95 137 178 231 277 324 386
#     4  11  23  47  72  99 135 168 219 276 334 416
#     4  10  21  39  56  94 136 177 238 282 319 386
#     4  10  22  35  57  93 134 187 230 284 323 378
#     4  11  22  39  64  97 136 182 227 277 333 394
#     4  11  24  46  74 100 132 174 216 275 344 413
#     4  10  26  50  74 104 138 162 216 284 348 420
#     4  11  23  42  72  98 131 177 221 270 333 405
#
# _framework density 21.698619000000001
#
# number of rings (size 3 to 8) (size 9 to 14) (size 15 to 20)
#    0.000    1.333    2.667    2.800    0.000    4.800 
#    0.000    4.000    0.000    0.000    0.000    0.000 
#    0.000    0.000    0.000    0.000    0.000    0.000 
#
# Total GULP energy -167347.821726 kJ/mol
# GULP energy per Si atom -5578.260724 kJ/mol
# Density = 2.164923 g / cm^3
# Si number density = 21.698619 Si / 1000 Ang^3
#
#
#
# Elastic Constant Matrix: (Units=GPa)
#
#
# Indices 1 2 3 4 5 6 
#
# 1 105.4358 36.2418 57.5046 0.0000 -19.4490 0.0000
# 2 36.2418 60.5958 51.3962 0.0000 -17.7338 0.0000
# 3 57.5046 51.3962 133.4567 0.0000 -15.5978 0.0000
# 4 0.0000 0.0000 0.0000 23.8454 0.0000 -10.8316
# 5 -19.4490 -17.7338 -15.5978 0.0000 21.1132 0.0000
# 6 0.0000 0.0000 0.0000 -10.8316 0.0000 35.2188
#
#
#
# Elastic Compliance Matrix: (Units=1/GPa)
#
#
# Indices 1 2 3 4 5 6 
#
# 1 0.014073 -0.002657 -0.004144 0.000000 0.007670 0.000000
# 2 -0.002657 0.030199 -0.008544 0.000000 0.016605 0.000000
# 3 -0.004144 -0.008544 0.012351 0.000000 -0.001870 0.000000
# 4 0.000000 0.000000 0.000000 0.048747 0.000000 0.014992
# 5 0.007670 0.016605 -0.001870 0.000000 0.066995 0.000000
# 6 0.000000 0.000000 0.000000 0.014992 0.000000 0.033005
#
#
# Mechanical properties :
#
#
# Convention : Reuss Voigt Hill
#
# Bulk Modulus (GPa) = 38.56360 65.53038 52.04699
# Shear Modulus (GPa) = 20.43284 26.32520 23.37902
#
# Velocity S-wave (km/s) = 3.07199 3.48691 3.28600
# Velocity P-wave (km/s) = 5.51305 6.81742 6.19964
#
# Compressibility (1/GPa) = 0.02593119
#
# Stress axis : x y z
#
# Youngs Moduli (GPa) = 71.05903 33.11389 80.96731
#
# Poissons Ratio (x) = 0.08799 0.33553
# Poissons Ratio (y) = 0.18882 0.69181
# Poissons Ratio (z) = 0.29447 0.28294
#
# Static dielectric constant tensor:
#      x y z
#    x 1.851590 0.000000 0.011470 
#    y 0.000000 1.811110 0.000000 
#    z 0.011470 0.000000 1.762950 
# 
# From -- ./inp_files/95642.got.cif
#   From: 2010.05.17/outbox.cif.g08.bks.cpg/sg13_48_cif.got.tgz:95642.got - 2010.06.03 16:44:36.
