data_PCOD9232559
_publ_section_title
;
Structure prediction by ZEFSAII (Michael W. Deem and Ramdas Pophale) SiO2 
 PCOD9232559
Probable space group: P 2/C
;
_chemical_formula_sum "Si O2"
_cell_formula_units_Z 26
_cell_length_a 20.032735
_cell_length_b 5.553155
_cell_length_c 10.062972
_cell_angle_alpha 90.000000
_cell_angle_beta 58.309282
_cell_angle_gamma 90.000000
_cell_volume 952.539301
_symmetry_space_group_name_H-M "P 2/C"
_symmetry_group_IT_number 13
_symmetry_cell_setting 'monoclinic'
loop_
_space_group_symop_operation_xyz
x,y,z
-x,y,1/2-z
-x,-y,-z
x,-y,1/2+z
loop_
_atom_site_type_symbol
_atom_site_label
_atom_site_fract_x
_atom_site_fract_y
_atom_site_fract_z
Si Si1 0.250545 0.838396 0.990878
Si Si2 0.593740 0.232992 0.632819
Si Si3 0.895224 0.154899 0.040681
Si Si4 0.934387 0.345625 0.427475
Si Si5 0.500000 0.197019 0.250000
Si Si6 0.380629 0.407934 0.180264
Si Si7 0.211473 0.337008 0.108730
O O1 0.243923 0.608029 0.095478
O O2 0.269578 0.107375 0.024885
O O3 0.163214 0.871386 0.023390
O O4 0.308351 0.750529 0.813764
O O5 0.500000 0.293426 0.750000
O O6 0.577223 0.952791 0.620664
O O7 0.616651 0.384769 0.479403
O O8 0.627817 0.336329 0.736134
O O9 0.842741 0.247143 0.216250
O O10 0.951336 0.382115 0.955918
O O11 0.928031 0.887590 0.027897
O O12 0.847146 0.366844 0.454960
O O13 0.000000 0.281471 0.250000
O O14 0.461192 0.302069 0.156973
#
# Coordination Sequence:
#
# PCOD9232559 Si02
#       7
#     4   4   4   4   2   4   4
#     4  10  25  39  63  90 125 165 218 268 321 395
#     4  10  25  42  65  92 130 163 214 276 342 402
#     4  10  21  40  61  88 129 170 207 271 316 382
#     4  10  21  37  61  96 127 165 215 260 318 386
#     4  10  24  40  68  90 128 162 216 276 336 406
#     4  12  24  43  64  97 124 175 218 278 342 407
#     4  10  22  43  60  91 128 168 213 267 321 379
#
# _framework density 27.295459000000001
#
# number of rings (size 3 to 8) (size 9 to 14) (size 15 to 20)
#    0.462    1.231    0.769    2.308    4.308    1.231 
#    0.000    0.000    0.000    0.000    0.000    0.000 
#    0.000    0.000    0.000    0.000    0.000    0.000 
#
# Total GULP energy -145196.805356 kJ/mol
# GULP energy per Si atom -5584.492514 kJ/mol
# Density = 2.723333 g / cm^3
# Si number density = 27.295459 Si / 1000 Ang^3
#
#
#
# Elastic Constant Matrix: (Units=GPa)
#
#
# Indices 1 2 3 4 5 6 
#
# 1 80.9510 18.1600 -46.5629 0.0000 5.5286 0.0000
# 2 18.1600 174.3643 27.0128 0.0000 13.0776 0.0000
# 3 -46.5629 27.0128 107.6311 0.0000 13.3178 0.0000
# 4 0.0000 0.0000 0.0000 47.1030 0.0000 -12.0456
# 5 5.5286 13.0776 13.3178 0.0000 26.5572 0.0000
# 6 0.0000 0.0000 0.0000 -12.0456 0.0000 45.5523
#
#
#
# Elastic Compliance Matrix: (Units=1/GPa)
#
#
# Indices 1 2 3 4 5 6 
#
# 1 0.019327 -0.003001 0.010053 0.000000 -0.007587 0.000000
# 2 -0.003001 0.006572 -0.002798 0.000000 -0.001208 0.000000
# 3 0.010053 -0.002798 0.015386 0.000000 -0.008430 0.000000
# 4 0.000000 0.000000 0.000000 0.022770 0.000000 0.006021
# 5 -0.007587 -0.001208 -0.008430 0.000000 0.044057 0.000000
# 6 0.000000 0.000000 0.000000 0.006021 0.000000 0.023545
#
#
# Mechanical properties :
#
#
# Convention : Reuss Voigt Hill
#
# Bulk Modulus (GPa) = 20.08351 40.01848 30.05099
# Shear Modulus (GPa) = 35.77909 48.13159 41.95534
#
# Velocity S-wave (km/s) = 3.62444 4.20379 3.92482
# Velocity P-wave (km/s) = 4.98890 6.18510 5.61893
#
# Compressibility (1/GPa) = 0.04979210
#
# Stress axis : x y z
#
# Youngs Moduli (GPa) = 51.74033 152.16443 64.99547
#
# Poissons Ratio (x) = 0.45670 -0.65342
# Poissons Ratio (y) = 0.15529 0.18188
# Poissons Ratio (z) = -0.52016 0.42581
#
# Static dielectric constant tensor:
#      x y z
#    x 2.563140 0.000000 -0.475150 
#    y 0.000000 2.702220 0.000000 
#    z -0.475150 0.000000 2.587050 
# 
# From -- ./inp_files/41256.got.cif
#   From: 2010.05.17/outbox.cif.g08.bks.cpg/sg13_21_cif.got.tgz:41256.got - 2010.06.03 16:44:36.
