data_PCOD9232459
_publ_section_title
;
Structure prediction by ZEFSAII (Michael W. Deem and Ramdas Pophale) SiO2 
 PCOD9232459
Probable space group: P 2/C
;
_chemical_formula_sum "Si O2"
_cell_formula_units_Z 20
_cell_length_a 7.629572
_cell_length_b 22.712588
_cell_length_c 8.218908
_cell_angle_alpha 90.000000
_cell_angle_beta 37.511141
_cell_angle_gamma 90.000000
_cell_volume 867.237557
_symmetry_space_group_name_H-M "P 2/C"
_symmetry_group_IT_number 13
_symmetry_cell_setting 'monoclinic'
loop_
_space_group_symop_operation_xyz
x,y,z
-x,y,1/2-z
-x,-y,-z
x,-y,1/2+z
loop_
_atom_site_type_symbol
_atom_site_label
_atom_site_fract_x
_atom_site_fract_y
_atom_site_fract_z
Si Si1 0.334706 0.827888 0.197516
Si Si2 0.642313 0.626064 0.822374
Si Si3 0.684075 0.049306 0.953608
Si Si4 0.172693 0.758286 0.792368
Si Si5 0.128877 0.561026 0.336815
O O1 0.500000 0.829819 0.250000
O O2 0.070447 0.781416 0.403817
O O3 0.254904 0.893051 0.201208
O O4 0.574210 0.805159 0.897413
O O5 0.500000 0.616004 0.750000
O O6 0.661409 0.695811 0.827667
O O7 0.973496 0.607820 0.566026
O O8 0.459459 0.582210 0.073876
O O9 0.500000 0.064956 0.250000
O O10 0.000000 0.023235 0.750000
O O11 0.500000 0.000000 0.000000
O O12 0.000000 0.757801 0.750000
O O13 0.000000 0.564661 0.250000
O O14 0.000000 0.500000 0.500000
#
# Coordination Sequence:
#
# PCOD9232459 Si02
#       5
#     4   4   4   4   4
#     4  10  22  41  63  90 127 165 208 264 318 377
#     4  10  21  37  58  85 118 154 197 251 308 368
#     4  12  26  44  68  99 133 175 224 273 329 395
#     4  10  21  38  61  90 122 160 206 256 314 377
#     4  10  21  38  58  84 116 154 199 250 307 367
#
# _framework density 23.061731000000002
#
# number of rings (size 3 to 8) (size 9 to 14) (size 15 to 20)
#    0.000    1.600    0.000    4.200    0.000    5.600 
#    0.000    2.000    0.000    0.000    0.000    0.000 
#    0.000    0.000    0.000    0.000    0.000    0.000 
#
# Total GULP energy -111582.564073 kJ/mol
# GULP energy per Si atom -5579.128204 kJ/mol
# Density = 2.300924 g / cm^3
# Si number density = 23.061731 Si / 1000 Ang^3
#
#
#
# Elastic Constant Matrix: (Units=GPa)
#
#
# Indices 1 2 3 4 5 6 
#
# 1 47.2294 15.3180 46.9762 0.0000 -8.2792 0.0000
# 2 15.3180 107.8553 27.9328 0.0000 -4.5089 0.0000
# 3 46.9762 27.9328 150.8720 0.0000 -22.8224 0.0000
# 4 0.0000 0.0000 0.0000 36.7635 0.0000 -18.1972
# 5 -8.2792 -4.5089 -22.8224 0.0000 29.9622 0.0000
# 6 0.0000 0.0000 0.0000 -18.1972 0.0000 1.8516
#
#
#
# Elastic Compliance Matrix: (Units=1/GPa)
#
#
# Indices 1 2 3 4 5 6 
#
# 1 0.031128 -0.002003 -0.009116 0.000000 0.001356 0.000000
# 2 -0.002003 0.009868 -0.001201 0.000000 0.000017 0.000000
# 3 -0.009116 -0.001201 0.010489 0.000000 0.005290 0.000000
# 4 0.000000 0.000000 0.000000 -0.007038 0.000000 -0.069173
# 5 0.001356 0.000017 0.005290 0.000000 0.037782 0.000000
# 6 0.000000 0.000000 0.000000 -0.069173 0.000000 -0.139749
#
#
# Mechanical properties :
#
#
# Convention : Reuss Voigt Hill
#
# Bulk Modulus (GPa) = 37.25123 54.04564 45.64844
# Shear Modulus (GPa) = -208.92694 28.09743 -90.41476
#
# Velocity S-wave (km/s) = -9.52845 3.49428 -6.26823
# Velocity P-wave (km/s) = 10.24047 6.30604 5.70531
#
# Compressibility (1/GPa) = 0.02684475
#
# Stress axis : x y z
#
# Youngs Moduli (GPa) = 32.12550 101.33916 95.33745
#
# Poissons Ratio (x) = 0.20301 0.86911
# Poissons Ratio (y) = 0.06436 0.11447
# Poissons Ratio (z) = 0.29286 0.12167
#
# Static dielectric constant tensor:
#      x y z
#    x 1.910030 0.000000 0.007850 
#    y 0.000000 1.915590 0.000000 
#    z 0.007850 0.000000 1.871980 
# 
# From -- ./inp_files/13757.got.cif
#   From: 2010.05.17/outbox.cif.g08.bks.cpg/sg13_7_cif.got.tgz:13757.got - 2010.06.03 16:44:36.
