data_PCOD9232457
_publ_section_title
;
Structure prediction by ZEFSAII (Michael W. Deem and Ramdas Pophale) SiO2 
 PCOD9232457
Probable space group: P 2/C
;
_chemical_formula_sum "Si O2"
_cell_formula_units_Z 24
_cell_length_a 11.882837
_cell_length_b 10.862976
_cell_length_c 8.754817
_cell_angle_alpha 90.000000
_cell_angle_beta 97.563487
_cell_angle_gamma 90.000000
_cell_volume 1120.265530
_symmetry_space_group_name_H-M "P 2/C"
_symmetry_group_IT_number 13
_symmetry_cell_setting 'monoclinic'
loop_
_space_group_symop_operation_xyz
x,y,z
-x,y,1/2-z
-x,-y,-z
x,-y,1/2+z
loop_
_atom_site_type_symbol
_atom_site_label
_atom_site_fract_x
_atom_site_fract_y
_atom_site_fract_z
Si Si1 0.457619 0.376093 0.915837
Si Si2 0.189132 0.633942 0.343657
Si Si3 0.125606 0.127325 0.203332
Si Si4 0.543049 0.123978 0.430393
Si Si5 0.796580 0.099272 0.601026
Si Si6 0.887595 0.397993 0.334712
O O1 0.500000 0.373709 0.750000
O O2 0.321501 0.378391 0.907748
O O3 0.500000 0.500000 0.000000
O O4 0.499814 0.250527 0.001719
O O5 0.175899 0.777523 0.297027
O O6 0.166936 0.528559 0.216703
O O7 0.111159 0.610579 0.480390
O O8 0.171787 0.267990 0.222043
O O9 0.000000 0.124653 0.250000
O O10 0.199475 0.024034 0.300664
O O11 0.116359 0.094959 0.023294
O O12 0.500000 0.123263 0.250000
O O13 0.677556 0.119102 0.491546
O O14 0.500000 0.000000 0.500000
O O15 0.000000 0.395960 0.250000
#
# Coordination Sequence:
#
# PCOD9232457 Si02
#       6
#     4   4   4   4   4   4
#     4  11  23  39  60  87 119 158 202 249 302 358
#     4  10  22  38  56  85 116 147 193 239 285 348
#     4  10  21  37  58  85 117 152 190 234 288 349
#     4  11  23  40  61  86 118 157 202 254 304 358
#     4  10  22  38  57  85 116 149 194 239 289 349
#     4  10  21  38  60  86 116 151 190 235 290 350
#
# _framework density 21.423490999999999
#
# number of rings (size 3 to 8) (size 9 to 14) (size 15 to 20)
#    0.000    1.667    0.000    4.000    0.000    7.333 
#    0.000    0.000    0.000    0.000    0.000    0.000 
#    0.000    0.000    0.000    0.000    0.000    0.000 
#
# Total GULP energy -133931.584455 kJ/mol
# GULP energy per Si atom -5580.482686 kJ/mol
# Density = 2.137473 g / cm^3
# Si number density = 21.423491 Si / 1000 Ang^3
#
#
#
# Elastic Constant Matrix: (Units=GPa)
#
#
# Indices 1 2 3 4 5 6 
#
# 1 30.6479 15.0160 -9.4344 0.0000 -7.4677 0.0000
# 2 15.0160 194.0006 76.5476 0.0000 14.4551 0.0000
# 3 -9.4344 76.5476 85.4025 0.0000 -2.5017 0.0000
# 4 0.0000 0.0000 0.0000 36.6525 0.0000 6.9216
# 5 -7.4677 14.4551 -2.5017 0.0000 27.8788 0.0000
# 6 0.0000 0.0000 0.0000 6.9216 0.0000 31.4673
#
#
#
# Elastic Compliance Matrix: (Units=1/GPa)
#
#
# Indices 1 2 3 4 5 6 
#
# 1 0.048560 -0.011838 0.016579 0.000000 0.020633 0.000000
# 2 -0.011838 0.011554 -0.011964 0.000000 -0.010235 0.000000
# 3 0.016579 -0.011964 0.024640 0.000000 0.012855 0.000000
# 4 0.000000 0.000000 0.000000 0.028466 0.000000 -0.006261
# 5 0.020633 -0.010235 0.012855 0.000000 0.047857 0.000000
# 6 0.000000 0.000000 0.000000 -0.006261 0.000000 0.033156
#
#
# Mechanical properties :
#
#
# Convention : Reuss Voigt Hill
#
# Bulk Modulus (GPa) = 14.22278 52.70104 33.46191
# Shear Modulus (GPa) = 21.54116 34.39451 27.96784
#
# Velocity S-wave (km/s) = 3.17439 4.01116 3.61706
# Velocity P-wave (km/s) = 4.48207 6.79011 5.75302
#
# Compressibility (1/GPa) = 0.07030972
#
# Stress axis : x y z
#
# Youngs Moduli (GPa) = 20.59326 86.54984 40.58361
#
# Poissons Ratio (x) = 1.02454 -0.67284
# Poissons Ratio (y) = 0.24378 0.48553
# Poissons Ratio (z) = -0.34142 1.03545
#
# Static dielectric constant tensor:
#      x y z
#    x 1.873050 0.000000 -0.031780 
#    y 0.000000 1.778830 0.000000 
#    z -0.031780 0.000000 1.743360 
# 
# From -- ./inp_files/18128.got.cif
#   From: 2010.05.17/outbox.cif.g08.bks.cpg/sg13_10_cif.got.tgz:18128.got - 2010.06.03 16:44:36.
