data_PCOD9232146
_publ_section_title
;
Structure prediction by ZEFSAII (Michael W. Deem and Ramdas Pophale) SiO2 
 PCOD9232146
Probable space group: P 2/C
;
_chemical_formula_sum "Si O2"
_cell_formula_units_Z 32
_cell_length_a 10.214134
_cell_length_b 5.220038
_cell_length_c 24.015142
_cell_angle_alpha 90.000000
_cell_angle_beta 96.892316
_cell_angle_gamma 90.000000
_cell_volume 1271.190172
_symmetry_space_group_name_H-M "P 2/C"
_symmetry_group_IT_number 13
_symmetry_cell_setting 'monoclinic'
loop_
_space_group_symop_operation_xyz
x,y,z
-x,y,1/2-z
-x,-y,-z
x,-y,1/2+z
loop_
_atom_site_type_symbol
_atom_site_label
_atom_site_fract_x
_atom_site_fract_y
_atom_site_fract_z
Si Si1 0.761539 0.913973 0.180686
Si Si2 0.722051 0.417552 0.242077
Si Si3 0.591249 0.748187 0.951332
Si Si4 0.821728 0.853848 0.457751
Si Si5 0.003151 0.957228 0.879421
Si Si6 0.433476 0.561370 0.358110
Si Si7 0.145459 0.449262 0.644125
Si Si8 0.312315 0.646515 0.952203
O O1 0.797073 0.654496 0.215631
O O2 0.609267 0.855744 0.153524
O O3 0.581335 0.442383 0.203534
O O4 0.850907 0.972175 0.132037
O O5 0.182353 0.601671 0.081581
O O6 0.740408 0.467422 0.307905
O O7 0.773411 0.145274 0.224381
O O8 0.694299 0.965582 0.939347
O O9 0.648046 0.594794 0.007031
O O10 0.552211 0.540175 0.901061
O O11 0.440922 0.829670 0.959208
O O12 0.949428 0.992658 0.439185
O O13 0.807178 0.771233 0.520906
O O14 0.962340 0.673242 0.860137
O O15 0.913930 0.172327 0.843086
O O16 0.309586 0.454242 0.389470
#
# Coordination Sequence:
#
# PCOD9232146 Si02
#       8
#     4   4   4   4   4   4   4   4
#     4  10  21  38  59  92 125 161 211 264 321 381
#     4  10  21  38  61  90 125 162 210 265 317 385
#     4   9  18  37  64  94 116 161 218 268 318 377
#     4  10  21  34  62  91 130 158 217 262 329 381
#     4  10  22  37  59  90 127 165 207 262 320 386
#     4   8  21  35  59  97 119 162 211 270 316 384
#     4  10  22  37  60  91 125 164 212 257 319 390
#     4   9  18  37  63  94 118 159 224 265 323 378
#
# _framework density 25.173259000000002
#
# number of rings (size 3 to 8) (size 9 to 14) (size 15 to 20)
#    2.250    0.250    0.000    2.625    0.000    5.000 
#    0.000    0.625    0.000    6.750    0.000    0.000 
#    0.000    0.000    0.000    0.000    0.000    0.000 
#
# Total GULP energy -178249.334641 kJ/mol
# GULP energy per Si atom -5570.291708 kJ/mol
# Density = 2.511596 g / cm^3
# Si number density = 25.173259 Si / 1000 Ang^3
#
#
#
# Elastic Constant Matrix: (Units=GPa)
#
#
# Indices 1 2 3 4 5 6 
#
# 1 59.7426 27.9981 12.1568 0.0000 -18.4499 0.0000
# 2 27.9981 142.6573 26.8994 0.0000 -9.0639 0.0000
# 3 12.1568 26.8994 125.5573 0.0000 -15.9302 0.0000
# 4 0.0000 0.0000 0.0000 32.6972 0.0000 -4.0680
# 5 -18.4499 -9.0639 -15.9302 0.0000 26.7864 0.0000
# 6 0.0000 0.0000 0.0000 -4.0680 0.0000 21.1455
#
#
#
# Elastic Compliance Matrix: (Units=1/GPa)
#
#
# Indices 1 2 3 4 5 6 
#
# 1 0.022934 -0.003642 0.000441 0.000000 0.014827 0.000000
# 2 -0.003642 0.007953 -0.001436 0.000000 -0.000672 0.000000
# 3 0.000441 -0.001436 0.008876 0.000000 0.005096 0.000000
# 4 0.000000 0.000000 0.000000 0.031334 0.000000 0.006028
# 5 0.014827 -0.000672 0.005096 0.000000 0.050348 0.000000
# 6 0.000000 0.000000 0.000000 0.006028 0.000000 0.048451
#
#
# Mechanical properties :
#
#
# Convention : Reuss Voigt Hill
#
# Bulk Modulus (GPa) = 32.79997 51.34064 42.07031
# Shear Modulus (GPa) = 26.40831 33.51936 29.96384
#
# Velocity S-wave (km/s) = 3.24244 3.65299 3.45382
# Velocity P-wave (km/s) = 5.20344 6.18318 5.71435
#
# Compressibility (1/GPa) = 0.03048783
#
# Stress axis : x y z
#
# Youngs Moduli (GPa) = 43.60247 125.74184 112.66150
#
# Poissons Ratio (x) = 0.45799 -0.04967
# Poissons Ratio (y) = 0.15881 0.16183
# Poissons Ratio (z) = -0.01922 0.18062
#
# Static dielectric constant tensor:
#      x y z
#    x 2.065690 0.000000 0.011050 
#    y 0.000000 2.022030 0.000000 
#    z 0.011050 0.000000 1.976050 
# 
# From -- ./inp_files/96253.got.cif
#   From: 2010.05.17/outbox.cif.g08.bks.cpg/sg13_49_cif.got.tgz:96253.got - 2010.06.03 16:44:36.
