data_PCOD9232071
_publ_section_title
;
Structure prediction by ZEFSAII (Michael W. Deem and Ramdas Pophale) SiO2 
 PCOD9232071
Probable space group: P 2/C
;
_chemical_formula_sum "Si O2"
_cell_formula_units_Z 30
_cell_length_a 10.779689
_cell_length_b 9.030472
_cell_length_c 23.414048
_cell_angle_alpha 90.000000
_cell_angle_beta 140.364306
_cell_angle_gamma 90.000000
_cell_volume 1453.946509
_symmetry_space_group_name_H-M "P 2/C"
_symmetry_group_IT_number 13
_symmetry_cell_setting 'monoclinic'
loop_
_space_group_symop_operation_xyz
x,y,z
-x,y,1/2-z
-x,-y,-z
x,-y,1/2+z
loop_
_atom_site_type_symbol
_atom_site_label
_atom_site_fract_x
_atom_site_fract_y
_atom_site_fract_z
Si Si1 0.000000 0.031875 0.750000
Si Si2 0.994353 0.146129 0.363396
Si Si3 0.474984 0.484436 0.395297
Si Si4 0.400610 0.810700 0.390999
Si Si5 0.264603 0.032693 0.026004
Si Si6 0.783807 0.308932 0.564354
Si Si7 0.549161 0.222087 0.203336
Si Si8 0.884172 0.570078 0.653140
O O1 0.810736 0.125981 0.699809
O O2 0.943126 0.941080 0.672669
O O3 0.075671 0.310263 0.380661
O O4 0.761290 0.146943 0.279398
O O5 0.085885 0.082139 0.454429
O O6 0.454373 0.659095 0.376882
O O7 0.685613 0.437148 0.492083
O O8 0.432985 0.367840 0.330093
O O9 0.329841 0.446671 0.396247
O O10 0.369646 0.759595 0.445304
O O11 0.561537 0.937756 0.441939
O O12 0.382101 0.110928 0.119606
O O13 0.172199 0.172708 0.960052
O O14 0.942565 0.402995 0.655298
O O15 0.500000 0.265919 0.250000
O O16 0.000000 0.619161 0.750000
#
# Coordination Sequence:
#
# PCOD9232071 Si02
#       8
#     2   4   4   4   4   4   4   4
#     4  12  22  32  60 100 134 158 194 244 324 394
#     4  12  22  39  63  92 131 167 207 256 322 383
#     4  10  21  38  57  87 120 161 207 253 313 375
#     4  11  21  34  58  94 131 160 194 246 321 391
#     4  11  23  39  63  91 131 168 207 263 317 376
#     4  10  21  32  54  89 129 163 191 242 310 394
#     4  11  25  46  64  85 120 171 227 272 309 357
#     4  11  20  33  59  93 129 160 199 244 316 385
#
# _framework density 20.633495
#
# number of rings (size 3 to 8) (size 9 to 14) (size 15 to 20)
#    0.000    1.067    4.667    3.600    5.600    0.533 
#    0.000    0.667    0.000    7.200    0.000    0.000 
#    0.000    0.000    0.000    0.000    0.000    0.000 
#
# Total GULP energy -167110.193749 kJ/mol
# GULP energy per Si atom -5570.339792 kJ/mol
# Density = 2.058653 g / cm^3
# Si number density = 20.633495 Si / 1000 Ang^3
#
#
#
# Elastic Constant Matrix: (Units=GPa)
#
#
# Indices 1 2 3 4 5 6 
#
# 1 27.3044 11.9032 12.3083 0.0000 -7.5909 0.0000
# 2 11.9032 97.3932 35.9052 0.0000 3.8475 0.0000
# 3 12.3083 35.9052 67.5447 0.0000 0.9062 0.0000
# 4 0.0000 0.0000 0.0000 38.9620 0.0000 6.6084
# 5 -7.5909 3.8475 0.9062 0.0000 15.3069 0.0000
# 6 0.0000 0.0000 0.0000 6.6084 0.0000 12.7939
#
#
#
# Elastic Compliance Matrix: (Units=1/GPa)
#
#
# Indices 1 2 3 4 5 6 
#
# 1 0.048817 -0.004448 -0.006877 0.000000 0.025734 0.000000
# 2 -0.004448 0.013297 -0.006189 0.000000 -0.005182 0.000000
# 3 -0.006877 -0.006189 0.019388 0.000000 -0.003002 0.000000
# 4 0.000000 0.000000 0.000000 0.028131 0.000000 -0.014530
# 5 0.025734 -0.005182 -0.003002 0.000000 0.079572 0.000000
# 6 0.000000 0.000000 0.000000 -0.014530 0.000000 0.085668
#
#
# Mechanical properties :
#
#
# Convention : Reuss Voigt Hill
#
# Bulk Modulus (GPa) = 21.51607 34.71953 28.11780
# Shear Modulus (GPa) = 15.36608 22.22092 18.79350
#
# Velocity S-wave (km/s) = 2.73191 3.28523 3.02126
# Velocity P-wave (km/s) = 4.51680 5.59049 5.08208
#
# Compressibility (1/GPa) = 0.04647689
#
# Stress axis : x y z
#
# Youngs Moduli (GPa) = 20.48449 75.20228 51.57810
#
# Poissons Ratio (x) = 0.33449 0.35468
# Poissons Ratio (y) = 0.09111 0.31920
# Poissons Ratio (z) = 0.14086 0.46540
#
# Static dielectric constant tensor:
#      x y z
#    x 1.713110 0.000000 0.025010 
#    y 0.000000 1.805890 0.000000 
#    z 0.025010 0.000000 1.852680 
# 
# From -- ./inp_files/86380.got.cif
#   From: 2010.05.17/outbox.cif.g08.bks.cpg/sg13_44_cif.got.tgz:86380.got - 2010.06.03 16:44:36.
