data_PCOD9232964
_publ_section_title
;
Structure prediction by ZEFSAII (Michael W. Deem and Ramdas Pophale) SiO2 
 PCOD9232964
Probable space group: P 2/C
;
_chemical_formula_sum "Si O2"
_cell_formula_units_Z 20
_cell_length_a 8.312333
_cell_length_b 8.093584
_cell_length_c 18.042799
_cell_angle_alpha 90.000000
_cell_angle_beta 44.891357
_cell_angle_gamma 90.000000
_cell_volume 856.697820
_symmetry_space_group_name_H-M "P 2/C"
_symmetry_group_IT_number 13
_symmetry_cell_setting 'monoclinic'
loop_
_space_group_symop_operation_xyz
x,y,z
-x,y,1/2-z
-x,-y,-z
x,-y,1/2+z
loop_
_atom_site_type_symbol
_atom_site_label
_atom_site_fract_x
_atom_site_fract_y
_atom_site_fract_z
Si Si1 0.705509 0.250466 0.739674
Si Si2 0.754254 0.350476 0.869294
Si Si3 0.736858 0.894868 0.718988
Si Si4 0.819847 0.568307 0.616054
Si Si5 0.480751 0.675352 0.599713
O O1 0.500000 0.242363 0.750000
O O2 0.604777 0.259059 0.855273
O O3 0.815784 0.425054 0.679557
O O4 0.839910 0.077938 0.686516
O O5 0.687211 0.542686 0.883228
O O6 0.000000 0.319066 0.750000
O O7 0.679557 0.293649 0.974807
O O8 0.500000 0.906122 0.750000
O O9 0.872456 0.744776 0.636316
O O10 0.661013 0.830922 0.824710
O O11 0.595866 0.599067 0.637316
O O12 0.000000 0.500000 0.500000
#
# Coordination Sequence:
#
# PCOD9232964 Si02
#       5
#     4   4   4   4   4
#     4  11  20  39  64  86 119 161 203 249 304 360
#     4  11  22  38  64  89 122 163 201 246 310 366
#     4   9  20  37  61  90 120 156 206 252 298 360
#     4  11  20  37  64  91 122 160 204 256 303 356
#     4  10  21  39  60  91 124 160 203 249 305 365
#
# _framework density 23.345454
#
# number of rings (size 3 to 8) (size 9 to 14) (size 15 to 20)
#    0.000    1.600    4.000    1.800    0.000    1.600 
#    0.000    3.000    0.000    0.000    0.000    0.000 
#    0.000    0.000    0.000    0.000    0.000    0.000 
#
# Total GULP energy -111462.023914 kJ/mol
# GULP energy per Si atom -5573.101196 kJ/mol
# Density = 2.329232 g / cm^3
# Si number density = 23.345454 Si / 1000 Ang^3
#
#
#
# Elastic Constant Matrix: (Units=GPa)
#
#
# Indices 1 2 3 4 5 6 
#
# 1 22.8293 -2.3592 17.9765 0.0000 19.4427 0.0000
# 2 -2.3592 145.5807 33.0941 0.0000 14.9453 0.0000
# 3 17.9765 33.0941 131.9326 0.0000 30.4350 0.0000
# 4 0.0000 0.0000 0.0000 16.3898 0.0000 -0.5707
# 5 19.4427 14.9453 30.4350 0.0000 41.8967 0.0000
# 6 0.0000 0.0000 0.0000 -0.5707 0.0000 -29.9175
#
#
#
# Elastic Compliance Matrix: (Units=1/GPa)
#
#
# Indices 1 2 3 4 5 6 
#
# 1 0.077377 0.005743 -0.003877 0.000000 -0.035140 0.000000
# 2 0.005743 0.007793 -0.001779 0.000000 -0.004152 0.000000
# 3 -0.003877 -0.001779 0.009602 0.000000 -0.004541 0.000000
# 4 0.000000 0.000000 0.000000 0.060973 0.000000 -0.001163
# 5 -0.035140 -0.004152 -0.004541 0.000000 0.044955 0.000000
# 6 0.000000 0.000000 0.000000 -0.001163 0.000000 -0.033403
#
#
# Mechanical properties :
#
#
# Convention : Reuss Voigt Hill
#
# Bulk Modulus (GPa) = 10.53257 44.19614 27.36435
# Shear Modulus (GPa) = 25.15444 22.44921 23.80182
#
# Velocity S-wave (km/s) = 3.28607 3.10435 3.19650
# Velocity P-wave (km/s) = 4.34961 5.64108 5.03691
#
# Compressibility (1/GPa) = 0.09494358
#
# Stress axis : x y z
#
# Youngs Moduli (GPa) = 12.92380 128.32223 104.14695
#
# Poissons Ratio (x) = -0.73693 0.40381
# Poissons Ratio (y) = -0.07422 0.18532
# Poissons Ratio (z) = 0.05011 0.22833
#
# Static dielectric constant tensor:
#      x y z
#    x 2.237860 0.000000 -0.070490 
#    y 0.000000 1.924750 0.000000 
#    z -0.070490 0.000000 1.931280 
# 
# From -- ./inp_files/49402.got.cif
#   From: 2010.05.17/outbox.cif.g08.bks.cpg/sg13_25_cif.got.tgz:49402.got - 2010.06.03 16:44:36.
