data_PCOD9232285
_publ_section_title
;
Structure prediction by ZEFSAII (Michael W. Deem and Ramdas Pophale) SiO2 
 PCOD9232285
Probable space group: P 2/C
;
_chemical_formula_sum "Si O2"
_cell_formula_units_Z 16
_cell_length_a 5.189669
_cell_length_b 12.735818
_cell_length_c 10.075577
_cell_angle_alpha 90.000000
_cell_angle_beta 111.865768
_cell_angle_gamma 90.000000
_cell_volume 618.033456
_symmetry_space_group_name_H-M "P 2/C"
_symmetry_group_IT_number 13
_symmetry_cell_setting 'monoclinic'
loop_
_space_group_symop_operation_xyz
x,y,z
-x,y,1/2-z
-x,-y,-z
x,-y,1/2+z
loop_
_atom_site_type_symbol
_atom_site_label
_atom_site_fract_x
_atom_site_fract_y
_atom_site_fract_z
Si Si1 0.380531 0.415800 0.081854
Si Si2 0.129599 0.710328 0.916508
Si Si3 0.316331 0.006661 0.832008
Si Si4 0.216936 0.762966 0.203665
O O1 0.500000 0.441935 0.250000
O O2 0.552626 0.314790 0.060811
O O3 0.060116 0.383345 0.052422
O O4 0.500000 0.500000 0.000000
O O5 0.000000 0.734940 0.750000
O O6 0.123366 0.790861 0.037299
O O7 0.500000 0.958313 0.750000
O O8 0.283716 0.131397 0.796188
O O9 0.000000 0.967680 0.750000
O O10 0.500000 0.000000 0.000000
O O11 0.500000 0.699539 0.250000
O O12 0.000000 0.701100 0.250000
#
# Coordination Sequence:
#
# PCOD9232285 Si02
#       4
#     4   4   4   4
#     4  10  21  36  56  85 117 155 200 251 308 367
#     4  10  21  38  58  82 118 157 202 255 308 368
#     4  10  21  40  64  93 128 165 210 265 321 388
#     4  10  21  38  59  88 118 157 206 253 312 379
#
# _framework density 25.888566000000001
#
# number of rings (size 3 to 8) (size 9 to 14) (size 15 to 20)
#    0.000    2.000    0.000    3.000    0.000    3.000 
#    0.000   15.000    0.000    0.000    0.000    0.000 
#    0.000    0.000    0.000    0.000    0.000    0.000 
#
# Total GULP energy -89215.648048 kJ/mol
# GULP energy per Si atom -5575.978003 kJ/mol
# Density = 2.582964 g / cm^3
# Si number density = 25.888566 Si / 1000 Ang^3
#
#
#
# Elastic Constant Matrix: (Units=GPa)
#
#
# Indices 1 2 3 4 5 6 
#
# 1 253.3410 1.7448 66.2904 0.0000 -4.5845 0.0000
# 2 1.7448 61.4948 28.3160 0.0000 -8.8987 0.0000
# 3 66.2904 28.3160 258.8533 0.0000 -38.6422 0.0000
# 4 0.0000 0.0000 0.0000 10.4080 0.0000 -1.6019
# 5 -4.5845 -8.8987 -38.6422 0.0000 45.2890 0.0000
# 6 0.0000 0.0000 0.0000 -1.6019 0.0000 0.5167
#
#
#
# Elastic Compliance Matrix: (Units=1/GPa)
#
#
# Indices 1 2 3 4 5 6 
#
# 1 0.004251 0.000359 -0.001207 0.000000 -0.000529 0.000000
# 2 0.000359 0.017318 -0.001688 0.000000 0.001999 0.000000
# 3 -0.001207 -0.001688 0.004915 0.000000 0.003740 0.000000
# 4 0.000000 0.000000 0.000000 0.183786 0.000000 0.569847
# 5 -0.000529 0.001999 0.003740 0.000000 0.025611 0.000000
# 6 0.000000 0.000000 0.000000 0.569847 0.000000 3.702402
#
#
# Mechanical properties :
#
#
# Convention : Reuss Voigt Hill
#
# Bulk Modulus (GPa) = 46.70325 85.15460 65.92892
# Shear Modulus (GPa) = 1.26567 43.06527 22.16547
#
# Velocity S-wave (km/s) = 0.69996 4.08301 2.92924
# Velocity P-wave (km/s) = 4.32811 7.42914 6.07967
#
# Compressibility (1/GPa) = 0.02141179
#
# Stress axis : x y z
#
# Youngs Moduli (GPa) = 235.23919 57.74405 203.45033
#
# Poissons Ratio (x) = -0.02070 0.24553
# Poissons Ratio (y) = -0.08434 0.34339
# Poissons Ratio (z) = 0.28389 0.09746
#
# Static dielectric constant tensor:
#      x y z
#    x 2.427800 0.000000 0.050150 
#    y 0.000000 2.116690 0.000000 
#    z 0.050150 0.000000 2.017890 
# 
# From -- ./inp_files/9232.got.cif
#   From: 2010.05.17/outbox.cif.g08.bks.cpg/sg13_5_cif.got.tgz:9232.got - 2010.06.03 16:44:36.
