data_PCOD9232656
_publ_section_title
;
Structure prediction by ZEFSAII (Michael W. Deem and Ramdas Pophale) SiO2 
 PCOD9232656
Probable space group: P 2/C
;
_chemical_formula_sum "Si O2"
_cell_formula_units_Z 24
_cell_length_a 16.561202
_cell_length_b 5.406843
_cell_length_c 26.454475
_cell_angle_alpha 90.000000
_cell_angle_beta 22.633244
_cell_angle_gamma 90.000000
_cell_volume 911.600847
_symmetry_space_group_name_H-M "P 2/C"
_symmetry_group_IT_number 13
_symmetry_cell_setting 'monoclinic'
loop_
_space_group_symop_operation_xyz
x,y,z
-x,y,1/2-z
-x,-y,-z
x,-y,1/2+z
loop_
_atom_site_type_symbol
_atom_site_label
_atom_site_fract_x
_atom_site_fract_y
_atom_site_fract_z
Si Si1 0.942164 0.668988 0.838659
Si Si2 0.256611 0.613345 0.904920
Si Si3 0.727532 0.893250 0.146955
Si Si4 0.588388 0.391995 0.395847
Si Si5 0.649042 0.117840 0.811852
Si Si6 0.116126 0.175788 0.589056
O O1 0.867156 0.384106 0.876995
O O2 0.000000 0.768653 0.750000
O O3 0.161348 0.634084 0.741061
O O4 0.819925 0.893381 0.936540
O O5 0.500000 0.599205 0.750000
O O6 0.170107 0.351700 0.936531
O O7 0.161156 0.852701 0.932941
O O8 0.233857 0.681031 0.976268
O O9 0.500000 0.905596 0.250000
O O10 0.683168 0.899593 0.232201
O O11 0.500000 0.500000 0.500000
O O12 0.546475 0.616568 0.382121
O O13 0.538178 0.120297 0.402196
O O14 0.876966 0.140973 0.707473
#
# Coordination Sequence:
#
# PCOD9232656 Si02
#       6
#     4   4   4   4   4   4
#     4  10  21  40  60  90 120 154 203 253 299 363
#     4  10  21  38  56  84 123 152 202 249 294 360
#     4  10  21  38  56  84 123 152 201 248 295 359
#     4  10  21  40  60  90 120 155 203 251 298 363
#     4  10  21  38  62  84 120 163 199 243 307 357
#     4  10  21  38  62  84 120 162 200 244 307 360
#
# _framework density 26.327310000000001
#
# number of rings (size 3 to 8) (size 9 to 14) (size 15 to 20)
#    0.000    2.000    0.000    3.000    0.000    1.333 
#   18.000    0.000    0.000    0.000    0.000    0.000 
#    0.000    0.000    0.000    0.000    0.000    0.000 
#
# Total GULP energy -134207.645620 kJ/mol
# GULP energy per Si atom -5591.985234 kJ/mol
# Density = 2.626739 g / cm^3
# Si number density = 26.327310 Si / 1000 Ang^3
#
#
#
# Elastic Constant Matrix: (Units=GPa)
#
#
# Indices 1 2 3 4 5 6 
#
# 1 78.2816 63.9487 10.0946 0.0000 6.3407 0.0000
# 2 63.9487 238.9779 51.6539 0.0000 12.0160 0.0000
# 3 10.0946 51.6539 84.7741 0.0000 21.4006 0.0000
# 4 0.0000 0.0000 0.0000 58.0793 0.0000 -8.2938
# 5 6.3407 12.0160 21.4006 0.0000 57.9127 0.0000
# 6 0.0000 0.0000 0.0000 -8.2938 0.0000 57.7134
#
#
#
# Elastic Compliance Matrix: (Units=1/GPa)
#
#
# Indices 1 2 3 4 5 6 
#
# 1 0.016484 -0.004598 0.001162 0.000000 -0.001280 0.000000
# 2 -0.004598 0.006102 -0.003284 0.000000 0.000451 0.000000
# 3 0.001162 -0.003284 0.014910 0.000000 -0.004955 0.000000
# 4 0.000000 0.000000 0.000000 0.017579 0.000000 0.002526
# 5 -0.001280 0.000451 -0.004955 0.000000 0.019145 0.000000
# 6 0.000000 0.000000 0.000000 0.002526 0.000000 0.017690
#
#
# Mechanical properties :
#
#
# Convention : Reuss Voigt Hill
#
# Bulk Modulus (GPa) = 41.57085 72.60311 57.08698
# Shear Modulus (GPa) = 44.10365 53.16351 48.63358
#
# Velocity S-wave (km/s) = 4.09737 4.49857 4.30265
# Velocity P-wave (km/s) = 6.18133 7.39052 6.81281
#
# Compressibility (1/GPa) = 0.02405532
#
# Stress axis : x y z
#
# Youngs Moduli (GPa) = 60.66401 163.87914 67.06945
#
# Poissons Ratio (x) = 0.75348 -0.07792
# Poissons Ratio (y) = 0.27892 0.22028
# Poissons Ratio (z) = -0.07048 0.53825
#
# Static dielectric constant tensor:
#      x y z
#    x 1.381430 0.000000 0.614160 
#    y 0.000000 2.079740 0.000000 
#    z 0.614160 0.000000 1.635890 
# 
# From -- ./inp_files/87674.got.cif
#   From: 2010.05.17/outbox.cif.g08.bks.cpg/sg13_44_cif.got.tgz:87674.got - 2010.06.03 16:44:36.
