data_PCOD9232119
_publ_section_title
;
Structure prediction by ZEFSAII (Michael W. Deem and Ramdas Pophale) SiO2 
 PCOD9232119
Probable space group: P 2/C
;
_chemical_formula_sum "Si O2"
_cell_formula_units_Z 20
_cell_length_a 15.218935
_cell_length_b 5.289244
_cell_length_c 19.456867
_cell_angle_alpha 90.000000
_cell_angle_beta 28.972315
_cell_angle_gamma 90.000000
_cell_volume 758.653055
_symmetry_space_group_name_H-M "P 2/C"
_symmetry_group_IT_number 13
_symmetry_cell_setting 'monoclinic'
loop_
_space_group_symop_operation_xyz
x,y,z
-x,y,1/2-z
-x,-y,-z
x,-y,1/2+z
loop_
_atom_site_type_symbol
_atom_site_label
_atom_site_fract_x
_atom_site_fract_y
_atom_site_fract_z
Si Si1 0.651017 0.845762 0.251518
Si Si2 0.144657 0.721381 0.529057
Si Si3 0.155767 0.476689 0.200288
Si Si4 0.542256 0.356905 0.140089
Si Si5 0.815022 0.015075 0.780287
O O1 0.592012 0.555273 0.305371
O O2 0.493608 0.062186 0.353117
O O3 0.772369 0.946801 0.230391
O O4 0.757477 0.822474 0.105836
O O5 0.279826 0.538515 0.478617
O O6 0.965301 0.542577 0.645716
O O7 0.032831 0.958156 0.639550
O O8 0.276784 0.231437 0.124626
O O9 0.000000 0.456455 0.250000
O O10 0.248157 0.742269 0.135131
O O11 0.500000 0.354870 0.250000
#
# Coordination Sequence:
#
# PCOD9232119 Si02
#       5
#     4   4   4   4   4
#     4  11  21  35  57  90 124 144 181 238 299 352
#     4   9  23  36  62  86 118 155 193 227 294 345
#     4  10  22  38  61  83 112 153 205 243 274 333
#     4  10  21  34  54  83 124 155 180 220 292 365
#     4  10  22  36  61  86 116 149 194 245 291 324
#
# _framework density 26.362511999999999
#
# number of rings (size 3 to 8) (size 9 to 14) (size 15 to 20)
#    1.200    0.800    0.000    4.200    8.400    0.800 
#    0.000    0.000    0.000    7.200    0.000    0.000 
#    0.000    0.000    0.000    0.000    0.000    0.000 
#
# Total GULP energy -111351.123420 kJ/mol
# GULP energy per Si atom -5567.556171 kJ/mol
# Density = 2.630251 g / cm^3
# Si number density = 26.362512 Si / 1000 Ang^3
#
#
#
# Elastic Constant Matrix: (Units=GPa)
#
#
# Indices 1 2 3 4 5 6 
#
# 1 89.8962 47.5687 20.3722 0.0000 -2.8085 0.0000
# 2 47.5687 208.3605 5.1598 0.0000 2.2232 0.0000
# 3 20.3722 5.1598 62.0131 0.0000 16.3148 0.0000
# 4 0.0000 0.0000 0.0000 32.2203 0.0000 -1.5298
# 5 -2.8085 2.2232 16.3148 0.0000 26.8920 0.0000
# 6 0.0000 0.0000 0.0000 -1.5298 0.0000 39.0379
#
#
#
# Elastic Compliance Matrix: (Units=1/GPa)
#
#
# Indices 1 2 3 4 5 6 
#
# 1 0.014288 -0.003174 -0.005820 0.000000 0.005285 0.000000
# 2 -0.003174 0.005515 0.000941 0.000000 -0.001358 0.000000
# 3 -0.005820 0.000941 0.021585 0.000000 -0.013781 0.000000
# 4 0.000000 0.000000 0.000000 0.031094 0.000000 0.001218
# 5 0.005285 -0.001358 -0.013781 0.000000 0.046210 0.000000
# 6 0.000000 0.000000 0.000000 0.001218 0.000000 0.025664
#
#
# Mechanical properties :
#
#
# Convention : Reuss Voigt Hill
#
# Bulk Modulus (GPa) = 39.55442 56.27456 47.91449
# Shear Modulus (GPa) = 29.60520 38.77465 34.18993
#
# Velocity S-wave (km/s) = 3.35476 3.83929 3.60518
# Velocity P-wave (km/s) = 5.48110 6.40674 5.96191
#
# Compressibility (1/GPa) = 0.02528162
#
# Stress axis : x y z
#
# Youngs Moduli (GPa) = 69.99076 181.31662 46.32898
#
# Poissons Ratio (x) = 0.57552 0.26964
# Poissons Ratio (y) = 0.22216 -0.04361
# Poissons Ratio (z) = 0.40735 -0.17066
#
# Static dielectric constant tensor:
#      x y z
#    x 2.073860 0.000000 0.103050 
#    y 0.000000 2.199890 0.000000 
#    z 0.103050 0.000000 2.284230 
# 
# From -- ./inp_files/79197.got.cif
#   From: 2010.05.17/outbox.cif.g08.bks.cpg/sg13_40_cif.got.tgz:79197.got - 2010.06.03 16:44:36.
