data_PCOD9232061
_publ_section_title
;
Structure prediction by ZEFSAII (Michael W. Deem and Ramdas Pophale) SiO2 
 PCOD9232061
Probable space group: P 2/C
;
_chemical_formula_sum "Si O2"
_cell_formula_units_Z 30
_cell_length_a 10.908740
_cell_length_b 27.321775
_cell_length_c 5.542579
_cell_angle_alpha 90.000000
_cell_angle_beta 111.196150
_cell_angle_gamma 90.000000
_cell_volume 1540.187104
_symmetry_space_group_name_H-M "P 2/C"
_symmetry_group_IT_number 13
_symmetry_cell_setting 'monoclinic'
loop_
_space_group_symop_operation_xyz
x,y,z
-x,y,1/2-z
-x,-y,-z
x,-y,1/2+z
loop_
_atom_site_type_symbol
_atom_site_label
_atom_site_fract_x
_atom_site_fract_y
_atom_site_fract_z
Si Si1 0.151041 0.019051 0.148975
Si Si2 0.840109 0.525614 0.135935
Si Si3 0.160531 0.360010 0.869614
Si Si4 0.144614 0.879630 0.457869
Si Si5 0.154366 0.687449 0.866910
Si Si6 0.372287 0.134556 0.772454
Si Si7 0.500000 0.792399 0.750000
Si Si8 0.245549 0.790346 0.806755
O O1 0.210783 0.997741 0.435772
O O2 0.154969 0.077847 0.164623
O O3 0.000000 0.000000 0.000000
O O4 0.796409 0.500223 0.355371
O O5 0.804828 0.582785 0.108992
O O6 0.000000 0.522977 0.250000
O O7 0.207948 0.334002 0.656715
O O8 0.000000 0.356598 0.750000
O O9 0.206480 0.335282 0.152588
O O10 0.258019 0.891064 0.342913
O O11 0.165034 0.824220 0.563919
O O12 0.000000 0.884688 0.250000
O O13 0.169294 0.746021 0.871410
O O14 0.000000 0.675199 0.750000
O O15 0.500000 0.107449 0.750000
O O16 0.299178 0.168919 0.528302
O O17 0.439776 0.172180 0.005947
O O18 0.374479 0.766440 0.773894
#
# Coordination Sequence:
#
# PCOD9232061 Si02
#       8
#     4   4   4   4   4   4   2   4
#     4  10  21  39  57  81 119 151 181 222 296 338
#     4   9  15  24  42  63  85 126 192 237 255 305
#     4   9  18  31  43  63 103 148 177 219 282 322
#     4  11  23  34  59  89 113 144 187 238 276 335
#     4  10  21  32  46  70 111 148 174 212 273 339
#     4   9  20  38  57  79 109 144 187 231 288 334
#     4   8  18  40  54  76  98 144 184 232 280 322
#     4  10  22  34  57  79 110 142 190 225 274 329
#
# _framework density 19.478152000000001
#
# number of rings (size 3 to 8) (size 9 to 14) (size 15 to 20)
#    0.000    2.400    1.333    0.800    7.467    3.733 
#    0.000    0.000    0.000    0.800    0.000    0.000 
#    0.000    0.000    0.000   12.000    0.000    5.333 
#
# Total GULP energy -167052.699369 kJ/mol
# GULP energy per Si atom -5568.423312 kJ/mol
# Density = 1.943382 g / cm^3
# Si number density = 19.478152 Si / 1000 Ang^3
#
#
#
# Elastic Constant Matrix: (Units=GPa)
#
#
# Indices 1 2 3 4 5 6 
#
# 1 44.9894 20.8831 24.3805 0.0000 -10.5348 0.0000
# 2 20.8831 108.9978 41.0436 0.0000 -19.7898 0.0000
# 3 24.3805 41.0436 100.3587 0.0000 -25.3863 0.0000
# 4 0.0000 0.0000 0.0000 31.8226 0.0000 -3.1558
# 5 -10.5348 -19.7898 -25.3863 0.0000 20.8687 0.0000
# 6 0.0000 0.0000 0.0000 -3.1558 0.0000 12.6342
#
#
#
# Elastic Compliance Matrix: (Units=1/GPa)
#
#
# Indices 1 2 3 4 5 6 
#
# 1 0.027034 -0.002534 -0.003881 0.000000 0.006523 0.000000
# 2 -0.002534 0.011854 -0.002474 0.000000 0.006953 0.000000
# 3 -0.003881 -0.002474 0.015644 0.000000 0.014725 0.000000
# 4 0.000000 0.000000 0.000000 0.032222 0.000000 0.008049
# 5 0.006523 0.006953 0.014725 0.000000 0.075718 0.000000
# 6 0.000000 0.000000 0.000000 0.008049 0.000000 0.081161
#
#
# Mechanical properties :
#
#
# Convention : Reuss Voigt Hill
#
# Bulk Modulus (GPa) = 27.20749 47.44002 37.32376
# Shear Modulus (GPa) = 18.27077 24.26768 21.26923
#
# Velocity S-wave (km/s) = 3.06602 3.53355 3.30806
# Velocity P-wave (km/s) = 5.15097 6.40752 5.81330
#
# Compressibility (1/GPa) = 0.03675458
#
# Stress axis : x y z
#
# Youngs Moduli (GPa) = 36.99005 84.36168 63.92415
#
# Poissons Ratio (x) = 0.21375 0.24811
# Poissons Ratio (y) = 0.09372 0.15812
# Poissons Ratio (z) = 0.14357 0.20867
#
# Static dielectric constant tensor:
#      x y z
#    x 1.732480 0.000000 -0.038130 
#    y 0.000000 1.646380 0.000000 
#    z -0.038130 0.000000 2.022030 
# 
# From -- ./inp_files/4397.got.cif
#   From: 2010.05.17/outbox.cif.g08.bks.cpg/sg13_3_cif.got.tgz:4397.got - 2010.06.03 16:44:36.
