data_PCOD9232629
_publ_section_title
;
Structure prediction by ZEFSAII (Michael W. Deem and Ramdas Pophale) SiO2 
 PCOD9232629
Probable space group: P 2/C
;
_chemical_formula_sum "Si O2"
_cell_formula_units_Z 24
_cell_length_a 12.947960
_cell_length_b 14.879484
_cell_length_c 7.866738
_cell_angle_alpha 90.000000
_cell_angle_beta 41.855779
_cell_angle_gamma 90.000000
_cell_volume 1011.294459
_symmetry_space_group_name_H-M "P 2/C"
_symmetry_group_IT_number 13
_symmetry_cell_setting 'monoclinic'
loop_
_space_group_symop_operation_xyz
x,y,z
-x,y,1/2-z
-x,-y,-z
x,-y,1/2+z
loop_
_atom_site_type_symbol
_atom_site_label
_atom_site_fract_x
_atom_site_fract_y
_atom_site_fract_z
Si Si1 0.577045 0.294248 0.468919
Si Si2 0.266995 0.361876 0.701505
Si Si3 0.864039 0.826139 0.204170
Si Si4 0.313086 0.451511 0.997687
Si Si5 0.376043 0.049633 0.538286
Si Si6 0.797845 0.125631 0.173132
O O1 0.500000 0.286736 0.750000
O O2 0.441385 0.320828 0.505342
O O3 0.691842 0.379894 0.342394
O O4 0.670101 0.203329 0.335161
O O5 0.163949 0.279827 0.763409
O O6 0.242395 0.400997 0.922222
O O7 0.249407 0.450705 0.611646
O O8 0.729061 0.871358 0.257407
O O9 0.830504 0.875544 0.427822
O O10 0.039536 0.846225 0.943754
O O11 0.500000 0.466848 0.750000
O O12 0.500000 0.000000 0.500000
O O13 0.257984 0.965150 0.666501
O O14 0.500000 0.087209 0.250000
#
# Coordination Sequence:
#
# PCOD9232629 Si02
#       6
#     4   4   4   4   4   4
#     4   9  19  38  63  96 124 170 224 276 318 377
#     4  10  21  37  66  94 129 171 228 269 327 378
#     4  11  26  42  64  99 135 181 206 269 337 393
#     4   9  19  35  59  98 125 164 221 281 321 367
#     4  12  24  45  72 103 126 166 221 270 323 386
#     4  11  24  44  65  93 141 170 216 263 334 401
#
# _framework density 23.731960000000001
#
# number of rings (size 3 to 8) (size 9 to 14) (size 15 to 20)
#    0.000    2.000    1.667    4.000    4.667    1.333 
#    0.000    7.500    0.000    0.000    0.000    0.000 
#    0.000    0.000    0.000    0.000    0.000    0.000 
#
# Total GULP energy -133835.128868 kJ/mol
# GULP energy per Si atom -5576.463703 kJ/mol
# Density = 2.367795 g / cm^3
# Si number density = 23.731960 Si / 1000 Ang^3
#
#
#
# Elastic Constant Matrix: (Units=GPa)
#
#
# Indices 1 2 3 4 5 6 
#
# 1 46.4790 18.7936 20.9741 0.0000 -9.2476 0.0000
# 2 18.7936 189.2134 35.3076 0.0000 -27.5199 0.0000
# 3 20.9741 35.3076 46.7296 0.0000 -16.2110 0.0000
# 4 0.0000 0.0000 0.0000 27.2373 0.0000 -6.1052
# 5 -9.2476 -27.5199 -16.2110 0.0000 26.7083 0.0000
# 6 0.0000 0.0000 0.0000 -6.1052 0.0000 28.3788
#
#
#
# Elastic Compliance Matrix: (Units=1/GPa)
#
#
# Indices 1 2 3 4 5 6 
#
# 1 0.027126 -0.000272 -0.011158 0.000000 0.002339 0.000000
# 2 -0.000272 0.006604 -0.003217 0.000000 0.004758 0.000000
# 3 -0.011158 -0.003217 0.033376 0.000000 0.013080 0.000000
# 4 0.000000 0.000000 0.000000 0.038574 0.000000 0.008299
# 5 0.002339 0.004758 0.013080 0.000000 0.051093 0.000000
# 6 0.000000 0.000000 0.000000 0.008299 0.000000 0.037023
#
#
# Mechanical properties :
#
#
# Convention : Reuss Voigt Hill
#
# Bulk Modulus (GPa) = 26.44680 48.06362 37.25521
# Shear Modulus (GPa) = 21.21376 30.28799 25.75088
#
# Velocity S-wave (km/s) = 2.99304 3.57634 3.29762
# Velocity P-wave (km/s) = 4.80755 6.11149 5.49831
#
# Compressibility (1/GPa) = 0.03781175
#
# Stress axis : x y z
#
# Youngs Moduli (GPa) = 36.86540 151.41261 29.96126
#
# Poissons Ratio (x) = 0.04117 0.33431
# Poissons Ratio (y) = 0.01002 0.09640
# Poissons Ratio (z) = 0.41135 0.48717
#
# Static dielectric constant tensor:
#      x y z
#    x 2.083810 0.000000 0.053630 
#    y 0.000000 1.978330 0.000000 
#    z 0.053630 0.000000 1.863780 
# 
# From -- ./inp_files/19457.got.cif
#   From: 2010.05.17/outbox.cif.g08.bks.cpg/sg13_10_cif.got.tgz:19457.got - 2010.06.03 16:44:36.
