data_PCOD9232082
_publ_section_title
;
Structure prediction by ZEFSAII (Michael W. Deem and Ramdas Pophale) SiO2 
 PCOD9232082
Probable space group: P 2/C
;
_chemical_formula_sum "Si O2"
_cell_formula_units_Z 30
_cell_length_a 13.087597
_cell_length_b 11.896117
_cell_length_c 19.458812
_cell_angle_alpha 90.000000
_cell_angle_beta 28.828267
_cell_angle_gamma 90.000000
_cell_volume 1460.817653
_symmetry_space_group_name_H-M "P 2/C"
_symmetry_group_IT_number 13
_symmetry_cell_setting 'monoclinic'
loop_
_space_group_symop_operation_xyz
x,y,z
-x,y,1/2-z
-x,-y,-z
x,-y,1/2+z
loop_
_atom_site_type_symbol
_atom_site_label
_atom_site_fract_x
_atom_site_fract_y
_atom_site_fract_z
Si Si1 0.305267 0.415369 0.410857
Si Si2 0.868244 0.774308 0.590382
Si Si3 0.000000 0.228719 0.250000
Si Si4 0.874222 0.646714 0.953377
Si Si5 0.584612 0.830352 0.124053
Si Si6 0.553459 0.770662 0.574235
Si Si7 0.270220 0.055941 0.425756
Si Si8 0.461741 0.877599 0.491031
O O1 0.500000 0.461813 0.250000
O O2 0.213238 0.317337 0.416764
O O3 0.147057 0.516005 0.520885
O O4 0.382187 0.351279 0.434228
O O5 0.681238 0.792175 0.756261
O O6 0.891800 0.887406 0.532091
O O7 0.055518 0.714629 0.520439
O O8 0.986352 0.310842 0.192175
O O9 0.212690 0.153477 0.127285
O O10 0.651959 0.704526 0.065185
O O11 0.500000 0.823247 0.250000
O O12 0.762254 0.929334 0.029282
O O13 0.447458 0.872191 0.140137
O O14 0.699661 0.863172 0.526409
O O15 0.553067 0.790956 0.493392
O O16 0.500000 0.058830 0.250000
O O17 0.500000 0.000000 0.500000
#
# Coordination Sequence:
#
# PCOD9232082 Si02
#       8
#     4   4   2   4   4   4   4   4
#     4   9  19  34  59  83 107 148 195 239 287 355
#     4   9  17  31  57  81 108 143 188 236 290 340
#     4  10  24  36  54  92 112 152 202 240 288 356
#     4  11  20  35  54  79 119 147 190 244 289 342
#     4  10  21  33  51  81 114 148 193 234 291 352
#     4   9  16  33  56  83 106 141 196 234 282 353
#     4   8  15  29  49  79 108 137 180 227 273 348
#     4  11  20  37  64  83 116 160 193 243 304 359
#
# _framework density 20.536443999999999
#
# number of rings (size 3 to 8) (size 9 to 14) (size 15 to 20)
#    0.000    2.400    2.667    2.400    0.000    0.533 
#    0.000    4.000    5.867    0.000    0.000    0.000 
#    0.000    0.000    0.000    0.000    0.000    0.000 
#
# Total GULP energy -167007.053315 kJ/mol
# GULP energy per Si atom -5566.901777 kJ/mol
# Density = 2.048970 g / cm^3
# Si number density = 20.536444 Si / 1000 Ang^3
#
#
#
# Elastic Constant Matrix: (Units=GPa)
#
#
# Indices 1 2 3 4 5 6 
#
# 1 108.1754 14.7986 21.1870 0.0000 34.0500 0.0000
# 2 14.7986 65.9841 17.9142 0.0000 12.1544 0.0000
# 3 21.1870 17.9142 34.6222 0.0000 19.6325 0.0000
# 4 0.0000 0.0000 0.0000 18.8460 0.0000 0.6131
# 5 34.0500 12.1544 19.6325 0.0000 32.7178 0.0000
# 6 0.0000 0.0000 0.0000 0.6131 0.0000 16.4452
#
#
#
# Elastic Compliance Matrix: (Units=1/GPa)
#
#
# Indices 1 2 3 4 5 6 
#
# 1 0.013763 -0.000438 -0.000251 0.000000 -0.014010 0.000000
# 2 -0.000438 0.017704 -0.008217 0.000000 -0.001190 0.000000
# 3 -0.000251 -0.008217 0.047609 0.000000 -0.025254 0.000000
# 4 0.000000 0.000000 0.000000 0.053126 0.000000 -0.001980
# 5 -0.014010 -0.001190 -0.025254 0.000000 0.060741 0.000000
# 6 0.000000 0.000000 0.000000 -0.001980 0.000000 0.060882
#
#
# Mechanical properties :
#
#
# Convention : Reuss Voigt Hill
#
# Bulk Modulus (GPa) = 16.32315 35.17569 25.74942
# Shear Modulus (GPa) = 17.11986 23.92726 20.52356
#
# Velocity S-wave (km/s) = 2.89040 3.41708 3.16472
# Velocity P-wave (km/s) = 4.37091 5.72138 5.09112
#
# Compressibility (1/GPa) = 0.06126267
#
# Stress axis : x y z
#
# Youngs Moduli (GPa) = 72.65675 56.48584 21.00450
#
# Poissons Ratio (x) = 0.02473 0.00528
# Poissons Ratio (y) = 0.03181 0.17260
# Poissons Ratio (z) = 0.01827 0.46416
#
# Static dielectric constant tensor:
#      x y z
#    x 1.790270 0.000000 -0.010500 
#    y 0.000000 1.719920 0.000000 
#    z -0.010500 0.000000 1.830520 
# 
# From -- ./inp_files/51168.got.cif
#   From: 2010.05.17/outbox.cif.g08.bks.cpg/sg13_26_cif.got.tgz:51168.got - 2010.06.03 16:44:36.
