data_PCOD9232538
_publ_section_title
;
Structure prediction by ZEFSAII (Michael W. Deem and Ramdas Pophale) SiO2 
 PCOD9232538
Probable space group: P 2/C
;
_chemical_formula_sum "Si O2"
_cell_formula_units_Z 32
_cell_length_a 11.981392
_cell_length_b 14.060078
_cell_length_c 15.397607
_cell_angle_alpha 90.000000
_cell_angle_beta 141.898296
_cell_angle_gamma 90.000000
_cell_volume 1600.571669
_symmetry_space_group_name_H-M "P 2/C"
_symmetry_group_IT_number 13
_symmetry_cell_setting 'monoclinic'
loop_
_space_group_symop_operation_xyz
x,y,z
-x,y,1/2-z
-x,-y,-z
x,-y,1/2+z
loop_
_atom_site_type_symbol
_atom_site_label
_atom_site_fract_x
_atom_site_fract_y
_atom_site_fract_z
Si Si1 0.404100 0.298558 0.949763
Si Si2 0.992769 0.721936 0.981679
Si Si3 0.926424 0.190224 0.795156
Si Si4 0.099508 0.995615 0.652661
Si Si5 0.385957 0.385286 0.266617
Si Si6 0.874749 0.148768 0.097367
Si Si7 0.636942 0.611548 0.256316
Si Si8 0.594184 0.898047 0.564898
O O1 0.191453 0.279209 0.809703
O O2 0.447638 0.341891 0.882258
O O3 0.483764 0.364096 0.072590
O O4 0.476562 0.193018 0.015886
O O5 0.805222 0.670657 0.841308
O O6 0.079165 0.791962 0.961089
O O7 0.954899 0.774557 0.050875
O O8 0.161842 0.651797 0.103606
O O9 0.000000 0.151615 0.750000
O O10 0.826916 0.099672 0.777924
O O11 0.254388 0.918231 0.767968
O O12 0.941955 0.958122 0.619208
O O13 0.000000 0.000000 0.500000
O O14 0.500000 0.358817 0.250000
O O15 0.349800 0.497914 0.241935
O O16 0.684087 0.133947 0.027964
O O17 0.000000 0.192043 0.250000
O O18 0.500000 0.635942 0.250000
O O19 0.500000 0.000000 0.500000
#
# Coordination Sequence:
#
# PCOD9232538 Si02
#       8
#     4   4   4   4   4   4   4   4
#     4  11  23  40  62  89 126 164 209 262 317 383
#     4  11  22  40  65  95 123 168 215 263 323 387
#     4  11  22  38  59  84 121 166 210 256 317 379
#     4  11  21  38  57  83 119 165 208 256 307 368
#     4  11  23  42  65  95 128 163 213 272 329 388
#     4  10  21  37  61  86 126 165 206 259 310 372
#     4  10  23  42  66  93 127 166 209 268 332 390
#     4  11  22  39  59  91 125 165 212 261 313 379
#
# _framework density 19.992856
#
# number of rings (size 3 to 8) (size 9 to 14) (size 15 to 20)
#    0.000    1.250    2.500    4.875    0.000    0.000 
#    0.000    1.875    0.000    7.500    0.000    0.000 
#    0.000    0.000    0.000    0.000    0.000    0.000 
#
# Total GULP energy -178137.340066 kJ/mol
# GULP energy per Si atom -5566.791877 kJ/mol
# Density = 1.994735 g / cm^3
# Si number density = 19.992856 Si / 1000 Ang^3
#
#
#
# Elastic Constant Matrix: (Units=GPa)
#
#
# Indices 1 2 3 4 5 6 
#
# 1 78.1207 31.5680 45.1435 0.0000 -23.3821 0.0000
# 2 31.5680 67.5800 26.7780 0.0000 -8.7029 0.0000
# 3 45.1435 26.7780 108.6061 0.0000 -29.2950 0.0000
# 4 0.0000 0.0000 0.0000 36.7866 0.0000 -4.3457
# 5 -23.3821 -8.7029 -29.2950 0.0000 35.0012 0.0000
# 6 0.0000 0.0000 0.0000 -4.3457 0.0000 30.0719
#
#
#
# Elastic Compliance Matrix: (Units=1/GPa)
#
#
# Indices 1 2 3 4 5 6 
#
# 1 0.020717 -0.006745 -0.004737 0.000000 0.008198 0.000000
# 2 -0.006745 0.018617 -0.002265 0.000000 -0.001772 0.000000
# 3 -0.004737 -0.002265 0.013858 0.000000 0.007871 0.000000
# 4 0.000000 0.000000 0.000000 0.027656 0.000000 0.003997
# 5 0.008198 -0.001772 0.007871 0.000000 0.040194 0.000000
# 6 0.000000 0.000000 0.000000 0.003997 0.000000 0.033831
#
#
# Mechanical properties :
#
#
# Convention : Reuss Voigt Hill
#
# Bulk Modulus (GPa) = 38.91137 51.25396 45.08267
# Shear Modulus (GPa) = 26.18710 30.42644 28.30677
#
# Velocity S-wave (km/s) = 3.62307 3.90534 3.76685
# Velocity P-wave (km/s) = 6.08335 6.78435 6.44339
#
# Compressibility (1/GPa) = 0.02569943
#
# Stress axis : x y z
#
# Youngs Moduli (GPa) = 48.26865 53.71423 72.15959
#
# Poissons Ratio (x) = 0.36229 0.34183
# Poissons Ratio (y) = 0.32556 0.16342
# Poissons Ratio (z) = 0.22865 0.12165
#
# Static dielectric constant tensor:
#      x y z
#    x 1.781560 0.000000 0.017040 
#    y 0.000000 1.734400 0.000000 
#    z 0.017040 0.000000 1.786530 
# 
# From -- ./inp_files/51485.got.cif
#   From: 2010.05.17/outbox.cif.g08.bks.cpg/sg13_26_cif.got.tgz:51485.got - 2010.06.03 16:44:36.
