data_PCOD9232769
_publ_section_title
;
Structure prediction by ZEFSAII (Michael W. Deem and Ramdas Pophale) SiO2 
 PCOD9232769
Probable space group: P 2/C
;
_chemical_formula_sum "Si O2"
_cell_formula_units_Z 24
_cell_length_a 14.445500
_cell_length_b 13.082934
_cell_length_c 10.023545
_cell_angle_alpha 90.000000
_cell_angle_beta 148.143981
_cell_angle_gamma 90.000000
_cell_volume 999.809706
_symmetry_space_group_name_H-M "P 2/C"
_symmetry_group_IT_number 13
_symmetry_cell_setting 'monoclinic'
loop_
_space_group_symop_operation_xyz
x,y,z
-x,y,1/2-z
-x,-y,-z
x,-y,1/2+z
loop_
_atom_site_type_symbol
_atom_site_label
_atom_site_fract_x
_atom_site_fract_y
_atom_site_fract_z
Si Si1 0.199078 0.291991 0.509326
Si Si2 0.337852 0.924738 0.765164
Si Si3 0.712771 0.919932 0.507533
Si Si4 0.378438 0.696137 0.728456
Si Si5 0.141381 0.357485 0.720287
Si Si6 0.254751 0.408117 0.327902
O O1 0.210548 0.176189 0.475700
O O2 0.233363 0.300801 0.707829
O O3 0.305134 0.358621 0.531666
O O4 0.000000 0.331963 0.250000
O O5 0.401728 0.811462 0.808460
O O6 0.251935 0.977276 0.531425
O O7 0.227335 0.921137 0.765960
O O8 0.500000 0.000000 0.000000
O O9 0.500000 0.904420 0.250000
O O10 0.500000 0.671231 0.750000
O O11 0.192702 0.687994 0.424626
O O12 0.378359 0.620589 0.854917
O O13 0.212424 0.473511 0.796918
O O14 0.933072 0.358307 0.442954
#
# Coordination Sequence:
#
# PCOD9232769 Si02
#       6
#     4   4   4   4   4   4
#     4  10  21  38  61  89 121 158 208 261 316 373
#     4  10  22  40  62  90 121 168 212 253 319 391
#     4  10  21  38  63  83 118 160 206 255 315 381
#     4  12  24  38  64  99 130 162 216 269 312 375
#     4  10  23  39  69  89 126 173 215 258 317 389
#     4  10  21  45  62  91 126 174 215 256 320 381
#
# _framework density 24.004567999999999
#
# number of rings (size 3 to 8) (size 9 to 14) (size 15 to 20)
#    0.000    1.667    1.667    3.000    7.000    3.333 
#    0.000    4.167    0.000    0.000    0.000    0.000 
#    0.000    0.000    0.000    0.000    0.000    0.000 
#
# Total GULP energy -134187.334483 kJ/mol
# GULP energy per Si atom -5591.138937 kJ/mol
# Density = 2.394993 g / cm^3
# Si number density = 24.004568 Si / 1000 Ang^3
#
#
#
# Elastic Constant Matrix: (Units=GPa)
#
#
# Indices 1 2 3 4 5 6 
#
# 1 138.1606 34.8425 37.3759 0.0000 -30.0058 0.0000
# 2 34.8425 58.6441 2.5787 0.0000 -9.2531 0.0000
# 3 37.3759 2.5787 64.2653 0.0000 -20.0291 0.0000
# 4 0.0000 0.0000 0.0000 36.4601 0.0000 -13.5689
# 5 -30.0058 -9.2531 -20.0291 0.0000 39.8403 0.0000
# 6 0.0000 0.0000 0.0000 -13.5689 0.0000 24.4607
#
#
#
# Elastic Compliance Matrix: (Units=1/GPa)
#
#
# Indices 1 2 3 4 5 6 
#
# 1 0.010897 -0.005549 -0.004694 0.000000 0.004559 0.000000
# 2 -0.005549 0.020551 0.003068 0.000000 0.002137 0.000000
# 3 -0.004694 0.003068 0.020500 0.000000 0.007483 0.000000
# 4 0.000000 0.000000 0.000000 0.034562 0.000000 0.019173
# 5 0.004559 0.002137 0.007483 0.000000 0.032792 0.000000
# 6 0.000000 0.000000 0.000000 0.019173 0.000000 0.051517
#
#
# Mechanical properties :
#
#
# Convention : Reuss Voigt Hill
#
# Bulk Modulus (GPa) = 26.59688 45.62937 36.11313
# Shear Modulus (GPa) = 25.29063 32.57042 28.93053
#
# Velocity S-wave (km/s) = 3.24940 3.68753 3.47538
# Velocity P-wave (km/s) = 5.01818 6.09757 5.58402
#
# Compressibility (1/GPa) = 0.03759839
#
# Stress axis : x y z
#
# Youngs Moduli (GPa) = 91.76629 48.65971 48.78116
#
# Poissons Ratio (x) = 0.27000 0.22899
# Poissons Ratio (y) = 0.50919 -0.14968
# Poissons Ratio (z) = 0.43078 -0.14930
#
# Static dielectric constant tensor:
#      x y z
#    x 1.967330 0.000000 0.038050 
#    y 0.000000 1.850620 0.000000 
#    z 0.038050 0.000000 2.043320 
# 
# From -- ./inp_files/19751.got.cif
#   From: 2010.05.17/outbox.cif.g08.bks.cpg/sg13_10_cif.got.tgz:19751.got - 2010.06.03 16:44:36.
