data_PCOD9232006
_publ_section_title
;
Structure prediction by ZEFSAII (Michael W. Deem and Ramdas Pophale) SiO2 
 PCOD9232006
Probable space group: P 2/C
;
_chemical_formula_sum "Si O2"
_cell_formula_units_Z 24
_cell_length_a 17.169856
_cell_length_b 7.388382
_cell_length_c 12.611030
_cell_angle_alpha 90.000000
_cell_angle_beta 137.263894
_cell_angle_gamma 90.000000
_cell_volume 1085.662676
_symmetry_space_group_name_H-M "P 2/C"
_symmetry_group_IT_number 13
_symmetry_cell_setting 'monoclinic'
loop_
_space_group_symop_operation_xyz
x,y,z
-x,y,1/2-z
-x,-y,-z
x,-y,1/2+z
loop_
_atom_site_type_symbol
_atom_site_label
_atom_site_fract_x
_atom_site_fract_y
_atom_site_fract_z
Si Si1 0.568677 0.363820 0.142094
Si Si2 0.251173 0.536917 0.504720
Si Si3 0.000000 0.604341 0.250000
Si Si4 0.931323 0.863820 0.004739
Si Si5 0.500000 0.104340 0.250000
Si Si6 0.750000 0.250000 0.171861
Si Si7 0.248826 0.963084 0.502373
O O1 0.660439 0.472307 0.308704
O O2 0.491742 0.240668 0.141804
O O3 0.642511 0.228231 0.142368
O O4 0.500000 0.500000 0.000000
O O5 0.282778 0.414973 0.437102
O O6 0.250000 0.750000 0.479294
O O7 0.116042 0.493146 0.387158
O O8 0.008258 0.740669 0.158320
O O9 0.839561 0.972307 0.987826
O O10 0.857489 0.728231 0.857346
O O11 0.000000 0.000000 0.000000
O O12 0.616042 0.993145 0.344927
O O13 0.782779 0.085028 0.128455
#
# Coordination Sequence:
#
# PCOD9232006 Si02
#       7
#     4   4   2   4   2   4   4
#     4  11  22  43  71 101 141 189 231 297 361 418
#     4  10  23  44  65 104 141 176 240 291 340 439
#     4  10  20  44  66  92 146 174 230 302 334 426
#     4  11  22  43  71 101 141 189 231 297 361 418
#     4  10  20  44  66  92 146 174 230 302 334 426
#     4  12  24  44  72 102 138 190 238 280 380 418
#     4  10  23  44  65 104 141 176 240 291 340 439
#
# _framework density 22.106313
#
# number of rings (size 3 to 8) (size 9 to 14) (size 15 to 20)
#    0.000    1.333    5.000    4.000    0.000    4.000 
#    9.000    0.000    0.000    0.000    0.000    0.000 
#    0.000    0.000    0.000    0.000    0.000    0.000 
#
# Total GULP energy -133904.788769 kJ/mol
# GULP energy per Si atom -5579.366199 kJ/mol
# Density = 2.205600 g / cm^3
# Si number density = 22.106313 Si / 1000 Ang^3
#
#
#
# Elastic Constant Matrix: (Units=GPa)
#
#
# Indices 1 2 3 4 5 6 
#
# 1 153.4759 14.1518 37.4319 0.0000 -6.8864 0.0000
# 2 14.1518 37.7512 20.4665 0.0000 -22.4094 0.0000
# 3 37.4319 20.4665 156.1065 0.0000 -2.4447 0.0000
# 4 0.0000 0.0000 0.0000 13.9011 0.0000 8.7440
# 5 -6.8864 -22.4094 -2.4447 0.0000 43.2313 0.0000
# 6 0.0000 0.0000 0.0000 8.7440 0.0000 16.3655
#
#
#
# Elastic Compliance Matrix: (Units=1/GPa)
#
#
# Indices 1 2 3 4 5 6 
#
# 1 0.007039 -0.001783 -0.001452 0.000000 0.000115 0.000000
# 2 -0.001783 0.042519 -0.004810 0.000000 0.021484 0.000000
# 3 -0.001452 -0.004810 0.007349 0.000000 -0.002309 0.000000
# 4 0.000000 0.000000 0.000000 0.108352 0.000000 -0.057892
# 5 0.000115 0.021484 -0.002309 0.000000 0.034155 0.000000
# 6 0.000000 0.000000 0.000000 -0.057892 0.000000 0.092036
#
#
# Mechanical properties :
#
#
# Convention : Reuss Voigt Hill
#
# Bulk Modulus (GPa) = 24.50109 54.60376 39.55242
# Shear Modulus (GPa) = 15.56917 33.05180 24.31048
#
# Velocity S-wave (km/s) = 2.65672 3.87089 3.31978
# Velocity P-wave (km/s) = 4.52970 6.68823 5.71186
#
# Compressibility (1/GPa) = 0.04081452
#
# Stress axis : x y z
#
# Youngs Moduli (GPa) = 142.05563 23.51914 136.07963
#
# Poissons Ratio (x) = 0.04194 0.19764
# Poissons Ratio (y) = 0.25334 0.65459
# Poissons Ratio (z) = 0.20631 0.11314
#
# Static dielectric constant tensor:
#      x y z
#    x 1.907480 0.000000 0.093370 
#    y 0.000000 1.921590 0.000000 
#    z 0.093370 0.000000 1.881170 
# 
# From -- ./inp_files/38637.got.cif
#   From: 2010.05.17/outbox.cif.g08.bks.cpg/sg13_20_cif.got.tgz:38637.got - 2010.06.03 16:44:36.
