data_PCOD9232912
_publ_section_title
;
Structure prediction by ZEFSAII (Michael W. Deem and Ramdas Pophale) SiO2 
 PCOD9232912
Probable space group: P 2/C
;
_chemical_formula_sum "Si O2"
_cell_formula_units_Z 28
_cell_length_a 12.286728
_cell_length_b 8.726415
_cell_length_c 14.285964
_cell_angle_alpha 90.000000
_cell_angle_beta 118.405962
_cell_angle_gamma 90.000000
_cell_volume 1347.306555
_symmetry_space_group_name_H-M "P 2/C"
_symmetry_group_IT_number 13
_symmetry_cell_setting 'monoclinic'
loop_
_space_group_symop_operation_xyz
x,y,z
-x,y,1/2-z
-x,-y,-z
x,-y,1/2+z
loop_
_atom_site_type_symbol
_atom_site_label
_atom_site_fract_x
_atom_site_fract_y
_atom_site_fract_z
Si Si1 0.399370 0.666227 0.631626
Si Si2 0.220040 0.904915 0.505068
Si Si3 0.826474 0.156797 0.875989
Si Si4 0.651647 0.043505 0.636770
Si Si5 0.040443 0.365841 0.873908
Si Si6 0.759178 0.400985 0.989735
Si Si7 0.444946 0.744317 0.966727
O O1 0.500000 0.645150 0.750000
O O2 0.333708 0.830572 0.607700
O O3 0.297987 0.535317 0.596186
O O4 0.461481 0.643973 0.555634
O O5 0.277008 0.976236 0.434021
O O6 0.145775 0.761360 0.432706
O O7 0.142682 0.008420 0.545899
O O8 0.745136 0.101716 0.754451
O O9 0.753250 0.253037 0.922627
O O10 0.928644 0.281119 0.883666
O O11 0.535497 0.160231 0.574661
O O12 0.600720 0.872219 0.627124
O O13 0.000000 0.376917 0.750000
O O14 0.105549 0.528609 0.927827
O O15 0.669902 0.349761 0.038638
#
# Coordination Sequence:
#
# PCOD9232912 Si02
#       7
#     4   4   4   4   4   4   4
#     4  10  22  38  61  94 136 174 210 266 334 400
#     4  10  21  43  64  96 129 169 224 276 322 391
#     4  12  23  41  71  96 132 172 230 274 335 386
#     4  10  21  38  68  99 129 172 214 276 330 391
#     4  11  24  45  67  91 133 181 221 277 332 390
#     4  11  25  40  64  97 135 170 224 268 332 405
#     4  10  21  41  62  97 137 166 219 268 329 403
#
# _framework density 20.782202999999999
#
# number of rings (size 3 to 8) (size 9 to 14) (size 15 to 20)
#    0.000    1.429    2.857    2.143    2.000    1.143 
#    0.000    3.571    0.000    0.000    0.000    0.000 
#    0.000    0.000    0.000    0.000    0.000    0.000 
#
# Total GULP energy -155869.626756 kJ/mol
# GULP energy per Si atom -5566.772384 kJ/mol
# Density = 2.073490 g / cm^3
# Si number density = 20.782203 Si / 1000 Ang^3
#
#
#
# Elastic Constant Matrix: (Units=GPa)
#
#
# Indices 1 2 3 4 5 6 
#
# 1 66.4381 11.9667 21.7804 0.0000 4.9182 0.0000
# 2 11.9667 67.7619 41.9585 0.0000 -1.5826 0.0000
# 3 21.7804 41.9585 113.0651 0.0000 5.5119 0.0000
# 4 0.0000 0.0000 0.0000 13.5782 0.0000 4.8488
# 5 4.9182 -1.5826 5.5119 0.0000 20.5527 0.0000
# 6 0.0000 0.0000 0.0000 4.8488 0.0000 38.9502
#
#
#
# Elastic Compliance Matrix: (Units=1/GPa)
#
#
# Indices 1 2 3 4 5 6 
#
# 1 0.016366 -0.001452 -0.002449 0.000000 -0.003371 0.000000
# 2 -0.001452 0.019530 -0.007152 0.000000 0.003769 0.000000
# 3 -0.002449 -0.007152 0.012127 0.000000 -0.003217 0.000000
# 4 0.000000 0.000000 0.000000 0.077073 0.000000 -0.009595
# 5 -0.003371 0.003769 -0.003217 0.000000 0.050615 0.000000
# 6 0.000000 0.000000 0.000000 -0.009595 0.000000 0.026868
#
#
# Mechanical properties :
#
#
# Convention : Reuss Voigt Hill
#
# Bulk Modulus (GPa) = 38.58533 44.29736 41.44134
# Shear Modulus (GPa) = 21.42927 26.05353 23.74140
#
# Velocity S-wave (km/s) = 3.21461 3.54453 3.38359
# Velocity P-wave (km/s) = 5.69080 6.17356 5.93709
#
# Compressibility (1/GPa) = 0.02591659
#
# Stress axis : x y z
#
# Youngs Moduli (GPa) = 61.10339 51.20205 82.45972
#
# Poissons Ratio (x) = 0.07436 0.20197
# Poissons Ratio (y) = 0.08874 0.58973
# Poissons Ratio (z) = 0.14966 0.36618
#
# Static dielectric constant tensor:
#      x y z
#    x 1.841070 0.000000 0.022590 
#    y 0.000000 1.783020 0.000000 
#    z 0.022590 0.000000 1.708970 
# 
# From -- ./inp_files/50419.got.cif
#   From: 2010.05.17/outbox.cif.g08.bks.cpg/sg13_26_cif.got.tgz:50419.got - 2010.06.03 16:44:36.
