data_PCOD9232078
_publ_section_title
;
Structure prediction by ZEFSAII (Michael W. Deem and Ramdas Pophale) SiO2 
 PCOD9232078
Probable space group: P 2/C
;
_chemical_formula_sum "Si O2"
_cell_formula_units_Z 30
_cell_length_a 5.898021
_cell_length_b 17.526776
_cell_length_c 17.920418
_cell_angle_alpha 90.000000
_cell_angle_beta 116.336789
_cell_angle_gamma 90.000000
_cell_volume 1660.207135
_symmetry_space_group_name_H-M "P 2/C"
_symmetry_group_IT_number 13
_symmetry_cell_setting 'monoclinic'
loop_
_space_group_symop_operation_xyz
x,y,z
-x,y,1/2-z
-x,-y,-z
x,-y,1/2+z
loop_
_atom_site_type_symbol
_atom_site_label
_atom_site_fract_x
_atom_site_fract_y
_atom_site_fract_z
Si Si1 0.500000 0.468376 0.750000
Si Si2 0.237285 0.883572 0.337812
Si Si3 0.400986 0.997186 0.570736
Si Si4 0.046665 0.878889 0.480114
Si Si5 0.594877 0.378126 0.540663
Si Si6 0.288583 0.518352 0.567494
Si Si7 0.660537 0.755774 0.408925
Si Si8 0.885763 0.338946 0.806780
O O1 0.359698 0.515601 0.665020
O O2 0.714379 0.408914 0.753109
O O3 0.372449 0.966390 0.348667
O O4 0.449857 0.818893 0.358447
O O5 0.000000 0.877001 0.250000
O O6 0.141825 0.875123 0.408916
O O7 0.174538 0.057998 0.546455
O O8 0.500000 0.000000 0.500000
O O9 0.277248 0.913678 0.562384
O O10 0.909133 0.799204 0.475916
O O11 0.450471 0.448175 0.558193
O O12 0.622141 0.403591 0.458879
O O13 0.450539 0.302356 0.546245
O O14 0.878157 0.370554 0.612554
O O15 0.000000 0.500000 0.500000
O O16 0.732707 0.711875 0.343333
O O17 0.000000 0.299103 0.750000
#
# Coordination Sequence:
#
# PCOD9232078 Si02
#       8
#     2   4   4   4   4   4   4   4
#     4  12  22  38  58  80 110 158 196 248 304 364
#     4  10  21  33  50  80 119 154 187 232 283 353
#     4   8  16  33  51  71 104 147 187 225 269 326
#     4   9  18  32  52  73 108 152 189 227 276 342
#     4  11  22  36  54  78 115 151 192 252 292 361
#     4  11  22  39  58  80 111 150 202 247 299 363
#     4  11  22  34  49  79 118 154 198 236 298 357
#     4  12  22  36  53  79 117 161 192 233 296 370
#
# _framework density 18.070034
#
# number of rings (size 3 to 8) (size 9 to 14) (size 15 to 20)
#    0.000    1.600    4.000    0.800    0.000    7.467 
#    0.000    0.000    0.000    0.000    0.000    0.000 
#    0.000  343.467    0.000    0.000    0.000    0.000 
#
# Total GULP energy -167226.671976 kJ/mol
# GULP energy per Si atom -5574.222399 kJ/mol
# Density = 1.802891 g / cm^3
# Si number density = 18.070034 Si / 1000 Ang^3
#
#
#
# Elastic Constant Matrix: (Units=GPa)
#
#
# Indices 1 2 3 4 5 6 
#
# 1 102.1124 41.5964 48.6910 0.0000 6.3325 0.0000
# 2 41.5964 86.1880 60.8295 0.0000 10.6501 0.0000
# 3 48.6910 60.8295 94.4149 0.0000 6.2824 0.0000
# 4 0.0000 0.0000 0.0000 20.3306 0.0000 4.8755
# 5 6.3325 10.6501 6.2824 0.0000 28.6077 0.0000
# 6 0.0000 0.0000 0.0000 4.8755 0.0000 46.8844
#
#
#
# Elastic Compliance Matrix: (Units=1/GPa)
#
#
# Indices 1 2 3 4 5 6 
#
# 1 0.013391 -0.002799 -0.005048 0.000000 -0.000813 0.000000
# 2 -0.002799 0.022587 -0.012777 0.000000 -0.004983 0.000000
# 3 -0.005048 -0.012777 0.021348 0.000000 0.001186 0.000000
# 4 0.000000 0.000000 0.000000 0.050445 0.000000 -0.005246
# 5 -0.000813 -0.004983 0.001186 0.000000 0.036730 0.000000
# 6 0.000000 0.000000 0.000000 -0.005246 0.000000 0.021875
#
#
# Mechanical properties :
#
#
# Convention : Reuss Voigt Hill
#
# Bulk Modulus (GPa) = 62.20151 64.99435 63.59793
# Shear Modulus (GPa) = 23.47585 27.93777 25.70681
#
# Velocity S-wave (km/s) = 3.60830 3.93629 3.77586
# Velocity P-wave (km/s) = 7.20117 7.53029 7.36757
#
# Compressibility (1/GPa) = 0.01607678
#
# Stress axis : x y z
#
# Youngs Moduli (GPa) = 74.67623 44.27288 46.84248
#
# Poissons Ratio (x) = 0.12394 0.23647
# Poissons Ratio (y) = 0.20905 0.59851
# Poissons Ratio (z) = 0.37698 0.56568
#
# Static dielectric constant tensor:
#      x y z
#    x 1.681980 0.000000 0.001660 
#    y 0.000000 1.655270 0.000000 
#    z 0.001660 0.000000 1.629270 
# 
# From -- ./inp_files/61807.got.cif
#   From: 2010.05.17/outbox.cif.g08.bks.cpg/sg13_31_cif.got.tgz:61807.got - 2010.06.03 16:44:36.
