data_PCOD9232727
_publ_section_title
;
Structure prediction by ZEFSAII (Michael W. Deem and Ramdas Pophale) SiO2 
 PCOD9232727
Probable space group: P 2/C
;
_chemical_formula_sum "Si O2"
_cell_formula_units_Z 20
_cell_length_a 5.124871
_cell_length_b 8.044565
_cell_length_c 26.232829
_cell_angle_alpha 90.000000
_cell_angle_beta 109.714304
_cell_angle_gamma 90.000000
_cell_volume 1018.118977
_symmetry_space_group_name_H-M "P 2/C"
_symmetry_group_IT_number 13
_symmetry_cell_setting 'monoclinic'
loop_
_space_group_symop_operation_xyz
x,y,z
-x,y,1/2-z
-x,-y,-z
x,-y,1/2+z
loop_
_atom_site_type_symbol
_atom_site_label
_atom_site_fract_x
_atom_site_fract_y
_atom_site_fract_z
Si Si1 0.747039 0.217738 0.416494
Si Si2 0.085684 0.654929 0.470581
Si Si3 0.955139 0.713228 0.187014
Si Si4 0.214798 0.570031 0.892425
Si Si5 0.658193 0.847533 0.371743
O O1 0.787311 0.216772 0.480649
O O2 0.491068 0.342805 0.391371
O O3 0.015492 0.295661 0.406420
O O4 0.684467 0.037187 0.390805
O O5 0.275071 0.571092 0.439488
O O6 0.000000 0.500000 0.500000
O O7 0.831497 0.737032 0.423696
O O8 0.942239 0.527575 0.162669
O O9 0.658404 0.793060 0.153830
O O10 0.000000 0.713024 0.250000
O O11 0.190624 0.812574 0.172002
#
# Coordination Sequence:
#
# PCOD9232727 Si02
#       5
#     4   4   4   4   4
#     4  11  21  37  58  90 124 148 183 239 292 343
#     4   9  19  36  59  87 121 158 189 226 280 350
#     4  11  23  43  62  80 110 155 200 242 286 340
#     4  10  21  38  60  85 115 154 198 233 279 348
#     4  11  23  38  61  90 118 151 193 238 292 345
#
# _framework density 19.644072000000001
#
# number of rings (size 3 to 8) (size 9 to 14) (size 15 to 20)
#    0.000    1.600    0.000    6.600    0.000    4.800 
#    0.000   16.000    0.000    0.000    0.000    0.000 
#    0.000    0.000    0.000    0.000    0.000    0.000 
#
# Total GULP energy -111746.108443 kJ/mol
# GULP energy per Si atom -5587.305422 kJ/mol
# Density = 1.959936 g / cm^3
# Si number density = 19.644072 Si / 1000 Ang^3
#
#
#
# Elastic Constant Matrix: (Units=GPa)
#
#
# Indices 1 2 3 4 5 6 
#
# 1 63.6823 -0.1950 -14.7926 0.0000 -7.7347 0.0000
# 2 -0.1950 48.7720 32.9094 0.0000 -7.7257 0.0000
# 3 -14.7926 32.9094 85.4120 0.0000 -21.7916 0.0000
# 4 0.0000 0.0000 0.0000 18.1993 0.0000 3.7191
# 5 -7.7347 -7.7257 -21.7916 0.0000 27.1014 0.0000
# 6 0.0000 0.0000 0.0000 3.7191 0.0000 16.6902
#
#
#
# Elastic Compliance Matrix: (Units=1/GPa)
#
#
# Indices 1 2 3 4 5 6 
#
# 1 0.018512 -0.003009 0.006913 0.000000 0.009984 0.000000
# 2 -0.003009 0.028212 -0.012026 0.000000 -0.002486 0.000000
# 3 0.006913 -0.012026 0.021598 0.000000 0.015911 0.000000
# 4 0.000000 0.000000 0.000000 0.057569 0.000000 -0.012828
# 5 0.009984 -0.002486 0.015911 0.000000 0.051833 0.000000
# 6 0.000000 0.000000 0.000000 -0.012828 0.000000 0.062774
#
#
# Mechanical properties :
#
#
# Convention : Reuss Voigt Hill
#
# Bulk Modulus (GPa) = 19.20162 25.96778 22.58470
# Shear Modulus (GPa) = 18.24144 24.39448 21.31796
#
# Velocity S-wave (km/s) = 3.05060 3.52778 3.29783
# Velocity P-wave (km/s) = 4.71213 5.46273 5.10126
#
# Compressibility (1/GPa) = 0.05207893
#
# Stress axis : x y z
#
# Youngs Moduli (GPa) = 54.01873 35.44577 46.30023
#
# Poissons Ratio (x) = 0.10665 -0.32006
# Poissons Ratio (y) = 0.16254 0.55678
# Poissons Ratio (z) = -0.37342 0.42625
#
# Static dielectric constant tensor:
#      x y z
#    x 1.686090 0.000000 -0.001300 
#    y 0.000000 1.682170 0.000000 
#    z -0.001300 0.000000 1.697350 
# 
# From -- ./inp_files/83249.got.cif
#   From: 2010.05.17/outbox.cif.g08.bks.cpg/sg13_42_cif.got.tgz:83249.got - 2010.06.03 16:44:36.
