data_PCOD9232172
_publ_section_title
;
Structure prediction by ZEFSAII (Michael W. Deem and Ramdas Pophale) SiO2 
 PCOD9232172
Probable space group: P 2/C
;
_chemical_formula_sum "Si O2"
_cell_formula_units_Z 32
_cell_length_a 12.047965
_cell_length_b 11.881219
_cell_length_c 11.977216
_cell_angle_alpha 90.000000
_cell_angle_beta 94.673069
_cell_angle_gamma 90.000000
_cell_volume 1708.773457
_symmetry_space_group_name_H-M "P 2/C"
_symmetry_group_IT_number 13
_symmetry_cell_setting 'monoclinic'
loop_
_space_group_symop_operation_xyz
x,y,z
-x,y,1/2-z
-x,-y,-z
x,-y,1/2+z
loop_
_atom_site_type_symbol
_atom_site_label
_atom_site_fract_x
_atom_site_fract_y
_atom_site_fract_z
Si Si1 0.814557 0.429102 0.709454
Si Si2 0.173451 0.160325 0.087999
Si Si3 0.132794 0.672457 0.766708
Si Si4 0.077110 0.828803 0.952719
Si Si5 0.245851 0.926671 0.138560
Si Si6 0.969468 0.602237 0.417748
Si Si7 0.281657 0.795231 0.357257
Si Si8 0.507303 0.065646 0.880379
O O1 0.802597 0.562303 0.685915
O O2 0.857483 0.423434 0.840124
O O3 0.722141 0.337518 0.672128
O O4 0.922871 0.386740 0.651065
O O5 0.174529 0.279278 0.152857
O O6 0.245174 0.061617 0.150789
O O7 0.218371 0.178428 0.967200
O O8 0.044016 0.121492 0.083470
O O9 0.000000 0.640687 0.750000
O O10 0.135578 0.780392 0.847408
O O11 0.158064 0.901534 0.034298
O O12 0.048753 0.716236 0.018644
O O13 0.220708 0.861447 0.250839
O O14 0.367716 0.886557 0.110506
O O15 0.000000 0.500000 0.500000
O O16 0.405589 0.846338 0.374111
O O17 0.500000 0.013779 0.750000
O O18 0.500000 0.000000 0.000000
#
# Coordination Sequence:
#
# PCOD9232172 Si02
#       8
#     4   4   4   4   4   4   4   4
#     4  11  20  33  56  87 122 157 211 256 298 369
#     4  11  23  37  58  89 130 161 204 254 313 387
#     4  10  21  35  55  89 128 171 206 244 307 388
#     4  11  21  36  54  90 124 163 203 249 315 379
#     4  11  24  40  60  87 122 164 203 263 320 378
#     4  11  18  32  54  83 121 164 208 242 301 379
#     4  11  23  39  63  92 115 163 216 264 316 370
#     4  10  22  43  68  91 117 162 219 271 320 387
#
# _framework density 18.726883000000001
#
# number of rings (size 3 to 8) (size 9 to 14) (size 15 to 20)
#    0.000    1.250    6.250    1.125    1.750    0.500 
#    2.250    0.000    0.000    0.750    3.250    0.000 
#    0.000    0.000    0.000    0.000    0.000    0.000 
#
# Total GULP energy -178331.811433 kJ/mol
# GULP energy per Si atom -5572.869107 kJ/mol
# Density = 1.868426 g / cm^3
# Si number density = 18.726883 Si / 1000 Ang^3
#
#
#
# Elastic Constant Matrix: (Units=GPa)
#
#
# Indices 1 2 3 4 5 6 
#
# 1 62.4676 29.1687 24.1709 0.0000 5.8541 0.0000
# 2 29.1687 86.8595 31.3817 0.0000 2.3557 0.0000
# 3 24.1709 31.3817 98.2038 0.0000 -18.1368 0.0000
# 4 0.0000 0.0000 0.0000 36.2738 0.0000 6.8676
# 5 5.8541 2.3557 -18.1368 0.0000 24.7472 0.0000
# 6 0.0000 0.0000 0.0000 6.8676 0.0000 26.2908
#
#
#
# Elastic Compliance Matrix: (Units=1/GPa)
#
#
# Indices 1 2 3 4 5 6 
#
# 1 0.021105 -0.005014 -0.005119 0.000000 -0.008267 0.000000
# 2 -0.005014 0.014755 -0.004073 0.000000 -0.003203 0.000000
# 3 -0.005119 -0.004073 0.015081 0.000000 0.012651 0.000000
# 4 0.000000 0.000000 0.000000 0.029002 0.000000 -0.007576
# 5 -0.008267 -0.003203 0.012651 0.000000 0.051941 0.000000
# 6 0.000000 0.000000 0.000000 -0.007576 0.000000 0.040015
#
#
# Mechanical properties :
#
#
# Convention : Reuss Voigt Hill
#
# Bulk Modulus (GPa) = 44.38593 46.33038 45.35816
# Shear Modulus (GPa) = 24.05932 28.31634 26.18783
#
# Velocity S-wave (km/s) = 3.58823 3.89275 3.74359
# Velocity P-wave (km/s) = 6.39690 6.70809 6.55434
#
# Compressibility (1/GPa) = 0.02252966
#
# Stress axis : x y z
#
# Youngs Moduli (GPa) = 47.38239 67.77477 66.30943
#
# Poissons Ratio (x) = 0.33979 0.33945
# Poissons Ratio (y) = 0.23756 0.27005
# Poissons Ratio (z) = 0.24256 0.27602
#
# Static dielectric constant tensor:
#      x y z
#    x 1.627350 0.000000 -0.045410 
#    y 0.000000 1.667610 0.000000 
#    z -0.045410 0.000000 1.481320 
# 
# From -- ./inp_files/33869.got.cif
#   From: 2010.05.17/outbox.cif.g08.bks.cpg/sg13_17_cif.got.tgz:33869.got - 2010.06.03 16:44:36.
