data_PCOD9232914
_publ_section_title
;
Structure prediction by ZEFSAII (Michael W. Deem and Ramdas Pophale) SiO2 
 PCOD9232914
Probable space group: P 2/C
;
_chemical_formula_sum "Si O2"
_cell_formula_units_Z 28
_cell_length_a 16.241319
_cell_length_b 7.788929
_cell_length_c 22.283494
_cell_angle_alpha 90.000000
_cell_angle_beta 149.555746
_cell_angle_gamma 90.000000
_cell_volume 1428.344814
_symmetry_space_group_name_H-M "P 2/C"
_symmetry_group_IT_number 13
_symmetry_cell_setting 'monoclinic'
loop_
_space_group_symop_operation_xyz
x,y,z
-x,y,1/2-z
-x,-y,-z
x,-y,1/2+z
loop_
_atom_site_type_symbol
_atom_site_label
_atom_site_fract_x
_atom_site_fract_y
_atom_site_fract_z
Si Si1 0.181984 0.858806 0.561568
Si Si2 0.000000 0.095693 0.250000
Si Si3 0.248240 0.846018 0.465126
Si Si4 0.426804 0.904246 0.897689
Si Si5 0.000000 0.403391 0.750000
Si Si6 0.209032 0.853382 0.175462
Si Si7 0.174544 0.534761 0.637112
Si Si8 0.158636 0.343412 0.261263
O O1 0.250409 0.869812 0.537704
O O2 0.241262 0.691554 0.637533
O O3 0.984433 0.849882 0.431391
O O4 0.222661 0.030316 0.624414
O O5 0.960179 0.202476 0.284612
O O6 0.840832 0.991773 0.130895
O O7 0.430469 0.835661 0.555441
O O8 0.121108 0.694583 0.370802
O O9 0.332570 0.743793 0.866740
O O10 0.308277 0.037540 0.787712
O O11 0.500000 0.000000 0.000000
O O12 0.875026 0.503665 0.714310
O O13 0.259764 0.653108 0.197396
O O14 0.133733 0.603966 0.677496
O O15 0.000000 0.500000 0.500000
#
# Coordination Sequence:
#
# PCOD9232914 Si02
#       8
#     4   2   4   4   2   4   4   4
#     4  10  21  41  70  97 127 180 231 280 324 403
#     4  10  22  40  68  94 128 186 237 275 316 415
#     4  11  24  41  67  95 135 180 230 276 348 405
#     4  12  25  43  66  99 139 184 216 280 355 408
#     4  10  24  42  66 100 126 182 229 287 322 413
#     4  10  22  41  69  98 133 177 226 276 338 403
#     4  10  21  38  69 101 126 173 229 278 327 399
#     4  11  22  42  66  97 140 168 231 281 334 399
#
# _framework density 19.603110999999998
#
# number of rings (size 3 to 8) (size 9 to 14) (size 15 to 20)
#    0.000    1.429    2.857    2.571    8.000    1.143 
#    0.000    0.000    3.143    0.000    0.000    0.000 
#    0.000    0.000    0.000    0.000    0.000    0.000 
#
# Total GULP energy -155998.456183 kJ/mol
# GULP energy per Si atom -5571.373435 kJ/mol
# Density = 1.955849 g / cm^3
# Si number density = 19.603111 Si / 1000 Ang^3
#
#
#
# Elastic Constant Matrix: (Units=GPa)
#
#
# Indices 1 2 3 4 5 6 
#
# 1 142.8583 51.8920 48.7303 0.0000 -12.0319 0.0000
# 2 51.8920 97.5018 34.3116 0.0000 -2.7246 0.0000
# 3 48.7303 34.3116 70.0674 0.0000 -14.8373 0.0000
# 4 0.0000 0.0000 0.0000 16.6683 0.0000 -9.9684
# 5 -12.0319 -2.7246 -14.8373 0.0000 36.1966 0.0000
# 6 0.0000 0.0000 0.0000 -9.9684 0.0000 41.8622
#
#
#
# Elastic Compliance Matrix: (Units=1/GPa)
#
#
# Indices 1 2 3 4 5 6 
#
# 1 0.010111 -0.003569 -0.005070 0.000000 0.001014 0.000000
# 2 -0.003569 0.013748 -0.004689 0.000000 -0.002074 0.000000
# 3 -0.005070 -0.004689 0.021531 0.000000 0.006788 0.000000
# 4 0.000000 0.000000 0.000000 0.069956 0.000000 0.016658
# 5 0.001014 -0.002074 0.006788 0.000000 0.030590 0.000000
# 6 0.000000 0.000000 0.000000 0.016658 0.000000 0.027855
#
#
# Mechanical properties :
#
#
# Convention : Reuss Voigt Hill
#
# Bulk Modulus (GPa) = 53.37641 64.47725 58.92683
# Shear Modulus (GPa) = 24.19058 30.64500 27.41779
#
# Velocity S-wave (km/s) = 3.51667 3.95811 3.74390
# Velocity P-wave (km/s) = 6.61641 7.33837 6.98672
#
# Compressibility (1/GPa) = 0.01873487
#
# Stress axis : x y z
#
# Youngs Moduli (GPa) = 98.90227 72.73841 46.44379
#
# Poissons Ratio (x) = 0.25960 0.23545
# Poissons Ratio (y) = 0.35297 0.21779
# Poissons Ratio (z) = 0.50139 0.34109
#
# Static dielectric constant tensor:
#      x y z
#    x 1.638820 0.000000 0.014650 
#    y 0.000000 1.783680 0.000000 
#    z 0.014650 0.000000 1.643750 
# 
# From -- ./inp_files/80060.got.cif
#   From: 2010.05.17/outbox.cif.g08.bks.cpg/sg13_41_cif.got.tgz:80060.got - 2010.06.03 16:44:36.
