data_PCOD9232563
_publ_section_title
;
Structure prediction by ZEFSAII (Michael W. Deem and Ramdas Pophale) SiO2 
 PCOD9232563
Probable space group: P 2/C
;
_chemical_formula_sum "Si O2"
_cell_formula_units_Z 12
_cell_length_a 13.163655
_cell_length_b 5.260507
_cell_length_c 20.547230
_cell_angle_alpha 90.000000
_cell_angle_beta 18.284943
_cell_angle_gamma 90.000000
_cell_volume 446.407354
_symmetry_space_group_name_H-M "P 2/C"
_symmetry_group_IT_number 13
_symmetry_cell_setting 'monoclinic'
loop_
_space_group_symop_operation_xyz
x,y,z
-x,y,1/2-z
-x,-y,-z
x,-y,1/2+z
loop_
_atom_site_type_symbol
_atom_site_label
_atom_site_fract_x
_atom_site_fract_y
_atom_site_fract_z
Si Si1 0.373524 0.567793 0.258101
Si Si2 0.274826 0.750466 0.637739
Si Si3 0.748626 0.927209 0.710589
O O1 0.500000 0.658049 0.250000
O O2 0.398596 0.791485 0.190677
O O3 0.000000 0.500000 0.500000
O O4 0.506552 0.288358 0.158349
O O5 0.500000 0.500000 0.500000
O O6 0.000000 0.740778 0.750000
O O7 0.500000 0.000000 0.500000
O O8 0.117765 0.794570 0.805593
O O9 0.000000 0.000000 0.500000
#
# Coordination Sequence:
#
# PCOD9232563 Si02
#       3
#     4   4   4
#     4  10  21  37  61  97 134 173 229 300 364 428
#     4  12  28  50  77 112 157 208 261 326 403 479
#     4  10  23  43  71 103 141 191 250 312 376 459
#
# _framework density 26.881281000000001
#
# number of rings (size 3 to 8) (size 9 to 14) (size 15 to 20)
#    0.000    1.333    0.000    4.000    0.000   16.000 
#    0.000    0.000    0.000    0.000    0.000    0.000 
#    0.000    0.000    0.000    0.000    0.000    0.000 
#
# Total GULP energy -67056.844582 kJ/mol
# GULP energy per Si atom -5588.070382 kJ/mol
# Density = 2.682010 g / cm^3
# Si number density = 26.881281 Si / 1000 Ang^3
#
#
#
# Elastic Constant Matrix: (Units=GPa)
#
#
# Indices 1 2 3 4 5 6 
#
# 1 245.0138 92.4426 78.3630 0.0000 -20.3408 0.0000
# 2 92.4426 314.2426 46.7016 0.0000 -9.3769 0.0000
# 3 78.3630 46.7016 123.4777 0.0000 -5.8991 0.0000
# 4 0.0000 0.0000 0.0000 31.5702 0.0000 5.5052
# 5 -20.3408 -9.3769 -5.8991 0.0000 51.5016 0.0000
# 6 0.0000 0.0000 0.0000 5.5052 0.0000 58.0048
#
#
#
# Elastic Compliance Matrix: (Units=1/GPa)
#
#
# Indices 1 2 3 4 5 6 
#
# 1 0.005633 -0.001153 -0.003059 0.000000 0.001664 0.000000
# 2 -0.001153 0.003619 -0.000631 0.000000 0.000131 0.000000
# 3 -0.003059 -0.000631 0.010272 0.000000 -0.000147 0.000000
# 4 0.000000 0.000000 0.000000 0.032208 0.000000 -0.003057
# 5 0.001664 0.000131 -0.000147 0.000000 0.020081 0.000000
# 6 0.000000 0.000000 0.000000 -0.003057 0.000000 0.017530
#
#
# Mechanical properties :
#
#
# Convention : Reuss Voigt Hill
#
# Bulk Modulus (GPa) = 101.64926 124.19427 112.92176
# Shear Modulus (GPa) = 48.87143 59.23043 54.05093
#
# Velocity S-wave (km/s) = 4.26848 4.69914 4.48898
# Velocity P-wave (km/s) = 7.88603 8.70310 8.30462
#
# Compressibility (1/GPa) = 0.00983775
#
# Stress axis : x y z
#
# Youngs Moduli (GPa) = 177.52544 276.31521 97.35354
#
# Poissons Ratio (x) = 0.31852 0.29784
# Poissons Ratio (y) = 0.20464 0.06142
# Poissons Ratio (z) = 0.54312 0.17434
#
# Static dielectric constant tensor:
#      x y z
#    x 2.333070 0.000000 0.226380 
#    y 0.000000 2.524460 0.000000 
#    z 0.226380 0.000000 2.287680 
# 
# From -- ./inp_files/77070.got.cif
#   From: 2010.05.17/outbox.cif.g08.bks.cpg/sg13_39_cif.got.tgz:77070.got - 2010.06.03 16:44:36.
