data_PCOD9232007
_publ_section_title
;
Structure prediction by ZEFSAII (Michael W. Deem and Ramdas Pophale) SiO2 
 PCOD9232007
Probable space group: P 2/C
;
_chemical_formula_sum "Si O2"
_cell_formula_units_Z 18
_cell_length_a 5.184983
_cell_length_b 8.984514
_cell_length_c 14.701730
_cell_angle_alpha 90.000000
_cell_angle_beta 85.325056
_cell_angle_gamma 90.000000
_cell_volume 682.595022
_symmetry_space_group_name_H-M "P 2/C"
_symmetry_group_IT_number 13
_symmetry_cell_setting 'monoclinic'
loop_
_space_group_symop_operation_xyz
x,y,z
-x,y,1/2-z
-x,-y,-z
x,-y,1/2+z
loop_
_atom_site_type_symbol
_atom_site_label
_atom_site_fract_x
_atom_site_fract_y
_atom_site_fract_z
Si Si1 0.141716 0.479888 0.150410
Si Si2 0.398469 0.891755 0.405994
Si Si3 0.500000 0.698005 0.250000
Si Si4 0.534206 0.237115 0.140472
Si Si5 0.908527 0.739990 0.481227
O O1 0.360565 0.590650 0.185057
O O2 0.308247 0.341983 0.108125
O O3 0.021116 0.592577 0.079187
O O4 0.000000 0.441553 0.250000
O O5 0.327288 0.810148 0.313319
O O6 0.657267 0.818853 0.441036
O O7 0.145597 0.854989 0.471922
O O8 0.460189 0.062665 0.383603
O O9 0.500000 0.248979 0.250000
O O10 0.797764 0.296843 0.085603
#
# Coordination Sequence:
#
# PCOD9232007 Si02
#       5
#     4   4   2   4   4
#     4  11  23  44  72 107 148 198 250 302 378 447
#     4  11  24  47  74 104 145 194 251 307 375 449
#     4  10  20  44  68 102 138 196 240 296 372 456
#     4  12  26  45  70 114 148 189 253 323 367 434
#     4  11  26  48  75 103 150 202 247 299 383 460
#
# _framework density 26.369956999999999
#
# number of rings (size 3 to 8) (size 9 to 14) (size 15 to 20)
#    0.000    0.889    4.444    2.000    0.000    3.556 
#    0.000    4.444    0.000    0.000    0.000    0.000 
#    0.000    0.000    0.000    0.000    0.000    0.000 
#
# Total GULP energy -100678.759896 kJ/mol
# GULP energy per Si atom -5593.264439 kJ/mol
# Density = 2.630994 g / cm^3
# Si number density = 26.369957 Si / 1000 Ang^3
#
#
#
# Elastic Constant Matrix: (Units=GPa)
#
#
# Indices 1 2 3 4 5 6 
#
# 1 136.5573 64.3194 19.2181 0.0000 -32.2985 0.0000
# 2 64.3194 182.1366 60.9276 0.0000 -26.7370 0.0000
# 3 19.2181 60.9276 122.4874 0.0000 -34.5148 0.0000
# 4 0.0000 0.0000 0.0000 51.7014 0.0000 -15.8199
# 5 -32.2985 -26.7370 -34.5148 0.0000 49.8712 0.0000
# 6 0.0000 0.0000 0.0000 -15.8199 0.0000 38.7161
#
#
#
# Elastic Compliance Matrix: (Units=1/GPa)
#
#
# Indices 1 2 3 4 5 6 
#
# 1 0.010009 -0.003236 0.001711 0.000000 0.005931 0.000000
# 2 -0.003236 0.007733 -0.003430 0.000000 -0.000324 0.000000
# 3 0.001711 -0.003430 0.011672 0.000000 0.007347 0.000000
# 4 0.000000 0.000000 0.000000 0.022106 0.000000 0.009033
# 5 0.005931 -0.000324 0.007347 0.000000 0.028804 0.000000
# 6 0.000000 0.000000 0.000000 0.009033 0.000000 0.029520
#
#
# Mechanical properties :
#
#
# Convention : Reuss Voigt Hill
#
# Bulk Modulus (GPa) = 51.27357 81.12349 66.19853
# Shear Modulus (GPa) = 39.60189 47.83884 43.72036
#
# Velocity S-wave (km/s) = 3.87949 4.26390 4.07622
# Velocity P-wave (km/s) = 6.28915 7.42101 6.87840
#
# Compressibility (1/GPa) = 0.01950323
#
# Stress axis : x y z
#
# Youngs Moduli (GPa) = 99.90659 129.31431 85.67403
#
# Poissons Ratio (x) = 0.41849 -0.14656
# Poissons Ratio (y) = 0.32332 0.29387
# Poissons Ratio (z) = -0.17091 0.44356
#
# Static dielectric constant tensor:
#      x y z
#    x 2.136330 0.000000 0.061120 
#    y 0.000000 2.045300 0.000000 
#    z 0.061120 0.000000 2.198530 
# 
# From -- ./inp_files/60399.got.cif
#   From: 2010.05.17/outbox.cif.g08.bks.cpg/sg13_31_cif.got.tgz:60399.got - 2010.06.03 16:44:36.
