data_PCOD9232148
_publ_section_title
;
Structure prediction by ZEFSAII (Michael W. Deem and Ramdas Pophale) SiO2 
 PCOD9232148
Probable space group: P 2/C
;
_chemical_formula_sum "Si O2"
_cell_formula_units_Z 26
_cell_length_a 19.130131
_cell_length_b 7.530048
_cell_length_c 8.596678
_cell_angle_alpha 90.000000
_cell_angle_beta 84.613186
_cell_angle_gamma 90.000000
_cell_volume 1232.889293
_symmetry_space_group_name_H-M "P 2/C"
_symmetry_group_IT_number 13
_symmetry_cell_setting 'monoclinic'
loop_
_space_group_symop_operation_xyz
x,y,z
-x,y,1/2-z
-x,-y,-z
x,-y,1/2+z
loop_
_atom_site_type_symbol
_atom_site_label
_atom_site_fract_x
_atom_site_fract_y
_atom_site_fract_z
Si Si1 0.397126 0.668262 0.023360
Si Si2 0.500000 0.733217 0.250000
Si Si3 0.191906 0.581605 0.227918
Si Si4 0.000000 0.382025 0.250000
Si Si5 0.500000 0.744159 0.750000
Si Si6 0.715687 0.367150 0.509719
Si Si7 0.905357 0.385203 0.007901
Si Si8 0.598062 0.086131 0.472964
O O1 0.459426 0.636799 0.888993
O O2 0.383323 0.879425 0.023655
O O3 0.434533 0.636761 0.180198
O O4 0.332825 0.543625 0.993217
O O5 0.460064 0.850385 0.389213
O O6 0.224101 0.411488 0.129715
O O7 0.253129 0.659494 0.323931
O O8 0.136211 0.518650 0.369065
O O9 0.153507 0.693471 0.098547
O O10 0.048189 0.282414 0.370497
O O11 0.045894 0.506994 0.124475
O O12 0.439467 0.857236 0.678498
O O13 0.667101 0.203257 0.477646
#
# Coordination Sequence:
#
# PCOD9232148 Si02
#       8
#     4   2   4   2   2   4   4   4
#     4  11  21  35  50  67  89 118 157 207 252 300
#     4  10  21  35  50  67  89 112 151 213 270 293
#     4   9  18  31  42  65 100 135 158 192 236 271
#     4   8  12  22  44  74  96 136 170 184 232 274
#     4  10  21  35  50  67  89 112 151 213 270 293
#     4  11  22  32  48  68  92 131 164 184 240 299
#     4   8  14  25  44  67 102 136 160 194 232 264
#     4  11  21  35  50  67  89 118 157 207 252 300
#
# _framework density 21.088674999999999
#
# number of rings (size 3 to 8) (size 9 to 14) (size 15 to 20)
#    0.000    2.154    0.000    5.538    0.000    3.692 
#    0.000    0.000    0.000    0.000    0.000    0.000 
#    0.000    0.000    0.000 1279.385    0.000    0.000 
#
# Total GULP energy -144841.828286 kJ/mol
# GULP energy per Si atom -5570.839549 kJ/mol
# Density = 2.104068 g / cm^3
# Si number density = 21.088675 Si / 1000 Ang^3
#
#
#
# Elastic Constant Matrix: (Units=GPa)
#
#
# Indices 1 2 3 4 5 6 
#
# 1 97.3683 29.7941 54.9467 0.0000 32.6885 0.0000
# 2 29.7941 65.6382 27.2414 0.0000 11.6613 0.0000
# 3 54.9467 27.2414 151.1886 0.0000 42.1890 0.0000
# 4 0.0000 0.0000 0.0000 19.9456 0.0000 0.4955
# 5 32.6885 11.6613 42.1890 0.0000 68.9365 0.0000
# 6 0.0000 0.0000 0.0000 0.4955 0.0000 -5.3618
#
#
#
# Elastic Compliance Matrix: (Units=1/GPa)
#
#
# Indices 1 2 3 4 5 6 
#
# 1 0.015068 -0.004652 -0.003453 0.000000 -0.004244 0.000000
# 2 -0.004652 0.017981 -0.001587 0.000000 0.000135 0.000000
# 3 -0.003453 -0.001587 0.009193 0.000000 -0.003720 0.000000
# 4 0.000000 0.000000 0.000000 0.050021 0.000000 0.004623
# 5 -0.004244 0.000135 -0.003720 0.000000 0.018773 0.000000
# 6 0.000000 0.000000 0.000000 0.004623 0.000000 -0.186078
#
#
# Mechanical properties :
#
#
# Convention : Reuss Voigt Hill
#
# Bulk Modulus (GPa) = 43.74976 59.79550 51.77263
# Shear Modulus (GPa) = -104.08512 30.18494 -36.95009
#
# Velocity S-wave (km/s) = -7.03300 3.78740 -4.19039
# Velocity P-wave (km/s) = 6.72013 6.89505 1.09125
#
# Compressibility (1/GPa) = 0.02285727
#
# Stress axis : x y z
#
# Youngs Moduli (GPa) = 66.36792 55.61358 108.77317
#
# Poissons Ratio (x) = 0.25872 0.37564
# Poissons Ratio (y) = 0.30875 0.17262
# Poissons Ratio (z) = 0.22920 0.08826
#
# Static dielectric constant tensor:
#      x y z
#    x 1.876940 0.000000 0.043630 
#    y 0.000000 1.788550 0.000000 
#    z 0.043630 0.000000 1.825820 
# 
# From -- ./inp_files/21175.got.cif
#   From: 2010.05.17/outbox.cif.g08.bks.cpg/sg13_11_cif.got.tgz:21175.got - 2010.06.03 16:44:36.
