data_PCOD9232495
_publ_section_title
;
Structure prediction by ZEFSAII (Michael W. Deem and Ramdas Pophale) SiO2 
 PCOD9232495
Probable space group: P 2/C
;
_chemical_formula_sum "Si O2"
_cell_formula_units_Z 26
_cell_length_a 11.056161
_cell_length_b 12.028869
_cell_length_c 8.693295
_cell_angle_alpha 90.000000
_cell_angle_beta 94.411948
_cell_angle_gamma 90.000000
_cell_volume 1152.722381
_symmetry_space_group_name_H-M "P 2/C"
_symmetry_group_IT_number 13
_symmetry_cell_setting 'monoclinic'
loop_
_space_group_symop_operation_xyz
x,y,z
-x,y,1/2-z
-x,-y,-z
x,-y,1/2+z
loop_
_atom_site_type_symbol
_atom_site_label
_atom_site_fract_x
_atom_site_fract_y
_atom_site_fract_z
Si Si1 0.774977 0.482810 0.203935
Si Si2 0.000000 0.824386 0.250000
Si Si3 0.397379 0.415069 0.048921
Si Si4 0.446209 0.159119 0.077304
Si Si5 0.846228 0.662249 0.442225
Si Si6 0.679453 0.861742 0.419553
Si Si7 0.768452 0.947756 0.107158
O O1 0.660226 0.437491 0.289571
O O2 0.716323 0.567694 0.076118
O O3 0.850292 0.555637 0.330991
O O4 0.844648 0.388037 0.114162
O O5 0.099551 0.899455 0.345610
O O6 0.941430 0.747607 0.377693
O O7 0.500000 0.500000 0.000000
O O8 0.443760 0.291000 0.053525
O O9 0.500000 0.133937 0.250000
O O10 0.544058 0.118426 0.963014
O O11 0.311997 0.114363 0.030202
O O12 0.720251 0.732941 0.416032
O O13 0.700532 0.917795 0.258153
O O14 0.764081 0.924845 0.553019
#
# Coordination Sequence:
#
# PCOD9232495 Si02
#       7
#     4   2   4   4   4   4   4
#     4  10  21  37  59  93 132 175 223 273 331 398
#     4  10  24  46  70  98 130 178 232 284 334 394
#     4  11  20  33  57  92 134 179 222 271 334 411
#     4  12  23  39  64  97 135 172 217 275 343 411
#     4  10  22  41  66  93 130 174 224 277 335 401
#     4  11  23  42  65  97 133 172 218 277 344 407
#     4  11  25  43  68  95 131 173 224 280 336 401
#
# _framework density 22.555302000000001
#
# number of rings (size 3 to 8) (size 9 to 14) (size 15 to 20)
#    0.000    1.231    0.000    7.846    0.000    4.308 
#    0.000    0.000    0.000   23.077    0.000    0.000 
#    0.000    0.000    0.000    0.000    0.000    0.000 
#
# Total GULP energy -145308.764087 kJ/mol
# GULP energy per Si atom -5588.798619 kJ/mol
# Density = 2.250396 g / cm^3
# Si number density = 22.555302 Si / 1000 Ang^3
#
#
#
# Elastic Constant Matrix: (Units=GPa)
#
#
# Indices 1 2 3 4 5 6 
#
# 1 97.8334 17.6575 22.9996 0.0000 8.7986 0.0000
# 2 17.6575 77.1356 20.9079 0.0000 4.3523 0.0000
# 3 22.9996 20.9079 104.8967 0.0000 -4.2647 0.0000
# 4 0.0000 0.0000 0.0000 33.9155 0.0000 1.0921
# 5 8.7986 4.3523 -4.2647 0.0000 24.3566 0.0000
# 6 0.0000 0.0000 0.0000 1.0921 0.0000 23.4890
#
#
#
# Elastic Compliance Matrix: (Units=1/GPa)
#
#
# Indices 1 2 3 4 5 6 
#
# 1 0.011469 -0.001753 -0.002338 0.000000 -0.004239 0.000000
# 2 -0.001753 0.014186 -0.002539 0.000000 -0.002346 0.000000
# 3 -0.002338 -0.002539 0.010681 0.000000 0.003168 0.000000
# 4 0.000000 0.000000 0.000000 0.029529 0.000000 -0.001373
# 5 -0.004239 -0.002346 0.003168 0.000000 0.043562 0.000000
# 6 0.000000 0.000000 0.000000 -0.001373 0.000000 0.042637
#
#
# Mechanical properties :
#
#
# Convention : Reuss Voigt Hill
#
# Bulk Modulus (GPa) = 43.33250 44.77732 44.05491
# Shear Modulus (GPa) = 28.89954 30.90560 29.90257
#
# Velocity S-wave (km/s) = 3.58337 3.70566 3.64503
# Velocity P-wave (km/s) = 6.03110 6.18098 6.10650
#
# Compressibility (1/GPa) = 0.02307737
#
# Stress axis : x y z
#
# Youngs Moduli (GPa) = 87.19502 70.49270 93.62825
#
# Poissons Ratio (x) = 0.12354 0.21887
# Poissons Ratio (y) = 0.15281 0.23769
# Poissons Ratio (z) = 0.20383 0.17896
#
# Static dielectric constant tensor:
#      x y z
#    x 1.862440 0.000000 -0.002230 
#    y 0.000000 1.843250 0.000000 
#    z -0.002230 0.000000 1.867160 
# 
# From -- ./inp_files/15908.got.cif
#   From: 2010.05.17/outbox.cif.g08.bks.cpg/sg13_8_cif.got.tgz:15908.got - 2010.06.03 16:44:36.
