data_PCOD9232982
_publ_section_title
;
Structure prediction by ZEFSAII (Michael W. Deem and Ramdas Pophale) SiO2 
 PCOD9232982
Probable space group: P 2/C
;
_chemical_formula_sum "Si O2"
_cell_formula_units_Z 26
_cell_length_a 7.829651
_cell_length_b 8.538440
_cell_length_c 23.148891
_cell_angle_alpha 90.000000
_cell_angle_beta 51.628723
_cell_angle_gamma 90.000000
_cell_volume 1213.304525
_symmetry_space_group_name_H-M "P 2/C"
_symmetry_group_IT_number 13
_symmetry_cell_setting 'monoclinic'
loop_
_space_group_symop_operation_xyz
x,y,z
-x,y,1/2-z
-x,-y,-z
x,-y,1/2+z
loop_
_atom_site_type_symbol
_atom_site_label
_atom_site_fract_x
_atom_site_fract_y
_atom_site_fract_z
Si Si1 0.519482 0.029593 0.667209
Si Si2 0.483607 0.254490 0.485250
Si Si3 0.274101 0.007241 0.603612
Si Si4 0.500000 0.266309 0.250000
Si Si5 0.156967 0.834103 0.318372
Si Si6 0.847091 0.505449 0.125658
Si Si7 0.297157 0.456679 0.968050
O O1 0.464802 0.857102 0.704750
O O2 0.457414 0.033257 0.613777
O O3 0.756680 0.077252 0.641553
O O4 0.356766 0.151684 0.732343
O O5 0.329956 0.112539 0.536204
O O6 0.531840 0.353258 0.532599
O O7 0.371986 0.364740 0.462289
O O8 0.704278 0.174340 0.416676
O O9 0.038265 0.068813 0.669046
O O10 0.701398 0.378291 0.189869
O O11 0.100561 0.655732 0.345626
O O12 0.065966 0.438994 0.049588
O O13 0.717568 0.571492 0.096688
#
# Coordination Sequence:
#
# PCOD9232982 Si02
#       7
#     4   4   4   2   4   4   4
#     4  10  23  39  62  88 122 156 201 254 299 362
#     4  10  22  38  59  87 119 156 204 249 297 365
#     4  11  21  40  62  88 120 159 199 253 300 355
#     4  10  22  38  64  92 120 158 206 258 304 366
#     4  10  21  39  61  88 118 159 201 243 303 362
#     4  11  21  39  63  88 120 161 199 247 311 359
#     4  10  22  39  60  87 124 158 197 253 302 360
#
# _framework density 21.429081
#
# number of rings (size 3 to 8) (size 9 to 14) (size 15 to 20)
#    0.000    1.846    1.538    3.231    4.308    0.000 
#    0.000    2.308    0.000    0.000    0.000    0.000 
#    0.000    0.000    0.000    0.000    0.000    0.000 
#
# Total GULP energy -145027.725662 kJ/mol
# GULP energy per Si atom -5577.989449 kJ/mol
# Density = 2.138031 g / cm^3
# Si number density = 21.429081 Si / 1000 Ang^3
#
#
#
# Elastic Constant Matrix: (Units=GPa)
#
#
# Indices 1 2 3 4 5 6 
#
# 1 55.5341 3.2884 2.7175 0.0000 8.3874 0.0000
# 2 3.2884 64.6152 29.0082 0.0000 2.2797 0.0000
# 3 2.7175 29.0082 53.7374 0.0000 -2.3003 0.0000
# 4 0.0000 0.0000 0.0000 25.9756 0.0000 -1.2501
# 5 8.3874 2.2797 -2.3003 0.0000 31.8662 0.0000
# 6 0.0000 0.0000 0.0000 -1.2501 0.0000 27.9903
#
#
#
# Elastic Compliance Matrix: (Units=1/GPa)
#
#
# Indices 1 2 3 4 5 6 
#
# 1 0.018831 -0.000341 -0.000982 0.000000 -0.005003 0.000000
# 2 -0.000341 0.020597 -0.011195 0.000000 -0.002192 0.000000
# 3 -0.000982 -0.011195 0.024824 0.000000 0.002851 0.000000
# 4 0.000000 0.000000 0.000000 0.038581 0.000000 0.001723
# 5 -0.005003 -0.002192 0.002851 0.000000 0.033061 0.000000
# 6 0.000000 0.000000 0.000000 0.001723 0.000000 0.035804
#
#
# Mechanical properties :
#
#
# Convention : Reuss Voigt Hill
#
# Bulk Modulus (GPa) = 25.50040 27.10163 26.30102
# Shear Modulus (GPa) = 23.83169 26.42459 25.12814
#
# Velocity S-wave (km/s) = 3.33846 3.51539 3.42807
# Velocity P-wave (km/s) = 5.17554 5.39925 5.28857
#
# Compressibility (1/GPa) = 0.03921508
#
# Stress axis : x y z
#
# Youngs Moduli (GPa) = 53.10443 48.55135 40.28362
#
# Poissons Ratio (x) = 0.01654 0.03958
# Poissons Ratio (y) = 0.01809 0.45098
# Poissons Ratio (z) = 0.05217 0.54353
#
# Static dielectric constant tensor:
#      x y z
#    x 1.807380 0.000000 -0.043610 
#    y 0.000000 1.805000 0.000000 
#    z -0.043610 0.000000 1.809880 
# 
# From -- ./inp_files/84728.got.cif
#   From: 2010.05.17/outbox.cif.g08.bks.cpg/sg13_43_cif.got.tgz:84728.got - 2010.06.03 16:44:36.
