data_PCOD9232485
_publ_section_title
;
Structure prediction by ZEFSAII (Michael W. Deem and Ramdas Pophale) SiO2 
 PCOD9232485
Probable space group: P 2/C
;
_chemical_formula_sum "Si O2"
_cell_formula_units_Z 18
_cell_length_a 21.921508
_cell_length_b 8.429039
_cell_length_c 27.950942
_cell_angle_alpha 90.000000
_cell_angle_beta 11.306500
_cell_angle_gamma 90.000000
_cell_volume 1012.577227
_symmetry_space_group_name_H-M "P 2/C"
_symmetry_group_IT_number 13
_symmetry_cell_setting 'monoclinic'
loop_
_space_group_symop_operation_xyz
x,y,z
-x,y,1/2-z
-x,-y,-z
x,-y,1/2+z
loop_
_atom_site_type_symbol
_atom_site_label
_atom_site_fract_x
_atom_site_fract_y
_atom_site_fract_z
Si Si1 0.191815 0.905377 0.222136
Si Si2 0.303230 0.136835 0.946769
Si Si3 0.297776 0.695237 0.051483
Si Si4 0.000000 0.387620 0.250000
Si Si5 0.791922 0.905368 0.622029
O O1 0.271735 0.762231 0.124912
O O2 0.970814 0.026334 0.363022
O O3 0.003112 0.855041 0.414590
O O4 0.500000 0.000000 0.000000
O O5 0.500000 0.197000 0.750000
O O6 0.532263 0.026361 0.801588
O O7 0.166291 0.276901 0.083709
O O8 0.000000 0.760028 0.250000
O O9 0.245646 0.507259 0.086245
O O10 0.608131 0.762266 0.788513
O O11 0.000000 0.000000 0.500000
#
# Coordination Sequence:
#
# PCOD9232485 Si02
#       5
#     4   4   4   2   4
#     4  11  21  36  64  89 114 148 203 248 281 332
#     4  10  21  37  59  87 113 154 194 238 290 342
#     4  10  21  38  59  85 115 153 194 231 295 337
#     4  10  22  38  62  76 126 158 186 224 308 348
#     4  11  21  36  64  89 114 148 203 248 281 332
#
# _framework density 17.776420000000002
#
# number of rings (size 3 to 8) (size 9 to 14) (size 15 to 20)
#    0.667    0.889    4.444    1.333    0.000    1.778 
#    0.000    2.222    0.000    0.000    0.000    0.000 
#    0.000    0.000    0.000    0.000    0.000    0.000 
#
# Total GULP energy -100414.032825 kJ/mol
# GULP energy per Si atom -5578.557379 kJ/mol
# Density = 1.773596 g / cm^3
# Si number density = 17.776420 Si / 1000 Ang^3
#
#
#
# Elastic Constant Matrix: (Units=GPa)
#
#
# Indices 1 2 3 4 5 6 
#
# 1 104.1090 38.0220 49.2435 0.0000 16.4209 0.0000
# 2 38.0220 68.8312 44.4106 0.0000 39.1274 0.0000
# 3 49.2435 44.4106 110.0333 0.0000 20.3077 0.0000
# 4 0.0000 0.0000 0.0000 9.4022 0.0000 14.0232
# 5 16.4209 39.1274 20.3077 0.0000 52.5317 0.0000
# 6 0.0000 0.0000 0.0000 14.0232 0.0000 7.1514
#
#
#
# Elastic Compliance Matrix: (Units=1/GPa)
#
#
# Indices 1 2 3 4 5 6 
#
# 1 0.013307 -0.005739 -0.003941 0.000000 0.001639 0.000000
# 2 -0.005739 0.034429 -0.007458 0.000000 -0.020967 0.000000
# 3 -0.003941 -0.007458 0.013578 0.000000 0.001538 0.000000
# 4 0.000000 0.000000 0.000000 -0.055261 0.000000 0.108362
# 5 0.001639 -0.020967 0.001538 0.000000 0.033546 0.000000
# 6 0.000000 0.000000 0.000000 0.108362 0.000000 -0.072654
#
#
# Mechanical properties :
#
#
# Convention : Reuss Voigt Hill
#
# Bulk Modulus (GPa) = 36.98551 60.70285 48.84418
# Shear Modulus (GPa) = 488.50421 23.90356 256.20388
#
# Velocity S-wave (km/s) = 16.59522 3.67096 12.01826
# Velocity P-wave (km/s) = 19.69905 7.22427 14.83649
#
# Compressibility (1/GPa) = 0.02703762
#
# Stress axis : x y z
#
# Youngs Moduli (GPa) = 75.14717 29.04493 73.64700
#
# Poissons Ratio (x) = 0.16670 0.29027
# Poissons Ratio (y) = 0.43131 0.54924
# Poissons Ratio (z) = 0.29618 0.21661
#
# Static dielectric constant tensor:
#      x y z
#    x 1.606150 0.000000 0.003000 
#    y 0.000000 1.572770 0.000000 
#    z 0.003000 0.000000 1.606490 
# 
# From -- ./inp_files/62620.got.cif
#   From: 2010.05.17/outbox.cif.g08.bks.cpg/sg13_32_cif.got.tgz:62620.got - 2010.06.03 16:44:36.
