data_PCOD9232785
_publ_section_title
;
Structure prediction by ZEFSAII (Michael W. Deem and Ramdas Pophale) SiO2 
 PCOD9232785
Probable space group: P 2/C
;
_chemical_formula_sum "Si O2"
_cell_formula_units_Z 20
_cell_length_a 24.604657
_cell_length_b 7.952682
_cell_length_c 9.575547
_cell_angle_alpha 90.000000
_cell_angle_beta 151.184904
_cell_angle_gamma 90.000000
_cell_volume 903.082932
_symmetry_space_group_name_H-M "P 2/C"
_symmetry_group_IT_number 13
_symmetry_cell_setting 'monoclinic'
loop_
_space_group_symop_operation_xyz
x,y,z
-x,y,1/2-z
-x,-y,-z
x,-y,1/2+z
loop_
_atom_site_type_symbol
_atom_site_label
_atom_site_fract_x
_atom_site_fract_y
_atom_site_fract_z
Si Si1 0.636603 0.506410 0.303839
Si Si2 0.617144 0.998501 0.340643
Si Si3 0.711865 0.828983 0.296860
Si Si4 0.915318 0.962544 0.185665
Si Si5 0.286331 0.296634 0.266951
O O1 0.681524 0.661298 0.309860
O O2 0.677890 0.347115 0.307776
O O3 0.694727 0.545783 0.584140
O O4 0.500000 0.500000 0.000000
O O5 0.702799 0.965095 0.405024
O O6 0.631348 0.839788 0.476185
O O7 0.629982 0.148167 0.479763
O O8 0.500000 0.000000 0.000000
O O9 0.830538 0.877582 0.494150
O O10 0.000000 0.946499 0.250000
O O11 0.834657 0.796994 0.006009
O O12 0.000000 0.000000 0.500000
#
# Coordination Sequence:
#
# PCOD9232785 Si02
#       5
#     4   4   4   4   4
#     4  11  24  43  64  98 147 182 208 265 340 423
#     4  10  21  38  61  93 132 174 223 277 328 394
#     4  10  23  40  63  97 128 173 228 274 331 404
#     4  11  23  46  72  95 128 173 233 301 337 369
#     4  10  25  43  64  99 135 178 227 271 336 414
#
# _framework density 22.146359
#
# number of rings (size 3 to 8) (size 9 to 14) (size 15 to 20)
#    0.000    1.600    0.000    4.800    0.000   22.400 
#    0.000    5.000    0.000    0.000    0.000    0.000 
#    0.000    0.000    0.000    0.000    0.000    0.000 
#
# Total GULP energy -111607.224954 kJ/mol
# GULP energy per Si atom -5580.361248 kJ/mol
# Density = 2.209595 g / cm^3
# Si number density = 22.146359 Si / 1000 Ang^3
#
#
#
# Elastic Constant Matrix: (Units=GPa)
#
#
# Indices 1 2 3 4 5 6 
#
# 1 150.3527 42.7315 48.2293 0.0000 7.3060 0.0000
# 2 42.7315 75.7207 27.1626 0.0000 5.4500 0.0000
# 3 48.2293 27.1626 149.7505 0.0000 -0.2962 0.0000
# 4 0.0000 0.0000 0.0000 40.9384 0.0000 -10.9981
# 5 7.3060 5.4500 -0.2962 0.0000 57.9735 0.0000
# 6 0.0000 0.0000 0.0000 -10.9981 0.0000 47.4881
#
#
#
# Elastic Compliance Matrix: (Units=1/GPa)
#
#
# Indices 1 2 3 4 5 6 
#
# 1 0.008466 -0.004010 -0.002001 0.000000 -0.000700 0.000000
# 2 -0.004010 0.016130 -0.001636 0.000000 -0.001019 0.000000
# 3 -0.002001 -0.001636 0.007620 0.000000 0.000445 0.000000
# 4 0.000000 0.000000 0.000000 0.026048 0.000000 0.006033
# 5 -0.000700 -0.001019 0.000445 0.000000 0.017436 0.000000
# 6 0.000000 0.000000 0.000000 0.006033 0.000000 0.022455
#
#
# Mechanical properties :
#
#
# Convention : Reuss Voigt Hill
#
# Bulk Modulus (GPa) = 59.09405 68.00784 63.55095
# Shear Modulus (GPa) = 41.98556 46.46004 44.22280
#
# Velocity S-wave (km/s) = 4.35883 4.58521 4.47345
# Velocity P-wave (km/s) = 7.21622 7.66859 7.44584
#
# Compressibility (1/GPa) = 0.01692218
#
# Stress axis : x y z
#
# Youngs Moduli (GPa) = 118.11303 61.99789 131.23627
#
# Poissons Ratio (x) = 0.24860 0.26258
# Poissons Ratio (y) = 0.47360 0.21474
# Poissons Ratio (z) = 0.23632 0.10145
#
# Static dielectric constant tensor:
#      x y z
#    x 1.775770 0.000000 0.125440 
#    y 0.000000 2.163180 0.000000 
#    z 0.125440 0.000000 1.525350 
# 
# From -- ./inp_files/23977.got.cif
#   From: 2010.05.17/outbox.cif.g08.bks.cpg/sg13_12_cif.got.tgz:23977.got - 2010.06.03 16:44:36.
