data_PCOD9232943
_publ_section_title
;
Structure prediction by ZEFSAII (Michael W. Deem and Ramdas Pophale) SiO2 
 PCOD9232943
Probable space group: P 2/C
;
_chemical_formula_sum "Si O2"
_cell_formula_units_Z 24
_cell_length_a 18.844516
_cell_length_b 7.446466
_cell_length_c 24.468756
_cell_angle_alpha 90.000000
_cell_angle_beta 19.703875
_cell_angle_gamma 90.000000
_cell_volume 1157.661943
_symmetry_space_group_name_H-M "P 2/C"
_symmetry_group_IT_number 13
_symmetry_cell_setting 'monoclinic'
loop_
_space_group_symop_operation_xyz
x,y,z
-x,y,1/2-z
-x,-y,-z
x,-y,1/2+z
loop_
_atom_site_type_symbol
_atom_site_label
_atom_site_fract_x
_atom_site_fract_y
_atom_site_fract_z
Si Si1 0.254591 0.313608 0.705748
Si Si2 0.290584 0.226556 0.089855
Si Si3 0.767983 0.847455 0.397330
Si Si4 0.352332 0.494517 0.952862
Si Si5 0.036616 0.658585 0.595419
Si Si6 0.173998 0.655060 0.381310
O O1 0.506769 0.305542 0.526339
O O2 0.207014 0.223900 0.682553
O O3 0.182186 0.238698 0.817869
O O4 0.140883 0.506224 0.786390
O O5 0.087989 0.205341 0.275190
O O6 0.352014 0.035828 0.019443
O O7 0.242457 0.370795 0.078375
O O8 0.670632 0.696692 0.507851
O O9 0.000000 0.887202 0.250000
O O10 0.595589 0.433941 0.777036
O O11 0.228189 0.443156 0.987601
O O12 0.113250 0.743459 0.483065
O O13 0.000000 0.500000 0.500000
#
# Coordination Sequence:
#
# PCOD9232943 Si02
#       6
#     4   4   4   4   4   4
#     4  10  21  39  58  89 124 158 201 250 298 364
#     4  11  23  37  64  91 121 158 201 255 309 355
#     4  12  22  37  63  94 121 155 211 256 301 363
#     4  11  21  39  64  87 121 160 201 254 305 359
#     4  11  19  39  63  90 119 164 201 249 308 360
#     4   9  22  36  63  85 119 161 200 240 304 363
#
# _framework density 20.731442999999999
#
# number of rings (size 3 to 8) (size 9 to 14) (size 15 to 20)
#    0.000    1.333    3.333    3.000    4.667    0.000 
#    0.000    0.833   11.000    4.000    0.000    0.000 
#    0.000    0.000    0.000    0.000    0.000    0.000 
#
# Total GULP energy -133800.931481 kJ/mol
# GULP energy per Si atom -5575.038812 kJ/mol
# Density = 2.068426 g / cm^3
# Si number density = 20.731443 Si / 1000 Ang^3
#
#
#
# Elastic Constant Matrix: (Units=GPa)
#
#
# Indices 1 2 3 4 5 6 
#
# 1 -1020.4161 96.6210 215.3795 0.0000-2565.9120 0.0000
# 2 96.6210 25.2953 -37.2844 0.0000 237.4238 0.0000
# 3 215.3795 -37.2844 58.2799 0.0000 418.6106 0.0000
# 4 0.0000 0.0000 0.0000 13.6683 0.0000 -2.4541
# 5 -2565.9120 237.4238 418.6106 0.0000-5743.8931 0.0000
# 6 0.0000 0.0000 0.0000 -2.4541 0.0000 8.7660
#
#
#
# Elastic Compliance Matrix: (Units=1/GPa)
#
#
# Indices 1 2 3 4 5 6 
#
# 1 0.008587 0.000857 -0.002552 0.000000 -0.003987 0.000000
# 2 0.000857 0.032752 0.007097 0.000000 0.001488 0.000000
# 3 -0.002552 0.007097 0.013675 0.000000 0.002430 0.000000
# 4 0.000000 0.000000 0.000000 0.077034 0.000000 0.021566
# 5 -0.003987 0.001488 0.002430 0.000000 0.001845 0.000000
# 6 0.000000 0.000000 0.000000 0.021566 0.000000 0.120115
#
#
# Mechanical properties :
#
#
# Convention : Reuss Voigt Hill
#
# Bulk Modulus (GPa) = 15.19341 -43.04541 -13.92600
# Shear Modulus (GPa) = 18.85766 -1225.06223 -603.10228
#
# Velocity S-wave (km/s) = 3.01926 -24.33522 -17.07464
# Velocity P-wave (km/s) = 4.41578 28.46774 19.88609
#
# Compressibility (1/GPa) = 0.06581800
#
# Stress axis : x y z
#
# Youngs Moduli (GPa) = 116.45349 30.53272 73.12391
#
# Poissons Ratio (x) = -0.02616 0.18659
# Poissons Ratio (y) = -0.09979 -0.51894
# Poissons Ratio (z) = 0.29716 -0.21668
#
# Static dielectric constant tensor:
#      x y z
#    x 1.917060 0.000000 0.004750 
#    y 0.000000 1.747030 0.000000 
#    z 0.004750 0.000000 1.753390 
# 
# From -- ./inp_files/87969.got.cif
#   From: 2010.05.17/outbox.cif.g08.bks.cpg/sg13_44_cif.got.tgz:87969.got - 2010.06.03 16:44:36.
