data_PCOD9232197
_publ_section_title
;
Structure prediction by ZEFSAII (Michael W. Deem and Ramdas Pophale) SiO2 
 PCOD9232197
Probable space group: P 2/C
;
_chemical_formula_sum "Si O2"
_cell_formula_units_Z 20
_cell_length_a 7.265277
_cell_length_b 5.190960
_cell_length_c 27.290929
_cell_angle_alpha 90.000000
_cell_angle_beta 75.321907
_cell_angle_gamma 90.000000
_cell_volume 995.653942
_symmetry_space_group_name_H-M "P 2/C"
_symmetry_group_IT_number 13
_symmetry_cell_setting 'monoclinic'
loop_
_space_group_symop_operation_xyz
x,y,z
-x,y,1/2-z
-x,-y,-z
x,-y,1/2+z
loop_
_atom_site_type_symbol
_atom_site_label
_atom_site_fract_x
_atom_site_fract_y
_atom_site_fract_z
Si Si1 0.636026 0.941454 0.195512
Si Si2 0.718984 0.054790 0.500122
Si Si3 0.184463 0.425968 0.564081
Si Si4 0.812888 0.447121 0.150004
Si Si5 0.449183 0.731063 0.397292
O O1 0.500000 0.994260 0.250000
O O2 0.783842 0.170018 0.175350
O O3 0.748809 0.671566 0.191955
O O4 0.512806 0.896776 0.154082
O O5 0.779590 0.315411 0.468931
O O6 0.699509 0.113369 0.558801
O O7 0.500000 0.000000 0.500000
O O8 0.838407 0.812053 0.472459
O O9 0.368706 0.351466 0.584165
O O10 0.012234 0.481173 0.612412
O O11 0.660208 0.482401 0.116205
#
# Coordination Sequence:
#
# PCOD9232197 Si02
#       5
#     4   4   4   4   4
#     4  10  22  42  63  81 117 155 198 251 297 342
#     4  10  21  35  59  89 121 158 188 231 289 358
#     4  11  22  38  60  88 125 148 193 241 284 354
#     4  10  23  38  61  88 116 150 200 239 293 349
#     4   9  23  37  63  81 121 156 193 228 301 340
#
# _framework density 20.087302000000001
#
# number of rings (size 3 to 8) (size 9 to 14) (size 15 to 20)
#    1.200    0.800    0.000    4.200    8.400    1.600 
#    0.000    1.000    0.000    0.000    0.000    0.000 
#    0.000    0.000    0.000    0.000    0.000    0.000 
#
# Total GULP energy -111501.882149 kJ/mol
# GULP energy per Si atom -5575.094107 kJ/mol
# Density = 2.004158 g / cm^3
# Si number density = 20.087302 Si / 1000 Ang^3
#
#
#
# Elastic Constant Matrix: (Units=GPa)
#
#
# Indices 1 2 3 4 5 6 
#
# 1 271.5782 129.0025 -410.1858 0.0000 -461.8543 0.0000
# 2 129.0025 199.1105 -190.1265 0.0000 -243.7571 0.0000
# 3 -410.1858 -190.1265 1005.3209 0.0000 873.3168 0.0000
# 4 0.0000 0.0000 0.0000 35.5298 0.0000 -8.5763
# 5 -461.8543 -243.7571 873.3168 0.0000 935.3145 0.0000
# 6 0.0000 0.0000 0.0000 -8.5763 0.0000 10.0007
#
#
#
# Elastic Compliance Matrix: (Units=1/GPa)
#
#
# Indices 1 2 3 4 5 6 
#
# 1 0.024375 -0.000852 -0.002534 0.000000 0.014181 0.000000
# 2 -0.000852 0.007831 -0.001451 0.000000 0.002975 0.000000
# 3 -0.002534 -0.001451 0.005833 0.000000 -0.007076 0.000000
# 4 0.000000 0.000000 0.000000 0.035492 0.000000 0.030437
# 5 0.014181 0.002975 -0.007076 0.000000 0.015454 0.000000
# 6 0.000000 0.000000 0.000000 0.030437 0.000000 0.126094
#
#
# Mechanical properties :
#
#
# Convention : Reuss Voigt Hill
#
# Bulk Modulus (GPa) = 35.25529 59.26555 47.26042
# Shear Modulus (GPa) = 21.34837 325.99029 173.66933
#
# Velocity S-wave (km/s) = 3.26357 12.75300 9.30833
# Velocity P-wave (km/s) = 5.63829 15.69777 11.79429
#
# Compressibility (1/GPa) = 0.02836454
#
# Stress axis : x y z
#
# Youngs Moduli (GPa) = 41.02542 127.70117 171.42513
#
# Poissons Ratio (x) = 0.10882 0.43446
# Poissons Ratio (y) = 0.03496 0.24871
# Poissons Ratio (z) = 0.10398 0.18527
#
# Static dielectric constant tensor:
#      x y z
#    x 1.728300 0.000000 0.016640 
#    y 0.000000 1.742480 0.000000 
#    z 0.016640 0.000000 1.703810 
# 
# From -- ./inp_files/90615.got.cif
#   From: 2010.05.17/outbox.cif.g08.bks.cpg/sg13_46_cif.got.tgz:90615.got - 2010.06.03 16:44:36.
