data_PCOD9232977
_publ_section_title
;
Structure prediction by ZEFSAII (Michael W. Deem and Ramdas Pophale) SiO2 
 PCOD9232977
Probable space group: P 2/C
;
_chemical_formula_sum "Si O2"
_cell_formula_units_Z 20
_cell_length_a 22.057586
_cell_length_b 7.064973
_cell_length_c 14.590392
_cell_angle_alpha 90.000000
_cell_angle_beta 158.101347
_cell_angle_gamma 90.000000
_cell_volume 848.017189
_symmetry_space_group_name_H-M "P 2/C"
_symmetry_group_IT_number 13
_symmetry_cell_setting 'monoclinic'
loop_
_space_group_symop_operation_xyz
x,y,z
-x,y,1/2-z
-x,-y,-z
x,-y,1/2+z
loop_
_atom_site_type_symbol
_atom_site_label
_atom_site_fract_x
_atom_site_fract_y
_atom_site_fract_z
Si Si1 0.099489 0.282732 0.309603
Si Si2 0.439682 0.590903 0.319535
Si Si3 0.006098 0.127432 0.654112
Si Si4 0.774913 0.390167 0.211827
Si Si5 0.328525 0.738006 0.522413
O O1 0.284691 0.269459 0.608923
O O2 0.135082 0.365732 0.259446
O O3 0.000000 0.389242 0.250000
O O4 0.988073 0.098757 0.133870
O O5 0.500000 0.500000 0.500000
O O6 0.592192 0.680713 0.479084
O O7 0.376457 0.418404 0.166827
O O8 0.000000 0.188484 0.750000
O O9 0.885565 0.266652 0.433214
O O10 0.182231 0.142452 0.854995
O O11 0.737839 0.616514 0.157708
O O12 0.500000 0.841786 0.750000
#
# Coordination Sequence:
#
# PCOD9232977 Si02
#       5
#     4   4   4   4   4
#     4  10  23  40  59  89 125 161 205 256 311 377
#     4  10  21  39  61  87 118 157 202 252 307 369
#     4  11  22  38  59  89 123 162 206 256 312 372
#     4  10  21  40  62  86 120 165 207 255 313 370
#     4   9  20  35  56  87 117 153 203 249 299 362
#
# _framework density 23.584425
#
# number of rings (size 3 to 8) (size 9 to 14) (size 15 to 20)
#    0.000    2.000    0.000    4.200    0.000   11.200 
#    0.000    9.000    0.000    0.000    0.000    0.000 
#    0.000    0.000    0.000    0.000    0.000    0.000 
#
# Total GULP energy -111378.475638 kJ/mol
# GULP energy per Si atom -5568.923782 kJ/mol
# Density = 2.353075 g / cm^3
# Si number density = 23.584425 Si / 1000 Ang^3
#
#
#
# Elastic Constant Matrix: (Units=GPa)
#
#
# Indices 1 2 3 4 5 6 
#
# 1 107.7557 8.7972 41.7445 0.0000 18.1345 0.0000
# 2 8.7972 49.6860 12.7209 0.0000 -6.6671 0.0000
# 3 41.7445 12.7209 102.1414 0.0000 15.3187 0.0000
# 4 0.0000 0.0000 0.0000 13.2708 0.0000 -0.7313
# 5 18.1345 -6.6671 15.3187 0.0000 55.1004 0.0000
# 6 0.0000 0.0000 0.0000 -0.7313 0.0000 34.1681
#
#
#
# Elastic Compliance Matrix: (Units=1/GPa)
#
#
# Indices 1 2 3 4 5 6 
#
# 1 0.011445 -0.001354 -0.004090 0.000000 -0.002794 0.000000
# 2 -0.001354 0.021569 -0.002704 0.000000 0.003807 0.000000
# 3 -0.004090 -0.002704 0.012153 0.000000 -0.002360 0.000000
# 4 0.000000 0.000000 0.000000 0.075442 0.000000 0.001615
# 5 -0.002794 0.003807 -0.002360 0.000000 0.020185 0.000000
# 6 0.000000 0.000000 0.000000 0.001615 0.000000 0.029302
#
#
# Mechanical properties :
#
#
# Convention : Reuss Voigt Hill
#
# Bulk Modulus (GPa) = 34.63665 42.90092 38.76878
# Shear Modulus (GPa) = 25.50814 33.59590 29.55202
#
# Velocity S-wave (km/s) = 3.29229 3.77834 3.54366
# Velocity P-wave (km/s) = 5.40096 6.10445 5.76345
#
# Compressibility (1/GPa) = 0.02887115
#
# Stress axis : x y z
#
# Youngs Moduli (GPa) = 87.37107 46.36223 82.28727
#
# Poissons Ratio (x) = 0.06278 0.33656
# Poissons Ratio (y) = 0.11832 0.22249
# Poissons Ratio (z) = 0.35735 0.12536
#
# Static dielectric constant tensor:
#      x y z
#    x 1.943980 0.000000 -0.009130 
#    y 0.000000 1.919400 0.000000 
#    z -0.009130 0.000000 1.964650 
# 
# From -- ./inp_files/57144.got.cif
#   From: 2010.05.17/outbox.cif.g08.bks.cpg/sg13_29_cif.got.tgz:57144.got - 2010.06.03 16:44:36.
