data_PCOD9232365
_publ_section_title
;
Structure prediction by ZEFSAII (Michael W. Deem and Ramdas Pophale) SiO2 
 PCOD9232365
Probable space group: P 2/C
;
_chemical_formula_sum "Si O2"
_cell_formula_units_Z 24
_cell_length_a 10.097440
_cell_length_b 5.237258
_cell_length_c 17.248596
_cell_angle_alpha 90.000000
_cell_angle_beta 86.714485
_cell_angle_gamma 90.000000
_cell_volume 910.656474
_symmetry_space_group_name_H-M "P 2/C"
_symmetry_group_IT_number 13
_symmetry_cell_setting 'monoclinic'
loop_
_space_group_symop_operation_xyz
x,y,z
-x,y,1/2-z
-x,-y,-z
x,-y,1/2+z
loop_
_atom_site_type_symbol
_atom_site_label
_atom_site_fract_x
_atom_site_fract_y
_atom_site_fract_z
Si Si1 0.933076 0.863765 0.326300
Si Si2 0.804106 0.534085 0.444957
Si Si3 0.919642 0.761109 0.586229
Si Si4 0.437347 0.673027 0.626258
Si Si5 0.428099 0.825607 0.335048
Si Si6 0.762159 0.209516 0.232217
O O1 0.867547 0.114655 0.291512
O O2 0.000000 0.735547 0.250000
O O3 0.034537 0.955421 0.389144
O O4 0.816301 0.706671 0.367956
O O5 0.822225 0.717335 0.517873
O O6 0.669162 0.381374 0.437611
O O7 0.938546 0.366898 0.437796
O O8 0.842436 0.643846 0.662958
O O9 0.500540 0.952015 0.617894
O O10 0.356158 0.677168 0.711914
O O11 0.547328 0.449180 0.627302
O O12 0.500000 0.808718 0.250000
O O13 0.292074 0.960904 0.313087
#
# Coordination Sequence:
#
# PCOD9232365 Si02
#       6
#     4   4   4   4   4   4
#     4  10  21  36  61  92 123 166 216 267 326 392
#     4  11  22  38  63  88 132 170 215 265 339 393
#     4  10  23  41  57  94 129 171 211 270 335 401
#     4  11  22  38  67  90 125 166 216 267 321 381
#     4  10  21  39  62  95 122 163 214 273 322 373
#     4  10  21  41  65  92 130 163 225 270 333 393
#
# _framework density 26.354614000000002
#
# number of rings (size 3 to 8) (size 9 to 14) (size 15 to 20)
#    0.000    1.667    1.667    4.000    2.333    0.000 
#    3.000    1.667    0.000    0.000    0.000    1.167 
#    0.000    0.000    0.000    0.000    0.000    0.000 
#
# Total GULP energy -134208.317267 kJ/mol
# GULP energy per Si atom -5592.013219 kJ/mol
# Density = 2.629463 g / cm^3
# Si number density = 26.354614 Si / 1000 Ang^3
#
#
#
# Elastic Constant Matrix: (Units=GPa)
#
#
# Indices 1 2 3 4 5 6 
#
# 1 77.8084 18.6469 2.7062 0.0000 19.3119 0.0000
# 2 18.6469 94.5042 13.5090 0.0000 2.1171 0.0000
# 3 2.7062 13.5090 78.4387 0.0000 7.2168 0.0000
# 4 0.0000 0.0000 0.0000 42.1779 0.0000 -30.2005
# 5 19.3119 2.1171 7.2168 0.0000 29.6968 0.0000
# 6 0.0000 0.0000 0.0000 -30.2005 0.0000 113.1663
#
#
#
# Elastic Compliance Matrix: (Units=1/GPa)
#
#
# Indices 1 2 3 4 5 6 
#
# 1 0.016172 -0.003090 0.000943 0.000000 -0.010526 0.000000
# 2 -0.003090 0.011442 -0.002019 0.000000 0.001684 0.000000
# 3 0.000943 -0.002019 0.013407 0.000000 -0.003727 0.000000
# 4 0.000000 0.000000 0.000000 0.029310 0.000000 0.007822
# 5 -0.010526 0.001684 -0.003727 0.000000 0.041304 0.000000
# 6 0.000000 0.000000 0.000000 0.007822 0.000000 0.010924
#
#
# Mechanical properties :
#
#
# Convention : Reuss Voigt Hill
#
# Bulk Modulus (GPa) = 30.59160 35.60838 33.09999
# Shear Modulus (GPa) = 35.26392 51.40081 43.33237
#
# Velocity S-wave (km/s) = 3.66191 4.42107 4.05928
# Velocity P-wave (km/s) = 5.43253 6.29299 5.87852
#
# Compressibility (1/GPa) = 0.03268871
#
# Stress axis : x y z
#
# Youngs Moduli (GPa) = 61.83428 87.39655 74.58831
#
# Poissons Ratio (x) = 0.27005 -0.07031
# Poissons Ratio (y) = 0.19106 0.15059
# Poissons Ratio (z) = -0.05829 0.17645
#
# Static dielectric constant tensor:
#      x y z
#    x 2.123430 0.000000 -0.027060 
#    y 0.000000 2.131040 0.000000 
#    z -0.027060 0.000000 2.072380 
# 
# From -- ./inp_files/65379.got.cif
#   From: 2010.05.17/outbox.cif.g08.bks.cpg/sg13_33_cif.got.tgz:65379.got - 2010.06.03 16:44:36.
