data_PCOD9232233
_publ_section_title
;
Structure prediction by ZEFSAII (Michael W. Deem and Ramdas Pophale) SiO2 
 PCOD9232233
Probable space group: P 2/C
;
_chemical_formula_sum "Si O2"
_cell_formula_units_Z 32
_cell_length_a 14.212084
_cell_length_b 9.122695
_cell_length_c 13.771699
_cell_angle_alpha 90.000000
_cell_angle_beta 60.239897
_cell_angle_gamma 90.000000
_cell_volume 1550.043384
_symmetry_space_group_name_H-M "P 2/C"
_symmetry_group_IT_number 13
_symmetry_cell_setting 'monoclinic'
loop_
_space_group_symop_operation_xyz
x,y,z
-x,y,1/2-z
-x,-y,-z
x,-y,1/2+z
loop_
_atom_site_type_symbol
_atom_site_label
_atom_site_fract_x
_atom_site_fract_y
_atom_site_fract_z
Si Si1 0.262305 0.178847 0.747120
Si Si2 0.006041 0.532894 0.884871
Si Si3 0.362297 0.376277 0.062692
Si Si4 0.845252 0.009618 0.031433
Si Si5 0.248388 0.064395 0.117624
Si Si6 0.171644 0.413573 0.661626
Si Si7 0.053284 0.856918 0.853125
Si Si8 0.440048 0.572395 0.180087
O O1 0.194387 0.118023 0.873283
O O2 0.191089 0.255925 0.698764
O O3 0.348976 0.300879 0.734136
O O4 0.308399 0.038872 0.665362
O O5 0.918843 0.433072 0.873807
O O6 0.122754 0.502165 0.778309
O O7 0.990654 0.704607 0.873248
O O8 0.000000 0.500000 0.000000
O O9 0.304714 0.221423 0.081585
O O10 0.280693 0.506572 0.071332
O O11 0.390045 0.425777 0.158266
O O12 0.470363 0.376276 0.943741
O O13 0.867489 0.145830 0.092228
O O14 0.764488 0.009522 0.981635
O O15 0.961584 0.974390 0.924780
O O16 0.130137 0.096824 0.225800
O O17 0.500000 0.548044 0.250000
#
# Coordination Sequence:
#
# PCOD9232233 Si02
#       8
#     4   4   4   4   4   4   4   4
#     4  10  23  41  58  92 120 159 208 249 308 375
#     4  11  22  35  59  87 123 162 206 249 294 358
#     4  10  21  40  63  90 114 159 201 252 312 361
#     4  10  21  36  60  82 123 166 202 247 306 354
#     4  11  21  38  63  84 126 158 199 257 302 365
#     4  10  22  39  57  87 125 158 202 250 306 351
#     4  10  21  36  53  90 116 163 211 239 296 366
#     4  10  22  42  66  87 119 155 204 257 316 369
#
# _framework density 20.644582
#
# number of rings (size 3 to 8) (size 9 to 14) (size 15 to 20)
#    0.000    1.750    1.250    2.625    3.500    2.500 
#    4.500    4.375    0.000    0.000    0.000    0.000 
#    0.000    0.000    0.000    0.000    0.000    0.000 
#
# Total GULP energy -178532.215835 kJ/mol
# GULP energy per Si atom -5579.131745 kJ/mol
# Density = 2.059759 g / cm^3
# Si number density = 20.644582 Si / 1000 Ang^3
#
#
#
# Elastic Constant Matrix: (Units=GPa)
#
#
# Indices 1 2 3 4 5 6 
#
# 1 86.0685 7.4459 33.9123 0.0000 20.5824 0.0000
# 2 7.4459 18.0838 5.2907 0.0000 12.6239 0.0000
# 3 33.9123 5.2907 76.6969 0.0000 18.0919 0.0000
# 4 0.0000 0.0000 0.0000 22.9512 0.0000 2.8142
# 5 20.5824 12.6239 18.0919 0.0000 40.3798 0.0000
# 6 0.0000 0.0000 0.0000 2.8142 0.0000 19.3367
#
#
#
# Elastic Compliance Matrix: (Units=1/GPa)
#
#
# Indices 1 2 3 4 5 6 
#
# 1 0.015016 -0.001214 -0.005412 0.000000 -0.004850 0.000000
# 2 -0.001214 0.070843 0.000814 0.000000 -0.021894 0.000000
# 3 -0.005412 0.000814 0.016532 0.000000 -0.004903 0.000000
# 4 0.000000 0.000000 0.000000 0.044362 0.000000 -0.006456
# 5 -0.004850 -0.021894 -0.004903 0.000000 0.036278 0.000000
# 6 0.000000 0.000000 0.000000 -0.006456 0.000000 0.052655
#
#
# Mechanical properties :
#
#
# Convention : Reuss Voigt Hill
#
# Bulk Modulus (GPa) = 11.01708 30.46078 20.73893
# Shear Modulus (GPa) = 18.01382 25.48023 21.74702
#
# Velocity S-wave (km/s) = 2.95713 3.51698 3.24914
# Velocity P-wave (km/s) = 4.12403 5.59277 4.91359
#
# Compressibility (1/GPa) = 0.09076816
#
# Stress axis : x y z
#
# Youngs Moduli (GPa) = 66.59711 14.11562 60.49047
#
# Poissons Ratio (x) = 0.01714 0.32735
# Poissons Ratio (y) = 0.08085 -0.04926
# Poissons Ratio (z) = 0.36040 -0.01149
#
# Static dielectric constant tensor:
#      x y z
#    x 1.809810 0.000000 0.022820 
#    y 0.000000 1.801510 0.000000 
#    z 0.022820 0.000000 1.731850 
# 
# From -- ./inp_files/53047.got.cif
#   From: 2010.05.17/outbox.cif.g08.bks.cpg/sg13_27_cif.got.tgz:53047.got - 2010.06.03 16:44:36.
