data_PCOD9232685
_publ_section_title
;
Structure prediction by ZEFSAII (Michael W. Deem and Ramdas Pophale) SiO2 
 PCOD9232685
Probable space group: P 2/C
;
_chemical_formula_sum "Si O2"
_cell_formula_units_Z 24
_cell_length_a 14.652741
_cell_length_b 8.215286
_cell_length_c 8.064611
_cell_angle_alpha 90.000000
_cell_angle_beta 110.544796
_cell_angle_gamma 90.000000
_cell_volume 909.045261
_symmetry_space_group_name_H-M "P 2/C"
_symmetry_group_IT_number 13
_symmetry_cell_setting 'monoclinic'
loop_
_space_group_symop_operation_xyz
x,y,z
-x,y,1/2-z
-x,-y,-z
x,-y,1/2+z
loop_
_atom_site_type_symbol
_atom_site_label
_atom_site_fract_x
_atom_site_fract_y
_atom_site_fract_z
Si Si1 0.537371 0.171917 0.089548
Si Si2 0.711134 0.673355 0.570634
Si Si3 0.635286 0.669844 0.150675
Si Si4 0.118979 0.830819 0.972702
Si Si5 0.801121 0.825390 0.103076
Si Si6 0.959254 0.328425 0.537064
O O1 0.500000 0.194120 0.250000
O O2 0.653079 0.195053 0.143779
O O3 0.479166 0.309418 0.948779
O O4 0.500000 0.000000 0.000000
O O5 0.663583 0.695690 0.358518
O O6 0.682528 0.499740 0.624954
O O7 0.825556 0.703694 0.611729
O O8 0.687494 0.801469 0.062733
O O9 0.160135 0.802937 0.184523
O O10 0.004828 0.801579 0.936372
O O11 0.155672 0.005130 0.934474
O O12 0.845107 0.694187 0.001281
O O13 0.000000 0.301920 0.750000
O O14 0.000000 0.500000 0.500000
#
# Coordination Sequence:
#
# PCOD9232685 Si02
#       6
#     4   4   4   4   4   4
#     4  12  25  42  63  88 118 154 194 242 293 348
#     4  11  23  40  61  88 119 155 196 241 291 347
#     4  11  23  40  61  88 119 155 196 241 291 347
#     4  10  22  38  59  86 118 153 194 239 288 343
#     4  10  22  38  59  86 118 153 194 239 288 343
#     4  10  21  38  58  86 118 152 193 238 286 342
#
# _framework density 26.401326000000001
#
# number of rings (size 3 to 8) (size 9 to 14) (size 15 to 20)
#    0.000    1.333    0.000    5.500    0.000    6.667 
#    0.000    0.000    0.000    0.000    0.000    0.000 
#    0.000    0.000    0.000    0.000    0.000    0.000 
#
# Total GULP energy -134396.855248 kJ/mol
# GULP energy per Si atom -5599.868969 kJ/mol
# Density = 2.634124 g / cm^3
# Si number density = 26.401326 Si / 1000 Ang^3
#
#
#
# Elastic Constant Matrix: (Units=GPa)
#
#
# Indices 1 2 3 4 5 6 
#
# 1 145.6314 17.3775 27.1631 0.0000 -44.1719 0.0000
# 2 17.3775 108.4429 -3.6488 0.0000 -35.8403 0.0000
# 3 27.1631 -3.6488 137.4333 0.0000 -34.8270 0.0000
# 4 0.0000 0.0000 0.0000 33.3495 0.0000 -17.3132
# 5 -44.1719 -35.8403 -34.8270 0.0000 54.3478 0.0000
# 6 0.0000 0.0000 0.0000 -17.3132 0.0000 44.9743
#
#
#
# Elastic Compliance Matrix: (Units=1/GPa)
#
#
# Indices 1 2 3 4 5 6 
#
# 1 0.009269 0.001416 0.000419 0.000000 0.008736 0.000000
# 2 0.001416 0.012930 0.003004 0.000000 0.011603 0.000000
# 3 0.000419 0.003004 0.009386 0.000000 0.008336 0.000000
# 4 0.000000 0.000000 0.000000 0.037475 0.000000 0.014426
# 5 0.008736 0.011603 0.008336 0.000000 0.038494 0.000000
# 6 0.000000 0.000000 0.000000 0.014426 0.000000 0.027788
#
#
# Mechanical properties :
#
#
# Convention : Reuss Voigt Hill
#
# Bulk Modulus (GPa) = 24.23437 52.58790 38.41113
# Shear Modulus (GPa) = 35.86323 49.90872 42.88598
#
# Velocity S-wave (km/s) = 3.68963 4.35257 4.03474
# Velocity P-wave (km/s) = 5.22975 6.72471 6.02379
#
# Compressibility (1/GPa) = 0.04126371
#
# Stress axis : x y z
#
# Youngs Moduli (GPa) = 107.88284 77.33775 106.54661
#
# Poissons Ratio (x) = -0.10952 -0.04469
# Poissons Ratio (y) = -0.15278 -0.32003
# Poissons Ratio (z) = -0.04525 -0.23230
#
# Static dielectric constant tensor:
#      x y z
#    x 2.063110 0.000000 0.087760 
#    y 0.000000 2.076880 0.000000 
#    z 0.087760 0.000000 1.936180 
# 
# From -- ./inp_files/18033.got.cif
#   From: 2010.05.17/outbox.cif.g08.bks.cpg/sg13_10_cif.got.tgz:18033.got - 2010.06.03 16:44:36.
