data_PCOD9232594
_publ_section_title
;
Structure prediction by ZEFSAII (Michael W. Deem and Ramdas Pophale) SiO2 
 PCOD9232594
Probable space group: P 2/C
;
_chemical_formula_sum "Si O2"
_cell_formula_units_Z 28
_cell_length_a 8.757789
_cell_length_b 9.105782
_cell_length_c 24.768351
_cell_angle_alpha 90.000000
_cell_angle_beta 42.679789
_cell_angle_gamma 90.000000
_cell_volume 1338.981887
_symmetry_space_group_name_H-M "P 2/C"
_symmetry_group_IT_number 13
_symmetry_cell_setting 'monoclinic'
loop_
_space_group_symop_operation_xyz
x,y,z
-x,y,1/2-z
-x,-y,-z
x,-y,1/2+z
loop_
_atom_site_type_symbol
_atom_site_label
_atom_site_fract_x
_atom_site_fract_y
_atom_site_fract_z
Si Si1 0.758949 0.151625 0.425036
Si Si2 0.927232 0.639262 0.357063
Si Si3 0.378500 0.476605 0.881904
Si Si4 0.947277 0.594813 0.940043
Si Si5 0.602019 0.195257 0.777647
Si Si6 0.628360 0.107439 0.892802
Si Si7 0.215574 0.639424 0.670736
O O1 0.942171 0.258689 0.404829
O O2 0.606644 0.092814 0.513904
O O3 0.654854 0.268276 0.409155
O O4 0.794402 0.012884 0.376716
O O5 0.910337 0.560265 0.418890
O O6 0.725165 0.737472 0.387580
O O7 0.915106 0.495934 0.322970
O O8 0.148742 0.738299 0.295328
O O9 0.450032 0.340620 0.826369
O O10 0.596911 0.572489 0.839167
O O11 0.186247 0.577749 0.906427
O O12 0.259627 0.401925 0.964600
O O13 0.500000 0.121448 0.750000
O O14 0.605118 0.107617 0.834029
O O15 0.000000 0.728309 0.750000
#
# Coordination Sequence:
#
# PCOD9232594 Si02
#       7
#     4   4   4   4   4   4   4
#     4  10  23  40  61  90 124 168 216 262 322 375
#     4  11  20  35  63  92 120 163 213 264 313 376
#     4  11  20  36  61  93 131 162 208 265 327 380
#     4  10  21  37  63  93 126 163 210 270 322 382
#     4  12  22  37  60  94 126 166 214 267 326 381
#     4  11  22  41  62  87 126 169 217 268 307 387
#     4  11  20  35  60  92 124 161 212 264 317 382
#
# _framework density 20.911411000000001
#
# number of rings (size 3 to 8) (size 9 to 14) (size 15 to 20)
#    0.000    1.143    5.714    1.286    0.000    3.429 
#    0.000    1.429    0.000    6.000    0.000    0.000 
#    0.000    0.000    0.000    0.000    0.000    0.000 
#
# Total GULP energy -155963.217109 kJ/mol
# GULP energy per Si atom -5570.114897 kJ/mol
# Density = 2.086382 g / cm^3
# Si number density = 20.911411 Si / 1000 Ang^3
#
#
#
# Elastic Constant Matrix: (Units=GPa)
#
#
# Indices 1 2 3 4 5 6 
#
# 1 120.3435 25.4898 47.0279 0.0000 8.5158 0.0000
# 2 25.4898 49.6341 8.2198 0.0000 9.6221 0.0000
# 3 47.0279 8.2198 60.7176 0.0000 6.1687 0.0000
# 4 0.0000 0.0000 0.0000 20.1211 0.0000 9.3264
# 5 8.5158 9.6221 6.1687 0.0000 35.3102 0.0000
# 6 0.0000 0.0000 0.0000 9.3264 0.0000 27.8906
#
#
#
# Elastic Compliance Matrix: (Units=1/GPa)
#
#
# Indices 1 2 3 4 5 6 
#
# 1 0.013093 -0.005140 -0.009434 0.000000 -0.000109 0.000000
# 2 -0.005140 0.023619 0.001336 0.000000 -0.005430 0.000000
# 3 -0.009434 0.001336 0.023824 0.000000 -0.002251 0.000000
# 4 0.000000 0.000000 0.000000 0.058815 0.000000 -0.019667
# 5 -0.000109 -0.005430 -0.002251 0.000000 0.030220 0.000000
# 6 0.000000 0.000000 0.000000 -0.019667 0.000000 0.042431
#
#
# Mechanical properties :
#
#
# Convention : Reuss Voigt Hill
#
# Bulk Modulus (GPa) = 29.36115 43.57448 36.46782
# Shear Modulus (GPa) = 21.75511 26.66155 24.20833
#
# Velocity S-wave (km/s) = 3.22894 3.57455 3.40613
# Velocity P-wave (km/s) = 5.28891 6.15788 5.73986
#
# Compressibility (1/GPa) = 0.03405861
#
# Stress axis : x y z
#
# Youngs Moduli (GPa) = 76.37955 42.33931 41.97398
#
# Poissons Ratio (x) = 0.21764 0.39597
# Poissons Ratio (y) = 0.39262 -0.05606
# Poissons Ratio (z) = 0.72054 -0.05655
#
# Static dielectric constant tensor:
#      x y z
#    x 1.780480 0.000000 0.046810 
#    y 0.000000 1.762120 0.000000 
#    z 0.046810 0.000000 1.876430 
# 
# From -- ./inp_files/91378.got.cif
#   From: 2010.05.17/outbox.cif.g08.bks.cpg/sg13_46_cif.got.tgz:91378.got - 2010.06.03 16:44:36.
