data_PCOD9232469
_publ_section_title
;
Structure prediction by ZEFSAII (Michael W. Deem and Ramdas Pophale) SiO2 
 PCOD9232469
Probable space group: P 2/C
;
_chemical_formula_sum "Si O2"
_cell_formula_units_Z 26
_cell_length_a 8.156619
_cell_length_b 21.091339
_cell_length_c 11.708581
_cell_angle_alpha 90.000000
_cell_angle_beta 39.914179
_cell_angle_gamma 90.000000
_cell_volume 1292.437825
_symmetry_space_group_name_H-M "P 2/C"
_symmetry_group_IT_number 13
_symmetry_cell_setting 'monoclinic'
loop_
_space_group_symop_operation_xyz
x,y,z
-x,y,1/2-z
-x,-y,-z
x,-y,1/2+z
loop_
_atom_site_type_symbol
_atom_site_label
_atom_site_fract_x
_atom_site_fract_y
_atom_site_fract_z
Si Si1 0.000000 0.647653 0.250000
Si Si2 0.897555 0.928311 0.041100
Si Si3 0.475953 0.069258 0.568334
Si Si4 0.250603 0.433011 0.189044
Si Si5 0.328403 0.437877 0.732479
Si Si6 0.662599 0.836324 0.778171
Si Si7 0.462407 0.302020 0.135124
O O1 0.906974 0.604692 0.190082
O O2 0.741987 0.686139 0.425695
O O3 0.784462 0.915120 0.226598
O O4 0.684317 0.929873 0.057247
O O5 0.087423 0.874321 0.895424
O O6 0.000000 0.000000 0.000000
O O7 0.531965 0.119704 0.441748
O O8 0.500000 0.000000 0.500000
O O9 0.258545 0.487570 0.280914
O O10 0.273873 0.360998 0.215720
O O11 0.000000 0.445249 0.250000
O O12 0.485879 0.437606 0.976039
O O13 0.500000 0.416995 0.750000
O O14 0.500000 0.833297 0.750000
O O15 0.668412 0.765136 0.824667
O O16 0.500000 0.301599 0.250000
#
# Coordination Sequence:
#
# PCOD9232469 Si02
#       7
#     2   4   4   4   4   4   4
#     4  10  22  44  66  96 132 170 230 276 326 410
#     4  11  23  39  64  96 128 163 208 264 320 380
#     4  11  23  39  65  96 127 164 208 262 322 378
#     4  10  21  37  58  96 128 165 224 272 330 404
#     4  10  21  37  63  95 129 170 216 282 343 384
#     4  11  24  41  63  92 128 173 216 261 327 388
#     4  10  24  42  64  90 128 178 220 263 332 393
#
# _framework density 20.117023
#
# number of rings (size 3 to 8) (size 9 to 14) (size 15 to 20)
#    0.000    1.538    2.308    1.846    2.154    6.154 
#    0.000    0.000   13.538    0.000    0.000    0.000 
#    0.000    0.000    0.000    0.000    0.000    0.000 
#
# Total GULP energy -144923.577741 kJ/mol
# GULP energy per Si atom -5573.983759 kJ/mol
# Density = 2.007124 g / cm^3
# Si number density = 20.117023 Si / 1000 Ang^3
#
#
#
# Elastic Constant Matrix: (Units=GPa)
#
#
# Indices 1 2 3 4 5 6 
#
# 1 67.7122 28.3091 4.2203 0.0000 5.5136 0.0000
# 2 28.3091 157.0845 48.6815 0.0000 4.7175 0.0000
# 3 4.2203 48.6815 113.3800 0.0000 5.2323 0.0000
# 4 0.0000 0.0000 0.0000 43.7114 0.0000 3.1588
# 5 5.5136 4.7175 5.2323 0.0000 34.6750 0.0000
# 6 0.0000 0.0000 0.0000 3.1588 0.0000 48.6341
#
#
#
# Elastic Compliance Matrix: (Units=1/GPa)
#
#
# Indices 1 2 3 4 5 6 
#
# 1 0.016202 -0.003111 0.000838 0.000000 -0.002280 0.000000
# 2 -0.003111 0.007950 -0.003294 0.000000 -0.000090 0.000000
# 3 0.000838 -0.003294 0.010260 0.000000 -0.001233 0.000000
# 4 0.000000 0.000000 0.000000 0.022985 0.000000 -0.001493
# 5 -0.002280 -0.000090 -0.001233 0.000000 0.029400 0.000000
# 6 0.000000 0.000000 0.000000 -0.001493 0.000000 0.020659
#
#
# Mechanical properties :
#
#
# Convention : Reuss Voigt Hill
#
# Bulk Modulus (GPa) = 42.95760 55.62204 49.28982
# Shear Modulus (GPa) = 39.57285 42.53518 41.05401
#
# Velocity S-wave (km/s) = 4.44005 4.60324 4.52238
# Velocity P-wave (km/s) = 6.90547 7.48080 7.19888
#
# Compressibility (1/GPa) = 0.02327877
#
# Stress axis : x y z
#
# Youngs Moduli (GPa) = 61.71894 125.78512 97.46819
#
# Poissons Ratio (x) = 0.39134 -0.08167
# Poissons Ratio (y) = 0.19202 0.32101
# Poissons Ratio (z) = -0.05172 0.41428
#
# Static dielectric constant tensor:
#      x y z
#    x 1.720560 0.000000 -0.051670 
#    y 0.000000 1.790690 0.000000 
#    z -0.051670 0.000000 1.759120 
# 
# From -- ./inp_files/30777.got.cif
#   From: 2010.05.17/outbox.cif.g08.bks.cpg/sg13_16_cif.got.tgz:30777.got - 2010.06.03 16:44:36.
