data_PCOD9232178
_publ_section_title
;
Structure prediction by ZEFSAII (Michael W. Deem and Ramdas Pophale) SiO2 
 PCOD9232178
Probable space group: P 2/C
;
_chemical_formula_sum "Si O2"
_cell_formula_units_Z 30
_cell_length_a 5.716090
_cell_length_b 13.992949
_cell_length_c 18.728194
_cell_angle_alpha 90.000000
_cell_angle_beta 85.665044
_cell_angle_gamma 90.000000
_cell_volume 1493.688372
_symmetry_space_group_name_H-M "P 2/C"
_symmetry_group_IT_number 13
_symmetry_cell_setting 'monoclinic'
loop_
_space_group_symop_operation_xyz
x,y,z
-x,y,1/2-z
-x,-y,-z
x,-y,1/2+z
loop_
_atom_site_type_symbol
_atom_site_label
_atom_site_fract_x
_atom_site_fract_y
_atom_site_fract_z
Si Si1 0.302627 0.920147 0.490182
Si Si2 0.275483 0.539368 0.414426
Si Si3 0.874628 0.938779 0.608847
Si Si4 0.327823 0.303627 0.187753
Si Si5 0.243614 0.497915 0.761667
Si Si6 0.000000 0.857910 0.750000
Si Si7 0.772734 0.603984 0.453454
Si Si8 0.417684 0.233590 0.453702
O O1 0.411231 0.815956 0.493228
O O2 0.115444 0.925083 0.558890
O O3 0.500000 0.000000 0.500000
O O4 0.201636 0.956851 0.417540
O O5 0.254471 0.472558 0.344757
O O6 0.532388 0.590242 0.412441
O O7 0.249746 0.481065 0.488062
O O8 0.032422 0.599108 0.414030
O O9 0.883013 0.924663 0.693191
O O10 0.706616 0.853343 0.584837
O O11 0.500000 0.282894 0.250000
O O12 0.238384 0.409577 0.209601
O O13 0.145439 0.217153 0.198373
O O14 0.444334 0.296027 0.107879
O O15 0.500000 0.449451 0.750000
O O16 0.000000 0.445590 0.750000
O O17 0.757333 0.700504 0.499173
#
# Coordination Sequence:
#
# PCOD9232178 Si02
#       8
#     4   4   4   4   4   2   4   4
#     4   9  20  38  55  82 121 162 199 243 310 369
#     4  10  22  39  52  85 121 161 206 252 308 366
#     4  10  21  35  56  87 126 160 197 247 312 376
#     4  11  21  32  49  88 125 157 190 239 311 379
#     4  11  22  36  57  81 119 163 199 244 311 382
#     4  12  20  32  54  90 122 160 192 248 304 394
#     4  10  22  37  59  81 121 163 207 258 298 358
#     4  11  21  35  60  86 121 162 205 258 303 377
#
# _framework density 20.084510000000002
#
# number of rings (size 3 to 8) (size 9 to 14) (size 15 to 20)
#    0.000    1.600    3.333    2.400    1.867    2.133 
#    0.000    0.000    0.000    0.000    1.733    5.600 
#    0.000    0.000    0.000    0.000    0.000    0.000 
#
# Total GULP energy -167033.563245 kJ/mol
# GULP energy per Si atom -5567.785441 kJ/mol
# Density = 2.003880 g / cm^3
# Si number density = 20.084510 Si / 1000 Ang^3
#
#
#
# Elastic Constant Matrix: (Units=GPa)
#
#
# Indices 1 2 3 4 5 6 
#
# 1 110.9376 14.0287 23.1351 0.0000 6.8335 0.0000
# 2 14.0287 43.8283 32.5817 0.0000 1.5648 0.0000
# 3 23.1351 32.5817 83.6191 0.0000 9.5127 0.0000
# 4 0.0000 0.0000 0.0000 18.8625 0.0000 14.4216
# 5 6.8335 1.5648 9.5127 0.0000 23.3900 0.0000
# 6 0.0000 0.0000 0.0000 14.4216 0.0000 -32.0932
#
#
#
# Elastic Compliance Matrix: (Units=1/GPa)
#
#
# Indices 1 2 3 4 5 6 
#
# 1 0.009728 -0.001704 -0.001800 0.000000 -0.001996 0.000000
# 2 -0.001704 0.032632 -0.012636 0.000000 0.003454 0.000000
# 3 -0.001800 -0.012636 0.018060 0.000000 -0.005974 0.000000
# 4 0.000000 0.000000 0.000000 0.039458 0.000000 0.017731
# 5 -0.001996 0.003454 -0.005974 0.000000 0.045535 0.000000
# 6 0.000000 0.000000 0.000000 0.017731 0.000000 -0.023191
#
#
# Mechanical properties :
#
#
# Convention : Reuss Voigt Hill
#
# Bulk Modulus (GPa) = 35.53815 41.98622 38.76219
# Shear Modulus (GPa) = 30.50937 13.27449 21.89193
#
# Velocity S-wave (km/s) = 3.90173 2.57365 3.30508
# Velocity P-wave (km/s) = 6.16690 5.45726 5.82290
#
# Compressibility (1/GPa) = 0.02813878
#
# Stress axis : x y z
#
# Youngs Moduli (GPa) = 102.79633 30.64451 55.36965
#
# Poissons Ratio (x) = 0.05222 0.09969
# Poissons Ratio (y) = 0.17517 0.69968
# Poissons Ratio (z) = 0.18508 0.38724
#
# Static dielectric constant tensor:
#      x y z
#    x 1.860950 0.000000 0.042750 
#    y 0.000000 1.708840 0.000000 
#    z 0.042750 0.000000 1.848470 
# 
# From -- ./inp_files/61407.got.cif
#   From: 2010.05.17/outbox.cif.g08.bks.cpg/sg13_31_cif.got.tgz:61407.got - 2010.06.03 16:44:36.
