data_PCOD9232523
_publ_section_title
;
Structure prediction by ZEFSAII (Michael W. Deem and Ramdas Pophale) SiO2 
 PCOD9232523
Probable space group: P 2/C
;
_chemical_formula_sum "Si O2"
_cell_formula_units_Z 28
_cell_length_a 12.136839
_cell_length_b 23.322259
_cell_length_c 5.291322
_cell_angle_alpha 90.000000
_cell_angle_beta 102.591307
_cell_angle_gamma 90.000000
_cell_volume 1461.732478
_symmetry_space_group_name_H-M "P 2/C"
_symmetry_group_IT_number 13
_symmetry_cell_setting 'monoclinic'
loop_
_space_group_symop_operation_xyz
x,y,z
-x,y,1/2-z
-x,-y,-z
x,-y,1/2+z
loop_
_atom_site_type_symbol
_atom_site_label
_atom_site_fract_x
_atom_site_fract_y
_atom_site_fract_z
Si Si1 0.372401 0.024953 0.938659
Si Si2 0.727245 0.143781 0.600797
Si Si3 0.872490 0.295584 0.128769
Si Si4 0.131299 0.842345 0.832115
Si Si5 0.131063 0.462552 0.798945
Si Si6 0.761692 0.657211 0.073294
Si Si7 0.425481 0.743918 0.462960
O O1 0.365426 0.093215 0.942089
O O2 0.316478 0.001026 0.658740
O O3 0.500000 0.000000 0.000000
O O4 0.799563 0.139878 0.381404
O O5 0.666924 0.205361 0.583615
O O6 0.807399 0.136779 0.883612
O O7 0.865232 0.227153 0.154011
O O8 0.796309 0.323896 0.308219
O O9 0.000000 0.314088 0.250000
O O10 0.838119 0.313127 0.829385
O O11 0.000000 0.859258 0.750000
O O12 0.145410 0.492129 0.533823
O O13 0.215131 0.409807 0.881399
O O14 0.000000 0.441910 0.750000
O O15 0.638494 0.683140 0.061514
O O16 0.500000 0.749078 0.250000
O O17 0.500000 0.750728 0.750000
#
# Coordination Sequence:
#
# PCOD9232523 Si02
#       7
#     4   4   4   4   4   4   4
#     4  10  23  40  61  92 120 160 211 260 311 375
#     4  12  23  42  67  91 134 166 201 266 323 361
#     4  11  20  34  58  92 126 159 198 242 303 387
#     4  11  22  39  63  97 130 164 204 245 310 398
#     4  10  21  37  60  91 122 158 203 253 309 369
#     4  12  22  40  58  88 129 167 205 248 321 367
#     4  12  26  40  61  90 126 169 208 263 319 369
#
# _framework density 19.155349999999999
#
# number of rings (size 3 to 8) (size 9 to 14) (size 15 to 20)
#    0.000    0.857    2.857    5.143    4.000    3.429 
#    0.000    0.000    0.000   11.143    0.000    0.000 
#    0.000    0.000    0.000    0.000    0.000    0.000 
#
# Total GULP energy -156463.840401 kJ/mol
# GULP energy per Si atom -5587.994300 kJ/mol
# Density = 1.911175 g / cm^3
# Si number density = 19.155350 Si / 1000 Ang^3
#
#
#
# Elastic Constant Matrix: (Units=GPa)
#
#
# Indices 1 2 3 4 5 6 
#
# 1 74.7878 24.3969 28.5746 0.0000 1.2712 0.0000
# 2 24.3969 73.9498 11.3684 0.0000 4.3330 0.0000
# 3 28.5746 11.3684 106.4324 0.0000 -7.6165 0.0000
# 4 0.0000 0.0000 0.0000 20.7802 0.0000 5.4861
# 5 1.2712 4.3330 -7.6165 0.0000 31.4119 0.0000
# 6 0.0000 0.0000 0.0000 5.4861 0.0000 28.7024
#
#
#
# Elastic Compliance Matrix: (Units=1/GPa)
#
#
# Indices 1 2 3 4 5 6 
#
# 1 0.016462 -0.004762 -0.003981 0.000000 -0.000975 0.000000
# 2 -0.004762 0.015290 -0.000501 0.000000 -0.002038 0.000000
# 3 -0.003981 -0.000501 0.010720 0.000000 0.002830 0.000000
# 4 0.000000 0.000000 0.000000 0.050680 0.000000 -0.009687
# 5 -0.000975 -0.002038 0.002830 0.000000 0.032842 0.000000
# 6 0.000000 0.000000 0.000000 -0.009687 0.000000 0.036692
#
#
# Mechanical properties :
#
#
# Convention : Reuss Voigt Hill
#
# Bulk Modulus (GPa) = 41.69111 42.64998 42.17055
# Shear Modulus (GPa) = 26.43155 28.90091 27.66623
#
# Velocity S-wave (km/s) = 3.71867 3.88850 3.80453
# Velocity P-wave (km/s) = 6.34429 6.51722 6.43133
#
# Compressibility (1/GPa) = 0.02398593
#
# Stress axis : x y z
#
# Youngs Moduli (GPa) = 60.74558 65.40199 93.28061
#
# Poissons Ratio (x) = 0.31144 0.37133
# Poissons Ratio (y) = 0.28927 0.04669
# Poissons Ratio (z) = 0.24182 0.03274
#
# Static dielectric constant tensor:
#      x y z
#    x 1.658970 0.000000 0.000320 
#    y 0.000000 1.667340 0.000000 
#    z 0.000320 0.000000 1.676670 
# 
# From -- ./inp_files/4098.got.cif
#   From: 2010.05.17/outbox.cif.g08.bks.cpg/sg13_3_cif.got.tgz:4098.got - 2010.06.03 16:44:36.
