data_PCOD9232832
_publ_section_title
;
Structure prediction by ZEFSAII (Michael W. Deem and Ramdas Pophale) SiO2 
 PCOD9232832
Probable space group: P 2/C
;
_chemical_formula_sum "Si O2"
_cell_formula_units_Z 22
_cell_length_a 11.201027
_cell_length_b 13.164323
_cell_length_c 11.968831
_cell_angle_alpha 90.000000
_cell_angle_beta 33.598923
_cell_angle_gamma 90.000000
_cell_volume 976.626139
_symmetry_space_group_name_H-M "P 2/C"
_symmetry_group_IT_number 13
_symmetry_cell_setting 'monoclinic'
loop_
_space_group_symop_operation_xyz
x,y,z
-x,y,1/2-z
-x,-y,-z
x,-y,1/2+z
loop_
_atom_site_type_symbol
_atom_site_label
_atom_site_fract_x
_atom_site_fract_y
_atom_site_fract_z
Si Si1 0.732828 0.726777 0.240630
Si Si2 0.036217 0.848823 0.598303
Si Si3 0.500000 0.721635 0.750000
Si Si4 0.760852 0.568138 0.420315
Si Si5 0.575533 0.877607 0.884770
Si Si6 0.500000 0.593725 0.250000
Si Si7 0.500000 0.963982 0.250000
O O1 0.748555 0.637092 0.319290
O O2 0.574846 0.817362 0.407813
O O3 0.659673 0.669243 0.186392
O O4 0.943906 0.780852 0.028698
O O5 0.267579 0.906465 0.426085
O O6 0.000000 0.800586 0.750000
O O7 0.810689 0.906290 0.749558
O O8 0.698029 0.650275 0.562498
O O9 0.579068 0.789730 0.788855
O O10 0.599762 0.476477 0.574180
O O11 0.000000 0.528244 0.250000
O O12 0.491522 0.969959 0.872301
#
# Coordination Sequence:
#
# PCOD9232832 Si02
#       7
#     4   4   2   4   4   2   2
#     4  11  24  43  64  91 126 166 210 253 307 376
#     4  12  25  41  64  91 126 169 209 258 314 368
#     4   8  18  38  62  92 124 160 210 258 302 368
#     4  10  21  38  63  92 124 163 206 255 310 366
#     4  10  22  42  66  90 126 167 206 257 313 368
#     4  11  23  39  61  94 128 158 205 261 307 365
#     4  11  25  43  65  98 126 158 213 263 307 371
#
# _framework density 22.526533000000001
#
# number of rings (size 3 to 8) (size 9 to 14) (size 15 to 20)
#    0.000    1.455    0.000    4.909    0.000    7.273 
#    0.000    1.818    0.000    0.000    0.000    0.000 
#    0.000    0.000    0.000    0.000    0.000    0.000 
#
# Total GULP energy -122497.560087 kJ/mol
# GULP energy per Si atom -5568.070913 kJ/mol
# Density = 2.247526 g / cm^3
# Si number density = 22.526533 Si / 1000 Ang^3
#
#
#
# Elastic Constant Matrix: (Units=GPa)
#
#
# Indices 1 2 3 4 5 6 
#
# 1 69.1664 17.5713 49.9679 0.0000 -2.6576 0.0000
# 2 17.5713 75.9189 40.4563 0.0000 -0.1033 0.0000
# 3 49.9679 40.4563 128.2200 0.0000 5.1794 0.0000
# 4 0.0000 0.0000 0.0000 12.3963 0.0000 -5.8676
# 5 -2.6576 -0.1033 5.1794 0.0000 40.1689 0.0000
# 6 0.0000 0.0000 0.0000 -5.8676 0.0000 41.1082
#
#
#
# Elastic Compliance Matrix: (Units=1/GPa)
#
#
# Indices 1 2 3 4 5 6 
#
# 1 0.020364 -0.000517 -0.007868 0.000000 0.002360 0.000000
# 2 -0.000517 0.015866 -0.004830 0.000000 0.000629 0.000000
# 3 -0.007868 -0.004830 0.012476 0.000000 -0.002142 0.000000
# 4 0.000000 0.000000 0.000000 0.086514 0.000000 0.012349
# 5 0.002360 0.000629 -0.002142 0.000000 0.025329 0.000000
# 6 0.000000 0.000000 0.000000 0.012349 0.000000 0.026089
#
#
# Mechanical properties :
#
#
# Convention : Reuss Voigt Hill
#
# Bulk Modulus (GPa) = 44.89221 54.36624 49.62922
# Shear Modulus (GPa) = 22.67631 29.75533 26.21582
#
# Velocity S-wave (km/s) = 3.17622 3.63836 3.41512
# Velocity P-wave (km/s) = 5.78126 6.46815 6.13433
#
# Compressibility (1/GPa) = 0.02227558
#
# Stress axis : x y z
#
# Youngs Moduli (GPa) = 49.10585 63.02623 80.15475
#
# Poissons Ratio (x) = 0.03260 0.63067
# Poissons Ratio (y) = 0.02540 0.38715
# Poissons Ratio (z) = 0.38637 0.30442
#
# Static dielectric constant tensor:
#      x y z
#    x 1.846530 0.000000 0.009210 
#    y 0.000000 1.829840 0.000000 
#    z 0.009210 0.000000 1.918310 
# 
# From -- ./inp_files/34567.got.cif
#   From: 2010.05.17/outbox.cif.g08.bks.cpg/sg13_18_cif.got.tgz:34567.got - 2010.06.03 16:44:36.
