data_PCOD9232565
_publ_section_title
;
Structure prediction by ZEFSAII (Michael W. Deem and Ramdas Pophale) SiO2 
 PCOD9232565
Probable space group: P 2/C
;
_chemical_formula_sum "Si O2"
_cell_formula_units_Z 22
_cell_length_a 20.956598
_cell_length_b 7.096514
_cell_length_c 9.979817
_cell_angle_alpha 90.000000
_cell_angle_beta 35.815886
_cell_angle_gamma 90.000000
_cell_volume 868.519906
_symmetry_space_group_name_H-M "P 2/C"
_symmetry_group_IT_number 13
_symmetry_cell_setting 'monoclinic'
loop_
_space_group_symop_operation_xyz
x,y,z
-x,y,1/2-z
-x,-y,-z
x,-y,1/2+z
loop_
_atom_site_type_symbol
_atom_site_label
_atom_site_fract_x
_atom_site_fract_y
_atom_site_fract_z
Si Si1 0.286952 0.098908 0.220082
Si Si2 0.618675 0.564797 0.589535
Si Si3 0.242965 0.472288 0.895910
Si Si4 0.399891 0.017923 0.272540
Si Si5 0.057514 0.900091 0.020373
Si Si6 0.000000 0.472108 0.750000
O O1 0.259862 0.307628 0.321871
O O2 0.303447 0.983797 0.328825
O O3 0.181750 0.042565 0.316594
O O4 0.380841 0.085193 0.946895
O O5 0.500000 0.481414 0.750000
O O6 0.696001 0.454177 0.564396
O O7 0.686919 0.618898 0.341797
O O8 0.593601 0.762501 0.701551
O O9 0.113252 0.431278 0.104684
O O10 0.500000 0.000000 0.000000
O O11 0.000000 0.976573 0.250000
O O12 0.036361 0.674904 0.069628
O O13 0.000000 0.000000 0.000000
#
# Coordination Sequence:
#
# PCOD9232565 Si02
#       6
#     4   4   4   4   4   2
#     4  10  21  37  62  88 122 161 199 256 321 360
#     4  11  24  41  65  93 123 170 217 258 319 376
#     4  10  23  42  65  87 130 165 211 266 309 392
#     4  11  23  40  60  91 127 162 206 264 312 376
#     4   9  17  32  59  88 119 155 201 250 307 375
#     4   8  20  40  62  90 126 170 204 254 334 360
#
# _framework density 25.330448000000001
#
# number of rings (size 3 to 8) (size 9 to 14) (size 15 to 20)
#    0.545    1.455    0.000    3.273    2.545    6.545 
#    0.000    0.000    2.000    0.000    0.000    0.000 
#    0.000    0.000    0.000    0.000    0.000    0.000 
#
# Total GULP energy -122803.814078 kJ/mol
# GULP energy per Si atom -5581.991549 kJ/mol
# Density = 2.527280 g / cm^3
# Si number density = 25.330448 Si / 1000 Ang^3
#
#
#
# Elastic Constant Matrix: (Units=GPa)
#
#
# Indices 1 2 3 4 5 6 
#
# 1 213.7594 16.9925 79.5689 0.0000 -8.7126 0.0000
# 2 16.9925 34.2989 1.1402 0.0000 3.4636 0.0000
# 3 79.5689 1.1402 149.1922 0.0000 -8.3011 0.0000
# 4 0.0000 0.0000 0.0000 34.4104 0.0000 2.3523
# 5 -8.7126 3.4636 -8.3011 0.0000 57.3916 0.0000
# 6 0.0000 0.0000 0.0000 2.3523 0.0000 5.3745
#
#
#
# Elastic Compliance Matrix: (Units=1/GPa)
#
#
# Indices 1 2 3 4 5 6 
#
# 1 0.006140 -0.003001 -0.003216 0.000000 0.000648 0.000000
# 2 -0.003001 0.030816 0.001246 0.000000 -0.002135 0.000000
# 3 -0.003216 0.001246 0.008445 0.000000 0.000658 0.000000
# 4 0.000000 0.000000 0.000000 0.029957 0.000000 -0.013112
# 5 0.000648 -0.002135 0.000658 0.000000 0.017747 0.000000
# 6 0.000000 0.000000 0.000000 -0.013112 0.000000 0.191802
#
#
# Mechanical properties :
#
#
# Convention : Reuss Voigt Hill
#
# Bulk Modulus (GPa) = 28.20027 65.85044 47.02536
# Shear Modulus (GPa) = 16.30430 39.40522 27.85476
#
# Velocity S-wave (km/s) = 2.53981 3.94845 3.31970
# Velocity P-wave (km/s) = 4.44499 6.84397 5.77052
#
# Compressibility (1/GPa) = 0.03546066
#
# Stress axis : x y z
#
# Youngs Moduli (GPa) = 162.86384 32.45045 118.41464
#
# Poissons Ratio (x) = 0.09737 0.38079
# Poissons Ratio (y) = 0.48867 -0.14754
# Poissons Ratio (z) = 0.52372 -0.04043
#
# Static dielectric constant tensor:
#      x y z
#    x 2.026220 0.000000 -0.073060 
#    y 0.000000 2.106640 0.000000 
#    z -0.073060 0.000000 2.058560 
# 
# From -- ./inp_files/22670.got.cif
#   From: 2010.05.17/outbox.cif.g08.bks.cpg/sg13_12_cif.got.tgz:22670.got - 2010.06.03 16:44:36.
