data_PCOD9232339
_publ_section_title
;
Structure prediction by ZEFSAII (Michael W. Deem and Ramdas Pophale) SiO2 
 PCOD9232339
Probable space group: P 2/C
;
_chemical_formula_sum "Si O2"
_cell_formula_units_Z 24
_cell_length_a 7.688495
_cell_length_b 11.383853
_cell_length_c 11.236362
_cell_angle_alpha 90.000000
_cell_angle_beta 92.978091
_cell_angle_gamma 90.000000
_cell_volume 982.130991
_symmetry_space_group_name_H-M "P 2/C"
_symmetry_group_IT_number 13
_symmetry_cell_setting 'monoclinic'
loop_
_space_group_symop_operation_xyz
x,y,z
-x,y,1/2-z
-x,-y,-z
x,-y,1/2+z
loop_
_atom_site_type_symbol
_atom_site_label
_atom_site_fract_x
_atom_site_fract_y
_atom_site_fract_z
Si Si1 0.811386 0.321745 0.698527
Si Si2 0.045295 0.277152 0.045394
Si Si3 0.897252 0.025179 0.372346
Si Si4 0.687615 0.808299 0.400853
Si Si5 0.482480 0.630500 0.940829
Si Si6 0.212659 0.590661 0.735225
O O1 0.831671 0.316533 0.558827
O O2 0.686009 0.238364 0.766357
O O3 0.781943 0.451131 0.747572
O O4 0.000000 0.282308 0.750000
O O5 0.042444 0.378520 0.145927
O O6 0.118940 0.165488 0.121389
O O7 0.866073 0.237536 0.974379
O O8 0.722992 0.947495 0.384923
O O9 0.000000 0.997821 0.250000
O O10 0.000000 0.000000 0.500000
O O11 0.539111 0.740249 0.469356
O O12 0.304164 0.636240 0.858284
O O13 0.639262 0.632770 0.853791
O O14 0.500000 0.500000 0.000000
#
# Coordination Sequence:
#
# PCOD9232339 Si02
#       6
#     4   4   4   4   4   4
#     4  10  21  36  59  92 134 166 216 270 337 402
#     4  10  23  39  64 102 131 170 225 287 335 405
#     4  10  21  39  67 101 137 171 220 285 351 398
#     4  10  21  39  66  93 130 175 221 273 343 411
#     4  11  23  41  58  88 128 175 219 268 335 408
#     4  11  24  38  61  89 130 174 220 275 335 399
#
# _framework density 24.43666
#
# number of rings (size 3 to 8) (size 9 to 14) (size 15 to 20)
#    0.000    1.667    1.667    3.500    7.000    1.333 
#    0.000    0.833    0.000    0.000    0.000    0.000 
#    0.000    0.000    0.000    0.000    0.000    0.000 
#
# Total GULP energy -133737.677222 kJ/mol
# GULP energy per Si atom -5572.403218 kJ/mol
# Density = 2.438104 g / cm^3
# Si number density = 24.436660 Si / 1000 Ang^3
#
#
#
# Elastic Constant Matrix: (Units=GPa)
#
#
# Indices 1 2 3 4 5 6 
#
# 1 -151.2711 -33.0939 -6.6857 0.0000 151.7442 0.0000
# 2 -33.0939 97.8440 29.4914 0.0000 -8.0180 0.0000
# 3 -6.6857 29.4914 166.4101 0.0000 19.1287 0.0000
# 4 0.0000 0.0000 0.0000 22.5419 0.0000 10.6762
# 5 151.7442 -8.0180 19.1287 0.0000 -49.9749 0.0000
# 6 0.0000 0.0000 0.0000 10.6762 0.0000 9.4593
#
#
#
# Elastic Compliance Matrix: (Units=1/GPa)
#
#
# Indices 1 2 3 4 5 6 
#
# 1 0.004008 0.002750 -0.001604 0.000000 0.011114 0.000000
# 2 0.002750 0.012401 -0.002699 0.000000 0.005327 0.000000
# 3 -0.001604 -0.002699 0.006641 0.000000 -0.001895 0.000000
# 4 0.000000 0.000000 0.000000 0.095309 0.000000 -0.107570
# 5 0.011114 0.005327 -0.001895 0.000000 0.012158 0.000000
# 6 0.000000 0.000000 0.000000 -0.107570 0.000000 0.227125
#
#
# Mechanical properties :
#
#
# Convention : Reuss Voigt Hill
#
# Bulk Modulus (GPa) = 50.14439 10.26739 30.20589
# Shear Modulus (GPa) = 13.60931 4.62332 9.11632
#
# Velocity S-wave (km/s) = 2.36248 1.37698 1.93357
# Velocity P-wave (km/s) = 5.29211 2.59593 4.16805
#
# Compressibility (1/GPa) = 0.01994241
#
# Stress axis : x y z
#
# Youngs Moduli (GPa) = 249.50820 80.64128 150.57860
#
# Poissons Ratio (x) = -0.22175 0.24151
# Poissons Ratio (y) = -0.68610 0.40648
# Poissons Ratio (z) = 0.40019 0.21769
#
# Static dielectric constant tensor:
#      x y z
#    x 2.288810 0.000000 0.152210 
#    y 0.000000 2.113470 0.000000 
#    z 0.152210 0.000000 2.458950 
# 
# From -- ./inp_files/29462.got.cif
#   From: 2010.05.17/outbox.cif.g08.bks.cpg/sg13_15_cif.got.tgz:29462.got - 2010.06.03 16:44:36.
