data_PCOD9232701
_publ_section_title
;
Structure prediction by ZEFSAII (Michael W. Deem and Ramdas Pophale) SiO2 
 PCOD9232701
Probable space group: P 2/C
;
_chemical_formula_sum "Si O2"
_cell_formula_units_Z 32
_cell_length_a 16.558969
_cell_length_b 6.546502
_cell_length_c 27.082117
_cell_angle_alpha 90.000000
_cell_angle_beta 35.142147
_cell_angle_gamma 90.000000
_cell_volume 1689.861931
_symmetry_space_group_name_H-M "P 2/C"
_symmetry_group_IT_number 13
_symmetry_cell_setting 'monoclinic'
loop_
_space_group_symop_operation_xyz
x,y,z
-x,y,1/2-z
-x,-y,-z
x,-y,1/2+z
loop_
_atom_site_type_symbol
_atom_site_label
_atom_site_fract_x
_atom_site_fract_y
_atom_site_fract_z
Si Si1 0.657859 0.940485 0.565941
Si Si2 0.161072 0.363562 0.465418
Si Si3 0.158942 0.327282 0.282063
Si Si4 0.840155 0.673280 0.941609
Si Si5 0.341415 0.941110 0.223944
Si Si6 0.160388 0.363012 0.873710
Si Si7 0.351939 0.618059 0.129542
Si Si8 0.647216 0.617856 0.482043
O O1 0.738596 0.820907 0.569107
O O2 0.650864 0.791046 0.521889
O O3 0.746530 0.136661 0.505113
O O4 0.499583 0.999800 0.658858
O O5 0.156729 0.515056 0.514331
O O6 0.209155 0.500468 0.395342
O O7 0.000358 0.293819 0.535840
O O8 0.155966 0.485233 0.329227
O O9 0.231744 0.452896 0.201781
O O10 0.999557 0.264368 0.350632
O O11 0.253000 0.137406 0.251563
O O12 0.766794 0.548233 0.934429
O O13 0.260293 0.821736 0.307983
O O14 0.348673 0.791500 0.172798
O O15 0.337736 0.699408 0.081041
O O16 0.499369 0.499567 0.059757
#
# Coordination Sequence:
#
# PCOD9232701 Si02
#       8
#     4   4   4   4   4   4   4   4
#     4  11  21  36  60  87 117 153 197 247 294 351
#     4   9  20  39  61  83 115 158 198 240 296 356
#     4  10  21  38  59  85 117 152 193 246 296 347
#     4  10  21  38  59  85 117 152 193 246 296 347
#     4  11  21  36  60  87 117 153 197 247 294 351
#     4   9  20  39  61  83 115 158 198 240 296 356
#     4  10  21  38  60  84 114 155 195 236 293 355
#     4  10  21  38  60  84 114 155 195 236 293 355
#
# _framework density 18.936457000000001
#
# number of rings (size 3 to 8) (size 9 to 14) (size 15 to 20)
#    0.000    2.000    2.500    0.750    0.000    4.000 
#    0.000    7.500    0.000    0.000    0.000    0.000 
#    0.000    0.000    0.000    0.000    0.000    0.000 
#
# Total GULP energy -178649.478725 kJ/mol
# GULP energy per Si atom -5582.796210 kJ/mol
# Density = 1.889336 g / cm^3
# Si number density = 18.936457 Si / 1000 Ang^3
#
#
#
# Elastic Constant Matrix: (Units=GPa)
#
#
# Indices 1 2 3 4 5 6 
#
# 1 64.0632 14.5404 30.6584 0.0000 -10.0560 0.0000
# 2 14.5404 71.2681 37.4399 0.0000 -22.8221 0.0000
# 3 30.6584 37.4399 100.5563 0.0000 -26.0853 0.0000
# 4 0.0000 0.0000 0.0000 29.2306 0.0000 -9.1720
# 5 -10.0560 -22.8221 -26.0853 0.0000 37.6791 0.0000
# 6 0.0000 0.0000 0.0000 -9.1720 0.0000 20.1019
#
#
#
# Elastic Compliance Matrix: (Units=1/GPa)
#
#
# Indices 1 2 3 4 5 6 
#
# 1 0.018357 -0.000792 -0.005065 0.000000 0.000913 0.000000
# 2 -0.000792 0.019351 -0.004849 0.000000 0.008153 0.000000
# 3 -0.005065 -0.004849 0.014848 0.000000 0.005991 0.000000
# 4 0.000000 0.000000 0.000000 0.039927 0.000000 0.018218
# 5 0.000913 0.008153 0.005991 0.000000 0.035869 0.000000
# 6 0.000000 0.000000 0.000000 0.018218 0.000000 0.058059
#
#
# Mechanical properties :
#
#
# Convention : Reuss Voigt Hill
#
# Bulk Modulus (GPa) = 32.10809 44.57388 38.34099
# Shear Modulus (GPa) = 22.91438 27.61891 25.26665
#
# Velocity S-wave (km/s) = 3.48238 3.82318 3.65675
# Velocity P-wave (km/s) = 5.75863 6.56344 6.17416
#
# Compressibility (1/GPa) = 0.03114480
#
# Stress axis : x y z
#
# Youngs Moduli (GPa) = 54.47637 51.67689 67.34777
#
# Poissons Ratio (x) = 0.04093 0.34112
# Poissons Ratio (y) = 0.04315 0.32654
# Poissons Ratio (z) = 0.27592 0.25056
#
# Static dielectric constant tensor:
#      x y z
#    x 1.645870 0.000000 -0.008160 
#    y 0.000000 1.636600 0.000000 
#    z -0.008160 0.000000 1.654070 
# 
# From -- ./inp_files/97237.got.cif
#   From: 2010.05.17/outbox.cif.g08.bks.cpg/sg13_49_cif.got.tgz:97237.got - 2010.06.03 16:44:36.
