data_PCOD9232615
_publ_section_title
;
Structure prediction by ZEFSAII (Michael W. Deem and Ramdas Pophale) SiO2 
 PCOD9232615
Probable space group: P 2/C
;
_chemical_formula_sum "Si O2"
_cell_formula_units_Z 32
_cell_length_a 17.700530
_cell_length_b 6.067332
_cell_length_c 27.941530
_cell_angle_alpha 90.000000
_cell_angle_beta 31.924367
_cell_angle_gamma 90.000000
_cell_volume 1586.810695
_symmetry_space_group_name_H-M "P 2/C"
_symmetry_group_IT_number 13
_symmetry_cell_setting 'monoclinic'
loop_
_space_group_symop_operation_xyz
x,y,z
-x,y,1/2-z
-x,-y,-z
x,-y,1/2+z
loop_
_atom_site_type_symbol
_atom_site_label
_atom_site_fract_x
_atom_site_fract_y
_atom_site_fract_z
Si Si1 0.030454 0.690091 0.445505
Si Si2 0.466013 0.340947 0.646323
Si Si3 0.784031 0.997980 0.049331
Si Si4 0.742365 0.724745 0.756785
Si Si5 0.291271 0.673938 0.995743
Si Si6 0.054058 0.616367 0.592960
Si Si7 0.491429 0.037112 0.448534
Si Si8 0.319092 0.042791 0.797383
O O1 0.913966 0.882101 0.507187
O O2 0.010332 0.573693 0.405681
O O3 0.000000 0.500000 0.500000
O O4 0.185076 0.790305 0.368747
O O5 0.323093 0.478433 0.710625
O O6 0.584017 0.522966 0.593293
O O7 0.519675 0.194949 0.573118
O O8 0.440857 0.174105 0.703373
O O9 0.744261 0.145435 0.025231
O O10 0.664519 0.999024 0.155044
O O11 0.845072 0.771767 0.994207
O O12 0.907148 0.741350 0.685268
O O13 0.636182 0.855110 0.849278
O O14 0.723160 0.836607 0.714317
O O15 0.361603 0.802158 0.002434
O O16 0.155919 0.511226 0.075627
O O17 0.500000 0.000000 0.500000
#
# Coordination Sequence:
#
# PCOD9232615 Si02
#       8
#     4   4   4   4   4   4   4   4
#     4  11  19  30  55  89 121 171 222 251 297 359
#     4  10  22  42  62  86 122 157 212 257 311 380
#     4  11  22  34  57  87 134 173 209 254 310 362
#     4  10  21  37  64  97 118 159 213 260 311 378
#     4  10  24  40  59  89 123 168 205 255 328 378
#     4  11  20  36  60  89 129 164 206 266 314 363
#     4  10  23  46  72  90 113 156 210 265 323 401
#     4  11  20  34  58  90 127 169 222 255 288 369
#
# _framework density 20.166236000000001
#
# number of rings (size 3 to 8) (size 9 to 14) (size 15 to 20)
#    0.000    1.500    3.750    1.875    0.000    2.000 
#    0.000   15.000    0.000   11.250    0.000    0.000 
#    0.000    0.000    0.000    0.000    0.000    0.000 
#
# Total GULP energy -178559.159349 kJ/mol
# GULP energy per Si atom -5579.973730 kJ/mol
# Density = 2.012034 g / cm^3
# Si number density = 20.166236 Si / 1000 Ang^3
#
#
#
# Elastic Constant Matrix: (Units=GPa)
#
#
# Indices 1 2 3 4 5 6 
#
# 1 103.5200 32.1059 40.1000 0.0000 -1.6157 0.0000
# 2 32.1059 78.5578 15.7865 0.0000 -2.1868 0.0000
# 3 40.1000 15.7865 61.9412 0.0000 -5.7123 0.0000
# 4 0.0000 0.0000 0.0000 31.2390 0.0000 -11.9010
# 5 -1.6157 -2.1868 -5.7123 0.0000 28.4062 0.0000
# 6 0.0000 0.0000 0.0000 -11.9010 0.0000 26.3112
#
#
#
# Elastic Compliance Matrix: (Units=1/GPa)
#
#
# Indices 1 2 3 4 5 6 
#
# 1 0.014096 -0.004150 -0.008175 0.000000 -0.001162 0.000000
# 2 -0.004150 0.014642 -0.000981 0.000000 0.000694 0.000000
# 3 -0.008175 -0.000981 0.022046 0.000000 0.003893 0.000000
# 4 0.000000 0.000000 0.000000 0.038676 0.000000 0.017494
# 5 -0.001162 0.000694 0.003893 0.000000 0.035974 0.000000
# 6 0.000000 0.000000 0.000000 0.017494 0.000000 0.045919
#
#
# Mechanical properties :
#
#
# Convention : Reuss Voigt Hill
#
# Bulk Modulus (GPa) = 41.37108 46.66707 44.01908
# Shear Modulus (GPa) = 24.26936 27.59306 25.93121
#
# Velocity S-wave (km/s) = 3.47286 3.70304 3.58980
# Velocity P-wave (km/s) = 6.05315 6.44009 6.24961
#
# Compressibility (1/GPa) = 0.02417147
#
# Stress axis : x y z
#
# Youngs Moduli (GPa) = 70.94400 68.29614 45.36066
#
# Poissons Ratio (x) = 0.28345 0.37081
# Poissons Ratio (y) = 0.29444 0.04449
# Poissons Ratio (z) = 0.57995 0.06699
#
# Static dielectric constant tensor:
#      x y z
#    x 1.724010 0.000000 -0.052800 
#    y 0.000000 1.753960 0.000000 
#    z -0.052800 0.000000 1.785710 
# 
# From -- ./inp_files/72201.got.cif
#   From: 2010.05.17/outbox.cif.g08.bks.cpg/sg13_37_cif.got.tgz:72201.got - 2010.06.03 16:44:36.
