data_PCOD9232318
_publ_section_title
;
Structure prediction by ZEFSAII (Michael W. Deem and Ramdas Pophale) SiO2 
 PCOD9232318
Probable space group: P 2/C
;
_chemical_formula_sum "Si O2"
_cell_formula_units_Z 28
_cell_length_a 4.898682
_cell_length_b 21.703961
_cell_length_c 11.190157
_cell_angle_alpha 90.000000
_cell_angle_beta 84.743259
_cell_angle_gamma 90.000000
_cell_volume 1184.742590
_symmetry_space_group_name_H-M "P 2/C"
_symmetry_group_IT_number 13
_symmetry_cell_setting 'monoclinic'
loop_
_space_group_symop_operation_xyz
x,y,z
-x,y,1/2-z
-x,-y,-z
x,-y,1/2+z
loop_
_atom_site_type_symbol
_atom_site_label
_atom_site_fract_x
_atom_site_fract_y
_atom_site_fract_z
Si Si1 0.793385 0.642002 0.517801
Si Si2 0.602519 0.930397 0.994246
Si Si3 0.993366 0.233030 0.036334
Si Si4 0.470368 0.806120 0.114147
Si Si5 0.871698 0.895202 0.636009
Si Si6 0.303018 0.622154 0.365838
Si Si7 0.654671 0.517625 0.620088
O O1 0.870947 0.702629 0.588267
O O2 0.489259 0.635438 0.476035
O O3 0.842440 0.576302 0.580412
O O4 0.007837 0.650440 0.400095
O O5 0.929314 0.924545 0.972800
O O6 0.442611 0.904748 0.883690
O O7 0.509920 0.879926 0.095700
O O8 0.500000 0.000000 0.000000
O O9 0.819032 0.214347 0.926004
O O10 0.305947 0.227249 0.980156
O O11 0.932142 0.177176 0.127436
O O12 0.500000 0.789227 0.250000
O O13 0.000000 0.922712 0.750000
O O14 0.500000 0.640554 0.250000
O O15 0.232621 0.549678 0.351807
O O16 0.500000 0.535720 0.750000
O O17 0.500000 0.500000 0.500000
#
# Coordination Sequence:
#
# PCOD9232318 Si02
#       7
#     4   4   4   4   4   4   4
#     4  11  21  37  58  85 116 154 200 248 299 360
#     4  10  21  38  59  88 116 143 192 243 284 349
#     4  10  22  37  55  82 116 150 197 242 282 346
#     4  10  21  37  57  82 118 157 189 236 298 349
#     4  10  21  39  59  81 114 155 188 232 291 340
#     4  10  21  36  58  86 117 153 195 248 308 367
#     4   9  20  40  62  88 122 158 200 255 317 375
#
# _framework density 23.633825999999999
#
# number of rings (size 3 to 8) (size 9 to 14) (size 15 to 20)
#    0.000    2.000    0.000    3.000    0.000    4.571 
#    0.000   14.286    0.000    0.000    0.000    0.000 
#    0.000    0.000    0.000    0.000    0.000    0.000 
#
# Total GULP energy -156134.263673 kJ/mol
# GULP energy per Si atom -5576.223703 kJ/mol
# Density = 2.358003 g / cm^3
# Si number density = 23.633826 Si / 1000 Ang^3
#
#
#
# Elastic Constant Matrix: (Units=GPa)
#
#
# Indices 1 2 3 4 5 6 
#
# 1 82.3801 14.5708 2.6237 0.0000 -0.9169 0.0000
# 2 14.5708 165.6341 -4.7637 0.0000 -18.3487 0.0000
# 3 2.6237 -4.7637 73.4946 0.0000 2.8565 0.0000
# 4 0.0000 0.0000 0.0000 -4.1466 0.0000 5.3366
# 5 -0.9169 -18.3487 2.8565 0.0000 24.4108 0.0000
# 6 0.0000 0.0000 0.0000 5.3366 0.0000 34.2354
#
#
#
# Elastic Compliance Matrix: (Units=1/GPa)
#
#
# Indices 1 2 3 4 5 6 
#
# 1 0.012352 -0.001138 -0.000502 0.000000 -0.000333 0.000000
# 2 -0.001138 0.006695 0.000282 0.000000 0.004956 0.000000
# 3 -0.000502 0.000282 0.013697 0.000000 -0.001410 0.000000
# 4 0.000000 0.000000 0.000000 -0.200864 0.000000 0.031311
# 5 -0.000333 0.004956 -0.001410 0.000000 0.044844 0.000000
# 6 0.000000 0.000000 0.000000 0.031311 0.000000 0.024329
#
#
# Mechanical properties :
#
#
# Convention : Reuss Voigt Hill
#
# Bulk Modulus (GPa) = 33.30127 38.48561 35.89344
# Shear Modulus (GPa) = -57.98988 31.50512 -13.24238
#
# Velocity S-wave (km/s) = -4.95884 3.65506 -2.36966
# Velocity P-wave (km/s) = 4.32038 5.84227 2.78086
#
# Compressibility (1/GPa) = 0.03002889
#
# Stress axis : x y z
#
# Youngs Moduli (GPa) = 80.95596 149.37232 73.00650
#
# Poissons Ratio (x) = 0.16997 0.03663
# Poissons Ratio (y) = 0.09212 -0.02058
# Poissons Ratio (z) = 0.04062 -0.04211
#
# Static dielectric constant tensor:
#      x y z
#    x 1.955050 0.000000 -0.050630 
#    y 0.000000 1.964940 0.000000 
#    z -0.050630 0.000000 1.989150 
# 
# From -- ./inp_files/26652.got.cif
#   From: 2010.05.17/outbox.cif.g08.bks.cpg/sg13_14_cif.got.tgz:26652.got - 2010.06.03 16:44:36.
