data_PCOD9232136
_publ_section_title
;
Structure prediction by ZEFSAII (Michael W. Deem and Ramdas Pophale) SiO2 
 PCOD9232136
Probable space group: P 2/C
;
_chemical_formula_sum "Si O2"
_cell_formula_units_Z 24
_cell_length_a 17.670669
_cell_length_b 12.165890
_cell_length_c 12.350808
_cell_angle_alpha 90.000000
_cell_angle_beta 155.469336
_cell_angle_gamma 90.000000
_cell_volume 1102.373752
_symmetry_space_group_name_H-M "P 2/C"
_symmetry_group_IT_number 13
_symmetry_cell_setting 'monoclinic'
loop_
_space_group_symop_operation_xyz
x,y,z
-x,y,1/2-z
-x,-y,-z
x,-y,1/2+z
loop_
_atom_site_type_symbol
_atom_site_label
_atom_site_fract_x
_atom_site_fract_y
_atom_site_fract_z
Si Si1 0.227018 0.601328 0.821149
Si Si2 0.218044 0.272460 0.519039
Si Si3 0.195468 0.176034 0.894284
Si Si4 0.707841 0.937968 0.531139
Si Si5 0.768338 0.794390 0.821577
Si Si6 0.217974 0.644550 0.253242
O O1 0.286269 0.643405 0.016123
O O2 0.296577 0.681383 0.816984
O O3 0.280714 0.477244 0.866389
O O4 0.005218 0.624207 0.536988
O O5 0.257085 0.152968 0.517019
O O6 0.281477 0.309168 0.719916
O O7 0.000000 0.276813 0.250000
O O8 0.274495 0.263073 0.912788
O O9 0.984873 0.213110 0.621795
O O10 0.295781 0.179671 0.140876
O O11 0.183319 0.049921 0.840990
O O12 0.500000 0.971994 0.250000
O O13 0.736231 0.883036 0.685303
#
# Coordination Sequence:
#
# PCOD9232136 Si02
#       6
#     4   4   4   4   4   4
#     4   8  16  31  53  85 115 140 183 240 285 331
#     4   9  19  34  57  83 112 150 191 233 283 341
#     4  10  21  34  58  85 115 152 189 237 283 338
#     4  11  24  39  58  82 117 156 194 240 284 335
#     4   9  20  37  57  85 113 150 191 235 287 338
#     4   9  17  30  54  85 113 143 187 234 286 336
#
# _framework density 21.771198999999999
#
# number of rings (size 3 to 8) (size 9 to 14) (size 15 to 20)
#    0.000    2.667    0.000    1.500    7.000    0.667 
#    0.000    0.000    0.000    8.000    0.000    0.000 
#    0.000    0.000    0.000    0.000    0.000    0.000 
#
# Total GULP energy -133812.784432 kJ/mol
# GULP energy per Si atom -5575.532685 kJ/mol
# Density = 2.172165 g / cm^3
# Si number density = 21.771199 Si / 1000 Ang^3
#
#
#
# Elastic Constant Matrix: (Units=GPa)
#
#
# Indices 1 2 3 4 5 6 
#
# 1 105.7103 83.1054 38.9307 0.0000 -46.8114 0.0000
# 2 83.1054 184.6826 7.8329 0.0000 -55.0163 0.0000
# 3 38.9307 7.8329 29.8623 0.0000 -13.3236 0.0000
# 4 0.0000 0.0000 0.0000 1.9045 0.0000 -16.4241
# 5 -46.8114 -55.0163 -13.3236 0.0000 41.2166 0.0000
# 6 0.0000 0.0000 0.0000 -16.4241 0.0000 0.2963
#
#
#
# Elastic Compliance Matrix: (Units=1/GPa)
#
#
# Indices 1 2 3 4 5 6 
#
# 1 0.045327 -0.012617 -0.047124 0.000000 0.019404 0.000000
# 2 -0.012617 0.012826 0.016745 0.000000 0.008203 0.000000
# 3 -0.047124 0.016745 0.089536 0.000000 -0.002226 0.000000
# 4 0.000000 0.000000 0.000000 -0.001101 0.000000 -0.061014
# 5 0.019404 0.008203 -0.002226 0.000000 0.056529 0.000000
# 6 0.000000 0.000000 0.000000 -0.061014 0.000000 -0.007075
#
#
# Mechanical properties :
#
#
# Convention : Reuss Voigt Hill
#
# Bulk Modulus (GPa) = 16.20886 64.44368 40.32627
# Shear Modulus (GPa) = 16.52345 21.37591 18.94968
#
# Velocity S-wave (km/s) = 2.75791 3.13684 2.95346
# Velocity P-wave (km/s) = 4.19555 6.54097 5.49486
#
# Compressibility (1/GPa) = 0.06169465
#
# Stress axis : x y z
#
# Youngs Moduli (GPa) = 22.06213 77.96780 11.16869
#
# Poissons Ratio (x) = 0.98376 0.52631
# Poissons Ratio (y) = 0.27837 -0.18702
# Poissons Ratio (z) = 1.03966 -1.30554
#
# Static dielectric constant tensor:
#      x y z
#    x 1.851940 0.000000 -0.012370 
#    y 0.000000 1.772720 0.000000 
#    z -0.012370 0.000000 1.841830 
# 
# From -- ./inp_files/33717.got.cif
#   From: 2010.05.17/outbox.cif.g08.bks.cpg/sg13_17_cif.got.tgz:33717.got - 2010.06.03 16:44:36.
