data_PCOD9232286
_publ_section_title
;
Structure prediction by ZEFSAII (Michael W. Deem and Ramdas Pophale) SiO2 
 PCOD9232286
Probable space group: P 2/C
;
_chemical_formula_sum "Si O2"
_cell_formula_units_Z 20
_cell_length_a 25.749366
_cell_length_b 7.306443
_cell_length_c 5.258488
_cell_angle_alpha 90.000000
_cell_angle_beta 95.239116
_cell_angle_gamma 90.000000
_cell_volume 985.179286
_symmetry_space_group_name_H-M "P 2/C"
_symmetry_group_IT_number 13
_symmetry_cell_setting 'monoclinic'
loop_
_space_group_symop_operation_xyz
x,y,z
-x,y,1/2-z
-x,-y,-z
x,-y,1/2+z
loop_
_atom_site_type_symbol
_atom_site_label
_atom_site_fract_x
_atom_site_fract_y
_atom_site_fract_z
Si Si1 0.269560 0.875776 0.372040
Si Si2 0.368928 0.376130 0.960444
Si Si3 0.056677 0.618720 0.228347
Si Si4 0.476720 0.793558 0.489681
Si Si5 0.152512 0.117995 0.882429
O O1 0.313404 0.723307 0.421489
O O2 0.210515 0.800757 0.369218
O O3 0.275295 0.022221 0.604067
O O4 0.374360 0.487571 0.224442
O O5 0.414786 0.224702 0.964766
O O6 0.058442 0.458659 0.442710
O O7 0.105539 0.746396 0.304457
O O8 0.000000 0.709986 0.250000
O O9 0.500000 0.705001 0.750000
O O10 0.500000 0.000000 0.500000
O O11 0.500000 0.705334 0.250000
O O12 0.149081 0.958708 0.667289
#
# Coordination Sequence:
#
# PCOD9232286 Si02
#       5
#     4   4   4   4   4
#     4  10  23  41  65  86 120 162 198 238 294 365
#     4  12  26  41  64  96 122 148 195 251 294 340
#     4  10  21  36  56  85 121 162 200 243 304 360
#     4  10  23  40  63  88 115 158 195 223 287 366
#     4  10  21  38  59  89 116 155 207 248 291 344
#
# _framework density 20.300874
#
# number of rings (size 3 to 8) (size 9 to 14) (size 15 to 20)
#    0.000    1.600    0.000    3.600    5.600    4.800 
#    0.000    0.000    0.000    0.000    0.000    0.000 
#    0.000    0.000    0.000    0.000    0.000    0.000 
#
# Total GULP energy -111698.734335 kJ/mol
# GULP energy per Si atom -5584.936717 kJ/mol
# Density = 2.025467 g / cm^3
# Si number density = 20.300874 Si / 1000 Ang^3
#
#
#
# Elastic Constant Matrix: (Units=GPa)
#
#
# Indices 1 2 3 4 5 6 
#
# 1 167.7561 48.5259 -2.7595 0.0000 -0.7511 0.0000
# 2 48.5259 49.4760 -11.4201 0.0000 -7.8612 0.0000
# 3 -2.7595 -11.4201 106.4645 0.0000 4.3647 0.0000
# 4 0.0000 0.0000 0.0000 6.7055 0.0000 24.6243
# 5 -0.7511 -7.8612 4.3647 0.0000 26.4378 0.0000
# 6 0.0000 0.0000 0.0000 24.6243 0.0000 124.3261
#
#
#
# Elastic Compliance Matrix: (Units=1/GPa)
#
#
# Indices 1 2 3 4 5 6 
#
# 1 0.008499 -0.008845 -0.000635 0.000000 -0.002284 0.000000
# 2 -0.008845 0.030865 0.002734 0.000000 0.008475 0.000000
# 3 -0.000635 0.002734 0.009703 0.000000 -0.000807 0.000000
# 4 0.000000 0.000000 0.000000 0.546951 0.000000 -0.108330
# 5 -0.002284 0.008475 -0.000807 0.000000 0.040413 0.000000
# 6 0.000000 0.000000 0.000000 -0.108330 0.000000 0.029500
#
#
# Mechanical properties :
#
#
# Convention : Reuss Voigt Hill
#
# Bulk Modulus (GPa) = 28.11003 43.59881 35.85442
# Shear Modulus (GPa) = 7.23296 50.78390 29.00843
#
# Velocity S-wave (km/s) = 1.88961 5.00699 3.78421
# Velocity P-wave (km/s) = 4.31713 7.41279 6.06577
#
# Compressibility (1/GPa) = 0.03557449
#
# Stress axis : x y z
#
# Youngs Moduli (GPa) = 117.66137 32.39935 103.06410
#
# Poissons Ratio (x) = 0.28658 0.06543
# Poissons Ratio (y) = 1.04074 -0.28178
# Poissons Ratio (z) = 0.07470 -0.08858
#
# Static dielectric constant tensor:
#      x y z
#    x 1.716310 0.000000 -0.000440 
#    y 0.000000 1.687130 0.000000 
#    z -0.000440 0.000000 1.733630 
# 
# From -- ./inp_files/6671.got.cif
#   From: 2010.05.17/outbox.cif.g08.bks.cpg/sg13_4_cif.got.tgz:6671.got - 2010.06.03 16:44:36.
