data_PCOD9232077
_publ_section_title
;
Structure prediction by ZEFSAII (Michael W. Deem and Ramdas Pophale) SiO2 
 PCOD9232077
Probable space group: P 2/C
;
_chemical_formula_sum "Si O2"
_cell_formula_units_Z 32
_cell_length_a 12.536910
_cell_length_b 24.322534
_cell_length_c 5.379633
_cell_angle_alpha 90.000000
_cell_angle_beta 77.131095
_cell_angle_gamma 90.000000
_cell_volume 1599.204937
_symmetry_space_group_name_H-M "P 2/C"
_symmetry_group_IT_number 13
_symmetry_cell_setting 'monoclinic'
loop_
_space_group_symop_operation_xyz
x,y,z
-x,y,1/2-z
-x,-y,-z
x,-y,1/2+z
loop_
_atom_site_type_symbol
_atom_site_label
_atom_site_fract_x
_atom_site_fract_y
_atom_site_fract_z
Si Si1 0.625679 0.978655 0.123491
Si Si2 0.570137 0.857403 0.969235
Si Si3 0.252855 0.235828 0.103803
Si Si4 0.818852 0.481668 0.940873
Si Si5 0.224815 0.631308 0.151650
Si Si6 0.382473 0.439902 0.922810
Si Si7 0.393848 0.328372 0.190500
Si Si8 0.125880 0.257955 0.685779
O O1 0.500000 0.996678 0.250000
O O2 0.675691 0.985340 0.373395
O O3 0.617237 0.916938 0.024889
O O4 0.500000 0.861562 0.750000
O O5 0.667467 0.814518 0.880628
O O6 0.500000 0.839742 0.250000
O O7 0.331257 0.289737 0.031105
O O8 0.175977 0.246860 0.384747
O O9 0.189583 0.228451 0.877972
O O10 0.872337 0.488121 0.644465
O O11 0.816567 0.417515 0.005753
O O12 0.696599 0.509582 0.953359
O O13 0.294480 0.595685 0.309994
O O14 0.135322 0.676754 0.257700
O O15 0.313856 0.665713 0.960933
O O16 0.500000 0.458919 0.750000
O O17 0.418289 0.390535 0.089054
O O18 0.500000 0.300709 0.250000
O O19 0.000000 0.242029 0.750000
#
# Coordination Sequence:
#
# PCOD9232077 Si02
#       8
#     4   4   4   4   4   4   4   4
#     4   9  16  28  48  77 119 172 218 239 255 303
#     4  11  21  34  55  87 130 172 199 232 283 337
#     4  11  24  40  59  86 115 148 190 243 292 346
#     4  10  21  33  50  72 103 135 165 213 263 321
#     4  10  21  36  52  75 104 137 173 225 279 334
#     4  11  20  31  50  74 110 144 175 206 260 340
#     4  11  20  33  50  77 109 147 176 210 261 341
#     4  11  24  43  65  82 102 141 196 254 307 347
#
# _framework density 20.009941999999999
#
# number of rings (size 3 to 8) (size 9 to 14) (size 15 to 20)
#    0.000    1.500    3.750    3.375    0.000    4.000 
#    0.000    0.000    0.000    3.000    0.000    0.000 
#    0.000   10.000    0.000    0.000    0.000    0.000 
#
# Total GULP energy -178183.160506 kJ/mol
# GULP energy per Si atom -5568.223766 kJ/mol
# Density = 1.996440 g / cm^3
# Si number density = 20.009942 Si / 1000 Ang^3
#
#
#
# Elastic Constant Matrix: (Units=GPa)
#
#
# Indices 1 2 3 4 5 6 
#
# 1 48.6402 21.2798 17.7928 0.0000 6.2837 0.0000
# 2 21.2798 76.5916 21.2242 0.0000 -5.7732 0.0000
# 3 17.7928 21.2242 86.9337 0.0000 19.0711 0.0000
# 4 0.0000 0.0000 0.0000 27.9407 0.0000 4.7847
# 5 6.2837 -5.7732 19.0711 0.0000 25.9923 0.0000
# 6 0.0000 0.0000 0.0000 4.7847 0.0000 7.9800
#
#
#
# Elastic Compliance Matrix: (Units=1/GPa)
#
#
# Indices 1 2 3 4 5 6 
#
# 1 0.025113 -0.006833 -0.002153 0.000000 -0.006009 0.000000
# 2 -0.006833 0.016915 -0.004669 0.000000 0.008835 0.000000
# 3 -0.002153 -0.004669 0.015729 0.000000 -0.012057 0.000000
# 4 0.000000 0.000000 0.000000 0.039885 0.000000 -0.023915
# 5 -0.006009 0.008835 -0.012057 0.000000 0.050734 0.000000
# 6 0.000000 0.000000 0.000000 -0.023915 0.000000 0.139653
#
#
# Mechanical properties :
#
#
# Convention : Reuss Voigt Hill
#
# Bulk Modulus (GPa) = 32.84684 36.97323 34.91004
# Shear Modulus (GPa) = 15.36154 22.50717 18.93436
#
# Velocity S-wave (km/s) = 2.77374 3.35744 3.07945
# Velocity P-wave (km/s) = 5.16808 5.79201 5.48892
#
# Compressibility (1/GPa) = 0.03044433
#
# Stress axis : x y z
#
# Youngs Moduli (GPa) = 39.82054 59.12055 63.57816
#
# Poissons Ratio (x) = 0.40399 0.13690
# Poissons Ratio (y) = 0.27211 0.29685
# Poissons Ratio (z) = 0.08575 0.27604
#
# Static dielectric constant tensor:
#      x y z
#    x 1.762470 0.000000 0.040360 
#    y 0.000000 1.764050 0.000000 
#    z 0.040360 0.000000 1.818280 
# 
# From -- ./inp_files/4427.got.cif
#   From: 2010.05.17/outbox.cif.g08.bks.cpg/sg13_3_cif.got.tgz:4427.got - 2010.06.03 16:44:36.
