data_PCOD9232681
_publ_section_title
;
Structure prediction by ZEFSAII (Michael W. Deem and Ramdas Pophale) SiO2 
 PCOD9232681
Probable space group: P 2/C
;
_chemical_formula_sum "Si O2"
_cell_formula_units_Z 24
_cell_length_a 15.470446
_cell_length_b 10.939607
_cell_length_c 25.381794
_cell_angle_alpha 90.000000
_cell_angle_beta 16.904180
_cell_angle_gamma 90.000000
_cell_volume 1249.048922
_symmetry_space_group_name_H-M "P 2/C"
_symmetry_group_IT_number 13
_symmetry_cell_setting 'monoclinic'
loop_
_space_group_symop_operation_xyz
x,y,z
-x,y,1/2-z
-x,-y,-z
x,-y,1/2+z
loop_
_atom_site_type_symbol
_atom_site_label
_atom_site_fract_x
_atom_site_fract_y
_atom_site_fract_z
Si Si1 0.056884 0.657598 0.510486
Si Si2 0.248342 0.941787 0.183954
Si Si3 0.500000 0.122864 0.750000
Si Si4 0.406856 0.715257 0.927413
Si Si5 0.000000 0.260390 0.750000
Si Si6 0.408068 0.993529 0.415238
Si Si7 0.188958 0.394489 0.455153
O O1 0.223500 0.785098 0.419616
O O2 0.207680 0.540685 0.449809
O O3 0.724709 0.659900 0.727266
O O4 0.045655 0.632294 0.453997
O O5 0.401591 0.923812 0.151340
O O6 0.138649 0.825252 0.214771
O O7 0.948059 0.021744 0.368304
O O8 0.500000 0.000000 0.000000
O O9 0.489212 0.043205 0.703143
O O10 0.170577 0.673690 0.020767
O O11 0.453251 0.861402 0.898283
O O12 0.269895 0.674494 0.062914
O O13 0.500000 0.348328 0.250000
#
# Coordination Sequence:
#
# PCOD9232681 Si02
#       7
#     4   4   2   4   2   4   4
#     4  10  21  38  58  83 116 153 196 245 292 355
#     4  11  19  40  58  82 120 167 204 232 281 364
#     4  12  26  34  56  96 130 146 194 240 308 360
#     4  10  21  38  60  84 116 155 197 242 298 353
#     4  10  22  36  62  88 116 162 206 238 294 354
#     4  11  25  36  59  92 128 159 190 247 304 361
#     4   9  19  38  62  81 107 155 202 240 295 348
#
# _framework density 19.21462
#
# number of rings (size 3 to 8) (size 9 to 14) (size 15 to 20)
#    0.000    1.667    4.167    1.000    8.167    1.333 
#    0.000    0.833    0.000    0.000    0.000    0.000 
#    0.000    0.000    0.000    0.000    0.000    0.000 
#
# Total GULP energy -133732.894630 kJ/mol
# GULP energy per Si atom -5572.203943 kJ/mol
# Density = 1.917089 g / cm^3
# Si number density = 19.214620 Si / 1000 Ang^3
#
#
#
# Elastic Constant Matrix: (Units=GPa)
#
#
# Indices 1 2 3 4 5 6 
#
# 1 118.1358 7.5066 42.0068 0.0000 18.4899 0.0000
# 2 7.5066 21.7512 2.0270 0.0000 9.2164 0.0000
# 3 42.0068 2.0270 96.0583 0.0000 12.7607 0.0000
# 4 0.0000 0.0000 0.0000 11.7581 0.0000 -5.5288
# 5 18.4899 9.2164 12.7607 0.0000 35.6871 0.0000
# 6 0.0000 0.0000 0.0000 -5.5288 0.0000 20.8129
#
#
#
# Elastic Compliance Matrix: (Units=1/GPa)
#
#
# Indices 1 2 3 4 5 6 
#
# 1 0.010601 -0.001765 -0.004126 0.000000 -0.003562 0.000000
# 2 -0.001765 0.051964 0.001403 0.000000 -0.013007 0.000000
# 3 -0.004126 0.001403 0.012545 0.000000 -0.002711 0.000000
# 4 0.000000 0.000000 0.000000 0.097188 0.000000 0.025817
# 5 -0.003562 -0.013007 -0.002711 0.000000 0.034195 0.000000
# 6 0.000000 0.000000 0.000000 0.025817 0.000000 0.054905
#
#
# Mechanical properties :
#
#
# Convention : Reuss Voigt Hill
#
# Bulk Modulus (GPa) = 15.12040 37.66957 26.39499
# Shear Modulus (GPa) = 17.09875 25.94527 21.52201
#
# Velocity S-wave (km/s) = 2.98633 3.67861 3.35040
# Velocity P-wave (km/s) = 4.44715 6.13923 5.36038
#
# Compressibility (1/GPa) = 0.06613580
#
# Stress axis : x y z
#
# Youngs Moduli (GPa) = 94.32664 19.24397 79.71309
#
# Poissons Ratio (x) = 0.03397 0.32887
# Poissons Ratio (y) = 0.16649 -0.11186
# Poissons Ratio (z) = 0.38916 -0.02700
#
# Static dielectric constant tensor:
#      x y z
#    x 1.720410 0.000000 -0.005600 
#    y 0.000000 1.673320 0.000000 
#    z -0.005600 0.000000 1.747530 
# 
# From -- ./inp_files/87501.got.cif
#   From: 2010.05.17/outbox.cif.g08.bks.cpg/sg13_44_cif.got.tgz:87501.got - 2010.06.03 16:44:36.
