data_PCOD9232642
_publ_section_title
;
Structure prediction by ZEFSAII (Michael W. Deem and Ramdas Pophale) SiO2 
 PCOD9232642
Probable space group: P 2/C
;
_chemical_formula_sum "Si O2"
_cell_formula_units_Z 30
_cell_length_a 15.991549
_cell_length_b 7.527805
_cell_length_c 18.324104
_cell_angle_alpha 90.000000
_cell_angle_beta 145.729634
_cell_angle_gamma 90.000000
_cell_volume 1242.127485
_symmetry_space_group_name_H-M "P 2/C"
_symmetry_group_IT_number 13
_symmetry_cell_setting 'monoclinic'
loop_
_space_group_symop_operation_xyz
x,y,z
-x,y,1/2-z
-x,-y,-z
x,-y,1/2+z
loop_
_atom_site_type_symbol
_atom_site_label
_atom_site_fract_x
_atom_site_fract_y
_atom_site_fract_z
Si Si1 0.242121 0.698139 0.441833
Si Si2 0.768873 0.367989 0.810160
Si Si3 0.662335 0.085111 0.844105
Si Si4 0.727962 0.083168 0.056635
Si Si5 0.983754 0.421983 0.840740
Si Si6 0.495177 0.710288 0.478250
Si Si7 0.000000 0.290518 0.250000
Si Si8 0.421114 0.721619 0.802254
O O1 0.157146 0.584621 0.317775
O O2 0.407817 0.652529 0.590728
O O3 0.113387 0.713660 0.410356
O O4 0.274725 0.880277 0.423254
O O5 0.757845 0.221817 0.865325
O O6 0.921542 0.407142 0.876651
O O7 0.665281 0.277679 0.673571
O O8 0.691232 0.553806 0.779830
O O9 0.500000 0.160855 0.750000
O O10 0.627270 0.893797 0.779802
O O11 0.735261 0.063978 0.975152
O O12 0.873868 0.170166 0.191790
O O13 0.596937 0.207700 0.988753
O O14 0.057371 0.601375 0.862473
O O15 0.500000 0.500000 0.500000
O O16 0.563216 0.787253 0.602234
#
# Coordination Sequence:
#
# PCOD9232642 Si02
#       8
#     4   4   4   4   4   4   2   4
#     4  10  21  38  68  97 142 176 235 291 357 422
#     4  11  23  43  70  99 146 183 239 300 367 416
#     4  12  26  44  66 106 143 182 238 290 367 448
#     4  12  24  45  69 104 139 189 235 298 368 425
#     4  10  23  41  66 110 130 183 241 297 353 436
#     4  10  21  37  72 106 132 179 244 300 348 413
#     4  10  22  42  72  92 140 178 242 292 350 426
#     4  11  23  42  70 107 140 189 235 307 360 423
#
# _framework density 24.152107999999998
#
# number of rings (size 3 to 8) (size 9 to 14) (size 15 to 20)
#    0.000    1.333    4.000    2.400    7.467    1.600 
#    7.200    1.333    0.000    0.000    0.000    0.000 
#    0.000    0.000    0.000    0.000    0.000    0.000 
#
# Total GULP energy -167176.197678 kJ/mol
# GULP energy per Si atom -5572.539923 kJ/mol
# Density = 2.409714 g / cm^3
# Si number density = 24.152108 Si / 1000 Ang^3
#
#
#
# Elastic Constant Matrix: (Units=GPa)
#
#
# Indices 1 2 3 4 5 6 
#
# 1 157.1704 51.8557 27.9711 0.0000 4.9959 0.0000
# 2 51.8557 95.6232 21.7362 0.0000 -1.3417 0.0000
# 3 27.9711 21.7362 46.3293 0.0000 -15.8527 0.0000
# 4 0.0000 0.0000 0.0000 24.5044 0.0000 -7.7523
# 5 4.9959 -1.3417 -15.8527 0.0000 53.9083 0.0000
# 6 0.0000 0.0000 0.0000 -7.7523 0.0000 40.6335
#
#
#
# Elastic Compliance Matrix: (Units=1/GPa)
#
#
# Indices 1 2 3 4 5 6 
#
# 1 0.008346 -0.003638 -0.004033 0.000000 -0.002050 0.000000
# 2 -0.003638 0.013398 -0.004292 0.000000 -0.000592 0.000000
# 3 -0.004033 -0.004292 0.029048 0.000000 0.008809 0.000000
# 4 0.000000 0.000000 0.000000 0.043430 0.000000 0.008286
# 5 -0.002050 -0.000592 0.008809 0.000000 0.021316 0.000000
# 6 0.000000 0.000000 0.000000 0.008286 0.000000 0.026191
#
#
# Mechanical properties :
#
#
# Convention : Reuss Voigt Hill
#
# Bulk Modulus (GPa) = 37.22337 55.80544 46.51441
# Shear Modulus (GPa) = 28.63535 36.97992 32.80764
#
# Velocity S-wave (km/s) = 3.44703 3.91721 3.68961
# Velocity P-wave (km/s) = 5.59358 6.60419 6.11978
#
# Compressibility (1/GPa) = 0.02686484
#
# Stress axis : x y z
#
# Youngs Moduli (GPa) = 119.82197 74.63955 34.42615
#
# Poissons Ratio (x) = 0.27152 0.13886
# Poissons Ratio (y) = 0.43588 0.14775
# Poissons Ratio (z) = 0.48330 0.32035
#
# Static dielectric constant tensor:
#      x y z
#    x 2.100670 0.000000 -0.000850 
#    y 0.000000 1.995530 0.000000 
#    z -0.000850 0.000000 2.098150 
# 
# From -- ./inp_files/68274.got.cif
#   From: 2010.05.17/outbox.cif.g08.bks.cpg/sg13_35_cif.got.tgz:68274.got - 2010.06.03 16:44:36.
