data_PCOD9232928
_publ_section_title
;
Structure prediction by ZEFSAII (Michael W. Deem and Ramdas Pophale) SiO2 
 PCOD9232928
Probable space group: P 2/C
;
_chemical_formula_sum "Si O2"
_cell_formula_units_Z 24
_cell_length_a 23.491181
_cell_length_b 6.663118
_cell_length_c 17.724090
_cell_angle_alpha 90.000000
_cell_angle_beta 157.994272
_cell_angle_gamma 90.000000
_cell_volume 1039.511183
_symmetry_space_group_name_H-M "P 2/C"
_symmetry_group_IT_number 13
_symmetry_cell_setting 'monoclinic'
loop_
_space_group_symop_operation_xyz
x,y,z
-x,y,1/2-z
-x,-y,-z
x,-y,1/2+z
loop_
_atom_site_type_symbol
_atom_site_label
_atom_site_fract_x
_atom_site_fract_y
_atom_site_fract_z
Si Si1 0.847714 0.323705 0.527307
Si Si2 0.101643 0.563227 0.053425
Si Si3 0.334489 0.547177 0.943945
Si Si4 0.335696 0.081154 0.083438
Si Si5 0.888985 0.904318 0.802273
Si Si6 0.669286 0.612196 0.388839
O O1 0.872325 0.377573 0.470864
O O2 0.712522 0.196404 0.399481
O O3 0.812041 0.543958 0.517081
O O4 0.000000 0.238148 0.750000
O O5 0.261081 0.600048 0.292164
O O6 0.000000 0.500000 0.000000
O O7 0.004494 0.749285 0.901199
O O8 0.246408 0.762497 0.830452
O O9 0.500000 0.135393 0.250000
O O10 0.513874 0.559489 0.155441
O O11 0.315814 0.504368 0.010906
O O12 0.196903 0.072113 0.852564
O O13 0.344368 0.845812 0.113486
O O14 0.000000 0.000000 0.000000
#
# Coordination Sequence:
#
# PCOD9232928 Si02
#       6
#     4   4   4   4   4   4
#     4  12  27  41  69 106 138 187 244 299 362 434
#     4  10  23  44  67 100 143 187 236 299 361 425
#     4   9  19  41  69  95 139 185 232 285 370 424
#     4  11  24  44  71 106 139 187 243 294 367 441
#     4  10  21  38  73 102 136 189 239 294 358 428
#     4  10  21  45  70  98 143 187 234 302 355 436
#
# _framework density 23.087778
#
# number of rings (size 3 to 8) (size 9 to 14) (size 15 to 20)
#    0.000    1.667    3.333    3.000    9.333    2.667 
#    0.000    0.833    0.000    0.000    0.000    0.000 
#    0.000    0.000    0.000    0.000    0.000    0.000 
#
# Total GULP energy -133793.568751 kJ/mol
# GULP energy per Si atom -5574.732031 kJ/mol
# Density = 2.303523 g / cm^3
# Si number density = 23.087778 Si / 1000 Ang^3
#
#
#
# Elastic Constant Matrix: (Units=GPa)
#
#
# Indices 1 2 3 4 5 6 
#
# 1 111.2737 39.1969 30.8429 0.0000 5.3987 0.0000
# 2 39.1969 83.2883 39.7556 0.0000 5.0307 0.0000
# 3 30.8429 39.7556 148.2242 0.0000 -9.8913 0.0000
# 4 0.0000 0.0000 0.0000 41.0436 0.0000 5.9423
# 5 5.3987 5.0307 -9.8913 0.0000 31.2975 0.0000
# 6 0.0000 0.0000 0.0000 5.9423 0.0000 33.5272
#
#
#
# Elastic Compliance Matrix: (Units=1/GPa)
#
#
# Indices 1 2 3 4 5 6 
#
# 1 0.010977 -0.004511 -0.001177 0.000000 -0.001540 0.000000
# 2 -0.004511 0.015998 -0.003547 0.000000 -0.002914 0.000000
# 3 -0.001177 -0.003547 0.008167 0.000000 0.003354 0.000000
# 4 0.000000 0.000000 0.000000 0.025006 0.000000 -0.004432
# 5 -0.001540 -0.002914 0.003354 0.000000 0.033746 0.000000
# 6 0.000000 0.000000 0.000000 -0.004432 0.000000 0.030612
#
#
# Mechanical properties :
#
#
# Convention : Reuss Voigt Hill
#
# Bulk Modulus (GPa) = 59.97991 62.48634 61.23312
# Shear Modulus (GPa) = 33.66265 36.70639 35.18452
#
# Velocity S-wave (km/s) = 3.82256 3.99163 3.90801
# Velocity P-wave (km/s) = 6.74671 6.95468 6.85148
#
# Compressibility (1/GPa) = 0.01667225
#
# Stress axis : x y z
#
# Youngs Moduli (GPa) = 91.10068 62.50599 122.45054
#
# Poissons Ratio (x) = 0.28197 0.14412
# Poissons Ratio (y) = 0.41096 0.43431
# Poissons Ratio (z) = 0.10722 0.22170
#
# Static dielectric constant tensor:
#      x y z
#    x 1.909930 0.000000 -0.032290 
#    y 0.000000 2.001030 0.000000 
#    z -0.032290 0.000000 1.928970 
# 
# From -- ./inp_files/71170.got.cif
#   From: 2010.05.17/outbox.cif.g08.bks.cpg/sg13_36_cif.got.tgz:71170.got - 2010.06.03 16:44:36.
