data_PCOD9232595
_publ_section_title
;
Structure prediction by ZEFSAII (Michael W. Deem and Ramdas Pophale) SiO2 
 PCOD9232595
Probable space group: P 2/C
;
_chemical_formula_sum "Si O2"
_cell_formula_units_Z 32
_cell_length_a 23.774922
_cell_length_b 11.760621
_cell_length_c 29.752253
_cell_angle_alpha 90.000000
_cell_angle_beta 10.382751
_cell_angle_gamma 90.000000
_cell_volume 1499.268800
_symmetry_space_group_name_H-M "P 2/C"
_symmetry_group_IT_number 13
_symmetry_cell_setting 'monoclinic'
loop_
_space_group_symop_operation_xyz
x,y,z
-x,y,1/2-z
-x,-y,-z
x,-y,1/2+z
loop_
_atom_site_type_symbol
_atom_site_label
_atom_site_fract_x
_atom_site_fract_y
_atom_site_fract_z
Si Si1 0.452540 0.654677 0.000859
Si Si2 0.853169 0.118750 0.482333
Si Si3 0.765917 0.339291 0.343137
Si Si4 0.658321 0.919207 0.836694
Si Si5 0.661203 0.478826 0.574691
Si Si6 0.357107 0.531878 0.219807
Si Si7 0.815840 0.279966 0.977061
Si Si8 0.891960 0.054459 0.786991
O O1 0.673497 0.609440 0.867228
O O2 0.561436 0.786129 0.912123
O O3 0.489426 0.574720 0.928349
O O4 0.081413 0.668339 0.301797
O O5 0.086944 0.216834 0.281022
O O6 0.978062 0.085889 0.434191
O O7 0.500000 0.156065 0.750000
O O8 0.917986 0.010840 0.400634
O O9 0.449267 0.354562 0.619882
O O10 0.019742 0.409752 0.171560
O O11 0.476407 0.959954 0.934813
O O12 0.500000 0.000000 0.000000
O O13 0.500000 0.462991 0.750000
O O14 0.465480 0.445635 0.685311
O O15 0.719605 0.612619 0.523172
O O16 0.000000 0.500000 0.500000
O O17 0.987426 0.183387 0.813920
O O18 0.500000 0.240193 0.250000
O O19 0.000000 0.010910 0.750000
#
# Coordination Sequence:
#
# PCOD9232595 Si02
#       8
#     4   4   4   4   4   4   4   4
#     4  10  21  39  64  90 124 169 210 262 324 387
#     4  10  21  41  67  90 124 172 219 260 319 392
#     4  11  23  41  65  89 126 168 213 263 321 382
#     4   8  18  38  62  90 121 162 206 259 318 376
#     4  11  24  40  60  89 126 164 209 262 322 384
#     4  12  26  39  61  91 129 168 216 265 323 397
#     4  10  22  36  62  89 125 161 208 258 322 383
#     4  10  21  37  63  93 127 167 214 266 320 380
#
# _framework density 21.343736
#
# number of rings (size 3 to 8) (size 9 to 14) (size 15 to 20)
#    0.000    1.750    1.250    2.250    7.000    2.000 
#    0.000    0.625    0.000    0.000    0.000    0.000 
#    0.000    0.000    0.000    0.000    0.000    0.000 
#
# Total GULP energy -178176.549458 kJ/mol
# GULP energy per Si atom -5568.017171 kJ/mol
# Density = 2.129516 g / cm^3
# Si number density = 21.343736 Si / 1000 Ang^3
#
#
#
# Elastic Constant Matrix: (Units=GPa)
#
#
# Indices 1 2 3 4 5 6 
#
# 1 132.5893 -0.6348 41.6782 0.0000 -32.8152 0.0000
# 2 -0.6348 45.5795 -3.7923 0.0000 3.5865 0.0000
# 3 41.6782 -3.7923 108.2906 0.0000 -25.1669 0.0000
# 4 0.0000 0.0000 0.0000 20.7433 0.0000 -5.1603
# 5 -32.8152 3.5865 -25.1669 0.0000 31.0517 0.0000
# 6 0.0000 0.0000 0.0000 -5.1603 0.0000 11.6094
#
#
#
# Elastic Compliance Matrix: (Units=1/GPa)
#
#
# Indices 1 2 3 4 5 6 
#
# 1 0.010517 -0.000770 -0.001812 0.000000 0.009735 0.000000
# 2 -0.000770 0.022202 0.000356 0.000000 -0.003090 0.000000
# 3 -0.001812 0.000356 0.011692 0.000000 0.007520 0.000000
# 4 0.000000 0.000000 0.000000 0.054202 0.000000 0.024093
# 5 0.009735 -0.003090 0.007520 0.000000 0.048943 0.000000
# 6 0.000000 0.000000 0.000000 0.024093 0.000000 0.096846
#
#
# Mechanical properties :
#
#
# Convention : Reuss Voigt Hill
#
# Bulk Modulus (GPa) = 25.02675 40.10685 32.56680
# Shear Modulus (GPa) = 19.07116 29.29475 24.18296
#
# Velocity S-wave (km/s) = 2.99243 3.70878 3.36969
# Velocity P-wave (km/s) = 4.86729 6.09686 5.51644
#
# Compressibility (1/GPa) = 0.03995725
#
# Stress axis : x y z
#
# Youngs Moduli (GPa) = 95.08026 45.04155 85.52821
#
# Poissons Ratio (x) = 0.03470 0.15502
# Poissons Ratio (y) = 0.07324 -0.03044
# Poissons Ratio (z) = 0.17233 -0.01603
#
# Static dielectric constant tensor:
#      x y z
#    x 1.815520 0.000000 -0.039510 
#    y 0.000000 1.794310 0.000000 
#    z -0.039510 0.000000 1.730730 
# 
# From -- ./inp_files/97733.got.cif
#   From: 2010.05.17/outbox.cif.g08.bks.cpg/sg13_49_cif.got.tgz:97733.got - 2010.06.03 16:44:36.
