data_PCOD9232508
_publ_section_title
;
Structure prediction by ZEFSAII (Michael W. Deem and Ramdas Pophale) SiO2 
 PCOD9232508
Probable space group: P 2/C
;
_chemical_formula_sum "Si O2"
_cell_formula_units_Z 24
_cell_length_a 16.057322
_cell_length_b 6.783961
_cell_length_c 20.072313
_cell_angle_alpha 90.000000
_cell_angle_beta 26.299914
_cell_angle_gamma 90.000000
_cell_volume 968.782027
_symmetry_space_group_name_H-M "P 2/C"
_symmetry_group_IT_number 13
_symmetry_cell_setting 'monoclinic'
loop_
_space_group_symop_operation_xyz
x,y,z
-x,y,1/2-z
-x,-y,-z
x,-y,1/2+z
loop_
_atom_site_type_symbol
_atom_site_label
_atom_site_fract_x
_atom_site_fract_y
_atom_site_fract_z
Si Si1 0.245884 0.919403 0.472571
Si Si2 0.622216 0.809810 0.507022
Si Si3 0.530421 0.607287 0.331684
Si Si4 0.936390 0.612247 0.967065
Si Si5 0.088774 0.800927 0.984513
Si Si6 0.699050 0.896376 0.307446
O O1 0.399102 0.757461 0.385261
O O2 0.068286 0.776149 0.586897
O O3 0.263525 0.073063 0.518964
O O4 0.246591 0.059132 0.404810
O O5 0.563391 0.601119 0.582288
O O6 0.736636 0.843299 0.356779
O O7 0.429432 0.918046 0.620558
O O8 0.725590 0.606877 0.150496
O O9 0.582148 0.711539 0.363508
O O10 0.083356 0.684021 0.917961
O O11 0.955021 0.385559 0.934720
O O12 0.891240 0.914526 0.128779
#
# Coordination Sequence:
#
# PCOD9232508 Si02
#       6
#     4   4   4   4   4   4
#     4  11  22  36  56  85 119 155 194 239 292 348
#     4  10  21  40  62  86 116 155 199 242 288 350
#     4  10  21  37  60  87 117 154 195 241 293 354
#     4  10  22  38  57  87 120 154 196 243 299 353
#     4  10  22  39  59  85 119 155 194 246 298 348
#     4   9  21  40  62  86 115 154 200 241 290 349
#
# _framework density 24.773372999999999
#
# number of rings (size 3 to 8) (size 9 to 14) (size 15 to 20)
#    0.000    2.000    0.000    2.500    0.000   10.000 
#    0.000    1.667    0.000    0.000    0.000    0.000 
#    0.000    0.000    0.000    0.000    0.000    0.000 
#
# Total GULP energy -133779.401979 kJ/mol
# GULP energy per Si atom -5574.141749 kJ/mol
# Density = 2.471699 g / cm^3
# Si number density = 24.773373 Si / 1000 Ang^3
#
#
#
# Elastic Constant Matrix: (Units=GPa)
#
#
# Indices 1 2 3 4 5 6 
#
# 1 190.1860 55.6967 26.6575 0.0000 -4.8153 0.0000
# 2 55.6967 164.4300 16.2509 0.0000 -12.2541 0.0000
# 3 26.6575 16.2509 51.8789 0.0000 2.8796 0.0000
# 4 0.0000 0.0000 0.0000 29.8033 0.0000 -19.2348
# 5 -4.8153 -12.2541 2.8796 0.0000 25.7040 0.0000
# 6 0.0000 0.0000 0.0000 -19.2348 0.0000 43.5802
#
#
#
# Elastic Compliance Matrix: (Units=1/GPa)
#
#
# Indices 1 2 3 4 5 6 
#
# 1 0.006166 -0.001782 -0.002643 0.000000 0.000601 0.000000
# 2 -0.001782 0.007070 -0.001476 0.000000 0.003202 0.000000
# 3 -0.002643 -0.001476 0.021295 0.000000 -0.003585 0.000000
# 4 0.000000 0.000000 0.000000 0.046918 0.000000 0.020708
# 5 0.000601 0.003202 -0.003585 0.000000 0.040945 0.000000
# 6 0.000000 0.000000 0.000000 0.020708 0.000000 0.032086
#
#
# Mechanical properties :
#
#
# Convention : Reuss Voigt Hill
#
# Bulk Modulus (GPa) = 44.00114 67.07834 55.53974
# Shear Modulus (GPa) = 28.75868 40.34347 34.55108
#
# Velocity S-wave (km/s) = 3.41085 4.03985 3.73860
# Velocity P-wave (km/s) = 5.77165 6.99257 6.41124
#
# Compressibility (1/GPa) = 0.02272668
#
# Stress axis : x y z
#
# Youngs Moduli (GPa) = 162.18704 141.44431 46.95864
#
# Poissons Ratio (x) = 0.25211 0.12412
# Poissons Ratio (y) = 0.28909 0.06933
# Poissons Ratio (z) = 0.42870 0.20884
#
# Static dielectric constant tensor:
#      x y z
#    x 2.031050 0.000000 0.024850 
#    y 0.000000 2.116920 0.000000 
#    z 0.024850 0.000000 2.081290 
# 
# From -- ./inp_files/87684.got.cif
#   From: 2010.05.17/outbox.cif.g08.bks.cpg/sg13_44_cif.got.tgz:87684.got - 2010.06.03 16:44:36.
