data_PCOD9232183
_publ_section_title
;
Structure prediction by ZEFSAII (Michael W. Deem and Ramdas Pophale) SiO2 
 PCOD9232183
Probable space group: P 2/C
;
_chemical_formula_sum "Si O2"
_cell_formula_units_Z 28
_cell_length_a 18.189715
_cell_length_b 10.554517
_cell_length_c 20.440176
_cell_angle_alpha 90.000000
_cell_angle_beta 20.360506
_cell_angle_gamma 90.000000
_cell_volume 1365.323745
_symmetry_space_group_name_H-M "P 2/C"
_symmetry_group_IT_number 13
_symmetry_cell_setting 'monoclinic'
loop_
_space_group_symop_operation_xyz
x,y,z
-x,y,1/2-z
-x,-y,-z
x,-y,1/2+z
loop_
_atom_site_type_symbol
_atom_site_label
_atom_site_fract_x
_atom_site_fract_y
_atom_site_fract_z
Si Si1 0.692158 0.210949 0.466634
Si Si2 0.411770 0.785924 0.645283
Si Si3 0.455472 0.382175 0.584379
Si Si4 0.019639 0.720714 0.439503
Si Si5 0.078730 0.914974 0.599041
Si Si6 0.888352 0.803885 0.280153
Si Si7 0.270228 0.058071 0.796598
O O1 0.599857 0.352088 0.527861
O O2 0.774413 0.154224 0.468164
O O3 0.494252 0.125137 0.614993
O O4 0.886614 0.184062 0.255814
O O5 0.483880 0.731517 0.516047
O O6 0.634431 0.796098 0.498141
O O7 0.316130 0.926020 0.723756
O O8 0.219833 0.704245 0.836381
O O9 0.500000 0.500000 0.500000
O O10 0.205487 0.373358 0.808516
O O11 0.036381 0.731368 0.347521
O O12 0.108082 0.856153 0.391574
O O13 0.191989 0.943524 0.436674
O O14 0.970390 0.050195 0.707046
O O15 0.000000 0.747018 0.250000
#
# Coordination Sequence:
#
# PCOD9232183 Si02
#       7
#     4   4   4   4   4   4   4
#     4  10  21  35  57  87 121 157 194 249 317 361
#     4  11  21  35  59  86 121 160 189 245 312 366
#     4  10  24  42  61  83 117 164 224 262 286 341
#     4  10  23  36  58  89 115 157 198 242 316 371
#     4  11  19  32  55  90 123 151 187 236 316 383
#     4  11  21  33  52  86 127 154 185 233 305 391
#     4  11  20  32  55  91 126 147 183 243 312 394
#
# _framework density 20.507954999999999
#
# number of rings (size 3 to 8) (size 9 to 14) (size 15 to 20)
#    0.000    1.429    4.286    1.714    2.000    2.857 
#    0.000    0.000   12.571    0.000    7.429    0.000 
#    0.000    0.000    0.000    0.000    0.000    0.000 
#
# Total GULP energy -156001.064572 kJ/mol
# GULP energy per Si atom -5571.466592 kJ/mol
# Density = 2.046128 g / cm^3
# Si number density = 20.507955 Si / 1000 Ang^3
#
#
#
# Elastic Constant Matrix: (Units=GPa)
#
#
# Indices 1 2 3 4 5 6 
#
# 1 87.3594 10.7786 45.5637 0.0000 -14.9293 0.0000
# 2 10.7786 29.3762 19.6782 0.0000 0.6707 0.0000
# 3 45.5637 19.6782 146.1797 0.0000 -7.7717 0.0000
# 4 0.0000 0.0000 0.0000 12.3687 0.0000 5.6809
# 5 -14.9293 0.6707 -7.7717 0.0000 32.0047 0.0000
# 6 0.0000 0.0000 0.0000 5.6809 0.0000 19.7645
#
#
#
# Elastic Compliance Matrix: (Units=1/GPa)
#
#
# Indices 1 2 3 4 5 6 
#
# 1 0.014894 -0.002978 -0.003919 0.000000 0.006058 0.000000
# 2 -0.002978 0.038142 -0.004379 0.000000 -0.003252 0.000000
# 3 -0.003919 -0.004379 0.008672 0.000000 0.000369 0.000000
# 4 0.000000 0.000000 0.000000 0.093146 0.000000 -0.026773
# 5 0.006058 -0.003252 0.000369 0.000000 0.034229 0.000000
# 6 0.000000 0.000000 0.000000 -0.026773 0.000000 0.058291
#
#
# Mechanical properties :
#
#
# Convention : Reuss Voigt Hill
#
# Bulk Modulus (GPa) = 25.53983 46.10625 35.82304
# Shear Modulus (GPa) = 17.66928 25.28724 21.47826
#
# Velocity S-wave (km/s) = 2.93846 3.51528 3.23973
# Velocity P-wave (km/s) = 4.89830 6.24558 5.61251
#
# Compressibility (1/GPa) = 0.03915453
#
# Stress axis : x y z
#
# Youngs Moduli (GPa) = 67.14145 26.21815 115.31728
#
# Poissons Ratio (x) = 0.07807 0.45198
# Poissons Ratio (y) = 0.19992 0.50500
# Poissons Ratio (z) = 0.26316 0.11482
#
# Static dielectric constant tensor:
#      x y z
#    x 1.812100 0.000000 -0.017920 
#    y 0.000000 1.800790 0.000000 
#    z -0.017920 0.000000 1.775610 
# 
# From -- ./inp_files/81041.got.cif
#   From: 2010.05.17/outbox.cif.g08.bks.cpg/sg13_41_cif.got.tgz:81041.got - 2010.06.03 16:44:36.
