data_PCOD9232781
_publ_section_title
;
Structure prediction by ZEFSAII (Michael W. Deem and Ramdas Pophale) SiO2 
 PCOD9232781
Probable space group: P 2/C
;
_chemical_formula_sum "Si O2"
_cell_formula_units_Z 28
_cell_length_a 11.247629
_cell_length_b 8.179695
_cell_length_c 20.026694
_cell_angle_alpha 90.000000
_cell_angle_beta 48.997364
_cell_angle_gamma 90.000000
_cell_volume 1390.496335
_symmetry_space_group_name_H-M "P 2/C"
_symmetry_group_IT_number 13
_symmetry_cell_setting 'monoclinic'
loop_
_space_group_symop_operation_xyz
x,y,z
-x,y,1/2-z
-x,-y,-z
x,-y,1/2+z
loop_
_atom_site_type_symbol
_atom_site_label
_atom_site_fract_x
_atom_site_fract_y
_atom_site_fract_z
Si Si1 0.801030 0.680594 0.446746
Si Si2 0.244718 0.998662 0.218314
Si Si3 0.037215 0.310387 0.481020
Si Si4 0.801196 0.309387 0.453826
Si Si5 0.000000 0.748614 0.750000
Si Si6 0.396079 0.003295 0.451004
Si Si7 0.672480 0.879560 0.670429
Si Si8 0.000000 0.252078 0.750000
O O1 0.929323 0.740354 0.455018
O O2 0.740885 0.496984 0.487672
O O3 0.673621 0.827755 0.492022
O O4 0.892154 0.662222 0.344083
O O5 0.144473 0.151259 0.229029
O O6 0.414860 0.994158 0.120265
O O7 0.275072 0.013229 0.286021
O O8 0.127910 0.853060 0.243335
O O9 0.201359 0.262659 0.386201
O O10 0.000000 0.500000 0.500000
O O11 0.902270 0.249526 0.481090
O O12 0.916217 0.321754 0.347388
O O13 0.676042 0.162704 0.491673
O O14 0.344750 0.020527 0.391842
O O15 0.500000 0.810762 0.750000
#
# Coordination Sequence:
#
# PCOD9232781 Si02
#       8
#     4   4   4   4   2   4   4   2
#     4  10  23  40  60  92 124 156 204 252 302 354
#     4  10  21  38  61  93 120 161 207 243 309 361
#     4   9  19  36  62  88 120 157 207 249 290 361
#     4  11  22  39  63  91 120 161 206 244 304 364
#     4  11  21  36  62  89 121 164 199 245 300 373
#     4  10  22  39  65  89 122 160 201 257 299 361
#     4   9  18  35  62  92 121 157 203 254 306 353
#     4  11  23  38  62  87 127 162 199 253 298 373
#
# _framework density 20.136693999999999
#
# number of rings (size 3 to 8) (size 9 to 14) (size 15 to 20)
#    0.000    2.000    1.429    2.143    2.000    3.429 
#    0.000    4.286    9.429    4.286    0.000    0.000 
#    0.000    0.000    0.000    0.000    0.000    0.000 
#
# Total GULP energy -155871.404119 kJ/mol
# GULP energy per Si atom -5566.835861 kJ/mol
# Density = 2.009086 g / cm^3
# Si number density = 20.136694 Si / 1000 Ang^3
#
#
#
# Elastic Constant Matrix: (Units=GPa)
#
#
# Indices 1 2 3 4 5 6 
#
# 1 90.5011 37.2801 32.3709 0.0000 -8.7452 0.0000
# 2 37.2801 112.7187 63.0541 0.0000 -25.4542 0.0000
# 3 32.3709 63.0541 115.1294 0.0000 -13.9560 0.0000
# 4 0.0000 0.0000 0.0000 22.6061 0.0000 24.5343
# 5 -8.7452 -25.4542 -13.9560 0.0000 39.3244 0.0000
# 6 0.0000 0.0000 0.0000 24.5343 0.0000 92.7921
#
#
#
# Elastic Compliance Matrix: (Units=1/GPa)
#
#
# Indices 1 2 3 4 5 6 
#
# 1 0.013071 -0.003236 -0.001886 0.000000 0.000143 0.000000
# 2 -0.003236 0.015137 -0.006562 0.000000 0.006749 0.000000
# 3 -0.001886 -0.006562 0.012795 0.000000 -0.000126 0.000000
# 4 0.000000 0.000000 0.000000 0.062038 0.000000 -0.016403
# 5 0.000143 0.006749 -0.000126 0.000000 0.029785 0.000000
# 6 0.000000 0.000000 0.000000 -0.016403 0.000000 0.015114
#
#
# Mechanical properties :
#
#
# Convention : Reuss Voigt Hill
#
# Bulk Modulus (GPa) = 56.70494 64.86217 60.78356
# Shear Modulus (GPa) = 28.21916 43.32081 35.76998
#
# Velocity S-wave (km/s) = 3.74756 4.64328 4.21926
# Velocity P-wave (km/s) = 6.85177 7.81202 7.34760
#
# Compressibility (1/GPa) = 0.01763515
#
# Stress axis : x y z
#
# Youngs Moduli (GPa) = 76.50638 66.06393 78.15741
#
# Poissons Ratio (x) = 0.21378 0.14737
# Poissons Ratio (y) = 0.24757 0.51288
# Poissons Ratio (z) = 0.14425 0.43352
#
# Static dielectric constant tensor:
#      x y z
#    x 1.172750 0.000000 0.435130 
#    y 0.000000 1.736110 0.000000 
#    z 0.435130 0.000000 1.450120 
# 
# From -- ./inp_files/78239.got.cif
#   From: 2010.05.17/outbox.cif.g08.bks.cpg/sg13_40_cif.got.tgz:78239.got - 2010.06.03 16:44:36.
