data_PCOD9232334
_publ_section_title
;
Structure prediction by ZEFSAII (Michael W. Deem and Ramdas Pophale) SiO2 
 PCOD9232334
Probable space group: P 2/C
;
_chemical_formula_sum "Si O2"
_cell_formula_units_Z 32
_cell_length_a 14.693077
_cell_length_b 15.602578
_cell_length_c 21.833081
_cell_angle_alpha 90.000000
_cell_angle_beta 161.567256
_cell_angle_gamma 90.000000
_cell_volume 1582.610355
_symmetry_space_group_name_H-M "P 2/C"
_symmetry_group_IT_number 13
_symmetry_cell_setting 'monoclinic'
loop_
_space_group_symop_operation_xyz
x,y,z
-x,y,1/2-z
-x,-y,-z
x,-y,1/2+z
loop_
_atom_site_type_symbol
_atom_site_label
_atom_site_fract_x
_atom_site_fract_y
_atom_site_fract_z
Si Si1 0.490959 0.243766 0.109978
Si Si2 0.508970 0.153547 0.996583
Si Si3 0.430276 0.779542 0.096077
Si Si4 0.875019 0.898789 0.055423
Si Si5 0.344271 0.603176 0.216931
Si Si6 0.973137 0.861613 0.981064
Si Si7 0.961188 0.920757 0.603381
Si Si8 0.355504 0.594422 0.725393
O O1 0.470183 0.224350 0.025024
O O2 0.478196 0.341221 0.123183
O O3 0.788940 0.210893 0.329552
O O4 0.272697 0.177727 0.002549
O O5 0.735465 0.086990 0.169038
O O6 0.626403 0.196326 0.010111
O O7 0.209965 0.110401 0.786781
O O8 0.497755 0.679208 0.145608
O O9 0.718306 0.825475 0.304110
O O10 0.188745 0.829227 0.980598
O O11 0.832393 0.885167 0.955792
O O12 0.787683 0.996267 0.016042
O O13 0.500000 0.610484 0.250000
O O14 0.394723 0.504874 0.268845
O O15 0.992885 0.612273 0.995230
O O16 0.995041 0.931743 0.941448
O O17 0.500000 0.606356 0.750000
#
# Coordination Sequence:
#
# PCOD9232334 Si02
#       8
#     4   4   4   4   4   4   4   4
#     4  11  22  39  61  88 124 163 204 260 314 374
#     4  10  25  40  57  82 120 170 213 256 309 372
#     4  11  22  39  61  88 124 163 204 260 314 374
#     4  11  23  39  59  85 120 164 212 260 313 372
#     4  10  21  39  68 101 129 161 206 261 322 384
#     4  10  21  36  59  88 118 154 203 264 315 366
#     4  11  23  39  59  85 120 164 212 260 313 372
#     4  10  21  39  68 101 129 161 206 261 322 384
#
# _framework density 20.219757999999999
#
# number of rings (size 3 to 8) (size 9 to 14) (size 15 to 20)
#    0.000    1.500    1.250    3.750    3.500    8.000 
#    0.000    0.625    0.000    3.000    0.000    0.000 
#    0.000    0.000    0.000    0.000    0.000    0.000 
#
# Total GULP energy -178517.652478 kJ/mol
# GULP energy per Si atom -5578.676640 kJ/mol
# Density = 2.017374 g / cm^3
# Si number density = 20.219758 Si / 1000 Ang^3
#
#
#
# Elastic Constant Matrix: (Units=GPa)
#
#
# Indices 1 2 3 4 5 6 
#
# 1 113.9815 39.4256 48.2064 0.0000 -7.7334 0.0000
# 2 39.4256 115.0984 31.8029 0.0000 -2.7477 0.0000
# 3 48.2064 31.8029 63.7553 0.0000 -2.7706 0.0000
# 4 0.0000 0.0000 0.0000 9.6812 0.0000 7.0277
# 5 -7.7334 -2.7477 -2.7706 0.0000 39.5677 0.0000
# 6 0.0000 0.0000 0.0000 7.0277 0.0000 16.4017
#
#
#
# Elastic Compliance Matrix: (Units=1/GPa)
#
#
# Indices 1 2 3 4 5 6 
#
# 1 0.013441 -0.002058 -0.009056 0.000000 0.001850 0.000000
# 2 -0.002058 0.010397 -0.003628 0.000000 0.000066 0.000000
# 3 -0.009056 -0.003628 0.024328 0.000000 -0.000318 0.000000
# 4 0.000000 0.000000 0.000000 0.149925 0.000000 -0.064239
# 5 0.001850 0.000066 -0.000318 0.000000 0.025617 0.000000
# 6 0.000000 0.000000 0.000000 -0.064239 0.000000 0.088494
#
#
# Mechanical properties :
#
#
# Convention : Reuss Voigt Hill
#
# Bulk Modulus (GPa) = 53.52365 59.07834 56.30100
# Shear Modulus (GPa) = 14.37147 24.69013 19.53080
#
# Velocity S-wave (km/s) = 2.66891 3.49820 3.11131
# Velocity P-wave (km/s) = 6.00215 6.75264 6.38842
#
# Compressibility (1/GPa) = 0.01868333
#
# Stress axis : x y z
#
# Youngs Moduli (GPa) = 74.40152 96.18218 41.10482
#
# Poissons Ratio (x) = 0.19790 0.37224
# Poissons Ratio (y) = 0.15308 0.14912
# Poissons Ratio (z) = 0.67377 0.34892
#
# Static dielectric constant tensor:
#      x y z
#    x 1.769220 0.000000 0.058120 
#    y 0.000000 1.744460 0.000000 
#    z 0.058120 0.000000 1.724460 
# 
# From -- ./inp_files/80403.got.cif
#   From: 2010.05.17/outbox.cif.g08.bks.cpg/sg13_41_cif.got.tgz:80403.got - 2010.06.03 16:44:36.
