data_PCOD9232003
_publ_section_title
;
Structure prediction by ZEFSAII (Michael W. Deem and Ramdas Pophale) SiO2 
 PCOD9232003
Probable space group: P 2/C
;
_chemical_formula_sum "Si O2"
_cell_formula_units_Z 20
_cell_length_a 6.367532
_cell_length_b 17.966937
_cell_length_c 7.706078
_cell_angle_alpha 90.000000
_cell_angle_beta 88.933263
_cell_angle_gamma 90.000000
_cell_volume 881.461417
_symmetry_space_group_name_H-M "P 2/C"
_symmetry_group_IT_number 13
_symmetry_cell_setting 'monoclinic'
loop_
_space_group_symop_operation_xyz
x,y,z
-x,y,1/2-z
-x,-y,-z
x,-y,1/2+z
loop_
_atom_site_type_symbol
_atom_site_label
_atom_site_fract_x
_atom_site_fract_y
_atom_site_fract_z
Si Si1 0.500000 0.670427 0.250000
Si Si2 0.315334 0.201098 0.510544
Si Si3 0.000000 0.508007 0.250000
Si Si4 0.605975 0.924979 0.064837
Si Si5 0.000000 0.734655 0.750000
Si Si6 0.808758 0.604410 0.970323
Si Si7 0.000000 0.894087 0.250000
O O1 0.627904 0.726758 0.374373
O O2 0.378119 0.620105 0.392803
O O3 0.520469 0.149123 0.470209
O O4 0.151327 0.155762 0.630991
O O5 0.185319 0.221324 0.341502
O O6 0.023871 0.563654 0.409770
O O7 0.192394 0.452118 0.195189
O O8 0.500000 0.912688 0.250000
O O9 0.849878 0.934645 0.111205
O O10 0.500000 0.000000 0.000000
O O11 0.108712 0.681893 0.605004
#
# Coordination Sequence:
#
# PCOD9232003 Si02
#       7
#     2   4   2   4   2   4   2
#     4  12  22  42  66  98 136 174 232 286 346 408
#     4  11  23  41  64  97 134 179 228 287 346 414
#     4   9  20  45  64  93 135 184 226 266 359 414
#     4  10  23  41  64  96 130 182 235 282 343 416
#     4  11  24  39  66 103 135 178 230 286 357 400
#     4  10  22  39  67  95 135 180 222 286 340 424
#     4  10  20  44  66  86 138 188 214 294 344 400
#
# _framework density 22.689592000000001
#
# number of rings (size 3 to 8) (size 9 to 14) (size 15 to 20)
#    0.000    1.600    3.000    2.400    0.000    7.200 
#    0.000    0.000    0.000    0.000    0.000    0.000 
#    0.000    0.000    0.000    0.000    0.000    0.000 
#
# Total GULP energy -111409.367689 kJ/mol
# GULP energy per Si atom -5570.468384 kJ/mol
# Density = 2.263795 g / cm^3
# Si number density = 22.689592 Si / 1000 Ang^3
#
#
#
# Elastic Constant Matrix: (Units=GPa)
#
#
# Indices 1 2 3 4 5 6 
#
# 1 109.5279 55.2157 50.0115 0.0000 11.0359 0.0000
# 2 55.2157 97.1832 53.3521 0.0000 15.0472 0.0000
# 3 50.0115 53.3521 113.4155 0.0000 7.0721 0.0000
# 4 0.0000 0.0000 0.0000 15.8895 0.0000 -53.0925
# 5 11.0359 15.0472 7.0721 0.0000 55.2744 0.0000
# 6 0.0000 0.0000 0.0000 -53.0925 0.0000 -85.5271
#
#
#
# Elastic Compliance Matrix: (Units=1/GPa)
#
#
# Indices 1 2 3 4 5 6 
#
# 1 0.013624 -0.005874 -0.003200 0.000000 -0.000712 0.000000
# 2 -0.005874 0.016904 -0.005189 0.000000 -0.002765 0.000000
# 3 -0.003200 -0.005189 0.012642 0.000000 0.000434 0.000000
# 4 0.000000 0.000000 0.000000 0.020472 0.000000 -0.012708
# 5 -0.000712 -0.002765 0.000434 0.000000 0.018931 0.000000
# 6 0.000000 0.000000 0.000000 -0.012708 0.000000 -0.003803
#
#
# Mechanical properties :
#
#
# Convention : Reuss Voigt Hill
#
# Bulk Modulus (GPa) = 68.28752 70.80947 69.54849
# Shear Modulus (GPa) = 44.57208 7.89719 26.23463
#
# Velocity S-wave (km/s) = 4.43700 1.86764 3.40404
# Velocity P-wave (km/s) = 7.51072 5.99387 6.79476
#
# Compressibility (1/GPa) = 0.01464397
#
# Stress axis : x y z
#
# Youngs Moduli (GPa) = 73.39942 59.15744 79.09862
#
# Poissons Ratio (x) = 0.34747 0.25314
# Poissons Ratio (y) = 0.43112 0.41048
# Poissons Ratio (z) = 0.23490 0.30700
#
# Static dielectric constant tensor:
#      x y z
#    x 1.901740 0.000000 0.050760 
#    y 0.000000 1.790510 0.000000 
#    z 0.050760 0.000000 1.974990 
# 
# From -- ./inp_files/9541.got.cif
#   From: 2010.05.17/outbox.cif.g08.bks.cpg/sg13_5_cif.got.tgz:9541.got - 2010.06.03 16:44:36.
