data_PCOD9232905
_publ_section_title
;
Structure prediction by ZEFSAII (Michael W. Deem and Ramdas Pophale) SiO2 
 PCOD9232905
Probable space group: P 2/C
;
_chemical_formula_sum "Si O2"
_cell_formula_units_Z 32
_cell_length_a 14.431253
_cell_length_b 9.903690
_cell_length_c 14.456261
_cell_angle_alpha 90.000000
_cell_angle_beta 45.760350
_cell_angle_gamma 90.000000
_cell_volume 1480.231353
_symmetry_space_group_name_H-M "P 2/C"
_symmetry_group_IT_number 13
_symmetry_cell_setting 'monoclinic'
loop_
_space_group_symop_operation_xyz
x,y,z
-x,y,1/2-z
-x,-y,-z
x,-y,1/2+z
loop_
_atom_site_type_symbol
_atom_site_label
_atom_site_fract_x
_atom_site_fract_y
_atom_site_fract_z
Si Si1 0.550585 0.910951 0.880999
Si Si2 0.465070 0.478260 0.870335
Si Si3 0.333002 0.626682 0.640998
Si Si4 0.796296 0.062826 0.102030
Si Si5 0.086670 0.266143 0.771556
Si Si6 0.951191 0.818787 0.998700
Si Si7 0.312482 0.250654 0.474188
Si Si8 0.967149 0.426173 0.168050
O O1 0.623240 0.776438 0.864731
O O2 0.660209 0.978427 0.741847
O O3 0.425084 0.856817 0.915292
O O4 0.500000 0.000000 0.000000
O O5 0.500000 0.406975 0.750000
O O6 0.589051 0.528863 0.842917
O O7 0.382022 0.610404 0.899304
O O8 0.379737 0.399945 0.004031
O O9 0.181681 0.601771 0.752328
O O10 0.771216 0.184788 0.048471
O O11 0.903480 0.120998 0.098610
O O12 0.861485 0.930044 0.012762
O O13 0.226374 0.279924 0.625340
O O14 0.020954 0.411335 0.841358
O O15 0.000000 0.202706 0.750000
O O16 0.092701 0.188892 0.863513
O O17 0.949845 0.670143 0.955957
O O18 0.000000 0.385463 0.250000
#
# Coordination Sequence:
#
# PCOD9232905 Si02
#       8
#     4   4   4   4   4   4   4   4
#     4  11  23  41  67  90 131 177 219 281 342 394
#     4  10  21  38  67  98 127 172 219 282 350 397
#     4  10  21  42  63  95 133 166 226 281 331 416
#     4  11  23  42  64  95 130 173 232 272 330 409
#     4  11  22  41  68  99 133 175 233 277 339 419
#     4  11  24  43  64  96 133 180 222 279 336 401
#     4  11  21  40  68  97 128 173 226 276 341 409
#     4  11  24  44  64  96 139 178 221 280 351 400
#
# _framework density 21.618241999999999
#
# number of rings (size 3 to 8) (size 9 to 14) (size 15 to 20)
#    0.000    1.250    3.750    3.000    0.000    1.000 
#    6.750    1.250    0.000    0.000    0.000    0.000 
#    0.000    0.000    0.000    0.000    0.000    0.000 
#
# Total GULP energy -178822.053484 kJ/mol
# GULP energy per Si atom -5588.189171 kJ/mol
# Density = 2.156904 g / cm^3
# Si number density = 21.618242 Si / 1000 Ang^3
#
#
#
# Elastic Constant Matrix: (Units=GPa)
#
#
# Indices 1 2 3 4 5 6 
#
# 1 57.2441 17.4291 11.4170 0.0000 2.2629 0.0000
# 2 17.4291 38.6366 3.8373 0.0000 -2.3545 0.0000
# 3 11.4170 3.8373 88.5117 0.0000 5.7532 0.0000
# 4 0.0000 0.0000 0.0000 24.5946 0.0000 12.6956
# 5 2.2629 -2.3545 5.7532 0.0000 34.1737 0.0000
# 6 0.0000 0.0000 0.0000 12.6956 0.0000 8.9328
#
#
#
# Elastic Compliance Matrix: (Units=1/GPa)
#
#
# Indices 1 2 3 4 5 6 
#
# 1 0.020788 -0.009262 -0.002173 0.000000 -0.001649 0.000000
# 2 -0.009262 0.030257 -0.000296 0.000000 0.002748 0.000000
# 3 -0.002173 -0.000296 0.011711 0.000000 -0.001848 0.000000
# 4 0.000000 0.000000 0.000000 0.152646 0.000000 -0.216946
# 5 -0.001649 0.002748 -0.001848 0.000000 0.029872 0.000000
# 6 0.000000 0.000000 0.000000 -0.216946 0.000000 0.420279
#
#
# Mechanical properties :
#
#
# Convention : Reuss Voigt Hill
#
# Bulk Modulus (GPa) = 25.44845 27.75104 26.59974
# Shear Modulus (GPa) = 7.12137 23.65414 15.38776
#
# Velocity S-wave (km/s) = 1.81695 3.31142 2.67084
# Velocity P-wave (km/s) = 4.02480 5.24265 4.67357
#
# Compressibility (1/GPa) = 0.03929513
#
# Stress axis : x y z
#
# Youngs Moduli (GPa) = 48.10565 33.05004 85.38888
#
# Poissons Ratio (x) = 0.30611 0.18552
# Poissons Ratio (y) = 0.44556 0.02525
# Poissons Ratio (z) = 0.10452 0.00977
#
# Static dielectric constant tensor:
#      x y z
#    x 1.791430 0.000000 -0.009560 
#    y 0.000000 1.787020 0.000000 
#    z -0.009560 0.000000 1.823730 
# 
# From -- ./inp_files/53679.got.cif
#   From: 2010.05.17/outbox.cif.g08.bks.cpg/sg13_27_cif.got.tgz:53679.got - 2010.06.03 16:44:36.
