data_PCOD9232511
_publ_section_title
;
Structure prediction by ZEFSAII (Michael W. Deem and Ramdas Pophale) SiO2 
 PCOD9232511
Probable space group: P 2/C
;
_chemical_formula_sum "Si O2"
_cell_formula_units_Z 20
_cell_length_a 12.405124
_cell_length_b 5.211380
_cell_length_c 24.098853
_cell_angle_alpha 90.000000
_cell_angle_beta 35.908843
_cell_angle_gamma 90.000000
_cell_volume 913.726655
_symmetry_space_group_name_H-M "P 2/C"
_symmetry_group_IT_number 13
_symmetry_cell_setting 'monoclinic'
loop_
_space_group_symop_operation_xyz
x,y,z
-x,y,1/2-z
-x,-y,-z
x,-y,1/2+z
loop_
_atom_site_type_symbol
_atom_site_label
_atom_site_fract_x
_atom_site_fract_y
_atom_site_fract_z
Si Si1 0.124977 0.745809 0.440189
Si Si2 0.112351 0.807201 0.759100
Si Si3 0.602849 0.322406 0.572124
Si Si4 0.818462 0.690927 0.211231
Si Si5 0.532502 0.162330 0.043125
O O1 0.283707 0.683658 0.418494
O O2 0.195200 0.749126 0.347794
O O3 0.000000 0.500000 0.500000
O O4 0.000000 0.000000 0.500000
O O5 0.087854 0.580062 0.813564
O O6 0.326806 0.809921 0.652742
O O7 0.000000 0.761847 0.750000
O O8 0.074743 0.082520 0.801722
O O9 0.387533 0.318520 0.678296
O O10 0.620324 0.556217 0.519738
O O11 0.649400 0.046012 0.527523
O O12 0.500000 0.000000 0.000000
#
# Coordination Sequence:
#
# PCOD9232511 Si02
#       5
#     4   4   4   4   4
#     4  12  25  40  61  92 120 152 201 257 307 351
#     4  10  21  37  60  88 117 155 200 243 295 354
#     4  10  22  41  61  84 120 163 199 237 297 368
#     4  10  22  41  61  84 119 162 200 239 298 370
#     4  10  21  37  60  88 118 156 199 242 293 353
#
# _framework density 21.888386000000001
#
# number of rings (size 3 to 8) (size 9 to 14) (size 15 to 20)
#    0.000    1.600    0.000    4.200    0.000    4.800 
#    0.000    8.000    0.000    0.000    0.000    0.000 
#    0.000    0.000    0.000    0.000    0.000    0.000 
#
# Total GULP energy -111567.280047 kJ/mol
# GULP energy per Si atom -5578.364002 kJ/mol
# Density = 2.183857 g / cm^3
# Si number density = 21.888386 Si / 1000 Ang^3
#
#
#
# Elastic Constant Matrix: (Units=GPa)
#
#
# Indices 1 2 3 4 5 6 
#
# 1 130.2798 39.6440 -1.5256 0.0000 11.0140 0.0000
# 2 39.6440 165.6702 26.6047 0.0000 -14.2697 0.0000
# 3 -1.5256 26.6047 38.5576 0.0000 6.0865 0.0000
# 4 0.0000 0.0000 0.0000 15.5832 0.0000 9.8025
# 5 11.0140 -14.2697 6.0865 0.0000 14.5690 0.0000
# 6 0.0000 0.0000 0.0000 9.8025 0.0000 38.8641
#
#
#
# Elastic Compliance Matrix: (Units=1/GPa)
#
#
# Indices 1 2 3 4 5 6 
#
# 1 0.010495 -0.004805 0.006131 0.000000 -0.015202 0.000000
# 2 -0.004805 0.010380 -0.010204 0.000000 0.018063 0.000000
# 3 0.006131 -0.010204 0.038036 0.000000 -0.030519 0.000000
# 4 0.000000 0.000000 0.000000 0.076273 0.000000 -0.019238
# 5 -0.015202 0.018063 -0.030519 0.000000 0.110572 0.000000
# 6 0.000000 0.000000 0.000000 -0.019238 0.000000 0.030583
#
#
# Mechanical properties :
#
#
# Convention : Reuss Voigt Hill
#
# Bulk Modulus (GPa) = 24.29887 51.55041 37.92464
# Shear Modulus (GPa) = 16.24351 31.78890 24.01621
#
# Velocity S-wave (km/s) = 2.72712 3.81506 3.31601
# Velocity P-wave (km/s) = 4.58711 6.55812 5.65909
#
# Compressibility (1/GPa) = 0.04115417
#
# Stress axis : x y z
#
# Youngs Moduli (GPa) = 95.28372 96.33572 26.29092
#
# Poissons Ratio (x) = 0.46292 -0.16118
# Poissons Ratio (y) = 0.45786 0.26827
# Poissons Ratio (z) = -0.58414 0.98299
#
# Static dielectric constant tensor:
#      x y z
#    x 2.326530 0.000000 0.078560 
#    y 0.000000 1.790720 0.000000 
#    z 0.078560 0.000000 1.825960 
# 
# From -- ./inp_files/85501.got.cif
#   From: 2010.05.17/outbox.cif.g08.bks.cpg/sg13_43_cif.got.tgz:85501.got - 2010.06.03 16:44:36.
