data_PCOD9232826
_publ_section_title
;
Structure prediction by ZEFSAII (Michael W. Deem and Ramdas Pophale) SiO2 
 PCOD9232826
Probable space group: P 2/C
;
_chemical_formula_sum "Si O2"
_cell_formula_units_Z 20
_cell_length_a 9.819839
_cell_length_b 6.871630
_cell_length_c 13.124216
_cell_angle_alpha 90.000000
_cell_angle_beta 95.643446
_cell_angle_gamma 90.000000
_cell_volume 881.307391
_symmetry_space_group_name_H-M "P 2/C"
_symmetry_group_IT_number 13
_symmetry_cell_setting 'monoclinic'
loop_
_space_group_symop_operation_xyz
x,y,z
-x,y,1/2-z
-x,-y,-z
x,-y,1/2+z
loop_
_atom_site_type_symbol
_atom_site_label
_atom_site_fract_x
_atom_site_fract_y
_atom_site_fract_z
Si Si1 0.494649 0.799231 0.631177
Si Si2 0.911359 0.246934 0.031692
Si Si3 0.284642 0.086227 0.955612
Si Si4 0.895730 0.499859 0.336260
Si Si5 0.701796 0.508041 0.149060
O O1 0.500000 0.849452 0.750000
O O2 0.607238 0.934497 0.584150
O O3 0.550899 0.579112 0.623824
O O4 0.352398 0.840554 0.565481
O O5 0.857168 0.029125 0.041559
O O6 0.801663 0.383350 0.083688
O O7 0.051790 0.312614 0.096291
O O8 0.905021 0.322591 0.915747
O O9 0.279312 0.270432 0.881408
O O10 0.751649 0.477564 0.268892
O O11 0.000000 0.530228 0.250000
#
# Coordination Sequence:
#
# PCOD9232826 Si02
#       5
#     4   4   4   4   4
#     4  10  23  39  59  94 129 166 212 264 307 377
#     4   9  20  40  61  89 128 161 206 269 307 378
#     4  10  22  40  62  92 129 166 214 258 315 380
#     4   9  19  39  62  90 125 165 209 259 317 368
#     4  10  21  38  63  90 125 168 210 259 318 370
#
# _framework density 22.693556999999998
#
# number of rings (size 3 to 8) (size 9 to 14) (size 15 to 20)
#    0.000    2.400    0.000    0.600    5.600    0.800 
#    0.000   24.000    0.000    0.000    0.000    0.000 
#    0.000    0.000    0.000    0.000    0.000    0.000 
#
# Total GULP energy -111817.018232 kJ/mol
# GULP energy per Si atom -5590.850912 kJ/mol
# Density = 2.264191 g / cm^3
# Si number density = 22.693557 Si / 1000 Ang^3
#
#
#
# Elastic Constant Matrix: (Units=GPa)
#
#
# Indices 1 2 3 4 5 6 
#
# 1 75.4229 46.0799 30.2758 0.0000 13.7334 0.0000
# 2 46.0799 148.7196 40.8382 0.0000 14.6126 0.0000
# 3 30.2758 40.8382 150.1533 0.0000 8.0070 0.0000
# 4 0.0000 0.0000 0.0000 18.7786 0.0000 -4.5334
# 5 13.7334 14.6126 8.0070 0.0000 28.6921 0.0000
# 6 0.0000 0.0000 0.0000 -4.5334 0.0000 16.2663
#
#
#
# Elastic Compliance Matrix: (Units=1/GPa)
#
#
# Indices 1 2 3 4 5 6 
#
# 1 0.017818 -0.004384 -0.002096 0.000000 -0.005711 0.000000
# 2 -0.004384 0.008646 -0.001365 0.000000 -0.001924 0.000000
# 3 -0.002096 -0.001365 0.007474 0.000000 -0.000387 0.000000
# 4 0.000000 0.000000 0.000000 0.057094 0.000000 0.015912
# 5 -0.005711 -0.001924 -0.000387 0.000000 0.038674 0.000000
# 6 0.000000 0.000000 0.000000 0.015912 0.000000 0.065912
#
#
# Mechanical properties :
#
#
# Convention : Reuss Voigt Hill
#
# Bulk Modulus (GPa) = 54.79775 67.63153 61.21464
# Shear Modulus (GPa) = 22.99995 29.88751 26.44373
#
# Velocity S-wave (km/s) = 3.18701 3.63299 3.41728
# Velocity P-wave (km/s) = 6.14345 6.88948 6.52713
#
# Compressibility (1/GPa) = 0.01824893
#
# Stress axis : x y z
#
# Youngs Moduli (GPa) = 56.12196 115.65531 133.79084
#
# Poissons Ratio (x) = 0.50706 0.28040
# Poissons Ratio (y) = 0.24605 0.18262
# Poissons Ratio (z) = 0.11762 0.15787
#
# Static dielectric constant tensor:
#      x y z
#    x 1.915030 0.000000 0.003460 
#    y 0.000000 1.832340 0.000000 
#    z 0.003460 0.000000 1.810470 
# 
# From -- ./inp_files/48701.got.cif
#   From: 2010.05.17/outbox.cif.g08.bks.cpg/sg13_25_cif.got.tgz:48701.got - 2010.06.03 16:44:36.
