data_PCOD9232735
_publ_section_title
;
Structure prediction by ZEFSAII (Michael W. Deem and Ramdas Pophale) SiO2 
 PCOD9232735
Probable space group: P 2/C
;
_chemical_formula_sum "Si O2"
_cell_formula_units_Z 32
_cell_length_a 5.390188
_cell_length_b 17.145521
_cell_length_c 17.260322
_cell_angle_alpha 90.000000
_cell_angle_beta 91.727586
_cell_angle_gamma 90.000000
_cell_volume 1594.432155
_symmetry_space_group_name_H-M "P 2/C"
_symmetry_group_IT_number 13
_symmetry_cell_setting 'monoclinic'
loop_
_space_group_symop_operation_xyz
x,y,z
-x,y,1/2-z
-x,-y,-z
x,-y,1/2+z
loop_
_atom_site_type_symbol
_atom_site_label
_atom_site_fract_x
_atom_site_fract_y
_atom_site_fract_z
Si Si1 0.497319 0.800646 0.662482
Si Si2 0.838197 0.048052 0.172132
Si Si3 0.591819 0.243238 0.870976
Si Si4 0.909424 0.671022 0.169502
Si Si5 0.445220 0.073479 0.896730
Si Si6 0.407012 0.326162 0.464187
Si Si7 0.222950 0.921040 0.559814
Si Si8 0.091487 0.411391 0.994258
O O1 0.500000 0.769443 0.750000
O O2 0.669430 0.876333 0.672750
O O3 0.579946 0.731266 0.608132
O O4 0.273026 0.844737 0.614507
O O5 0.000000 0.054377 0.250000
O O6 0.954827 0.053357 0.086799
O O7 0.718659 0.963047 0.172610
O O8 0.352134 0.282836 0.827264
O O9 0.581463 0.150365 0.870819
O O10 0.860763 0.271277 0.845796
O O11 0.562438 0.273362 0.958888
O O12 0.893428 0.613560 0.096031
O O13 0.000000 0.631316 0.250000
O O14 0.614666 0.998077 0.918339
O O15 0.286645 0.096694 0.971840
O O16 0.639089 0.387301 0.467982
O O17 0.134739 0.363640 0.468955
O O18 0.000000 0.500000 0.000000
#
# Coordination Sequence:
#
# PCOD9232735 Si02
#       8
#     4   4   4   4   4   4   4   4
#     4  11  22  38  59  84 121 161 205 262 310 363
#     4  11  23  36  56  80 116 167 208 266 323 367
#     4  10  21  38  60  86 121 161 206 256 302 356
#     4  10  22  40  61  92 124 160 199 245 309 362
#     4  10  22  36  55  80 110 159 215 265 301 371
#     4  10  22  39  66  95 122 159 204 242 301 376
#     4  10  21  39  54  78 114 156 212 254 323 354
#     4  10  22  43  70  96 127 162 195 241 299 375
#
# _framework density 20.069841
#
# number of rings (size 3 to 8) (size 9 to 14) (size 15 to 20)
#    0.000    1.750    2.500    1.125    3.500    1.500 
#    2.250    1.250    0.000    0.000    0.000    0.000 
#    0.000    0.000    0.000    0.000    0.000    0.000 
#
# Total GULP energy -178352.054263 kJ/mol
# GULP energy per Si atom -5573.501696 kJ/mol
# Density = 2.002416 g / cm^3
# Si number density = 20.069841 Si / 1000 Ang^3
#
#
#
# Elastic Constant Matrix: (Units=GPa)
#
#
# Indices 1 2 3 4 5 6 
#
# 1 64.2085 0.7085 13.6674 0.0000 -6.8546 0.0000
# 2 0.7085 67.7725 12.4444 0.0000 -7.1675 0.0000
# 3 13.6674 12.4444 75.4500 0.0000 -1.5383 0.0000
# 4 0.0000 0.0000 0.0000 13.5113 0.0000 -0.6337
# 5 -6.8546 -7.1675 -1.5383 0.0000 21.9177 0.0000
# 6 0.0000 0.0000 0.0000 -0.6337 0.0000 9.1879
#
#
#
# Elastic Compliance Matrix: (Units=1/GPa)
#
#
# Indices 1 2 3 4 5 6 
#
# 1 0.016793 0.000958 -0.003091 0.000000 0.005348 0.000000
# 2 0.000958 0.015794 -0.002671 0.000000 0.005277 0.000000
# 3 -0.003091 -0.002671 0.014237 0.000000 -0.000841 0.000000
# 4 0.000000 0.000000 0.000000 0.074252 0.000000 0.005121
# 5 0.005348 0.005277 -0.000841 0.000000 0.048964 0.000000
# 6 0.000000 0.000000 0.000000 0.005121 0.000000 0.109192
#
#
# Mechanical properties :
#
#
# Convention : Reuss Voigt Hill
#
# Bulk Modulus (GPa) = 26.87073 29.00797 27.93935
# Shear Modulus (GPa) = 16.59778 20.96409 18.78094
#
# Velocity S-wave (km/s) = 2.87888 3.23547 3.06237
# Velocity P-wave (km/s) = 4.94654 5.33316 5.14348
#
# Compressibility (1/GPa) = 0.03721521
#
# Stress axis : x y z
#
# Youngs Moduli (GPa) = 59.55033 63.31629 70.23919
#
# Poissons Ratio (x) = -0.06063 0.21709
# Poissons Ratio (y) = -0.05702 0.18760
# Poissons Ratio (z) = 0.18406 0.16911
#
# Static dielectric constant tensor:
#      x y z
#    x 1.818210 0.000000 0.008310 
#    y 0.000000 1.670450 0.000000 
#    z 0.008310 0.000000 1.834120 
# 
# From -- ./inp_files/61602.got.cif
#   From: 2010.05.17/outbox.cif.g08.bks.cpg/sg13_31_cif.got.tgz:61602.got - 2010.06.03 16:44:36.
