data_PCOD9232489
_publ_section_title
;
Structure prediction by ZEFSAII (Michael W. Deem and Ramdas Pophale) SiO2 
 PCOD9232489
Probable space group: P 2/C
;
_chemical_formula_sum "Si O2"
_cell_formula_units_Z 32
_cell_length_a 13.264269
_cell_length_b 11.947302
_cell_length_c 11.809638
_cell_angle_alpha 90.000000
_cell_angle_beta 109.997798
_cell_angle_gamma 90.000000
_cell_volume 1758.659001
_symmetry_space_group_name_H-M "P 2/C"
_symmetry_group_IT_number 13
_symmetry_cell_setting 'monoclinic'
loop_
_space_group_symop_operation_xyz
x,y,z
-x,y,1/2-z
-x,-y,-z
x,-y,1/2+z
loop_
_atom_site_type_symbol
_atom_site_label
_atom_site_fract_x
_atom_site_fract_y
_atom_site_fract_z
Si Si1 0.217826 0.119565 0.759904
Si Si2 0.912027 0.262284 0.117146
Si Si3 0.060704 0.488078 0.898359
Si Si4 0.712126 0.882436 0.617030
Si Si5 0.201941 0.265356 0.951358
Si Si6 0.001767 0.876921 0.446372
Si Si7 0.618653 0.807153 0.816825
Si Si8 0.392671 0.068284 0.642368
O O1 0.240488 0.230105 0.841256
O O2 0.289349 0.108656 0.674270
O O3 0.091929 0.120521 0.682535
O O4 0.250369 0.008709 0.841766
O O5 0.882201 0.391760 0.091046
O O6 0.811930 0.186172 0.108955
O O7 0.000000 0.254384 0.250000
O O8 0.965127 0.213118 0.025151
O O9 0.137144 0.380504 0.933442
O O10 0.000000 0.475944 0.750000
O O11 0.000000 0.500000 0.000000
O O12 0.673606 0.827130 0.717416
O O13 0.618845 0.886402 0.488152
O O14 0.117919 0.165480 0.951588
O O15 0.302144 0.261893 0.073777
O O16 0.000000 0.000000 0.500000
O O17 0.500000 0.760936 0.750000
O O18 0.607509 0.933003 0.863254
O O19 0.500000 0.101217 0.750000
#
# Coordination Sequence:
#
# PCOD9232489 Si02
#       8
#     4   4   4   4   4   4   4   4
#     4  11  22  35  56  90 122 156 196 244 304 363
#     4  11  22  38  59  86 120 160 200 247 297 365
#     4  11  25  43  64  89 120 165 210 252 302 366
#     4  11  21  38  58  88 123 159 200 245 306 363
#     4  12  23  40  60  89 121 160 201 252 302 363
#     4  12  21  34  56  89 128 155 192 237 309 370
#     4  10  23  38  61  90 121 161 203 250 304 365
#     4  10  21  37  59  88 124 164 203 245 302 367
#
# _framework density 18.195681
#
# number of rings (size 3 to 8) (size 9 to 14) (size 15 to 20)
#    0.000    1.000    3.750    4.875    3.500    1.500 
#    0.000    0.000    0.000    1.500    0.000    0.000 
#    0.000    0.000    0.000    0.000    0.000    0.000 
#
# Total GULP energy -178622.855360 kJ/mol
# GULP energy per Si atom -5581.964230 kJ/mol
# Density = 1.815427 g / cm^3
# Si number density = 18.195681 Si / 1000 Ang^3
#
#
#
# Elastic Constant Matrix: (Units=GPa)
#
#
# Indices 1 2 3 4 5 6 
#
# 1 45.1787 5.2337 20.0080 0.0000 14.5726 0.0000
# 2 5.2337 74.0134 33.5605 0.0000 -0.8294 0.0000
# 3 20.0080 33.5605 126.3610 0.0000 19.7401 0.0000
# 4 0.0000 0.0000 0.0000 20.1759 0.0000 5.1998
# 5 14.5726 -0.8294 19.7401 0.0000 26.0878 0.0000
# 6 0.0000 0.0000 0.0000 5.1998 0.0000 15.1900
#
#
#
# Elastic Compliance Matrix: (Units=1/GPa)
#
#
# Indices 1 2 3 4 5 6 
#
# 1 0.027641 -0.001280 -0.001835 0.000000 -0.014092 0.000000
# 2 -0.001280 0.015808 -0.004747 0.000000 0.004810 0.000000
# 3 -0.001835 -0.004747 0.010579 0.000000 -0.007131 0.000000
# 4 0.000000 0.000000 0.000000 0.054360 0.000000 -0.018608
# 5 -0.014092 0.004810 -0.007131 0.000000 0.051753 0.000000
# 6 0.000000 0.000000 0.000000 -0.018608 0.000000 0.072203
#
#
# Mechanical properties :
#
#
# Convention : Reuss Voigt Hill
#
# Bulk Modulus (GPa) = 26.10770 40.35084 33.22927
# Shear Modulus (GPa) = 19.16912 24.74080 21.95496
#
# Velocity S-wave (km/s) = 3.24929 3.69142 3.47739
# Velocity P-wave (km/s) = 5.33447 6.35555 5.86726
#
# Compressibility (1/GPa) = 0.03830288
#
# Stress axis : x y z
#
# Youngs Moduli (GPa) = 36.17831 63.25894 94.52503
#
# Poissons Ratio (x) = 0.08099 0.17346
# Poissons Ratio (y) = 0.04632 0.44873
# Poissons Ratio (z) = 0.06639 0.30030
#
# Static dielectric constant tensor:
#      x y z
#    x 1.634690 0.000000 -0.033930 
#    y 0.000000 1.597710 0.000000 
#    z -0.033930 0.000000 1.683330 
# 
# From -- ./inp_files/34179.got.cif
#   From: 2010.05.17/outbox.cif.g08.bks.cpg/sg13_18_cif.got.tgz:34179.got - 2010.06.03 16:44:36.
