data_PCOD9232996
_publ_section_title
;
Structure prediction by ZEFSAII (Michael W. Deem and Ramdas Pophale) SiO2 
 PCOD9232996
Probable space group: P 2/C
;
_chemical_formula_sum "Si O2"
_cell_formula_units_Z 28
_cell_length_a 8.556292
_cell_length_b 11.936156
_cell_length_c 20.682511
_cell_angle_alpha 90.000000
_cell_angle_beta 143.532946
_cell_angle_gamma 90.000000
_cell_volume 1255.461086
_symmetry_space_group_name_H-M "P 2/C"
_symmetry_group_IT_number 13
_symmetry_cell_setting 'monoclinic'
loop_
_space_group_symop_operation_xyz
x,y,z
-x,y,1/2-z
-x,-y,-z
x,-y,1/2+z
loop_
_atom_site_type_symbol
_atom_site_label
_atom_site_fract_x
_atom_site_fract_y
_atom_site_fract_z
Si Si1 0.329078 0.898928 0.131029
Si Si2 0.395013 0.305392 0.999559
Si Si3 0.811524 0.665807 0.738766
Si Si4 0.222330 0.681944 0.638258
Si Si5 0.726213 0.123637 0.450318
Si Si6 0.358263 0.674298 0.061732
Si Si7 0.108641 0.411924 0.715685
O O1 0.500000 0.869888 0.250000
O O2 0.339701 0.801324 0.081334
O O3 0.412295 0.015765 0.125869
O O4 0.031173 0.909032 0.057873
O O5 0.538651 0.327208 0.978690
O O6 0.096440 0.351195 0.899413
O O7 0.557204 0.364211 0.111259
O O8 0.384659 0.177045 0.020669
O O9 0.818368 0.738864 0.805174
O O10 0.921396 0.545300 0.797254
O O11 0.000000 0.721808 0.750000
O O12 0.500000 0.619203 0.750000
O O13 0.275376 0.774302 0.601905
O O14 0.939215 0.626973 0.528874
O O15 0.584828 0.618467 0.181146
O O16 0.000000 0.376682 0.750000
#
# Coordination Sequence:
#
# PCOD9232996 Si02
#       7
#     4   4   4   4   4   4   4
#     4  10  21  39  62  85 120 167 203 246 312 378
#     4  11  21  39  64  91 125 157 209 261 302 362
#     4  11  22  37  63  90 120 163 207 256 306 363
#     4  11  21  38  58  86 122 156 205 252 307 366
#     4  10  22  38  62  87 121 164 203 252 310 365
#     4  10  22  39  63  89 121 159 210 253 306 365
#     4   9  22  38  61  90 123 164 199 252 313 371
#
# _framework density 22.302562999999999
#
# number of rings (size 3 to 8) (size 9 to 14) (size 15 to 20)
#    0.000    1.714    2.857    1.286    2.000    2.286 
#    0.000    5.000    0.000    2.571    0.000    0.000 
#    0.000    0.000    0.000    0.000    0.000    0.000 
#
# Total GULP energy -155978.086170 kJ/mol
# GULP energy per Si atom -5570.645935 kJ/mol
# Density = 2.225180 g / cm^3
# Si number density = 22.302563 Si / 1000 Ang^3
#
#
#
# Elastic Constant Matrix: (Units=GPa)
#
#
# Indices 1 2 3 4 5 6 
#
# 1 50.9531 9.0975 18.8899 0.0000 0.4493 0.0000
# 2 9.0975 42.8792 9.9676 0.0000 -1.4399 0.0000
# 3 18.8899 9.9676 150.5884 0.0000 15.0056 0.0000
# 4 0.0000 0.0000 0.0000 22.7988 0.0000 -2.0611
# 5 0.4493 -1.4399 15.0056 0.0000 43.7551 0.0000
# 6 0.0000 0.0000 0.0000 -2.0611 0.0000 23.4238
#
#
#
# Elastic Compliance Matrix: (Units=1/GPa)
#
#
# Indices 1 2 3 4 5 6 
#
# 1 0.021230 -0.003918 -0.002453 0.000000 0.000494 0.000000
# 2 -0.003918 0.024488 -0.001257 0.000000 0.001277 0.000000
# 3 -0.002453 -0.001257 0.007282 0.000000 -0.002513 0.000000
# 4 0.000000 0.000000 0.000000 0.044214 0.000000 0.003890
# 5 0.000494 0.001277 -0.002513 0.000000 0.023753 0.000000
# 6 0.000000 0.000000 0.000000 0.003890 0.000000 0.043034
#
#
# Mechanical properties :
#
#
# Convention : Reuss Voigt Hill
#
# Bulk Modulus (GPa) = 26.49337 35.59228 31.04283
# Shear Modulus (GPa) = 26.06375 31.75992 28.91184
#
# Velocity S-wave (km/s) = 3.42225 3.77775 3.60439
# Velocity P-wave (km/s) = 5.24601 5.91794 5.59207
#
# Compressibility (1/GPa) = 0.03774529
#
# Stress axis : x y z
#
# Youngs Moduli (GPa) = 47.10216 40.83711 137.32528
#
# Poissons Ratio (x) = 0.15998 0.33688
# Poissons Ratio (y) = 0.18452 0.17257
# Poissons Ratio (z) = 0.11555 0.05132
#
# Static dielectric constant tensor:
#      x y z
#    x 1.950920 0.000000 0.081370 
#    y 0.000000 1.804480 0.000000 
#    z 0.081370 0.000000 1.919470 
# 
# From -- ./inp_files/76693.got.cif
#   From: 2010.05.17/outbox.cif.g08.bks.cpg/sg13_39_cif.got.tgz:76693.got - 2010.06.03 16:44:36.
