data_PCOD9232433
_publ_section_title
;
Structure prediction by ZEFSAII (Michael W. Deem and Ramdas Pophale) SiO2 
 PCOD9232433
Probable space group: P 2/C
;
_chemical_formula_sum "Si O2"
_cell_formula_units_Z 28
_cell_length_a 32.231570
_cell_length_b 7.004901
_cell_length_c 32.647375
_cell_angle_alpha 90.000000
_cell_angle_beta 9.154332
_cell_angle_gamma 90.000000
_cell_volume 1172.698692
_symmetry_space_group_name_H-M "P 2/C"
_symmetry_group_IT_number 13
_symmetry_cell_setting 'monoclinic'
loop_
_space_group_symop_operation_xyz
x,y,z
-x,y,1/2-z
-x,-y,-z
x,-y,1/2+z
loop_
_atom_site_type_symbol
_atom_site_label
_atom_site_fract_x
_atom_site_fract_y
_atom_site_fract_z
Si Si1 0.995580 0.280650 0.418720
Si Si2 0.545359 0.865599 0.250125
Si Si3 0.750702 0.133148 0.249298
Si Si4 0.299693 0.717074 0.080119
Si Si5 0.833015 0.719353 0.581286
Si Si6 0.459928 0.717059 0.419884
Si Si7 0.045611 0.134378 0.749872
O O1 0.905856 0.500002 0.500004
O O2 0.704462 0.194151 0.706200
O O3 0.174942 0.259084 0.283737
O O4 0.175379 0.196338 0.207142
O O5 0.500000 0.768804 0.250000
O O6 0.544618 0.729441 0.290168
O O7 0.295623 0.999989 0.499999
O O8 0.799325 0.999988 0.999999
O O9 0.742411 0.259085 0.216269
O O10 0.500000 0.000000 0.500000
O O11 0.000000 0.000000 0.000000
O O12 0.116854 0.805857 0.293809
O O13 0.124958 0.729463 0.209828
O O14 0.589665 0.803671 0.792857
O O15 0.390363 0.500007 0.000005
O O16 0.000000 0.231172 0.750000
#
# Coordination Sequence:
#
# PCOD9232433 Si02
#       7
#     4   4   4   4   4   4   4
#     4  10  22  40  59  80 114 153 187 231 290 346
#     4  10  21  37  57  83 116 152 188 231 289 349
#     4  12  25  38  57  88 116 144 192 240 283 338
#     4  10  21  38  60  85 111 148 195 236 281 340
#     4  10  22  40  59  80 114 153 187 231 290 346
#     4  10  21  38  60  85 111 148 195 236 281 340
#     4  10  21  37  57  83 116 152 188 231 289 349
#
# _framework density 23.876550999999999
#
# number of rings (size 3 to 8) (size 9 to 14) (size 15 to 20)
#    0.000    1.714    0.000    3.857    0.000    6.857 
#    0.000   14.286    0.000    0.000    0.000    0.000 
#    0.000    0.000    0.000    0.000    0.000    0.000 
#
# Total GULP energy -156229.233230 kJ/mol
# GULP energy per Si atom -5579.615472 kJ/mol
# Density = 2.382221 g / cm^3
# Si number density = 23.876551 Si / 1000 Ang^3
#
#
#
# Elastic Constant Matrix: (Units=GPa)
#
#
# Indices 1 2 3 4 5 6 
#
# 1 161.6065 2.6795 61.4712 0.0000 0.0909 0.0000
# 2 2.6795 43.1439 29.9816 0.0000 -1.2427 0.0000
# 3 61.4712 29.9816 247.7026 0.0000 -4.0091 0.0000
# 4 0.0000 0.0000 0.0000 22.3164 0.0000 0.4503
# 5 0.0909 -1.2427 -4.0091 0.0000 49.2380 0.0000
# 6 0.0000 0.0000 0.0000 0.4503 0.0000 32.2254
#
#
#
# Elastic Compliance Matrix: (Units=1/GPa)
#
#
# Indices 1 2 3 4 5 6 
#
# 1 0.006861 0.000824 -0.001805 0.000000 -0.000139 0.000000
# 2 0.000824 0.025413 -0.003274 0.000000 0.000373 0.000000
# 3 -0.001805 -0.003274 0.004886 0.000000 0.000319 0.000000
# 4 0.000000 0.000000 0.000000 0.044823 0.000000 -0.000626
# 5 -0.000139 0.000373 0.000319 0.000000 0.020345 0.000000
# 6 0.000000 0.000000 0.000000 -0.000626 0.000000 0.031040
#
#
# Mechanical properties :
#
#
# Convention : Reuss Voigt Hill
#
# Bulk Modulus (GPa) = 34.90360 71.19083 53.04722
# Shear Modulus (GPa) = 33.01885 44.64401 38.83143
#
# Velocity S-wave (km/s) = 3.72277 4.32879 4.03717
# Velocity P-wave (km/s) = 5.75576 7.40713 6.63303
#
# Compressibility (1/GPa) = 0.02865034
#
# Stress axis : x y z
#
# Youngs Moduli (GPa) = 145.75781 39.34946 204.64891
#
# Poissons Ratio (x) = -0.03242 0.36930
# Poissons Ratio (y) = -0.12010 0.67011
# Poissons Ratio (z) = 0.26303 0.12885
#
# Static dielectric constant tensor:
#      x y z
#    x 1.982230 0.000000 -0.003080 
#    y 0.000000 2.009290 0.000000 
#    z -0.003080 0.000000 2.049730 
# 
# From -- ./inp_files/98045.got.cif
#   From: 2010.05.17/outbox.cif.g08.bks.cpg/sg13_50_cif.got.tgz:98045.got - 2010.06.03 16:44:36.
