data_PCOD9232756
_publ_section_title
;
Structure prediction by ZEFSAII (Michael W. Deem and Ramdas Pophale) SiO2 
 PCOD9232756
Probable space group: P 2/C
;
_chemical_formula_sum "Si O2"
_cell_formula_units_Z 30
_cell_length_a 15.176696
_cell_length_b 17.167774
_cell_length_c 12.768128
_cell_angle_alpha 90.000000
_cell_angle_beta 150.859931
_cell_angle_gamma 90.000000
_cell_volume 1619.942278
_symmetry_space_group_name_H-M "P 2/C"
_symmetry_group_IT_number 13
_symmetry_cell_setting 'monoclinic'
loop_
_space_group_symop_operation_xyz
x,y,z
-x,y,1/2-z
-x,-y,-z
x,-y,1/2+z
loop_
_atom_site_type_symbol
_atom_site_label
_atom_site_fract_x
_atom_site_fract_y
_atom_site_fract_z
Si Si1 0.500000 0.305140 0.750000
Si Si2 0.809698 0.653774 0.861522
Si Si3 0.494329 0.926055 0.569226
Si Si4 0.174534 0.725556 0.309119
Si Si5 0.288931 0.567447 0.539799
Si Si6 0.535676 0.758200 0.060649
Si Si7 0.790960 0.893805 0.054838
Si Si8 0.847174 0.594703 0.672293
O O1 0.453319 0.255288 0.804181
O O2 0.333928 0.360414 0.548211
O O3 0.766582 0.584745 0.898304
O O4 0.628568 0.703908 0.652226
O O5 0.881247 0.617578 0.827426
O O6 0.964352 0.709650 0.068843
O O7 0.496047 0.847515 0.502587
O O8 0.312425 0.929653 0.451731
O O9 0.500000 0.000000 0.500000
O O10 0.663475 0.915995 0.824634
O O11 0.249998 0.648786 0.442753
O O12 0.283450 0.735092 0.314083
O O13 0.209851 0.801484 0.416955
O O14 0.500000 0.549414 0.750000
O O15 0.183041 0.497081 0.376310
O O16 0.000000 0.915709 0.250000
O O17 0.000000 0.620356 0.750000
#
# Coordination Sequence:
#
# PCOD9232756 Si02
#       8
#     2   4   4   4   4   4   4   4
#     4  10  22  38  56  80 110 156 198 240 288 350
#     4  11  23  39  61  85 113 155 199 249 297 348
#     4  10  22  38  61  92 124 156 190 235 298 357
#     4  11  21  37  63  88 113 149 198 249 296 341
#     4  12  23  37  57  84 117 150 195 246 303 352
#     4  10  21  38  61  84 116 151 194 243 288 352
#     4  10  21  38  63  90 121 155 196 245 288 348
#     4  11  24  40  56  79 116 155 200 246 298 355
#
# _framework density 18.519179000000001
#
# number of rings (size 3 to 8) (size 9 to 14) (size 15 to 20)
#    0.000    1.333    2.000    4.400    1.867    5.333 
#    0.000    0.000    0.000    4.000    0.000    0.000 
#    0.000    0.000    0.000    0.000    0.000    0.000 
#
# Total GULP energy -167594.127271 kJ/mol
# GULP energy per Si atom -5586.470909 kJ/mol
# Density = 1.847703 g / cm^3
# Si number density = 18.519179 Si / 1000 Ang^3
#
#
#
# Elastic Constant Matrix: (Units=GPa)
#
#
# Indices 1 2 3 4 5 6 
#
# 1 145.6921 59.3626 35.0121 0.0000 -3.0729 0.0000
# 2 59.3626 92.2492 26.6445 0.0000 -13.9951 0.0000
# 3 35.0121 26.6445 59.4466 0.0000 4.0212 0.0000
# 4 0.0000 0.0000 0.0000 16.2096 0.0000 -9.6470
# 5 -3.0729 -13.9951 4.0212 0.0000 39.0026 0.0000
# 6 0.0000 0.0000 0.0000 -9.6470 0.0000 35.0237
#
#
#
# Elastic Compliance Matrix: (Units=1/GPa)
#
#
# Indices 1 2 3 4 5 6 
#
# 1 0.009897 -0.005554 -0.003280 0.000000 -0.000875 0.000000
# 2 -0.005554 0.016655 -0.004601 0.000000 0.006013 0.000000
# 3 -0.003280 -0.004601 0.021092 0.000000 -0.004084 0.000000
# 4 0.000000 0.000000 0.000000 0.073788 0.000000 0.020324
# 5 -0.000875 0.006013 -0.004084 0.000000 0.028149 0.000000
# 6 0.000000 0.000000 0.000000 0.020324 0.000000 0.034150
#
#
# Mechanical properties :
#
#
# Convention : Reuss Voigt Hill
#
# Bulk Modulus (GPa) = 48.13660 59.93627 54.03643
# Shear Modulus (GPa) = 22.98587 29.80510 26.39548
#
# Velocity S-wave (km/s) = 3.52688 4.01611 3.77942
# Velocity P-wave (km/s) = 6.52950 7.34440 6.94891
#
# Compressibility (1/GPa) = 0.02077421
#
# Stress axis : x y z
#
# Youngs Moduli (GPa) = 101.04561 60.04164 47.41097
#
# Poissons Ratio (x) = 0.33345 0.15552
# Poissons Ratio (y) = 0.56118 0.21813
# Poissons Ratio (z) = 0.33146 0.27624
#
# Static dielectric constant tensor:
#      x y z
#    x 1.649250 0.000000 -0.003440 
#    y 0.000000 1.606170 0.000000 
#    z -0.003440 0.000000 1.618640 
# 
# From -- ./inp_files/37662.got.cif
#   From: 2010.05.17/outbox.cif.g08.bks.cpg/sg13_19_cif.got.tgz:37662.got - 2010.06.03 16:44:36.
