data_PCOD9232646
_publ_section_title
;
Structure prediction by ZEFSAII (Michael W. Deem and Ramdas Pophale) SiO2 
 PCOD9232646
Probable space group: P 2/C
;
_chemical_formula_sum "Si O2"
_cell_formula_units_Z 20
_cell_length_a 10.690117
_cell_length_b 9.715889
_cell_length_c 8.632423
_cell_angle_alpha 90.000000
_cell_angle_beta 98.498887
_cell_angle_gamma 90.000000
_cell_volume 886.752118
_symmetry_space_group_name_H-M "P 2/C"
_symmetry_group_IT_number 13
_symmetry_cell_setting 'monoclinic'
loop_
_space_group_symop_operation_xyz
x,y,z
-x,y,1/2-z
-x,-y,-z
x,-y,1/2+z
loop_
_atom_site_type_symbol
_atom_site_label
_atom_site_fract_x
_atom_site_fract_y
_atom_site_fract_z
Si Si1 0.735591 0.343333 0.171727
Si Si2 0.406294 0.466007 0.621029
Si Si3 0.811786 0.131189 0.990069
Si Si4 0.858760 0.145932 0.662270
Si Si5 0.047042 0.651905 0.547320
O O1 0.641316 0.410093 0.278889
O O2 0.722010 0.186950 0.111587
O O3 0.868637 0.357281 0.283500
O O4 0.713866 0.411817 0.997829
O O5 0.500000 0.377655 0.750000
O O6 0.500000 0.500000 0.500000
O O7 0.938003 0.228767 0.031141
O O8 0.831056 0.972243 0.033365
O O9 0.775881 0.147442 0.803245
O O10 0.864595 0.291668 0.577109
O O11 0.000000 0.112931 0.750000
O O12 0.000000 0.500000 0.500000
#
# Coordination Sequence:
#
# PCOD9232646 Si02
#       5
#     4   4   4   4   4
#     4  11  21  35  60  87 118 161 202 248 312 368
#     4   9  21  40  59  85 117 148 194 261 324 370
#     4  11  22  37  57  86 126 171 207 241 290 364
#     4  10  21  38  54  78 127 180 212 239 281 346
#     4  11  23  36  55  92 133 166 203 247 291 358
#
# _framework density 22.554217000000001
#
# number of rings (size 3 to 8) (size 9 to 14) (size 15 to 20)
#    0.000    1.600    0.000    6.600    0.000   14.400 
#    0.000    0.000    0.000    0.000    0.000   72.800 
#    0.000    0.000    0.000    0.000    0.000    0.000 
#
# Total GULP energy -111342.959662 kJ/mol
# GULP energy per Si atom -5567.147983 kJ/mol
# Density = 2.250288 g / cm^3
# Si number density = 22.554217 Si / 1000 Ang^3
#
#
#
# Elastic Constant Matrix: (Units=GPa)
#
#
# Indices 1 2 3 4 5 6 
#
# 1 52.1634 15.9381 26.5811 0.0000 -2.1970 0.0000
# 2 15.9381 132.0688 60.0483 0.0000 -8.6550 0.0000
# 3 26.5811 60.0483 182.8145 0.0000 3.4087 0.0000
# 4 0.0000 0.0000 0.0000 39.6147 0.0000 -12.1196
# 5 -2.1970 -8.6550 3.4087 0.0000 31.0267 0.0000
# 6 0.0000 0.0000 0.0000 -12.1196 0.0000 10.4596
#
#
#
# Elastic Compliance Matrix: (Units=1/GPa)
#
#
# Indices 1 2 3 4 5 6 
#
# 1 0.020967 -0.001220 -0.002675 0.000000 0.001438 0.000000
# 2 -0.001220 0.009224 -0.002905 0.000000 0.002806 0.000000
# 3 -0.002675 -0.002905 0.006846 0.000000 -0.001752 0.000000
# 4 0.000000 0.000000 0.000000 0.039106 0.000000 0.045312
# 5 0.001438 0.002806 -0.001752 0.000000 0.033307 0.000000
# 6 0.000000 0.000000 0.000000 0.045312 0.000000 0.148109
#
#
# Mechanical properties :
#
#
# Convention : Reuss Voigt Hill
#
# Bulk Modulus (GPa) = 42.66638 63.57574 53.12106
# Shear Modulus (GPa) = 17.92316 33.85214 25.88765
#
# Velocity S-wave (km/s) = 2.82205 3.87838 3.39159
# Velocity P-wave (km/s) = 5.43847 6.95017 6.24027
#
# Compressibility (1/GPa) = 0.02343766
#
# Stress axis : x y z
#
# Youngs Moduli (GPa) = 47.69445 108.41851 146.07866
#
# Poissons Ratio (x) = 0.13226 0.39071
# Poissons Ratio (y) = 0.05818 0.42429
# Poissons Ratio (z) = 0.12757 0.31491
#
# Static dielectric constant tensor:
#      x y z
#    x 2.065810 0.000000 -0.023600 
#    y 0.000000 1.890090 0.000000 
#    z -0.023600 0.000000 1.865900 
# 
# From -- ./inp_files/14982.got.cif
#   From: 2010.05.17/outbox.cif.g08.bks.cpg/sg13_8_cif.got.tgz:14982.got - 2010.06.03 16:44:36.
