data_PCOD9232476
_publ_section_title
;
Structure prediction by ZEFSAII (Michael W. Deem and Ramdas Pophale) SiO2 
 PCOD9232476
Probable space group: P 2/C
;
_chemical_formula_sum "Si O2"
_cell_formula_units_Z 20
_cell_length_a 25.514552
_cell_length_b 7.227077
_cell_length_c 15.281055
_cell_angle_alpha 90.000000
_cell_angle_beta 160.348370
_cell_angle_gamma 90.000000
_cell_volume 947.613560
_symmetry_space_group_name_H-M "P 2/C"
_symmetry_group_IT_number 13
_symmetry_cell_setting 'monoclinic'
loop_
_space_group_symop_operation_xyz
x,y,z
-x,y,1/2-z
-x,-y,-z
x,-y,1/2+z
loop_
_atom_site_type_symbol
_atom_site_label
_atom_site_fract_x
_atom_site_fract_y
_atom_site_fract_z
Si Si1 0.611903 0.331029 0.654092
Si Si2 0.099963 0.261410 0.492019
Si Si3 0.608311 0.245721 0.336686
Si Si4 0.200023 0.621425 0.881533
Si Si5 0.828315 0.042189 0.266711
O O1 0.500000 0.500000 0.500000
O O2 0.497549 0.207368 0.414946
O O3 0.754457 0.380381 0.812839
O O4 0.696489 0.281467 0.878303
O O5 0.168212 0.069745 0.637411
O O6 0.000000 0.214410 0.250000
O O7 0.979671 0.364522 0.367845
O O8 0.500000 0.292537 0.250000
O O9 0.728407 0.417224 0.513472
O O10 0.705822 0.067858 0.515563
O O11 0.207147 0.742668 0.804288
O O12 0.000000 0.000000 0.500000
#
# Coordination Sequence:
#
# PCOD9232476 Si02
#       5
#     4   4   4   4   4
#     4   9  18  36  61  89 121 159 195 246 310 353
#     4   9  17  35  60  84 121 162 195 251 297 354
#     4  11  21  37  61  88 122 156 197 254 301 349
#     4   9  21  37  62  86 121 158 204 238 301 369
#     4  10  21  37  59  85 118 159 203 241 301 353
#
# _framework density 21.105649
#
# number of rings (size 3 to 8) (size 9 to 14) (size 15 to 20)
#    0.000    2.400    2.000    0.000    0.000    4.800 
#    0.000    0.000   17.600    9.600    0.000    0.000 
#    0.000    0.000    0.000    0.000    0.000    0.000 
#
# Total GULP energy -111350.600991 kJ/mol
# GULP energy per Si atom -5567.530050 kJ/mol
# Density = 2.105761 g / cm^3
# Si number density = 21.105649 Si / 1000 Ang^3
#
#
#
# Elastic Constant Matrix: (Units=GPa)
#
#
# Indices 1 2 3 4 5 6 
#
# 1 63.1273 24.1489 24.0689 0.0000 14.3937 0.0000
# 2 24.1489 55.9000 17.3637 0.0000 17.5233 0.0000
# 3 24.0689 17.3637 110.4518 0.0000 9.0996 0.0000
# 4 0.0000 0.0000 0.0000 30.6082 0.0000 -2.3131
# 5 14.3937 17.5233 9.0996 0.0000 21.6053 0.0000
# 6 0.0000 0.0000 0.0000 -2.3131 0.0000 20.2454
#
#
#
# Elastic Compliance Matrix: (Units=1/GPa)
#
#
# Indices 1 2 3 4 5 6 
#
# 1 0.020990 -0.005557 -0.003025 0.000000 -0.008203 0.000000
# 2 -0.005557 0.026009 -0.001497 0.000000 -0.016763 0.000000
# 3 -0.003025 -0.001497 0.010030 0.000000 -0.000995 0.000000
# 4 0.000000 0.000000 0.000000 0.032956 0.000000 0.003765
# 5 -0.008203 -0.016763 -0.000995 0.000000 0.065765 0.000000
# 6 0.000000 0.000000 0.000000 0.003765 0.000000 0.049824
#
#
# Mechanical properties :
#
#
# Convention : Reuss Voigt Hill
#
# Bulk Modulus (GPa) = 27.12009 40.07132 33.59571
# Shear Modulus (GPa) = 21.00642 25.41828 23.21235
#
# Velocity S-wave (km/s) = 3.15826 3.47412 3.31995
# Velocity P-wave (km/s) = 5.11635 5.92621 5.53611
#
# Compressibility (1/GPa) = 0.03687303
#
# Stress axis : x y z
#
# Youngs Moduli (GPa) = 47.64089 38.44769 99.69927
#
# Poissons Ratio (x) = 0.21365 0.30156
# Poissons Ratio (y) = 0.26473 0.14924
# Poissons Ratio (z) = 0.14410 0.05755
#
# Static dielectric constant tensor:
#      x y z
#    x 1.818050 0.000000 -0.017770 
#    y 0.000000 1.741880 0.000000 
#    z -0.017770 0.000000 1.778690 
# 
# From -- ./inp_files/58605.got.cif
#   From: 2010.05.17/outbox.cif.g08.bks.cpg/sg13_30_cif.got.tgz:58605.got - 2010.06.03 16:44:36.
