data_PCOD9232813
_publ_section_title
;
Structure prediction by ZEFSAII (Michael W. Deem and Ramdas Pophale) SiO2 
 PCOD9232813
Probable space group: P 2/C
;
_chemical_formula_sum "Si O2"
_cell_formula_units_Z 26
_cell_length_a 7.225151
_cell_length_b 12.545626
_cell_length_c 20.819361
_cell_angle_alpha 90.000000
_cell_angle_beta 43.055405
_cell_angle_gamma 90.000000
_cell_volume 1288.367940
_symmetry_space_group_name_H-M "P 2/C"
_symmetry_group_IT_number 13
_symmetry_cell_setting 'monoclinic'
loop_
_space_group_symop_operation_xyz
x,y,z
-x,y,1/2-z
-x,-y,-z
x,-y,1/2+z
loop_
_atom_site_type_symbol
_atom_site_label
_atom_site_fract_x
_atom_site_fract_y
_atom_site_fract_z
Si Si1 0.867114 0.316333 0.928923
Si Si2 0.640330 0.683322 0.030918
Si Si3 0.693410 0.902055 0.520616
Si Si4 0.322854 0.029258 0.230513
Si Si5 0.837996 0.111862 0.425996
Si Si6 0.000000 0.500000 0.000000
Si Si7 0.683500 0.217641 0.767555
O O1 0.570551 0.337919 0.973845
O O2 0.058436 0.286066 0.820119
O O3 0.856181 0.207162 0.973982
O O4 0.973545 0.409534 0.947271
O O5 0.791988 0.578498 0.014585
O O6 0.473221 0.732516 0.132917
O O7 0.856082 0.774118 0.954546
O O8 0.511760 0.919214 0.628929
O O9 0.471694 0.892245 0.519777
O O10 0.868359 0.008037 0.463373
O O11 0.500000 0.030098 0.250000
O O12 0.049693 0.093593 0.315308
O O13 0.253844 0.906111 0.232947
O O14 0.500000 0.217356 0.750000
#
# Coordination Sequence:
#
# PCOD9232813 Si02
#       7
#     4   4   4   4   4   2   4
#     4  11  24  43  70  99 131 177 223 272 329 393
#     4  11  24  43  70  99 131 177 223 272 329 393
#     4  10  21  38  62  94 132 167 207 262 328 395
#     4  11  23  33  61 100 140 173 207 258 330 410
#     4  10  21  38  62  94 132 167 207 262 328 395
#     4  12  26  46  66  86 132 168 232 284 320 374
#     4  11  21  39  65 103 135 170 217 274 324 391
#
# _framework density 20.180568999999998
#
# number of rings (size 3 to 8) (size 9 to 14) (size 15 to 20)
#    0.000    1.231    4.615    1.385    2.154    1.846 
#    0.000    3.077    0.000    3.692    0.000    0.000 
#    0.000    0.000    0.000    0.000    0.000    0.000 
#
# Total GULP energy -144773.313524 kJ/mol
# GULP energy per Si atom -5568.204366 kJ/mol
# Density = 2.013464 g / cm^3
# Si number density = 20.180569 Si / 1000 Ang^3
#
#
#
# Elastic Constant Matrix: (Units=GPa)
#
#
# Indices 1 2 3 4 5 6 
#
# 1 59.6575 17.5553 -16.4967 0.0000 4.6128 0.0000
# 2 17.5553 93.4629 55.8571 0.0000 -4.6690 0.0000
# 3 -16.4967 55.8571 114.1613 0.0000 0.6205 0.0000
# 4 0.0000 0.0000 0.0000 7.3068 0.0000 -2.1999
# 5 4.6128 -4.6690 0.6205 0.0000 26.4615 0.0000
# 6 0.0000 0.0000 0.0000 -2.1999 0.0000 8.8073
#
#
#
# Elastic Compliance Matrix: (Units=1/GPa)
#
#
# Indices 1 2 3 4 5 6 
#
# 1 0.021902 -0.008906 0.007553 0.000000 -0.005566 0.000000
# 2 -0.008906 0.018959 -0.010591 0.000000 0.005146 0.000000
# 3 0.007553 -0.010591 0.015052 0.000000 -0.003538 0.000000
# 4 0.000000 0.000000 0.000000 0.147989 0.000000 0.036966
# 5 -0.005566 0.005146 -0.003538 0.000000 0.039752 0.000000
# 6 0.000000 0.000000 0.000000 0.036966 0.000000 0.122776
#
#
# Mechanical properties :
#
#
# Convention : Reuss Voigt Hill
#
# Bulk Modulus (GPa) = 31.22610 42.34590 36.78600
# Shear Modulus (GPa) = 12.46903 22.53951 17.50427
#
# Velocity S-wave (km/s) = 2.48840 3.34562 2.94833
# Velocity P-wave (km/s) = 4.87474 5.99610 5.46427
#
# Compressibility (1/GPa) = 0.03202449
#
# Stress axis : x y z
#
# Youngs Moduli (GPa) = 45.65827 52.74552 66.43548
#
# Poissons Ratio (x) = 0.46973 -0.50175
# Poissons Ratio (y) = 0.40661 0.70363
# Poissons Ratio (z) = -0.34483 0.55864
#
# Static dielectric constant tensor:
#      x y z
#    x 1.764300 0.000000 -0.011690 
#    y 0.000000 1.704120 0.000000 
#    z -0.011690 0.000000 1.698890 
# 
# From -- ./inp_files/76369.got.cif
#   From: 2010.05.17/outbox.cif.g08.bks.cpg/sg13_39_cif.got.tgz:76369.got - 2010.06.03 16:44:36.
