data_PCOD9232096
_publ_section_title
;
Structure prediction by ZEFSAII (Michael W. Deem and Ramdas Pophale) SiO2 
 PCOD9232096
Probable space group: P 2/C
;
_chemical_formula_sum "Si O2"
_cell_formula_units_Z 32
_cell_length_a 13.828035
_cell_length_b 11.421017
_cell_length_c 15.360319
_cell_angle_alpha 90.000000
_cell_angle_beta 42.145807
_cell_angle_gamma 90.000000
_cell_volume 1627.798673
_symmetry_space_group_name_H-M "P 2/C"
_symmetry_group_IT_number 13
_symmetry_cell_setting 'monoclinic'
loop_
_space_group_symop_operation_xyz
x,y,z
-x,y,1/2-z
-x,-y,-z
x,-y,1/2+z
loop_
_atom_site_type_symbol
_atom_site_label
_atom_site_fract_x
_atom_site_fract_y
_atom_site_fract_z
Si Si1 0.445457 0.365357 0.532680
Si Si2 0.127103 0.134264 0.961647
Si Si3 0.152460 0.134705 0.475680
Si Si4 0.987871 0.330406 0.158176
Si Si5 0.833706 0.329753 0.886204
Si Si6 0.603662 0.727755 0.250579
Si Si7 0.705237 0.301121 0.248625
Si Si8 0.784158 0.490208 0.568299
O O1 0.500000 0.500000 0.500000
O O2 0.278764 0.339732 0.618435
O O3 0.469127 0.311204 0.611876
O O4 0.546511 0.307221 0.392516
O O5 0.264718 0.186128 0.821736
O O6 0.160398 0.004944 0.974234
O O7 0.997549 0.148855 0.978226
O O8 0.081609 0.215820 0.072921
O O9 0.161492 0.209789 0.558915
O O10 0.269168 0.193791 0.333706
O O11 0.823863 0.299751 0.245607
O O12 0.000000 0.365703 0.250000
O O13 0.059815 0.428055 0.046819
O O14 0.000000 0.351512 0.750000
O O15 0.773710 0.431743 0.989177
O O16 0.500000 0.785508 0.250000
O O17 0.670672 0.613362 0.158127
O O18 0.750819 0.418691 0.166794
#
# Coordination Sequence:
#
# PCOD9232096 Si02
#       8
#     4   4   4   4   4   4   4   4
#     4  12  25  39  61  93 132 162 203 263 324 383
#     4   9  20  41  65  89 115 167 204 259 308 365
#     4   9  20  43  67  86 122 158 211 255 314 368
#     4  10  21  33  59  89 120 158 209 252 295 367
#     4  11  24  39  63  95 122 164 208 260 312 381
#     4  11  23  39  59  85 123 165 204 246 315 384
#     4  10  22  38  58  88 121 161 200 251 313 371
#     4  10  21  35  58  83 122 159 202 243 307 373
#
# _framework density 19.658449999999998
#
# number of rings (size 3 to 8) (size 9 to 14) (size 15 to 20)
#    0.000    1.750    1.250    2.250    7.000    4.000 
#    2.250    1.875    0.000    0.000    0.000    0.000 
#    0.000    0.000    0.000    0.000    0.000    0.000 
#
# Total GULP energy -178437.313680 kJ/mol
# GULP energy per Si atom -5576.166052 kJ/mol
# Density = 1.961371 g / cm^3
# Si number density = 19.658450 Si / 1000 Ang^3
#
#
#
# Elastic Constant Matrix: (Units=GPa)
#
#
# Indices 1 2 3 4 5 6 
#
# 1 55.7182 6.4071 26.1969 0.0000 3.3650 0.0000
# 2 6.4071 93.6178 21.5179 0.0000 5.3168 0.0000
# 3 26.1969 21.5179 96.3690 0.0000 -1.2695 0.0000
# 4 0.0000 0.0000 0.0000 7.8903 0.0000 -6.3205
# 5 3.3650 5.3168 -1.2695 0.0000 23.2793 0.0000
# 6 0.0000 0.0000 0.0000 -6.3205 0.0000 7.8426
#
#
#
# Elastic Compliance Matrix: (Units=1/GPa)
#
#
# Indices 1 2 3 4 5 6 
#
# 1 0.020832 0.000080 -0.005725 0.000000 -0.003342 0.000000
# 2 0.000080 0.011433 -0.002611 0.000000 -0.002765 0.000000
# 3 -0.005725 -0.002611 0.012544 0.000000 0.002108 0.000000
# 4 0.000000 0.000000 0.000000 0.357577 0.000000 0.288175
# 5 -0.003342 -0.002765 0.002108 0.000000 0.044186 0.000000
# 6 0.000000 0.000000 0.000000 0.288175 0.000000 0.359752
#
#
# Mechanical properties :
#
#
# Convention : Reuss Voigt Hill
#
# Bulk Modulus (GPa) = 35.33934 39.32765 37.33350
# Shear Modulus (GPa) = 6.00768 20.57464 13.29116
#
# Velocity S-wave (km/s) = 1.75005 3.23864 2.60302
# Velocity P-wave (km/s) = 4.70098 5.83386 5.29779
#
# Compressibility (1/GPa) = 0.02829707
#
# Stress axis : x y z
#
# Youngs Moduli (GPa) = 48.00379 87.46259 79.72074
#
# Poissons Ratio (x) = -0.00699 0.45638
# Poissons Ratio (y) = -0.00384 0.20816
# Poissons Ratio (z) = 0.27481 0.22837
#
# Static dielectric constant tensor:
#      x y z
#    x 1.748810 0.000000 -0.019760 
#    y 0.000000 1.693030 0.000000 
#    z -0.019760 0.000000 1.689440 
# 
# From -- ./inp_files/53690.got.cif
#   From: 2010.05.17/outbox.cif.g08.bks.cpg/sg13_27_cif.got.tgz:53690.got - 2010.06.03 16:44:36.
