data_PCOD9232222
_publ_section_title
;
Structure prediction by ZEFSAII (Michael W. Deem and Ramdas Pophale) SiO2 
 PCOD9232222
Probable space group: P 2/C
;
_chemical_formula_sum "Si O2"
_cell_formula_units_Z 24
_cell_length_a 7.919269
_cell_length_b 11.696279
_cell_length_c 12.129433
_cell_angle_alpha 90.000000
_cell_angle_beta 79.769647
_cell_angle_gamma 90.000000
_cell_volume 1105.638817
_symmetry_space_group_name_H-M "P 2/C"
_symmetry_group_IT_number 13
_symmetry_cell_setting 'monoclinic'
loop_
_space_group_symop_operation_xyz
x,y,z
-x,y,1/2-z
-x,-y,-z
x,-y,1/2+z
loop_
_atom_site_type_symbol
_atom_site_label
_atom_site_fract_x
_atom_site_fract_y
_atom_site_fract_z
Si Si1 0.764841 0.668396 0.157364
Si Si2 0.179205 0.210723 0.275121
Si Si3 0.271348 0.078734 0.479697
Si Si4 0.832953 0.434162 0.072832
Si Si5 0.653204 0.830002 0.973160
Si Si6 0.828962 0.281329 0.882660
O O1 0.727953 0.535288 0.141697
O O2 0.719629 0.712349 0.284109
O O3 0.972575 0.679540 0.142818
O O4 0.694934 0.739714 0.063340
O O5 0.246778 0.121322 0.357688
O O6 0.139301 0.331903 0.341715
O O7 0.298731 0.217916 0.153361
O O8 0.000000 0.166884 0.250000
O O9 0.459336 0.124746 0.492257
O O10 0.153749 0.154779 0.571824
O O11 0.245684 0.946170 0.506535
O O12 0.746329 0.366781 0.981964
O O13 0.000000 0.500000 0.000000
#
# Coordination Sequence:
#
# PCOD9232222 Si02
#       6
#     4   4   4   4   4   4
#     4  10  21  35  64  94 122 161 206 257 307 373
#     4  11  23  39  68  96 121 160 209 265 311 369
#     4  10  24  44  60  88 128 169 206 257 311 380
#     4   9  19  36  62  93 126 157 199 254 317 369
#     4  11  24  41  65  88 126 169 210 252 320 372
#     4   9  20  38  59  91 126 158 207 258 306 366
#
# _framework density 21.706909
#
# number of rings (size 3 to 8) (size 9 to 14) (size 15 to 20)
#    0.000    2.000    0.000    3.500    9.333    3.333 
#    0.000    3.333    7.333    0.000    0.000    0.000 
#    0.000    0.000    0.000    0.000    0.000    0.000 
#
# Total GULP energy -133786.922791 kJ/mol
# GULP energy per Si atom -5574.455116 kJ/mol
# Density = 2.165750 g / cm^3
# Si number density = 21.706909 Si / 1000 Ang^3
#
#
#
# Elastic Constant Matrix: (Units=GPa)
#
#
# Indices 1 2 3 4 5 6 
#
# 1 9.9635 14.0337 12.0490 0.0000 6.2539 0.0000
# 2 14.0337 105.0414 50.7347 0.0000 20.7144 0.0000
# 3 12.0490 50.7347 161.5032 0.0000 30.3446 0.0000
# 4 0.0000 0.0000 0.0000 18.7907 0.0000 2.6427
# 5 6.2539 20.7144 30.3446 0.0000 32.5877 0.0000
# 6 0.0000 0.0000 0.0000 2.6427 0.0000 28.3806
#
#
#
# Elastic Compliance Matrix: (Units=1/GPa)
#
#
# Indices 1 2 3 4 5 6 
#
# 1 0.131598 -0.013384 -0.002990 0.000000 -0.013963 0.000000
# 2 -0.013384 0.013202 -0.002490 0.000000 -0.003504 0.000000
# 3 -0.002990 -0.002490 0.008232 0.000000 -0.005509 0.000000
# 4 0.000000 0.000000 0.000000 0.053924 0.000000 -0.005021
# 5 -0.013963 -0.003504 -0.005509 0.000000 0.040723 0.000000
# 6 0.000000 0.000000 0.000000 -0.005021 0.000000 0.035703
#
#
# Mechanical properties :
#
#
# Convention : Reuss Voigt Hill
#
# Bulk Modulus (GPa) = 8.67275 47.79365 28.23320
# Shear Modulus (GPa) = 13.90645 29.26454 21.58549
#
# Velocity S-wave (km/s) = 2.53385 3.67572 3.15684
# Velocity P-wave (km/s) = 3.54465 6.33088 5.13053
#
# Compressibility (1/GPa) = 0.11530363
#
# Stress axis : x y z
#
# Youngs Moduli (GPa) = 7.59891 75.74545 121.47351
#
# Poissons Ratio (x) = 1.01378 0.36319
# Poissons Ratio (y) = 0.10170 0.30251
# Poissons Ratio (z) = 0.02272 0.18863
#
# Static dielectric constant tensor:
#      x y z
#    x 1.925040 0.000000 -0.126690 
#    y 0.000000 1.832860 0.000000 
#    z -0.126690 0.000000 1.903790 
# 
# From -- ./inp_files/29448.got.cif
#   From: 2010.05.17/outbox.cif.g08.bks.cpg/sg13_15_cif.got.tgz:29448.got - 2010.06.03 16:44:36.
