data_PCOD9232535
_publ_section_title
;
Structure prediction by ZEFSAII (Michael W. Deem and Ramdas Pophale) SiO2 
 PCOD9232535
Probable space group: P 2/C
;
_chemical_formula_sum "Si O2"
_cell_formula_units_Z 32
_cell_length_a 11.942403
_cell_length_b 12.804564
_cell_length_c 12.394454
_cell_angle_alpha 90.000000
_cell_angle_beta 114.329786
_cell_angle_gamma 90.000000
_cell_volume 1727.000613
_symmetry_space_group_name_H-M "P 2/C"
_symmetry_group_IT_number 13
_symmetry_cell_setting 'monoclinic'
loop_
_space_group_symop_operation_xyz
x,y,z
-x,y,1/2-z
-x,-y,-z
x,-y,1/2+z
loop_
_atom_site_type_symbol
_atom_site_label
_atom_site_fract_x
_atom_site_fract_y
_atom_site_fract_z
Si Si1 0.023065 0.875469 0.883624
Si Si2 0.298498 0.523952 0.918133
Si Si3 0.089767 0.554742 0.190677
Si Si4 0.798498 0.023952 0.418133
Si Si5 0.589767 0.054742 0.690677
Si Si6 0.075709 0.635717 0.950125
Si Si7 0.476935 0.624531 0.616376
Si Si8 0.575709 0.135717 0.450125
O O1 0.049538 0.753013 0.905258
O O2 0.000000 0.901920 0.750000
O O3 0.903213 0.906094 0.905144
O O4 0.135251 0.942305 0.976545
O O5 0.222208 0.463796 0.795290
O O6 0.198690 0.591805 0.943108
O O7 0.403213 0.593906 0.905144
O O8 0.364749 0.442305 0.023455
O O9 0.000000 0.594684 0.250000
O O10 0.032596 0.442788 0.131260
O O11 0.088100 0.625036 0.083910
O O12 0.698690 0.091805 0.443108
O O13 0.722208 0.963796 0.295290
O O14 0.500000 0.094684 0.750000
O O15 0.588100 0.125036 0.583910
O O16 0.532596 0.942788 0.631260
O O17 0.500000 0.598080 0.750000
O O18 0.450462 0.746987 0.594742
#
# Coordination Sequence:
#
# PCOD9232535 Si02
#       8
#     4   4   4   4   4   4   4   4
#     4  11  23  38  58  83 112 149 187 228 280 331
#     4  10  22  38  56  83 117 146 182 232 279 331
#     4   9  19  37  58  85 116 146 185 230 275 327
#     4  10  22  38  56  83 117 146 182 232 279 331
#     4   9  19  37  58  85 116 146 185 230 275 327
#     4  10  21  37  61  85 110 149 189 229 276 329
#     4  11  23  38  58  83 112 149 187 228 280 331
#     4  10  21  37  61  85 110 149 189 229 276 329
#
# _framework density 18.529236000000001
#
# number of rings (size 3 to 8) (size 9 to 14) (size 15 to 20)
#    0.000    2.000    0.000    3.750    0.000   11.000 
#    0.000    5.000    0.000    0.000    0.000    0.000 
#    0.000    0.000    0.000    0.000    0.000    0.000 
#
# Total GULP energy -178775.105589 kJ/mol
# GULP energy per Si atom -5586.722050 kJ/mol
# Density = 1.848706 g / cm^3
# Si number density = 18.529236 Si / 1000 Ang^3
#
#
#
# Elastic Constant Matrix: (Units=GPa)
#
#
# Indices 1 2 3 4 5 6 
#
# 1 52.0990 26.9632 45.5123 0.0000 21.4422 0.0000
# 2 26.9632 57.0964 35.5227 0.0000 8.1414 0.0000
# 3 45.5123 35.5227 162.5800 0.0000 6.6968 0.0000
# 4 0.0000 0.0000 0.0000 3.1386 0.0000 10.3363
# 5 21.4422 8.1414 6.6968 0.0000 35.2468 0.0000
# 6 0.0000 0.0000 0.0000 10.3363 0.0000 -1.6433
#
#
#
# Elastic Compliance Matrix: (Units=1/GPa)
#
#
# Indices 1 2 3 4 5 6 
#
# 1 0.040422 -0.011172 -0.008031 0.000000 -0.020484 0.000000
# 2 -0.011172 0.023895 -0.002163 0.000000 0.001688 0.000000
# 3 -0.008031 -0.002163 0.008718 0.000000 0.003729 0.000000
# 4 0.000000 0.000000 0.000000 0.014673 0.000000 0.092291
# 5 -0.020484 0.001688 0.003729 0.000000 0.039735 0.000000
# 6 0.000000 0.000000 0.000000 0.092291 0.000000 -0.028024
#
#
# Mechanical properties :
#
#
# Convention : Reuss Voigt Hill
#
# Bulk Modulus (GPa) = 32.99900 54.19686 43.59793
# Shear Modulus (GPa) = 32.84055 18.26692 25.55374
#
# Velocity S-wave (km/s) = 4.21451 3.14322 3.71766
# Velocity P-wave (km/s) = 6.44443 6.51813 6.48138
#
# Compressibility (1/GPa) = 0.03030394
#
# Stress axis : x y z
#
# Youngs Moduli (GPa) = 24.73878 41.84980 114.70460
#
# Poissons Ratio (x) = 0.46753 0.92120
# Poissons Ratio (y) = 0.27637 0.24811
# Poissons Ratio (z) = 0.19868 0.09052
#
# Static dielectric constant tensor:
#      x y z
#    x 1.626020 0.000000 -0.001550 
#    y 0.000000 1.600350 0.000000 
#    z -0.001550 0.000000 1.640560 
# 
# From -- ./inp_files/34178.got.cif
#   From: 2010.05.17/outbox.cif.g08.bks.cpg/sg13_18_cif.got.tgz:34178.got - 2010.06.03 16:44:36.
