data_PCOD9232483
_publ_section_title
;
Structure prediction by ZEFSAII (Michael W. Deem and Ramdas Pophale) SiO2 
 PCOD9232483
Probable space group: P 2/C
;
_chemical_formula_sum "Si O2"
_cell_formula_units_Z 28
_cell_length_a 9.036162
_cell_length_b 8.121342
_cell_length_c 28.361912
_cell_angle_alpha 90.000000
_cell_angle_beta 37.851626
_cell_angle_gamma 90.000000
_cell_volume 1277.161882
_symmetry_space_group_name_H-M "P 2/C"
_symmetry_group_IT_number 13
_symmetry_cell_setting 'monoclinic'
loop_
_space_group_symop_operation_xyz
x,y,z
-x,y,1/2-z
-x,-y,-z
x,-y,1/2+z
loop_
_atom_site_type_symbol
_atom_site_label
_atom_site_fract_x
_atom_site_fract_y
_atom_site_fract_z
Si Si1 0.670886 0.658320 0.467199
Si Si2 0.277155 0.531603 0.945621
Si Si3 0.838935 0.147413 0.152184
Si Si4 0.054318 0.826331 0.314961
Si Si5 0.342075 0.803612 0.480201
Si Si6 0.593952 0.255138 0.299397
Si Si7 0.329245 0.052727 0.666143
O O1 0.500000 0.500000 0.500000
O O2 0.719827 0.656112 0.510396
O O3 0.924379 0.675827 0.374840
O O4 0.507049 0.802030 0.485694
O O5 0.384020 0.363132 0.939899
O O6 0.452350 0.599339 0.860662
O O7 0.000000 0.500000 0.000000
O O8 0.778902 0.276783 0.209554
O O9 0.614004 0.147588 0.173808
O O10 0.888402 0.969742 0.162278
O O11 0.071201 0.198156 0.065047
O O12 0.853851 0.890881 0.328387
O O13 0.285580 0.824857 0.221786
O O14 0.414752 0.940736 0.424346
O O15 0.715876 0.132272 0.305625
#
# Coordination Sequence:
#
# PCOD9232483 Si02
#       7
#     4   4   4   4   4   4   4
#     4   9  21  38  60  85 122 153 196 246 300 369
#     4  11  22  40  57  83 117 159 202 244 301 364
#     4  10  21  37  59  86 121 156 195 252 305 354
#     4   9  19  38  61  88 118 156 195 245 305 356
#     4  10  21  39  59  88 118 152 198 252 305 357
#     4  10  22  39  58  85 123 156 203 248 300 365
#     4   9  20  37  62  88 117 151 202 246 294 358
#
# _framework density 21.923611000000001
#
# number of rings (size 3 to 8) (size 9 to 14) (size 15 to 20)
#    0.000    2.286    1.429    0.000    4.000    2.857 
#    5.143    0.000    0.000    0.000    0.000    0.000 
#    0.000    0.000    0.000    0.000    0.000    0.000 
#
# Total GULP energy -155955.720018 kJ/mol
# GULP energy per Si atom -5569.847144 kJ/mol
# Density = 2.187371 g / cm^3
# Si number density = 21.923611 Si / 1000 Ang^3
#
#
#
# Elastic Constant Matrix: (Units=GPa)
#
#
# Indices 1 2 3 4 5 6 
#
# 1 52.4161 21.5181 18.1790 0.0000 16.7729 0.0000
# 2 21.5181 53.3221 39.3235 0.0000 10.7416 0.0000
# 3 18.1790 39.3235 164.6533 0.0000 -1.0565 0.0000
# 4 0.0000 0.0000 0.0000 36.8359 0.0000 -0.4236
# 5 16.7729 10.7416 -1.0565 0.0000 17.8552 0.0000
# 6 0.0000 0.0000 0.0000 -0.4236 0.0000 16.8683
#
#
#
# Elastic Compliance Matrix: (Units=1/GPa)
#
#
# Indices 1 2 3 4 5 6 
#
# 1 0.030128 -0.005492 -0.002176 0.000000 -0.025126 0.000000
# 2 -0.005492 0.027913 -0.006137 0.000000 -0.011996 0.000000
# 3 -0.002176 -0.006137 0.007819 0.000000 0.006199 0.000000
# 4 0.000000 0.000000 0.000000 0.027155 0.000000 0.000682
# 5 -0.025126 -0.011996 0.006199 0.000000 0.087193 0.000000
# 6 0.000000 0.000000 0.000000 0.000682 0.000000 0.059300
#
#
# Mechanical properties :
#
#
# Convention : Reuss Voigt Hill
#
# Bulk Modulus (GPa) = 26.14374 47.60363 36.87368
# Shear Modulus (GPa) = 17.86567 27.06994 22.46781
#
# Velocity S-wave (km/s) = 2.85775 3.51770 3.20476
# Velocity P-wave (km/s) = 4.77910 6.18542 5.52717
#
# Compressibility (1/GPa) = 0.03825008
#
# Stress axis : x y z
#
# Youngs Moduli (GPa) = 33.19224 35.82624 127.89299
#
# Poissons Ratio (x) = 0.19674 0.27829
# Poissons Ratio (y) = 0.18228 0.78487
# Poissons Ratio (z) = 0.07223 0.21986
#
# Static dielectric constant tensor:
#      x y z
#    x 1.797540 0.000000 -0.020500 
#    y 0.000000 1.857330 0.000000 
#    z -0.020500 0.000000 1.927520 
# 
# From -- ./inp_files/91407.got.cif
#   From: 2010.05.17/outbox.cif.g08.bks.cpg/sg13_46_cif.got.tgz:91407.got - 2010.06.03 16:44:36.
