data_PCOD9232510
_publ_section_title
;
Structure prediction by ZEFSAII (Michael W. Deem and Ramdas Pophale) SiO2 
 PCOD9232510
Probable space group: P 2/C
;
_chemical_formula_sum "Si O2"
_cell_formula_units_Z 28
_cell_length_a 17.607064
_cell_length_b 14.947552
_cell_length_c 5.479298
_cell_angle_alpha 90.000000
_cell_angle_beta 60.893989
_cell_angle_gamma 90.000000
_cell_volume 1259.954344
_symmetry_space_group_name_H-M "P 2/C"
_symmetry_group_IT_number 13
_symmetry_cell_setting 'monoclinic'
loop_
_space_group_symop_operation_xyz
x,y,z
-x,y,1/2-z
-x,-y,-z
x,-y,1/2+z
loop_
_atom_site_type_symbol
_atom_site_label
_atom_site_fract_x
_atom_site_fract_y
_atom_site_fract_z
Si Si1 0.000000 0.778285 0.250000
Si Si2 0.598055 0.554588 0.838428
Si Si3 0.248386 0.349336 0.216307
Si Si4 0.832643 0.779555 0.279404
Si Si5 0.599446 0.032755 0.791729
Si Si6 0.500000 0.298622 0.250000
Si Si7 0.916278 0.359175 0.273211
Si Si8 0.662714 0.214725 0.765040
O O1 0.919643 0.828679 0.242861
O O2 0.956888 0.713117 0.520226
O O3 0.590525 0.497406 0.603720
O O4 0.694847 0.593783 0.689736
O O5 0.529559 0.635231 0.920198
O O6 0.213182 0.263117 0.414399
O O7 0.165708 0.401876 0.236117
O O8 0.311620 0.305921 0.915270
O O9 0.754079 0.817722 0.240286
O O10 0.871288 0.697658 0.058855
O O11 0.617863 0.134801 0.684455
O O12 0.636856 0.977111 0.507023
O O13 0.500000 0.000000 0.000000
O O14 0.414714 0.240955 0.432105
O O15 0.000000 0.410766 0.250000
#
# Coordination Sequence:
#
# PCOD9232510 Si02
#       8
#     2   4   4   4   4   2   4   4
#     4   8  14  28  54  90 122 150 180 256 318 362
#     4  12  27  44  60  83 122 168 214 267 327 377
#     4  10  21  37  60  87 119 158 216 261 312 370
#     4   9  17  33  55  90 120 150 202 254 313 354
#     4  10  23  41  60  88 126 166 204 248 314 371
#     4  12  24  44  62  88 116 166 220 272 312 364
#     4   8  15  29  56  88 121 149 189 259 320 367
#     4  11  23  38  64  89 124 160 215 266 303 365
#
# _framework density 22.223027999999999
#
# number of rings (size 3 to 8) (size 9 to 14) (size 15 to 20)
#    0.000    2.000    1.429    2.143    4.000    4.000 
#    0.000    0.000    0.000    0.857    0.000    1.000 
#    0.000    0.000    0.000    0.000    0.000    0.000 
#
# Total GULP energy -155921.734599 kJ/mol
# GULP energy per Si atom -5568.633379 kJ/mol
# Density = 2.217245 g / cm^3
# Si number density = 22.223028 Si / 1000 Ang^3
#
#
#
# Elastic Constant Matrix: (Units=GPa)
#
#
# Indices 1 2 3 4 5 6 
#
# 1 150.6254 27.9266 6.2871 0.0000 -19.1610 0.0000
# 2 27.9266 27.4245 -4.7374 0.0000 -5.3568 0.0000
# 3 6.2871 -4.7374 74.7034 0.0000 1.5669 0.0000
# 4 0.0000 0.0000 0.0000 11.0215 0.0000 6.7534
# 5 -19.1610 -5.3568 1.5669 0.0000 35.4419 0.0000
# 6 0.0000 0.0000 0.0000 6.7534 0.0000 19.3339
#
#
#
# Elastic Compliance Matrix: (Units=1/GPa)
#
#
# Indices 1 2 3 4 5 6 
#
# 1 0.008697 -0.008406 -0.001338 0.000000 0.003491 0.000000
# 2 -0.008406 0.046084 0.003583 0.000000 0.002262 0.000000
# 3 -0.001338 0.003583 0.013743 0.000000 -0.000790 0.000000
# 4 0.000000 0.000000 0.000000 0.115440 0.000000 -0.040324
# 5 0.003491 0.002262 -0.000790 0.000000 0.030479 0.000000
# 6 0.000000 0.000000 0.000000 -0.040324 0.000000 0.065808
#
#
# Mechanical properties :
#
#
# Convention : Reuss Voigt Hill
#
# Bulk Modulus (GPa) = 17.79327 34.63397 26.21362
# Shear Modulus (GPa) = 16.06121 28.04459 22.05290
#
# Velocity S-wave (km/s) = 2.69128 3.55626 3.15357
# Velocity P-wave (km/s) = 4.20492 5.69923 5.00812
#
# Compressibility (1/GPa) = 0.05620103
#
# Stress axis : x y z
#
# Youngs Moduli (GPa) = 114.97679 21.69929 72.76618
#
# Poissons Ratio (x) = 0.18240 0.09738
# Poissons Ratio (y) = 0.96649 -0.26069
# Poissons Ratio (z) = 0.15387 -0.07774
#
# Static dielectric constant tensor:
#      x y z
#    x 2.037660 0.000000 0.058030 
#    y 0.000000 1.847630 0.000000 
#    z 0.058030 0.000000 1.873070 
# 
# From -- ./inp_files/6254.got.cif
#   From: 2010.05.17/outbox.cif.g08.bks.cpg/sg13_4_cif.got.tgz:6254.got - 2010.06.03 16:44:36.
