data_PCOD9232046
_publ_section_title
;
Structure prediction by ZEFSAII (Michael W. Deem and Ramdas Pophale) SiO2 
 PCOD9232046
Probable space group: P 2/C
;
_chemical_formula_sum "Si O2"
_cell_formula_units_Z 22
_cell_length_a 16.001814
_cell_length_b 5.697642
_cell_length_c 24.598966
_cell_angle_alpha 90.000000
_cell_angle_beta 23.723592
_cell_angle_gamma 90.000000
_cell_volume 902.314640
_symmetry_space_group_name_H-M "P 2/C"
_symmetry_group_IT_number 13
_symmetry_cell_setting 'monoclinic'
loop_
_space_group_symop_operation_xyz
x,y,z
-x,y,1/2-z
-x,-y,-z
x,-y,1/2+z
loop_
_atom_site_type_symbol
_atom_site_label
_atom_site_fract_x
_atom_site_fract_y
_atom_site_fract_z
Si Si1 0.965921 0.651255 0.335568
Si Si2 0.123891 0.193258 0.960440
Si Si3 0.296117 0.408288 0.280235
Si Si4 0.428538 0.631566 0.096571
Si Si5 0.500000 0.916714 0.750000
Si Si6 0.823028 0.143364 0.402585
O O1 0.871597 0.392251 0.404072
O O2 0.000000 0.639794 0.250000
O O3 0.189134 0.696840 0.230320
O O4 0.840199 0.890627 0.420945
O O5 0.240174 0.362505 0.848761
O O6 0.308553 0.076387 0.883500
O O7 0.932033 0.321786 0.102716
O O8 0.000000 0.000000 0.000000
O O9 0.428062 0.462026 0.148880
O O10 0.410295 0.237042 0.254262
O O11 0.500000 0.500000 0.000000
O O12 0.595881 0.830586 0.010758
O O13 0.000000 0.135891 0.250000
#
# Coordination Sequence:
#
# PCOD9232046 Si02
#       6
#     4   4   4   4   2   4
#     4  10  22  44  66  97 143 201 252 300 357 439
#     4   9  20  46  68 102 137 179 247 309 372 436
#     4  10  23  45  74 106 144 192 242 313 380 450
#     4  12  24  48  71 107 159 198 248 308 377 464
#     4  10  20  46  74 106 140 182 254 316 384 444
#     4  10  22  44  66  98 141 202 255 298 358 440
#
# _framework density 24.381737999999999
#
# number of rings (size 3 to 8) (size 9 to 14) (size 15 to 20)
#    0.000    1.818    3.636    0.545    0.000    4.364 
#   26.182    1.818    0.000    0.000    0.000    0.000 
#    0.000    0.000    0.000    0.000    0.000    0.000 
#
# Total GULP energy -122987.102959 kJ/mol
# GULP energy per Si atom -5590.322862 kJ/mol
# Density = 2.432624 g / cm^3
# Si number density = 24.381738 Si / 1000 Ang^3
#
#
#
# Elastic Constant Matrix: (Units=GPa)
#
#
# Indices 1 2 3 4 5 6 
#
# 1 92.4102 29.0633 67.7219 0.0000 -22.0319 0.0000
# 2 29.0633 155.8085 52.3866 0.0000 -22.9435 0.0000
# 3 67.7219 52.3866 92.2967 0.0000 -15.9952 0.0000
# 4 0.0000 0.0000 0.0000 40.6507 0.0000 -33.1521
# 5 -22.0319 -22.9435 -15.9952 0.0000 60.9108 0.0000
# 6 0.0000 0.0000 0.0000 -33.1521 0.0000 -25.3844
#
#
#
# Elastic Compliance Matrix: (Units=1/GPa)
#
#
# Indices 1 2 3 4 5 6 
#
# 1 0.025153 0.002424 -0.018959 0.000000 0.005032 0.000000
# 2 0.002424 0.008379 -0.006114 0.000000 0.002427 0.000000
# 3 -0.018959 -0.006114 0.027898 0.000000 -0.001835 0.000000
# 4 0.000000 0.000000 0.000000 0.011912 0.000000 -0.015557
# 5 0.005032 0.002427 -0.001835 0.000000 0.018670 0.000000
# 6 0.000000 0.000000 0.000000 -0.015557 0.000000 -0.019076
#
#
# Mechanical properties :
#
#
# Convention : Reuss Voigt Hill
#
# Bulk Modulus (GPa) = 61.99018 70.98432 66.48725
# Shear Modulus (GPa) = 40.44919 27.99168 34.22043
#
# Velocity S-wave (km/s) = 4.07750 3.39198 3.75043
# Velocity P-wave (km/s) = 6.90275 6.67215 6.78843
#
# Compressibility (1/GPa) = 0.01613159
#
# Stress axis : x y z
#
# Youngs Moduli (GPa) = 39.75664 119.34588 35.84483
#
# Poissons Ratio (x) = -0.28927 0.67960
# Poissons Ratio (y) = -0.09636 0.21914
# Poissons Ratio (z) = 0.75376 0.72963
#
# Static dielectric constant tensor:
#      x y z
#    x 1.956440 0.000000 0.008460 
#    y 0.000000 1.992130 0.000000 
#    z 0.008460 0.000000 1.948700 
# 
# From -- ./inp_files/97134.got.cif
#   From: 2010.05.17/outbox.cif.g08.bks.cpg/sg13_49_cif.got.tgz:97134.got - 2010.06.03 16:44:36.
