data_PCOD9232767
_publ_section_title
;
Structure prediction by ZEFSAII (Michael W. Deem and Ramdas Pophale) SiO2 
 PCOD9232767
Probable space group: P 2/C
;
_chemical_formula_sum "Si O2"
_cell_formula_units_Z 20
_cell_length_a 7.530646
_cell_length_b 22.485825
_cell_length_c 9.106139
_cell_angle_alpha 90.000000
_cell_angle_beta 146.272333
_cell_angle_gamma 90.000000
_cell_volume 856.171661
_symmetry_space_group_name_H-M "P 2/C"
_symmetry_group_IT_number 13
_symmetry_cell_setting 'monoclinic'
loop_
_space_group_symop_operation_xyz
x,y,z
-x,y,1/2-z
-x,-y,-z
x,-y,1/2+z
loop_
_atom_site_type_symbol
_atom_site_label
_atom_site_fract_x
_atom_site_fract_y
_atom_site_fract_z
Si Si1 0.350143 0.386317 0.807389
Si Si2 0.883263 0.057959 0.004393
Si Si3 0.922936 0.186135 0.369767
Si Si4 0.146461 0.556462 0.685701
Si Si5 0.683649 0.743667 0.127877
O O1 0.500000 0.399563 0.750000
O O2 0.452193 0.320908 0.925312
O O3 0.978808 0.391441 0.509359
O O4 0.482210 0.432398 0.020142
O O5 0.500000 0.064659 0.750000
O O6 0.000000 0.051278 0.250000
O O7 0.042095 0.118416 0.051282
O O8 0.000000 0.000000 0.000000
O O9 0.000000 0.185060 0.250000
O O10 0.184927 0.224109 0.636457
O O11 0.575711 0.216316 0.134005
O O12 0.000000 0.558536 0.750000
O O13 0.000000 0.500000 0.500000
O O14 0.000000 0.734550 0.250000
#
# Coordination Sequence:
#
# PCOD9232767 Si02
#       5
#     4   4   4   4   4
#     4  10  21  39  62  88 122 165 208 253 314 387
#     4  11  24  43  67  98 131 171 218 265 319 380
#     4  11  23  43  66  91 128 175 215 255 318 395
#     4  10  21  38  61  89 119 158 207 257 311 373
#     4  12  25  41  64  98 129 163 214 274 324 369
#
# _framework density 23.359801999999998
#
# number of rings (size 3 to 8) (size 9 to 14) (size 15 to 20)
#    0.000    1.200    0.000    7.200    0.000    4.800 
#    0.000    2.000    0.000    0.000    0.000    0.000 
#    0.000    0.000    0.000    0.000    0.000    0.000 
#
# Total GULP energy -111758.949772 kJ/mol
# GULP energy per Si atom -5587.947489 kJ/mol
# Density = 2.330663 g / cm^3
# Si number density = 23.359802 Si / 1000 Ang^3
#
#
#
# Elastic Constant Matrix: (Units=GPa)
#
#
# Indices 1 2 3 4 5 6 
#
# 1 27.9862 -3.8385 32.0946 0.0000 -3.2889 0.0000
# 2 -3.8385 150.3817 83.3193 0.0000 -14.0856 0.0000
# 3 32.0946 83.3193 215.7863 0.0000 9.9912 0.0000
# 4 0.0000 0.0000 0.0000 42.8216 0.0000 -1.4266
# 5 -3.2889 -14.0856 9.9912 0.0000 23.4874 0.0000
# 6 0.0000 0.0000 0.0000 -1.4266 0.0000 15.1591
#
#
#
# Elastic Compliance Matrix: (Units=1/GPa)
#
#
# Indices 1 2 3 4 5 6 
#
# 1 0.054339 0.010402 -0.012996 0.000000 0.019375 0.000000
# 2 0.010402 0.011586 -0.006539 0.000000 0.011186 0.000000
# 3 -0.012996 -0.006539 0.009546 0.000000 -0.009801 0.000000
# 4 0.000000 0.000000 0.000000 0.023426 0.000000 0.002205
# 5 0.019375 0.011186 -0.009801 0.000000 0.056167 0.000000
# 6 0.000000 0.000000 0.000000 0.002205 0.000000 0.066174
#
#
# Mechanical properties :
#
#
# Convention : Reuss Voigt Hill
#
# Bulk Modulus (GPa) = 17.48066 68.58943 43.03505
# Shear Modulus (GPa) = 19.33712 35.13222 27.23467
#
# Velocity S-wave (km/s) = 2.88026 3.88230 3.41820
# Velocity P-wave (km/s) = 4.30821 7.03720 5.83451
#
# Compressibility (1/GPa) = 0.05720607
#
# Stress axis : x y z
#
# Youngs Moduli (GPa) = 18.40303 86.31343 104.76092
#
# Poissons Ratio (x) = -0.89783 1.36142
# Poissons Ratio (y) = -0.19143 0.68498
# Poissons Ratio (z) = 0.23916 0.56436
#
# Static dielectric constant tensor:
#      x y z
#    x 1.912840 0.000000 0.053400 
#    y 0.000000 1.941170 0.000000 
#    z 0.053400 0.000000 1.869340 
# 
# From -- ./inp_files/13869.got.cif
#   From: 2010.05.17/outbox.cif.g08.bks.cpg/sg13_7_cif.got.tgz:13869.got - 2010.06.03 16:44:36.
