data_PCOD9232214
_publ_section_title
;
Structure prediction by ZEFSAII (Michael W. Deem and Ramdas Pophale) SiO2 
 PCOD9232214
Probable space group: P 2/C
;
_chemical_formula_sum "Si O2"
_cell_formula_units_Z 28
_cell_length_a 11.857996
_cell_length_b 15.828053
_cell_length_c 8.681372
_cell_angle_alpha 90.000000
_cell_angle_beta 129.112095
_cell_angle_gamma 90.000000
_cell_volume 1264.271457
_symmetry_space_group_name_H-M "P 2/C"
_symmetry_group_IT_number 13
_symmetry_cell_setting 'monoclinic'
loop_
_space_group_symop_operation_xyz
x,y,z
-x,y,1/2-z
-x,-y,-z
x,-y,1/2+z
loop_
_atom_site_type_symbol
_atom_site_label
_atom_site_fract_x
_atom_site_fract_y
_atom_site_fract_z
Si Si1 0.406246 0.832128 0.479073
Si Si2 0.655630 0.250998 0.880705
Si Si3 0.778889 0.087749 0.039794
Si Si4 0.166800 0.407617 0.452610
Si Si5 0.655934 0.461702 0.190737
Si Si6 0.500000 0.674344 0.750000
Si Si7 0.879889 0.926920 0.278381
Si Si8 0.500000 0.027108 0.250000
O O1 0.395146 0.814743 0.291895
O O2 0.438655 0.740307 0.574190
O O3 0.253217 0.869660 0.397119
O O4 0.514207 0.906338 0.621253
O O5 0.500000 0.301233 0.750000
O O6 0.731951 0.181646 0.058379
O O7 0.783372 0.315142 0.947437
O O8 0.872407 0.092264 0.958219
O O9 0.639086 0.030874 0.878938
O O10 0.849190 0.027037 0.229694
O O11 0.265556 0.422438 0.387808
O O12 0.230944 0.473262 0.633092
O O13 0.000000 0.414673 0.250000
O O14 0.617820 0.387482 0.277303
O O15 0.500000 0.500000 0.000000
O O16 0.000000 0.909352 0.250000
#
# Coordination Sequence:
#
# PCOD9232214 Si02
#       8
#     4   4   4   4   4   2   4   2
#     4   9  21  36  60  90 124 161 205 279 312 380
#     4  11  22  38  64  94 128 165 220 271 328 380
#     4  10  21  35  62  85 121 165 211 276 311 372
#     4  12  27  46  66 103 139 171 212 270 344 408
#     4  12  23  46  77  97 126 171 221 273 321 405
#     4  11  20  40  67  96 116 154 225 262 332 361
#     4  10  21  38  54  83 122 171 213 246 323 391
#     4   9  18  36  59  94 120 156 221 270 330 351
#
# _framework density 22.147141999999999
#
# number of rings (size 3 to 8) (size 9 to 14) (size 15 to 20)
#    0.000    1.429    2.143    3.429    2.000    2.286 
#    7.714    0.000    0.000    0.000    0.000    0.000 
#    0.000    0.000    0.000    0.000    0.000    0.000 
#
# Total GULP energy -155871.384143 kJ/mol
# GULP energy per Si atom -5566.835148 kJ/mol
# Density = 2.209673 g / cm^3
# Si number density = 22.147142 Si / 1000 Ang^3
#
#
#
# Elastic Constant Matrix: (Units=GPa)
#
#
# Indices 1 2 3 4 5 6 
#
# 1 83.5258 -5.3318 5.8210 0.0000 13.7166 0.0000
# 2 -5.3318 113.0070 17.7810 0.0000 14.9736 0.0000
# 3 5.8210 17.7810 51.5745 0.0000 20.2093 0.0000
# 4 0.0000 0.0000 0.0000 11.7879 0.0000 11.7747
# 5 13.7166 14.9736 20.2093 0.0000 45.4704 0.0000
# 6 0.0000 0.0000 0.0000 11.7747 0.0000 31.9314
#
#
#
# Elastic Compliance Matrix: (Units=1/GPa)
#
#
# Indices 1 2 3 4 5 6 
#
# 1 0.012743 0.001185 -0.000227 0.000000 -0.004133 0.000000
# 2 0.001185 0.009619 -0.002505 0.000000 -0.002411 0.000000
# 3 -0.000227 -0.002505 0.024131 0.000000 -0.009832 0.000000
# 4 0.000000 0.000000 0.000000 0.134300 0.000000 -0.049523
# 5 -0.004133 -0.002411 -0.009832 0.000000 0.028403 0.000000
# 6 0.000000 0.000000 0.000000 -0.049523 0.000000 0.049579
#
#
# Mechanical properties :
#
#
# Convention : Reuss Voigt Hill
#
# Bulk Modulus (GPa) = 23.04284 31.62753 27.33519
# Shear Modulus (GPa) = 18.09398 33.16043 25.62721
#
# Velocity S-wave (km/s) = 2.86140 3.87367 3.40536
# Velocity P-wave (km/s) = 4.61994 5.85822 5.27554
#
# Compressibility (1/GPa) = 0.04339743
#
# Stress axis : x y z
#
# Youngs Moduli (GPa) = 78.47740 103.96581 41.44021
#
# Poissons Ratio (x) = -0.12315 0.00941
# Poissons Ratio (y) = -0.09296 0.10380
# Poissons Ratio (z) = 0.01782 0.26042
#
# Static dielectric constant tensor:
#      x y z
#    x 1.934590 0.000000 0.059770 
#    y 0.000000 2.125240 0.000000 
#    z 0.059770 0.000000 2.031760 
# 
# From -- ./inp_files/16912.got.cif
#   From: 2010.05.17/outbox.cif.g08.bks.cpg/sg13_9_cif.got.tgz:16912.got - 2010.06.03 16:44:36.
