data_PCOD9232472
_publ_section_title
;
Structure prediction by ZEFSAII (Michael W. Deem and Ramdas Pophale) SiO2 
 PCOD9232472
Probable space group: P 2/C
;
_chemical_formula_sum "Si O2"
_cell_formula_units_Z 32
_cell_length_a 19.447128
_cell_length_b 9.331089
_cell_length_c 23.730910
_cell_angle_alpha 90.000000
_cell_angle_beta 23.403083
_cell_angle_gamma 90.000000
_cell_volume 1710.442405
_symmetry_space_group_name_H-M "P 2/C"
_symmetry_group_IT_number 13
_symmetry_cell_setting 'monoclinic'
loop_
_space_group_symop_operation_xyz
x,y,z
-x,y,1/2-z
-x,-y,-z
x,-y,1/2+z
loop_
_atom_site_type_symbol
_atom_site_label
_atom_site_fract_x
_atom_site_fract_y
_atom_site_fract_z
Si Si1 0.184759 0.886084 0.206566
Si Si2 0.780840 0.120061 0.035601
Si Si3 0.853248 0.306899 0.087080
Si Si4 0.616465 0.166646 0.711301
Si Si5 0.454838 0.664813 0.045021
Si Si6 0.296572 0.136142 0.205181
Si Si7 0.603160 0.051062 0.057507
Si Si8 0.760134 0.621598 0.187216
O O1 0.293731 0.738454 0.132312
O O2 0.979553 0.874698 0.366117
O O3 0.246766 0.990817 0.210800
O O4 0.240836 0.954251 0.104560
O O5 0.771007 0.231644 0.094463
O O6 0.661226 0.136308 0.070083
O O7 0.725665 0.966436 0.103583
O O8 0.848680 0.205567 0.145934
O O9 0.757137 0.453699 0.175455
O O10 0.053451 0.345394 0.925400
O O11 0.500000 0.233318 0.750000
O O12 0.736591 0.281645 0.650227
O O13 0.478493 0.095633 0.857993
O O14 0.390264 0.667330 0.157380
O O15 0.500000 0.500000 0.000000
O O16 0.621865 0.758234 0.902679
O O17 0.448949 0.114670 0.136008
#
# Coordination Sequence:
#
# PCOD9232472 Si02
#       8
#     4   4   4   4   4   4   4   4
#     4  11  22  37  61  87 115 156 194 245 299 345
#     4  11  22  38  59  87 119 154 196 241 299 349
#     4  11  23  36  60  88 116 156 193 250 293 356
#     4  10  21  38  59  85 114 152 192 242 296 358
#     4  11  21  36  56  84 113 147 190 242 286 342
#     4  11  21  37  60  92 109 149 201 244 297 347
#     4  10  21  37  59  83 120 147 196 244 288 349
#     4  11  22  40  56  84 122 151 196 241 302 343
#
# _framework density 18.708608999999999
#
# number of rings (size 3 to 8) (size 9 to 14) (size 15 to 20)
#    0.000    1.250    3.750    4.125    0.000    1.000 
#    2.250    0.000    0.000    0.000    0.000    5.250 
#    0.000    0.000    0.000    0.000    0.000    0.000 
#
# Total GULP energy -178446.730944 kJ/mol
# GULP energy per Si atom -5576.460342 kJ/mol
# Density = 1.866603 g / cm^3
# Si number density = 18.708609 Si / 1000 Ang^3
#
#
#
# Elastic Constant Matrix: (Units=GPa)
#
#
# Indices 1 2 3 4 5 6 
#
# 1 89.3315 44.5338 12.9311 0.0000 2.5081 0.0000
# 2 44.5338 56.0167 -3.4706 0.0000 2.8116 0.0000
# 3 12.9311 -3.4706 70.9599 0.0000 15.5441 0.0000
# 4 0.0000 0.0000 0.0000 16.4181 0.0000 -2.0502
# 5 2.5081 2.8116 15.5441 0.0000 30.1164 0.0000
# 6 0.0000 0.0000 0.0000 -2.0502 0.0000 17.9047
#
#
#
# Elastic Compliance Matrix: (Units=1/GPa)
#
#
# Indices 1 2 3 4 5 6 
#
# 1 0.019977 -0.016312 -0.004969 0.000000 0.002424 0.000000
# 2 -0.016312 0.031379 0.005470 0.000000 -0.004394 0.000000
# 3 -0.004969 0.005470 0.017235 0.000000 -0.008993 0.000000
# 4 0.000000 0.000000 0.000000 0.061792 0.000000 0.007075
# 5 0.002424 -0.004394 -0.008993 0.000000 0.038054 0.000000
# 6 0.000000 0.000000 0.000000 0.007075 0.000000 0.056661
#
#
# Mechanical properties :
#
#
# Convention : Reuss Voigt Hill
#
# Bulk Modulus (GPa) = 27.04921 36.03295 31.54108
# Shear Modulus (GPa) = 18.58428 23.70876 21.14652
#
# Velocity S-wave (km/s) = 3.15517 3.56373 3.36566
# Velocity P-wave (km/s) = 5.26906 6.01959 5.65679
#
# Compressibility (1/GPa) = 0.03696965
#
# Stress axis : x y z
#
# Youngs Moduli (GPa) = 50.05703 31.86836 58.02014
#
# Poissons Ratio (x) = 0.51982 0.28831
# Poissons Ratio (y) = 0.81651 -0.31736
# Poissons Ratio (z) = 0.24874 -0.17431
#
# Static dielectric constant tensor:
#      x y z
#    x 1.659570 0.000000 0.016180 
#    y 0.000000 1.641160 0.000000 
#    z 0.016180 0.000000 1.699650 
# 
# From -- ./inp_files/80937.got.cif
#   From: 2010.05.17/outbox.cif.g08.bks.cpg/sg13_41_cif.got.tgz:80937.got - 2010.06.03 16:44:36.
