data_PCOD9232534
_publ_section_title
;
Structure prediction by ZEFSAII (Michael W. Deem and Ramdas Pophale) SiO2 
 PCOD9232534
Probable space group: P 2/C
;
_chemical_formula_sum "Si O2"
_cell_formula_units_Z 26
_cell_length_a 11.368140
_cell_length_b 9.731736
_cell_length_c 11.461160
_cell_angle_alpha 90.000000
_cell_angle_beta 60.137932
_cell_angle_gamma 90.000000
_cell_volume 1099.615585
_symmetry_space_group_name_H-M "P 2/C"
_symmetry_group_IT_number 13
_symmetry_cell_setting 'monoclinic'
loop_
_space_group_symop_operation_xyz
x,y,z
-x,y,1/2-z
-x,-y,-z
x,-y,1/2+z
loop_
_atom_site_type_symbol
_atom_site_label
_atom_site_fract_x
_atom_site_fract_y
_atom_site_fract_z
Si Si1 0.920041 0.297043 0.083749
Si Si2 0.290268 0.083988 0.043521
Si Si3 0.284245 0.362970 0.507996
Si Si4 0.121823 0.598057 0.309677
Si Si5 0.353658 0.647962 0.372019
Si Si6 0.000000 0.908429 0.750000
Si Si7 0.512334 0.151103 0.114879
O O1 0.934839 0.444916 0.140535
O O2 0.945510 0.183476 0.168591
O O3 0.779850 0.303349 0.080715
O O4 0.032281 0.294553 0.926522
O O5 0.140004 0.022394 0.137078
O O6 0.371491 0.115139 0.123208
O O7 0.285774 0.226653 0.975644
O O8 0.391688 0.982064 0.927179
O O9 0.158497 0.375883 0.658572
O O10 0.348414 0.512155 0.454679
O O11 0.399622 0.262019 0.499242
O O12 0.264396 0.605551 0.305756
O O13 0.500000 0.685152 0.250000
O O14 0.500000 0.208874 0.250000
#
# Coordination Sequence:
#
# PCOD9232534 Si02
#       7
#     4   4   4   4   4   2   4
#     4  10  22  37  62  95 133 176 209 269 329 388
#     4  11  25  45  69  94 130 175 218 269 327 396
#     4  11  23  40  65 100 133 168 220 276 323 383
#     4  10  21  37  60  95 137 173 213 262 335 387
#     4  11  22  39  66  99 129 174 222 268 320 389
#     4  12  22  44  68  96 128 176 228 266 320 402
#     4  11  25  47  68  94 132 176 215 271 335 388
#
# _framework density 23.644627
#
# number of rings (size 3 to 8) (size 9 to 14) (size 15 to 20)
#    0.000    1.231    1.538    4.154    4.308    6.154 
#    2.769    1.538    0.000    0.000    0.000    0.000 
#    0.000    0.000    0.000    0.000    0.000    0.000 
#
# Total GULP energy -145389.276438 kJ/mol
# GULP energy per Si atom -5591.895248 kJ/mol
# Density = 2.359081 g / cm^3
# Si number density = 23.644627 Si / 1000 Ang^3
#
#
#
# Elastic Constant Matrix: (Units=GPa)
#
#
# Indices 1 2 3 4 5 6 
#
# 1 84.0390 3.8068 22.0688 0.0000 -18.6664 0.0000
# 2 3.8068 38.3082 -6.3969 0.0000 0.8416 0.0000
# 3 22.0688 -6.3969 93.8053 0.0000 -13.3250 0.0000
# 4 0.0000 0.0000 0.0000 5.4526 0.0000 4.2575
# 5 -18.6664 0.8416 -13.3250 0.0000 41.1740 0.0000
# 6 0.0000 0.0000 0.0000 4.2575 0.0000 13.9457
#
#
#
# Elastic Compliance Matrix: (Units=1/GPa)
#
#
# Indices 1 2 3 4 5 6 
#
# 1 0.013895 -0.001939 -0.002621 0.000000 0.005491 0.000000
# 2 -0.001939 0.026675 0.002173 0.000000 -0.000721 0.000000
# 3 -0.002621 0.002173 0.011792 0.000000 0.002584 0.000000
# 4 0.000000 0.000000 0.000000 0.240797 0.000000 -0.073513
# 5 0.005491 -0.000721 0.002584 0.000000 0.027627 0.000000
# 6 0.000000 0.000000 0.000000 -0.073513 0.000000 0.094149
#
#
# Mechanical properties :
#
#
# Convention : Reuss Voigt Hill
#
# Bulk Modulus (GPa) = 21.01386 28.34555 24.67970
# Shear Modulus (GPa) = 11.47911 25.22606 18.35259
#
# Velocity S-wave (km/s) = 2.20576 3.26986 2.78903
# Velocity P-wave (km/s) = 3.92350 5.12544 4.56421
#
# Compressibility (1/GPa) = 0.04758763
#
# Stress axis : x y z
#
# Youngs Moduli (GPa) = 71.96849 37.48764 84.80173
#
# Poissons Ratio (x) = 0.07269 0.22229
# Poissons Ratio (y) = 0.13955 -0.18426
# Poissons Ratio (z) = 0.18865 -0.08145
#
# Static dielectric constant tensor:
#      x y z
#    x 1.916960 0.000000 -0.012420 
#    y 0.000000 1.869280 0.000000 
#    z -0.012420 0.000000 1.910410 
# 
# From -- ./inp_files/33760.got.cif
#   From: 2010.05.17/outbox.cif.g08.bks.cpg/sg13_17_cif.got.tgz:33760.got - 2010.06.03 16:44:36.
