data_PCOD9232731
_publ_section_title
;
Structure prediction by ZEFSAII (Michael W. Deem and Ramdas Pophale) SiO2 
 PCOD9232731
Probable space group: P 2/C
;
_chemical_formula_sum "Si O2"
_cell_formula_units_Z 26
_cell_length_a 10.782160
_cell_length_b 9.152527
_cell_length_c 15.282008
_cell_angle_alpha 90.000000
_cell_angle_beta 112.081444
_cell_angle_gamma 90.000000
_cell_volume 1397.472093
_symmetry_space_group_name_H-M "P 2/C"
_symmetry_group_IT_number 13
_symmetry_cell_setting 'monoclinic'
loop_
_space_group_symop_operation_xyz
x,y,z
-x,y,1/2-z
-x,-y,-z
x,-y,1/2+z
loop_
_atom_site_type_symbol
_atom_site_label
_atom_site_fract_x
_atom_site_fract_y
_atom_site_fract_z
Si Si1 0.356204 0.621721 0.055086
Si Si2 0.000000 0.083724 0.250000
Si Si3 0.346548 0.393273 0.207885
Si Si4 0.665485 0.563504 0.114668
Si Si5 0.145668 0.197750 0.775956
Si Si6 0.840795 0.842504 0.424486
Si Si7 0.105403 0.819880 0.593913
O O1 0.346804 0.528979 0.141401
O O2 0.512938 0.621739 0.073072
O O3 0.278230 0.771786 0.050923
O O4 0.295339 0.529087 0.959581
O O5 0.037172 0.166238 0.171955
O O6 0.121601 0.969109 0.300200
O O7 0.500000 0.333126 0.250000
O O8 0.317096 0.459022 0.296069
O O9 0.233936 0.282529 0.142413
O O10 0.751742 0.708228 0.144261
O O11 0.179049 0.196570 0.682480
O O12 0.000000 0.268077 0.750000
O O13 0.983428 0.779305 0.496543
O O14 0.849701 0.018588 0.426755
#
# Coordination Sequence:
#
# PCOD9232731 Si02
#       7
#     4   2   4   4   4   4   4
#     4  10  22  38  61  86 116 155 192 240 292 344
#     4   8  20  38  54  82 118 150 184 238 286 334
#     4  10  22  40  58  86 121 151 191 244 288 338
#     4  10  21  38  60  85 120 148 196 244 288 337
#     4   9  19  36  58  82 111 150 191 237 282 338
#     4  10  21  39  59  85 114 157 194 234 291 342
#     4  10  22  38  59  84 121 151 190 241 285 346
#
# _framework density 18.605022999999999
#
# number of rings (size 3 to 8) (size 9 to 14) (size 15 to 20)
#    0.462    1.846    1.538    0.000    4.308    1.846 
#    5.538    0.000    0.000    3.692    0.000    0.000 
#    0.000    0.000    0.000    0.000    0.000    0.000 
#
# Total GULP energy -144825.553578 kJ/mol
# GULP energy per Si atom -5570.213599 kJ/mol
# Density = 1.856268 g / cm^3
# Si number density = 18.605023 Si / 1000 Ang^3
#
#
#
# Elastic Constant Matrix: (Units=GPa)
#
#
# Indices 1 2 3 4 5 6 
#
# 1 41.4755 11.5844 -8.6179 0.0000 0.9771 0.0000
# 2 11.5844 18.9030 -6.3094 0.0000 7.7376 0.0000
# 3 -8.6179 -6.3094 31.0850 0.0000 -0.7990 0.0000
# 4 0.0000 0.0000 0.0000 3.6429 0.0000 9.6085
# 5 0.9771 7.7376 -0.7990 0.0000 26.8708 0.0000
# 6 0.0000 0.0000 0.0000 9.6085 0.0000 5.1075
#
#
#
# Elastic Compliance Matrix: (Units=1/GPa)
#
#
# Indices 1 2 3 4 5 6 
#
# 1 0.030224 -0.018780 0.004682 0.000000 0.004448 0.000000
# 2 -0.018780 0.076248 0.009730 0.000000 -0.020984 0.000000
# 3 0.004682 0.009730 0.035393 0.000000 -0.001920 0.000000
# 4 0.000000 0.000000 0.000000 -0.069285 0.000000 0.130342
# 5 0.004448 -0.020984 -0.001920 0.000000 0.043039 0.000000
# 6 0.000000 0.000000 0.000000 0.130342 0.000000 -0.049417
#
#
# Mechanical properties :
#
#
# Convention : Reuss Voigt Hill
#
# Bulk Modulus (GPa) = 7.51155 9.41974 8.46565
# Shear Modulus (GPa) = 41.90589 13.44468 27.67529
#
# Velocity S-wave (km/s) = 4.75109 2.69111 3.86102
# Velocity P-wave (km/s) = 5.84323 3.83798 4.94335
#
# Compressibility (1/GPa) = 0.13312824
#
# Stress axis : x y z
#
# Youngs Moduli (GPa) = 33.08624 13.11515 28.25384
#
# Poissons Ratio (x) = 0.24631 -0.13228
# Poissons Ratio (y) = 0.62137 -0.27491
# Poissons Ratio (z) = -0.15490 -0.12761
#
# Static dielectric constant tensor:
#      x y z
#    x 1.656020 0.000000 0.016350 
#    y 0.000000 1.638040 0.000000 
#    z 0.016350 0.000000 1.667840 
# 
# From -- ./inp_files/50177.got.cif
#   From: 2010.05.17/outbox.cif.g08.bks.cpg/sg13_26_cif.got.tgz:50177.got - 2010.06.03 16:44:36.
