data_PCOD9232545
_publ_section_title
;
Structure prediction by ZEFSAII (Michael W. Deem and Ramdas Pophale) SiO2 
 PCOD9232545
Probable space group: P 2/C
;
_chemical_formula_sum "Si O2"
_cell_formula_units_Z 22
_cell_length_a 9.582873
_cell_length_b 21.038173
_cell_length_c 5.067250
_cell_angle_alpha 90.000000
_cell_angle_beta 99.949532
_cell_angle_gamma 90.000000
_cell_volume 1006.224352
_symmetry_space_group_name_H-M "P 2/C"
_symmetry_group_IT_number 13
_symmetry_cell_setting 'monoclinic'
loop_
_space_group_symop_operation_xyz
x,y,z
-x,y,1/2-z
-x,-y,-z
x,-y,1/2+z
loop_
_atom_site_type_symbol
_atom_site_label
_atom_site_fract_x
_atom_site_fract_y
_atom_site_fract_z
Si Si1 0.362580 0.147763 0.890539
Si Si2 0.851365 0.658369 0.340554
Si Si3 0.409863 0.289964 0.990163
Si Si4 0.097097 0.798220 0.023136
Si Si5 0.334382 0.457464 0.679907
Si Si6 0.500000 0.046597 0.250000
O O1 0.500000 0.137708 0.750000
O O2 0.376030 0.216191 0.033159
O O3 0.227943 0.157257 0.653753
O O4 0.372375 0.094440 0.120929
O O5 0.737767 0.675845 0.080565
O O6 0.856629 0.724352 0.509616
O O7 0.775714 0.597361 0.438358
O O8 0.000000 0.645039 0.250000
O O9 0.500000 0.290604 0.750000
O O10 0.500000 0.319163 0.250000
O O11 0.000000 0.794204 0.250000
O O12 0.000000 0.820371 0.750000
O O13 0.500000 0.435757 0.750000
O O14 0.313289 0.513657 0.463040
O O15 0.500000 0.000000 0.500000
#
# Coordination Sequence:
#
# PCOD9232545 Si02
#       6
#     4   4   4   4   4   2
#     4  10  22  39  66  94 127 165 219 260 314 378
#     4  10  23  39  62  93 127 158 205 264 323 384
#     4  10  21  37  61  89 121 159 203 256 314 379
#     4  10  24  41  64  96 133 170 203 262 334 387
#     4  10  23  42  62  84 118 167 215 259 311 375
#     4  12  24  38  64 100 134 166 212 276 316 354
#
# _framework density 21.863913
#
# number of rings (size 3 to 8) (size 9 to 14) (size 15 to 20)
#    0.000    1.818    1.818    0.545    2.545   16.727 
#    0.000    0.000    0.000    3.273    0.000    0.000 
#    0.000    0.000    0.000    0.000    0.000    0.000 
#
# Total GULP energy -122809.925029 kJ/mol
# GULP energy per Si atom -5582.269319 kJ/mol
# Density = 2.181415 g / cm^3
# Si number density = 21.863913 Si / 1000 Ang^3
#
#
#
# Elastic Constant Matrix: (Units=GPa)
#
#
# Indices 1 2 3 4 5 6 
#
# 1 130.0816 43.9180 46.0584 0.0000 31.5674 0.0000
# 2 43.9180 109.5494 29.7794 0.0000 6.0785 0.0000
# 3 46.0584 29.7794 126.5468 0.0000 29.9226 0.0000
# 4 0.0000 0.0000 0.0000 15.9018 0.0000 10.0802
# 5 31.5674 6.0785 29.9226 0.0000 41.0193 0.0000
# 6 0.0000 0.0000 0.0000 10.0802 0.0000 12.2908
#
#
#
# Elastic Compliance Matrix: (Units=1/GPa)
#
#
# Indices 1 2 3 4 5 6 
#
# 1 0.011152 -0.003662 -0.001566 0.000000 -0.006897 0.000000
# 2 -0.003662 0.010958 -0.001847 0.000000 0.002542 0.000000
# 3 -0.001566 -0.001847 0.010341 0.000000 -0.006064 0.000000
# 4 0.000000 0.000000 0.000000 0.130983 0.000000 -0.107424
# 5 -0.006897 0.002542 -0.006064 0.000000 0.033734 0.000000
# 6 0.000000 0.000000 0.000000 -0.107424 0.000000 0.169464
#
#
# Mechanical properties :
#
#
# Convention : Reuss Voigt Hill
#
# Bulk Modulus (GPa) = 54.64494 67.29881 60.97187
# Shear Modulus (GPa) = 12.92383 30.27052 21.59718
#
# Velocity S-wave (km/s) = 2.43390 3.72492 3.14634
# Velocity P-wave (km/s) = 5.73986 7.02479 6.41458
#
# Compressibility (1/GPa) = 0.01829996
#
# Stress axis : x y z
#
# Youngs Moduli (GPa) = 89.66700 91.26164 96.70462
#
# Poissons Ratio (x) = 0.33424 0.15147
# Poissons Ratio (y) = 0.32840 0.17857
# Poissons Ratio (z) = 0.14044 0.16852
#
# Static dielectric constant tensor:
#      x y z
#    x 1.789670 0.000000 -0.007810 
#    y 0.000000 1.860880 0.000000 
#    z -0.007810 0.000000 1.936520 
# 
# From -- ./inp_files/2143.got.cif
#   From: 2010.05.17/outbox.cif.g08.bks.cpg/sg13_2_cif.got.tgz:2143.got - 2010.06.03 16:44:36.
