data_PCOD9232948
_publ_section_title
;
Structure prediction by ZEFSAII (Michael W. Deem and Ramdas Pophale) SiO2 
 PCOD9232948
Probable space group: P 2/C
;
_chemical_formula_sum "Si O2"
_cell_formula_units_Z 28
_cell_length_a 12.410097
_cell_length_b 6.844238
_cell_length_c 16.414988
_cell_angle_alpha 90.000000
_cell_angle_beta 60.067476
_cell_angle_gamma 90.000000
_cell_volume 1208.276615
_symmetry_space_group_name_H-M "P 2/C"
_symmetry_group_IT_number 13
_symmetry_cell_setting 'monoclinic'
loop_
_space_group_symop_operation_xyz
x,y,z
-x,y,1/2-z
-x,-y,-z
x,-y,1/2+z
loop_
_atom_site_type_symbol
_atom_site_label
_atom_site_fract_x
_atom_site_fract_y
_atom_site_fract_z
Si Si1 0.195098 0.196757 0.645339
Si Si2 0.208449 0.277293 0.319050
Si Si3 0.384378 0.873773 0.609535
Si Si4 0.412677 0.755429 0.860440
Si Si5 0.034564 0.944817 0.359957
Si Si6 0.121506 0.633017 0.443510
Si Si7 0.695883 0.563012 0.982885
O O1 0.115981 0.159447 0.757271
O O2 0.230427 0.414944 0.605507
O O3 0.106807 0.099749 0.609794
O O4 0.320499 0.074169 0.608194
O O5 0.292526 0.229791 0.209734
O O6 0.281967 0.185161 0.369137
O O7 0.196965 0.503073 0.348116
O O8 0.079139 0.168013 0.349295
O O9 0.512025 0.902664 0.610475
O O10 0.382211 0.722873 0.536028
O O11 0.500000 0.708670 0.750000
O O12 0.389183 0.571002 0.927096
O O13 0.077248 0.835712 0.424487
O O14 0.202044 0.650933 0.494176
O O15 0.000000 0.500000 0.500000
#
# Coordination Sequence:
#
# PCOD9232948 Si02
#       7
#     4   4   4   4   4   4   4
#     4  10  22  37  59  91 119 150 196 241 287 352
#     4   9  21  39  61  84 116 158 194 240 291 345
#     4  10  21  40  62  85 115 155 198 242 296 341
#     4   9  20  41  62  84 117 154 199 246 291 348
#     4  10  21  39  59  84 123 159 189 234 293 352
#     4  11  22  36  55  85 121 156 194 235 286 351
#     4  11  22  37  60  91 116 153 195 245 296 341
#
# _framework density 23.173501999999999
#
# number of rings (size 3 to 8) (size 9 to 14) (size 15 to 20)
#    0.000    2.000    1.429    1.286    2.000    3.429 
#    0.000    2.857    0.000   10.286    0.000    0.000 
#    0.000    0.000    0.000    0.000    0.000    0.000 
#
# Total GULP energy -156506.636228 kJ/mol
# GULP energy per Si atom -5589.522722 kJ/mol
# Density = 2.312076 g / cm^3
# Si number density = 23.173502 Si / 1000 Ang^3
#
#
#
# Elastic Constant Matrix: (Units=GPa)
#
#
# Indices 1 2 3 4 5 6 
#
# 1 117.5952 18.5715 2.3904 0.0000 29.7387 0.0000
# 2 18.5715 50.5618 13.5848 0.0000 20.8360 0.0000
# 3 2.3904 13.5848 85.0578 0.0000 8.7337 0.0000
# 4 0.0000 0.0000 0.0000 19.5153 0.0000 1.0667
# 5 29.7387 20.8360 8.7337 0.0000 33.9331 0.0000
# 6 0.0000 0.0000 0.0000 1.0667 0.0000 30.6100
#
#
#
# Elastic Compliance Matrix: (Units=1/GPa)
#
#
# Indices 1 2 3 4 5 6 
#
# 1 0.010967 -0.000247 0.000722 0.000000 -0.009646 0.000000
# 2 -0.000247 0.027068 -0.002703 0.000000 -0.015708 0.000000
# 3 0.000722 -0.002703 0.012390 0.000000 -0.002162 0.000000
# 4 0.000000 0.000000 0.000000 0.051340 0.000000 -0.001789
# 5 -0.009646 -0.015708 -0.002162 0.000000 0.048125 0.000000
# 6 0.000000 0.000000 0.000000 -0.001789 0.000000 0.032731
#
#
# Mechanical properties :
#
#
# Convention : Reuss Voigt Hill
#
# Bulk Modulus (GPa) = 21.75435 35.81201 28.78318
# Shear Modulus (GPa) = 24.70330 31.38955 28.04643
#
# Velocity S-wave (km/s) = 3.26853 3.68441 3.48268
# Velocity P-wave (km/s) = 4.86337 5.79545 5.34975
#
# Compressibility (1/GPa) = 0.04596781
#
# Stress axis : x y z
#
# Youngs Moduli (GPa) = 91.17895 36.94379 80.70943
#
# Poissons Ratio (x) = 0.00914 -0.05825
# Poissons Ratio (y) = 0.02256 0.21818
# Poissons Ratio (z) = -0.06580 0.09987
#
# Static dielectric constant tensor:
#      x y z
#    x 1.877680 0.000000 -0.031890 
#    y 0.000000 1.830690 0.000000 
#    z -0.031890 0.000000 1.920910 
# 
# From -- ./inp_files/49993.got.cif
#   From: 2010.05.17/outbox.cif.g08.bks.cpg/sg13_25_cif.got.tgz:49993.got - 2010.06.03 16:44:36.
