data_PCOD9232230
_publ_section_title
;
Structure prediction by ZEFSAII (Michael W. Deem and Ramdas Pophale) SiO2 
 PCOD9232230
Probable space group: P 2/C
;
_chemical_formula_sum "Si O2"
_cell_formula_units_Z 32
_cell_length_a 14.063481
_cell_length_b 15.615746
_cell_length_c 11.585379
_cell_angle_alpha 90.000000
_cell_angle_beta 143.310240
_cell_angle_gamma 90.000000
_cell_volume 1520.164284
_symmetry_space_group_name_H-M "P 2/C"
_symmetry_group_IT_number 13
_symmetry_cell_setting 'monoclinic'
loop_
_space_group_symop_operation_xyz
x,y,z
-x,y,1/2-z
-x,-y,-z
x,-y,1/2+z
loop_
_atom_site_type_symbol
_atom_site_label
_atom_site_fract_x
_atom_site_fract_y
_atom_site_fract_z
Si Si1 0.304887 0.955926 0.573321
Si Si2 0.140597 0.467604 0.271842
Si Si3 0.135423 0.383391 0.601592
Si Si4 0.816169 0.236874 0.531459
Si Si5 0.663534 0.243386 0.622709
Si Si6 0.643331 0.350113 0.181083
Si Si7 0.324937 0.959166 0.333140
Si Si8 0.366113 0.488513 0.693477
O O1 0.500000 0.949059 0.750000
O O2 0.229996 0.863023 0.529068
O O3 0.252802 0.983370 0.390976
O O4 0.260629 0.013039 0.643239
O O5 0.082704 0.556390 0.156011
O O6 0.271280 0.410502 0.329989
O O7 0.219197 0.500281 0.464659
O O8 0.993798 0.402335 0.120671
O O9 0.184071 0.287165 0.669103
O O10 0.301187 0.428649 0.729504
O O11 0.698987 0.262528 0.522632
O O12 0.772286 0.294165 0.378064
O O13 0.000000 0.245120 0.750000
O O14 0.495778 0.286136 0.492040
O O15 0.662496 0.143225 0.646000
O O16 0.573315 0.422150 0.199038
O O17 0.500000 0.000000 0.500000
O O18 0.500000 0.443716 0.750000
#
# Coordination Sequence:
#
# PCOD9232230 Si02
#       8
#     4   4   4   4   4   4   4   4
#     4   9  18  36  59  84 112 148 190 238 294 363
#     4  10  21  36  53  77 111 151 188 231 286 344
#     4  10  21  36  54  77 111 149 188 232 286 343
#     4  11  21  34  56  85 113 142 184 238 293 349
#     4  11  21  37  58  84 113 146 190 246 290 348
#     4  11  21  34  57  82 109 144 192 240 286 342
#     4   9  18  35  61  86 114 148 192 242 302 365
#     4  11  21  34  53  76 106 148 191 235 282 342
#
# _framework density 21.050357000000002
#
# number of rings (size 3 to 8) (size 9 to 14) (size 15 to 20)
#    0.000    1.750    0.000    6.750    0.000    4.000 
#    0.000    9.375    0.000    3.000    0.000    0.000 
#    0.000    0.000    0.000    0.000    0.000    0.000 
#
# Total GULP energy -178256.275641 kJ/mol
# GULP energy per Si atom -5570.508614 kJ/mol
# Density = 2.100245 g / cm^3
# Si number density = 21.050357 Si / 1000 Ang^3
#
#
#
# Elastic Constant Matrix: (Units=GPa)
#
#
# Indices 1 2 3 4 5 6 
#
# 1 69.0196 24.6896 12.2151 0.0000 -10.0863 0.0000
# 2 24.6896 86.5544 30.5664 0.0000 -9.4458 0.0000
# 3 12.2151 30.5664 87.6677 0.0000 -11.6361 0.0000
# 4 0.0000 0.0000 0.0000 36.8985 0.0000 1.8111
# 5 -10.0863 -9.4458 -11.6361 0.0000 34.0353 0.0000
# 6 0.0000 0.0000 0.0000 1.8111 0.0000 20.3363
#
#
#
# Elastic Compliance Matrix: (Units=1/GPa)
#
#
# Indices 1 2 3 4 5 6 
#
# 1 0.016588 -0.004208 -0.000363 0.000000 0.003624 0.000000
# 2 -0.004208 0.014400 -0.004263 0.000000 0.001292 0.000000
# 3 -0.000363 -0.004263 0.013379 0.000000 0.003284 0.000000
# 4 0.000000 0.000000 0.000000 0.027220 0.000000 -0.002424
# 5 0.003624 0.001292 0.003284 0.000000 0.031936 0.000000
# 6 0.000000 0.000000 0.000000 -0.002424 0.000000 0.049389
#
#
# Mechanical properties :
#
#
# Convention : Reuss Voigt Hill
#
# Bulk Modulus (GPa) = 37.45420 42.02045 39.73733
# Shear Modulus (GPa) = 27.85812 29.97208 28.91510
#
# Velocity S-wave (km/s) = 3.64181 3.77746 3.71025
# Velocity P-wave (km/s) = 5.95945 6.24746 6.10515
#
# Compressibility (1/GPa) = 0.02669927
#
# Stress axis : x y z
#
# Youngs Moduli (GPa) = 60.28551 69.44341 74.74136
#
# Poissons Ratio (x) = 0.29221 0.02714
# Poissons Ratio (y) = 0.25368 0.31862
# Poissons Ratio (z) = 0.02189 0.29604
#
# Static dielectric constant tensor:
#      x y z
#    x 1.888620 0.000000 -0.018090 
#    y 0.000000 1.714970 0.000000 
#    z -0.018090 0.000000 1.821920 
# 
# From -- ./inp_files/30411.got.cif
#   From: 2010.05.17/outbox.cif.g08.bks.cpg/sg13_16_cif.got.tgz:30411.got - 2010.06.03 16:44:36.
