data_PCOD9232569
_publ_section_title
;
Structure prediction by ZEFSAII (Michael W. Deem and Ramdas Pophale) SiO2 
 PCOD9232569
Probable space group: P 2/C
;
_chemical_formula_sum "Si O2"
_cell_formula_units_Z 26
_cell_length_a 24.235231
_cell_length_b 7.298519
_cell_length_c 20.265306
_cell_angle_alpha 90.000000
_cell_angle_beta 158.861134
_cell_angle_gamma 90.000000
_cell_volume 1292.696057
_symmetry_space_group_name_H-M "P 2/C"
_symmetry_group_IT_number 13
_symmetry_cell_setting 'monoclinic'
loop_
_space_group_symop_operation_xyz
x,y,z
-x,y,1/2-z
-x,-y,-z
x,-y,1/2+z
loop_
_atom_site_type_symbol
_atom_site_label
_atom_site_fract_x
_atom_site_fract_y
_atom_site_fract_z
Si Si1 0.913475 0.406539 0.055384
Si Si2 0.825193 0.751299 0.046626
Si Si3 0.500000 0.688037 0.250000
Si Si4 0.268247 0.471495 0.779714
Si Si5 0.512025 0.792311 0.488325
Si Si6 0.756073 0.539302 0.095878
Si Si7 0.695046 0.119578 0.864655
O O1 0.840668 0.569475 0.018863
O O2 0.095614 0.421212 0.260091
O O3 0.854249 0.433900 0.914493
O O4 0.849505 0.220433 0.014559
O O5 0.761971 0.702077 0.048696
O O6 0.000000 0.818844 0.250000
O O7 0.722919 0.903892 0.897799
O O8 0.594350 0.560103 0.405345
O O9 0.371209 0.810638 0.140443
O O10 0.409569 0.337492 0.920426
O O11 0.220162 0.423415 0.800397
O O12 0.328860 0.682018 0.842127
O O13 0.429282 0.808154 0.325849
O O14 0.500000 0.000000 0.500000
#
# Coordination Sequence:
#
# PCOD9232569 Si02
#       7
#     4   4   2   4   4   4   4
#     4  10  22  43  67  87 126 168 212 259 309 381
#     4  10  23  39  65  90 123 167 212 258 312 375
#     4  12  24  36  62  92 124 164 200 258 320 364
#     4  10  21  40  63  92 125 164 212 257 315 376
#     4  10  21  37  62  90 127 163 204 257 317 373
#     4  11  23  42  63  95 127 164 208 265 316 368
#     4  11  23  40  60  92 123 169 205 255 317 375
#
# _framework density 20.113002999999999
#
# number of rings (size 3 to 8) (size 9 to 14) (size 15 to 20)
#    0.000    1.538    3.077    1.385    2.154    3.077 
#    0.000    0.000    0.000    7.385    0.000    0.000 
#    0.000    0.000    0.000    0.000    0.000    0.000 
#
# Total GULP energy -145082.357535 kJ/mol
# GULP energy per Si atom -5580.090674 kJ/mol
# Density = 2.006722 g / cm^3
# Si number density = 20.113003 Si / 1000 Ang^3
#
#
#
# Elastic Constant Matrix: (Units=GPa)
#
#
# Indices 1 2 3 4 5 6 
#
# 1 120.4941 29.6747 12.8078 0.0000 -11.1210 0.0000
# 2 29.6747 84.7772 16.4098 0.0000 4.0063 0.0000
# 3 12.8078 16.4098 44.1626 0.0000 5.4230 0.0000
# 4 0.0000 0.0000 0.0000 20.4056 0.0000 -8.9790
# 5 -11.1210 4.0063 5.4230 0.0000 14.0475 0.0000
# 6 0.0000 0.0000 0.0000 -8.9790 0.0000 23.1062
#
#
#
# Elastic Compliance Matrix: (Units=1/GPa)
#
#
# Indices 1 2 3 4 5 6 
#
# 1 0.010463 -0.003578 -0.002989 0.000000 0.010458 0.000000
# 2 -0.003578 0.013981 -0.003485 0.000000 -0.005475 0.000000
# 3 -0.002989 -0.003485 0.026217 0.000000 -0.011493 0.000000
# 4 0.000000 0.000000 0.000000 0.059114 0.000000 0.022972
# 5 0.010458 -0.005475 -0.011493 0.000000 0.085465 0.000000
# 6 0.000000 0.000000 0.000000 0.022972 0.000000 0.052205
#
#
# Mechanical properties :
#
#
# Convention : Reuss Voigt Hill
#
# Bulk Modulus (GPa) = 32.72611 40.80206 36.76409
# Shear Modulus (GPa) = 18.00270 24.21464 21.10867
#
# Velocity S-wave (km/s) = 2.99503 3.47353 3.24312
# Velocity P-wave (km/s) = 5.31665 6.03471 5.68702
#
# Compressibility (1/GPa) = 0.03055664
#
# Stress axis : x y z
#
# Youngs Moduli (GPa) = 95.57214 71.52368 38.14344
#
# Poissons Ratio (x) = 0.25592 0.11402
# Poissons Ratio (y) = 0.34197 0.13294
# Poissons Ratio (z) = 0.28568 0.24927
#
# Static dielectric constant tensor:
#      x y z
#    x 1.742720 0.000000 -0.021270 
#    y 0.000000 1.698840 0.000000 
#    z -0.021270 0.000000 1.744080 
# 
# From -- ./inp_files/89451.got.cif
#   From: 2010.05.17/outbox.cif.g08.bks.cpg/sg13_45_cif.got.tgz:89451.got - 2010.06.03 16:44:36.
