data_PCOD9232089
_publ_section_title
;
Structure prediction by ZEFSAII (Michael W. Deem and Ramdas Pophale) SiO2 
 PCOD9232089
Probable space group: P 2/C
;
_chemical_formula_sum "Si O2"
_cell_formula_units_Z 28
_cell_length_a 22.829443
_cell_length_b 10.680934
_cell_length_c 11.187630
_cell_angle_alpha 90.000000
_cell_angle_beta 31.047190
_cell_angle_gamma 90.000000
_cell_volume 1406.943722
_symmetry_space_group_name_H-M "P 2/C"
_symmetry_group_IT_number 13
_symmetry_cell_setting 'monoclinic'
loop_
_space_group_symop_operation_xyz
x,y,z
-x,y,1/2-z
-x,-y,-z
x,-y,1/2+z
loop_
_atom_site_type_symbol
_atom_site_label
_atom_site_fract_x
_atom_site_fract_y
_atom_site_fract_z
Si Si1 0.251331 0.006589 0.306779
Si Si2 0.562648 0.648202 0.796665
Si Si3 0.199529 0.320602 0.707201
Si Si4 0.311625 0.729269 0.239779
Si Si5 0.877923 0.937098 0.217306
Si Si6 0.286939 0.576191 0.516929
Si Si7 0.610364 0.258754 0.474656
O O1 0.177144 0.030798 0.557029
O O2 0.317003 0.878205 0.221635
O O3 0.187580 0.982342 0.290223
O O4 0.331866 0.125525 0.148736
O O5 0.671627 0.723917 0.554736
O O6 0.599635 0.507387 0.701889
O O7 0.434095 0.675227 0.985934
O O8 0.572257 0.679755 0.918505
O O9 0.211140 0.317527 0.829152
O O10 0.117731 0.214607 0.801341
O O11 0.193663 0.464768 0.676114
O O12 0.282635 0.677542 0.420736
O O13 0.000000 0.000000 0.000000
O O14 0.300663 0.648373 0.616493
O O15 0.500000 0.243906 0.750000
#
# Coordination Sequence:
#
# PCOD9232089 Si02
#       7
#     4   4   4   4   4   4   4
#     4  11  25  42  61  95 125 164 218 262 330 391
#     4  10  21  33  55  85 130 167 215 242 299 377
#     4   9  22  34  58  88 120 156 214 261 306 372
#     4  11  20  34  56  85 127 172 200 253 304 376
#     4  11  23  45  68  89 117 162 216 282 337 385
#     4  10  21  34  56  88 129 172 212 250 301 373
#     4  12  23  36  57  91 134 180 209 251 308 394
#
# _framework density 19.901294
#
# number of rings (size 3 to 8) (size 9 to 14) (size 15 to 20)
#    0.857    0.571    2.857    3.000    2.000    2.857 
#    0.000    0.000    0.000    3.429    0.000   12.000 
#    0.000    0.000    0.000    0.000    0.000    0.000 
#
# Total GULP energy -156049.608154 kJ/mol
# GULP energy per Si atom -5573.200291 kJ/mol
# Density = 1.985600 g / cm^3
# Si number density = 19.901294 Si / 1000 Ang^3
#
#
#
# Elastic Constant Matrix: (Units=GPa)
#
#
# Indices 1 2 3 4 5 6 
#
# 1 67.9823 30.4563 21.6397 0.0000 18.0846 0.0000
# 2 30.4563 143.2873 21.7571 0.0000 -1.6784 0.0000
# 3 21.6397 21.7571 40.6211 0.0000 14.7955 0.0000
# 4 0.0000 0.0000 0.0000 31.0000 0.0000 -0.0018
# 5 18.0846 -1.6784 14.7955 0.0000 22.9279 0.0000
# 6 0.0000 0.0000 0.0000 -0.0018 0.0000 27.8785
#
#
#
# Elastic Compliance Matrix: (Units=1/GPa)
#
#
# Indices 1 2 3 4 5 6 
#
# 1 0.021840 -0.004226 -0.003901 0.000000 -0.015018 0.000000
# 2 -0.004226 0.008731 -0.005061 0.000000 0.007238 0.000000
# 3 -0.003901 -0.005061 0.037154 0.000000 -0.021269 0.000000
# 4 0.000000 0.000000 0.000000 0.032258 0.000000 0.000002
# 5 -0.015018 0.007238 -0.021269 0.000000 0.069716 0.000000
# 6 0.000000 0.000000 0.000000 0.000002 0.000000 0.035870
#
#
# Mechanical properties :
#
#
# Convention : Reuss Voigt Hill
#
# Bulk Modulus (GPa) = 24.18525 44.39966 34.29246
# Shear Modulus (GPa) = 20.34782 28.23045 24.28914
#
# Velocity S-wave (km/s) = 3.20103 3.77042 3.49733
# Velocity P-wave (km/s) = 5.08341 6.42752 5.79457
#
# Compressibility (1/GPa) = 0.04134752
#
# Stress axis : x y z
#
# Youngs Moduli (GPa) = 45.78816 114.54085 26.91517
#
# Poissons Ratio (x) = 0.48401 0.10500
# Poissons Ratio (y) = 0.19349 0.13623
# Poissons Ratio (z) = 0.17862 0.57975
#
# Static dielectric constant tensor:
#      x y z
#    x 1.760100 0.000000 0.033120 
#    y 0.000000 1.706160 0.000000 
#    z 0.033120 0.000000 1.727030 
# 
# From -- ./inp_files/41763.got.cif
#   From: 2010.05.17/outbox.cif.g08.bks.cpg/sg13_21_cif.got.tgz:41763.got - 2010.06.03 16:44:36.
