data_PCOD9232454
_publ_section_title
;
Structure prediction by ZEFSAII (Michael W. Deem and Ramdas Pophale) SiO2 
 PCOD9232454
Probable space group: P 2/C
;
_chemical_formula_sum "Si O2"
_cell_formula_units_Z 16
_cell_length_a 20.153512
_cell_length_b 5.268692
_cell_length_c 9.243922
_cell_angle_alpha 90.000000
_cell_angle_beta 138.629255
_cell_angle_gamma 90.000000
_cell_volume 648.730747
_symmetry_space_group_name_H-M "P 2/C"
_symmetry_group_IT_number 13
_symmetry_cell_setting 'monoclinic'
loop_
_space_group_symop_operation_xyz
x,y,z
-x,y,1/2-z
-x,-y,-z
x,-y,1/2+z
loop_
_atom_site_type_symbol
_atom_site_label
_atom_site_fract_x
_atom_site_fract_y
_atom_site_fract_z
Si Si1 0.692106 0.776689 0.390566
Si Si2 0.883956 0.937394 0.847338
Si Si3 0.380215 0.276482 0.058220
Si Si4 0.076231 0.439109 0.494707
O O1 0.811835 0.827710 0.606086
O O2 0.665023 0.522045 0.434164
O O3 0.643237 0.020019 0.389969
O O4 0.656236 0.750522 0.167610
O O5 0.878672 0.717603 0.961385
O O6 0.849631 0.216501 0.839441
O O7 0.000000 0.000000 0.000000
O O8 0.500000 0.311766 0.250000
O O9 0.000000 0.347590 0.250000
O O10 0.000000 0.500000 0.500000
#
# Coordination Sequence:
#
# PCOD9232454 Si02
#       4
#     4   4   4   4
#     4  12  26  45  75 109 146 194 244 300 375 444
#     4  10  23  41  64  96 138 183 233 287 343 424
#     4  12  26  49  76 109 146 189 246 314 374 437
#     4  10  21  37  58  84 122 174 222 271 328 389
#
# _framework density 24.663546
#
# number of rings (size 3 to 8) (size 9 to 14) (size 15 to 20)
#    0.000    1.000    0.000    6.000    0.000   12.000 
#    0.000    0.000    0.000    0.000    0.000    0.000 
#    0.000    0.000    0.000    0.000    0.000    0.000 
#
# Total GULP energy -89503.498514 kJ/mol
# GULP energy per Si atom -5593.968657 kJ/mol
# Density = 2.460741 g / cm^3
# Si number density = 24.663546 Si / 1000 Ang^3
#
#
#
# Elastic Constant Matrix: (Units=GPa)
#
#
# Indices 1 2 3 4 5 6 
#
# 1 124.4693 68.4900 97.1114 0.0000 -6.6634 0.0000
# 2 68.4900 271.2335 75.2413 0.0000 -13.2896 0.0000
# 3 97.1114 75.2413 231.4704 0.0000 -11.1952 0.0000
# 4 0.0000 0.0000 0.0000 37.5471 0.0000 2.6248
# 5 -6.6634 -13.2896 -11.1952 0.0000 55.0300 0.0000
# 6 0.0000 0.0000 0.0000 2.6248 0.0000 42.1229
#
#
#
# Elastic Compliance Matrix: (Units=1/GPa)
#
#
# Indices 1 2 3 4 5 6 
#
# 1 0.012788 -0.001909 -0.004739 0.000000 0.000124 0.000000
# 2 -0.001909 0.004365 -0.000584 0.000000 0.000704 0.000000
# 3 -0.004739 -0.000584 0.006528 0.000000 0.000613 0.000000
# 4 0.000000 0.000000 0.000000 0.026750 0.000000 -0.001667
# 5 0.000124 0.000704 0.000613 0.000000 0.018482 0.000000
# 6 0.000000 0.000000 0.000000 -0.001667 0.000000 0.023844
#
#
# Mechanical properties :
#
#
# Convention : Reuss Voigt Hill
#
# Bulk Modulus (GPa) = 108.48032 123.20652 115.84342
# Shear Modulus (GPa) = 45.33394 52.69536 49.01465
#
# Velocity S-wave (km/s) = 4.29195 4.62732 4.46279
# Velocity P-wave (km/s) = 8.28497 8.86638 8.58060
#
# Compressibility (1/GPa) = 0.00921826
#
# Stress axis : x y z
#
# Youngs Moduli (GPa) = 78.19743 229.07573 153.18900
#
# Poissons Ratio (x) = 0.43721 0.72593
# Poissons Ratio (y) = 0.14924 0.08950
# Poissons Ratio (z) = 0.37056 0.13383
#
# Static dielectric constant tensor:
#      x y z
#    x 3.487970 0.000000 5.086590 
#    y 0.000000 2.321640 0.000000 
#    z 5.086590 0.000000 19.233790 
# 
# From -- ./inp_files/20301.got.cif
#   From: 2010.05.17/outbox.cif.g08.bks.cpg/sg13_11_cif.got.tgz:20301.got - 2010.06.03 16:44:36.
