data_PCOD9232209
_publ_section_title
;
Structure prediction by ZEFSAII (Michael W. Deem and Ramdas Pophale) SiO2 
 PCOD9232209
Probable space group: P 2/C
;
_chemical_formula_sum "Si O2"
_cell_formula_units_Z 32
_cell_length_a 15.381097
_cell_length_b 14.486199
_cell_length_c 20.649662
_cell_angle_alpha 90.000000
_cell_angle_beta 160.085980
_cell_angle_gamma 90.000000
_cell_volume 1567.153800
_symmetry_space_group_name_H-M "P 2/C"
_symmetry_group_IT_number 13
_symmetry_cell_setting 'monoclinic'
loop_
_space_group_symop_operation_xyz
x,y,z
-x,y,1/2-z
-x,-y,-z
x,-y,1/2+z
loop_
_atom_site_type_symbol
_atom_site_label
_atom_site_fract_x
_atom_site_fract_y
_atom_site_fract_z
Si Si1 0.953707 0.931285 0.058886
Si Si2 0.754933 0.891789 0.774943
Si Si3 0.277339 0.981792 0.473604
Si Si4 0.948773 0.722438 0.504813
Si Si5 0.568405 0.828576 0.153266
Si Si6 0.606059 0.369299 0.000260
Si Si7 0.973503 0.574416 0.423422
Si Si8 0.901865 0.574660 0.579316
O O1 0.765227 0.932678 0.987129
O O2 0.202012 0.864834 0.232273
O O3 0.817236 0.910749 0.894809
O O4 0.068559 0.034744 0.137781
O O5 0.463268 0.918070 0.561131
O O6 0.837020 0.788983 0.816646
O O7 0.000000 0.991217 0.250000
O O8 0.409325 0.082539 0.564637
O O9 0.716676 0.785911 0.318626
O O10 0.052447 0.669467 0.513466
O O11 0.852400 0.647978 0.488066
O O12 0.412320 0.742594 0.014718
O O13 0.319095 0.407966 0.803045
O O14 0.720467 0.404544 0.012185
O O15 0.806872 0.405844 0.193503
O O16 0.000000 0.500000 0.500000
O O17 0.118026 0.527563 0.464713
#
# Coordination Sequence:
#
# PCOD9232209 Si02
#       8
#     4   4   4   4   4   4   4   4
#     4   9  19  37  54  77 114 149 192 239 281 332
#     4   9  19  36  55  81 105 153 195 232 285 333
#     4  11  23  34  55  83 119 157 192 238 291 344
#     4   9  19  36  59  83 111 149 195 244 283 335
#     4   9  21  37  54  84 117 150 198 239 283 335
#     4  10  21  36  58  91 118 150 185 237 290 358
#     4   9  19  37  58  83 115 146 187 236 288 343
#     4  10  21  35  61  89 116 147 182 241 298 346
#
# _framework density 20.419183
#
# number of rings (size 3 to 8) (size 9 to 14) (size 15 to 20)
#    0.000    2.500    0.000    1.500    3.500    7.500 
#    4.500    0.000   30.250    0.000    0.000    0.000 
#    0.000    0.000    0.000    0.000    0.000    0.000 
#
# Total GULP energy -178519.958813 kJ/mol
# GULP energy per Si atom -5578.748713 kJ/mol
# Density = 2.037271 g / cm^3
# Si number density = 20.419183 Si / 1000 Ang^3
#
#
#
# Elastic Constant Matrix: (Units=GPa)
#
#
# Indices 1 2 3 4 5 6 
#
# 1 22.2780 -5.3981 -0.2137 0.0000 -3.4588 0.0000
# 2 -5.3981 48.9379 7.9895 0.0000 1.5045 0.0000
# 3 -0.2137 7.9895 51.9771 0.0000 0.8318 0.0000
# 4 0.0000 0.0000 0.0000 31.1333 0.0000 0.5493
# 5 -3.4588 1.5045 0.8318 0.0000 22.5033 0.0000
# 6 0.0000 0.0000 0.0000 0.5493 0.0000 14.8129
#
#
#
# Elastic Compliance Matrix: (Units=1/GPa)
#
#
# Indices 1 2 3 4 5 6 
#
# 1 0.047195 0.005107 -0.000702 0.000000 0.006938 0.000000
# 2 0.005107 0.021550 -0.003283 0.000000 -0.000534 0.000000
# 3 -0.000702 -0.003283 0.019751 0.000000 -0.000618 0.000000
# 4 0.000000 0.000000 0.000000 0.032141 0.000000 -0.001192
# 5 0.006938 -0.000534 -0.000618 0.000000 0.045563 0.000000
# 6 0.000000 0.000000 0.000000 -0.001192 0.000000 0.067553
#
#
# Mechanical properties :
#
#
# Convention : Reuss Voigt Hill
#
# Bulk Modulus (GPa) = 11.02042 14.21648 12.61845
# Shear Modulus (GPa) = 19.10184 21.74427 20.42306
#
# Velocity S-wave (km/s) = 3.06189 3.26681 3.16601
# Velocity P-wave (km/s) = 4.23191 4.60509 4.42244
#
# Compressibility (1/GPa) = 0.09074060
#
# Stress axis : x y z
#
# Youngs Moduli (GPa) = 21.18851 46.40414 50.63070
#
# Poissons Ratio (x) = -0.23700 0.03555
# Poissons Ratio (y) = -0.10821 0.16622
# Poissons Ratio (z) = 0.01488 0.15234
#
# Static dielectric constant tensor:
#      x y z
#    x 1.740050 0.000000 -0.032400 
#    y 0.000000 1.727950 0.000000 
#    z -0.032400 0.000000 1.760750 
# 
# From -- ./inp_files/80411.got.cif
#   From: 2010.05.17/outbox.cif.g08.bks.cpg/sg13_41_cif.got.tgz:80411.got - 2010.06.03 16:44:36.
