data_PCOD9232836
_publ_section_title
;
Structure prediction by ZEFSAII (Michael W. Deem and Ramdas Pophale) SiO2 
 PCOD9232836
Probable space group: P 2/C
;
_chemical_formula_sum "Si O2"
_cell_formula_units_Z 30
_cell_length_a 26.140091
_cell_length_b 10.919997
_cell_length_c 8.871604
_cell_angle_alpha 90.000000
_cell_angle_beta 145.090261
_cell_angle_gamma 90.000000
_cell_volume 1449.253414
_symmetry_space_group_name_H-M "P 2/C"
_symmetry_group_IT_number 13
_symmetry_cell_setting 'monoclinic'
loop_
_space_group_symop_operation_xyz
x,y,z
-x,y,1/2-z
-x,-y,-z
x,-y,1/2+z
loop_
_atom_site_type_symbol
_atom_site_label
_atom_site_fract_x
_atom_site_fract_y
_atom_site_fract_z
Si Si1 0.776138 0.529486 0.275374
Si Si2 0.560465 0.921575 0.027766
Si Si3 0.875486 0.346787 0.282709
Si Si4 0.140236 0.905233 0.597779
Si Si5 0.671596 0.104628 0.078872
Si Si6 0.000000 0.111335 0.250000
Si Si7 0.742265 0.662034 0.920459
Si Si8 0.054417 0.269294 0.645830
O O1 0.829358 0.432596 0.297957
O O2 0.839667 0.608141 0.536210
O O3 0.719308 0.446295 0.250312
O O4 0.720700 0.619644 0.035390
O O5 0.620194 0.010657 0.064879
O O6 0.620220 0.854762 0.300248
O O7 0.500000 0.857928 0.750000
O O8 0.500000 0.000000 0.000000
O O9 0.849750 0.204731 0.257144
O O10 0.982646 0.360008 0.544225
O O11 0.234829 0.946165 0.759390
O O12 0.083992 0.833727 0.334890
O O13 0.082652 0.024254 0.493790
O O14 0.698305 0.217320 0.249731
O O15 0.995034 0.201840 0.377718
O O16 0.851539 0.676252 0.182463
#
# Coordination Sequence:
#
# PCOD9232836 Si02
#       8
#     4   4   4   4   4   2   4   4
#     4  10  22  38  58  76 116 160 217 275 310 340
#     4   9  20  42  67  98 124 153 185 234 306 378
#     4  11  21  39  54  76 112 157 224 264 306 339
#     4  11  23  37  52  83 120 169 205 252 300 357
#     4  10  21  38  63  93 128 155 200 243 294 380
#     4  12  24  36  52  72 130 168 210 256 296 354
#     4  10  22  39  54  87 115 156 213 255 312 350
#     4  11  22  36  50  76 108 165 217 267 301 348
#
# _framework density 20.700315
#
# number of rings (size 3 to 8) (size 9 to 14) (size 15 to 20)
#    0.000    1.600    4.000    1.200    3.733    3.200 
#    4.800    0.000    0.000    0.000    0.000   12.133 
#    0.000    0.000    0.000    0.000    0.000    0.000 
#
# Total GULP energy -167245.306261 kJ/mol
# GULP energy per Si atom -5574.843542 kJ/mol
# Density = 2.065320 g / cm^3
# Si number density = 20.700315 Si / 1000 Ang^3
#
#
#
# Elastic Constant Matrix: (Units=GPa)
#
#
# Indices 1 2 3 4 5 6 
#
# 1 72.1838 19.0579 33.7842 0.0000 -13.4645 0.0000
# 2 19.0579 54.5853 27.4359 0.0000 -10.9612 0.0000
# 3 33.7842 27.4359 88.1947 0.0000 -24.8654 0.0000
# 4 0.0000 0.0000 0.0000 26.8551 0.0000 -16.3268
# 5 -13.4645 -10.9612 -24.8654 0.0000 36.3648 0.0000
# 6 0.0000 0.0000 0.0000 -16.3268 0.0000 10.1758
#
#
#
# Elastic Compliance Matrix: (Units=1/GPa)
#
#
# Indices 1 2 3 4 5 6 
#
# 1 0.017460 -0.003101 -0.005159 0.000000 0.002002 0.000000
# 2 -0.003101 0.022434 -0.005213 0.000000 0.002049 0.000000
# 3 -0.005159 -0.005213 0.017288 0.000000 0.008339 0.000000
# 4 0.000000 0.000000 0.000000 1.516866 0.000000 2.433772
# 5 0.002002 0.002049 0.008339 0.000000 0.034561 0.000000
# 6 0.000000 0.000000 0.000000 2.433772 0.000000 4.003197
#
#
# Mechanical properties :
#
#
# Convention : Reuss Voigt Hill
#
# Bulk Modulus (GPa) = 33.07342 41.72442 37.39892
# Shear Modulus (GPa) = 0.88514 23.65819 12.27167
#
# Velocity S-wave (km/s) = 0.65462 3.38433 2.43744
# Velocity P-wave (km/s) = 4.07226 5.95582 5.10172
#
# Compressibility (1/GPa) = 0.03023576
#
# Stress axis : x y z
#
# Youngs Moduli (GPa) = 57.27245 44.57429 57.84420
#
# Poissons Ratio (x) = 0.13822 0.29843
# Poissons Ratio (y) = 0.17759 0.30156
# Poissons Ratio (z) = 0.29548 0.23238
#
# Static dielectric constant tensor:
#      x y z
#    x 1.796460 0.000000 -0.007690 
#    y 0.000000 1.756660 0.000000 
#    z -0.007690 0.000000 1.863080 
# 
# From -- ./inp_files/24939.got.cif
#   From: 2010.05.17/outbox.cif.g08.bks.cpg/sg13_13_cif.got.tgz:24939.got - 2010.06.03 16:44:36.
