data_PCOD9232011
_publ_section_title
;
Structure prediction by ZEFSAII (Michael W. Deem and Ramdas Pophale) SiO2 
 PCOD9232011
Probable space group: P 2/C
;
_chemical_formula_sum "Si O2"
_cell_formula_units_Z 26
_cell_length_a 12.040739
_cell_length_b 10.669126
_cell_length_c 13.381354
_cell_angle_alpha 90.000000
_cell_angle_beta 135.610191
_cell_angle_gamma 90.000000
_cell_volume 1202.519895
_symmetry_space_group_name_H-M "P 2/C"
_symmetry_group_IT_number 13
_symmetry_cell_setting 'monoclinic'
loop_
_space_group_symop_operation_xyz
x,y,z
-x,y,1/2-z
-x,-y,-z
x,-y,1/2+z
loop_
_atom_site_type_symbol
_atom_site_label
_atom_site_fract_x
_atom_site_fract_y
_atom_site_fract_z
Si Si1 0.957897 0.858396 0.944461
Si Si2 0.500000 0.845151 0.250000
Si Si3 0.305275 0.279388 0.323604
Si Si4 0.188928 0.484068 0.635822
Si Si5 0.104559 0.268035 0.723691
Si Si6 0.790028 0.302095 0.020855
Si Si7 0.589118 0.875671 0.091667
O O1 0.785412 0.836545 0.786738
O O2 0.982002 0.783138 0.062566
O O3 0.075485 0.786618 0.942098
O O4 0.000000 0.000000 0.000000
O O5 0.370617 0.770114 0.105728
O O6 0.596792 0.896955 0.217203
O O7 0.284658 0.395283 0.234314
O O8 0.203876 0.318353 0.357053
O O9 0.477060 0.235132 0.472499
O O10 0.202640 0.376642 0.729682
O O11 0.232069 0.428947 0.555839
O O12 0.000000 0.500000 0.500000
O O13 0.233074 0.158951 0.829494
O O14 0.000000 0.310042 0.750000
O O15 0.500000 0.000000 0.000000
#
# Coordination Sequence:
#
# PCOD9232011 Si02
#       7
#     4   2   4   4   4   4   4
#     4  11  22  39  64  96 132 169 227 274 325 408
#     4  10  20  44  68  94 126 182 216 284 332 402
#     4  11  24  39  73  99 130 182 227 279 348 405
#     4  11  22  41  66  98 138 171 226 279 331 414
#     4  11  25  44  66  97 141 180 217 282 347 400
#     4  10  22  41  66  95 131 172 226 270 344 399
#     4  11  24  47  69 102 136 178 232 284 347 407
#
# _framework density 21.621262999999999
#
# number of rings (size 3 to 8) (size 9 to 14) (size 15 to 20)
#    0.000    1.231    6.154    1.385    2.154    4.308 
#    0.000    0.000    0.000    0.000    0.000    0.000 
#    0.000    0.000    0.000    0.000    0.000    0.000 
#
# Total GULP energy -144891.312379 kJ/mol
# GULP energy per Si atom -5572.742784 kJ/mol
# Density = 2.157205 g / cm^3
# Si number density = 21.621263 Si / 1000 Ang^3
#
#
#
# Elastic Constant Matrix: (Units=GPa)
#
#
# Indices 1 2 3 4 5 6 
#
# 1 39.7543 0.7345 25.6046 0.0000 -3.8572 0.0000
# 2 0.7345 85.4109 23.9347 0.0000 -20.3131 0.0000
# 3 25.6046 23.9347 105.6494 0.0000 -4.7798 0.0000
# 4 0.0000 0.0000 0.0000 31.4273 0.0000 19.0738
# 5 -3.8572 -20.3131 -4.7798 0.0000 25.4192 0.0000
# 6 0.0000 0.0000 0.0000 19.0738 0.0000 43.2161
#
#
#
# Elastic Compliance Matrix: (Units=1/GPa)
#
#
# Indices 1 2 3 4 5 6 
#
# 1 0.030786 0.003358 -0.007957 0.000000 0.005859 0.000000
# 2 0.003358 0.015677 -0.003808 0.000000 0.012321 0.000000
# 3 -0.007957 -0.003808 0.012168 0.000000 -0.001963 0.000000
# 4 0.000000 0.000000 0.000000 0.043461 0.000000 -0.019182
# 5 0.005859 0.012321 -0.001963 0.000000 0.049707 0.000000
# 6 0.000000 0.000000 0.000000 -0.019182 0.000000 0.031606
#
#
# Mechanical properties :
#
#
# Convention : Reuss Voigt Hill
#
# Bulk Modulus (GPa) = 23.91364 36.81802 30.36583
# Shear Modulus (GPa) = 23.34754 32.04857 27.69806
#
# Velocity S-wave (km/s) = 3.28966 3.85420 3.58307
# Velocity P-wave (km/s) = 5.05108 6.07224 5.58505
#
# Compressibility (1/GPa) = 0.04181713
#
# Stress axis : x y z
#
# Youngs Moduli (GPa) = 32.48266 63.78899 82.18580
#
# Poissons Ratio (x) = -0.21423 0.65394
# Poissons Ratio (y) = -0.10909 0.31297
# Poissons Ratio (z) = 0.25846 0.24291
#
# Static dielectric constant tensor:
#      x y z
#    x 1.865000 0.000000 -0.015480 
#    y 0.000000 2.068230 0.000000 
#    z -0.015480 0.000000 1.774510 
# 
# From -- ./inp_files/33980.got.cif
#   From: 2010.05.17/outbox.cif.g08.bks.cpg/sg13_17_cif.got.tgz:33980.got - 2010.06.03 16:44:36.
