data_PCOD9232750
_publ_section_title
;
Structure prediction by ZEFSAII (Michael W. Deem and Ramdas Pophale) SiO2 
 PCOD9232750
Probable space group: P 2/C
;
_chemical_formula_sum "Si O2"
_cell_formula_units_Z 28
_cell_length_a 5.474213
_cell_length_b 16.162707
_cell_length_c 17.929207
_cell_angle_alpha 90.000000
_cell_angle_beta 67.407907
_cell_angle_gamma 90.000000
_cell_volume 1464.611428
_symmetry_space_group_name_H-M "P 2/C"
_symmetry_group_IT_number 13
_symmetry_cell_setting 'monoclinic'
loop_
_space_group_symop_operation_xyz
x,y,z
-x,y,1/2-z
-x,-y,-z
x,-y,1/2+z
loop_
_atom_site_type_symbol
_atom_site_label
_atom_site_fract_x
_atom_site_fract_y
_atom_site_fract_z
Si Si1 0.403709 0.010447 0.427101
Si Si2 0.534548 0.309244 0.158113
Si Si3 0.002199 0.679409 0.000833
Si Si4 0.311240 0.519389 0.699083
Si Si5 0.081961 0.865242 0.501314
Si Si6 0.227537 0.143067 0.159738
Si Si7 0.555225 0.586664 0.452282
O O1 0.619854 0.055034 0.350038
O O2 0.174868 0.078043 0.461895
O O3 0.500000 0.000000 0.500000
O O4 0.283503 0.919722 0.427323
O O5 0.500000 0.306398 0.250000
O O6 0.833697 0.319005 0.095854
O O7 0.386823 0.393093 0.151128
O O8 0.414917 0.223084 0.145002
O O9 0.964021 0.775103 0.026582
O O10 0.203394 0.633618 0.034381
O O11 0.718301 0.637450 0.022095
O O12 0.500000 0.513881 0.750000
O O13 0.365449 0.442115 0.639690
O O14 0.000000 0.522999 0.750000
O O15 0.153124 0.854880 0.580795
O O16 0.000000 0.149572 0.250000
O O17 0.500000 0.500000 0.500000
#
# Coordination Sequence:
#
# PCOD9232750 Si02
#       7
#     4   4   4   4   4   4   4
#     4   9  20  37  59  86 120 161 208 252 300 382
#     4  11  23  36  60  92 138 168 203 243 334 398
#     4  12  24  40  65  94 134 165 215 277 314 374
#     4  11  25  43  64  89 128 174 212 262 324 389
#     4  10  21  38  60  89 123 163 212 254 318 373
#     4  11  21  35  58  93 133 168 203 249 316 397
#     4  12  26  41  65  97 128 166 223 271 318 377
#
# _framework density 19.117699000000002
#
# number of rings (size 3 to 8) (size 9 to 14) (size 15 to 20)
#    0.000    1.143    2.857    3.429    6.000    0.000 
#    0.000    0.000    0.000    0.857   18.571    0.000 
#    0.000    0.000    0.000    0.000    0.000    0.000 
#
# Total GULP energy -156151.544310 kJ/mol
# GULP energy per Si atom -5576.840868 kJ/mol
# Density = 1.907419 g / cm^3
# Si number density = 19.117699 Si / 1000 Ang^3
#
#
#
# Elastic Constant Matrix: (Units=GPa)
#
#
# Indices 1 2 3 4 5 6 
#
# 1 98.0670 61.1991 17.3219 0.0000 -0.1398 0.0000
# 2 61.1991 153.0722 37.4711 0.0000 -1.1125 0.0000
# 3 17.3219 37.4711 40.8523 0.0000 -9.2202 0.0000
# 4 0.0000 0.0000 0.0000 17.0918 0.0000 -15.6939
# 5 -0.1398 -1.1125 -9.2202 0.0000 35.9543 0.0000
# 6 0.0000 0.0000 0.0000 -15.6939 0.0000 27.7033
#
#
#
# Elastic Compliance Matrix: (Units=1/GPa)
#
#
# Indices 1 2 3 4 5 6 
#
# 1 0.013624 -0.005176 -0.001118 0.000000 -0.000394 0.000000
# 2 -0.005176 0.010506 -0.007825 0.000000 -0.001702 0.000000
# 3 -0.001118 -0.007825 0.034045 0.000000 0.008484 0.000000
# 4 0.000000 0.000000 0.000000 0.121932 0.000000 0.069074
# 5 -0.000394 -0.001702 0.008484 0.000000 0.029935 0.000000
# 6 0.000000 0.000000 0.000000 0.069074 0.000000 0.075227
#
#
# Mechanical properties :
#
#
# Convention : Reuss Voigt Hill
#
# Bulk Modulus (GPa) = 33.40492 58.21952 45.81222
# Shear Modulus (GPa) = 15.45660 27.88319 21.66989
#
# Velocity S-wave (km/s) = 2.84649 3.82318 3.37040
# Velocity P-wave (km/s) = 5.32115 7.07165 6.25791
#
# Compressibility (1/GPa) = 0.02993571
#
# Stress axis : x y z
#
# Youngs Moduli (GPa) = 73.39837 95.18736 29.37292
#
# Poissons Ratio (x) = 0.49271 0.03284
# Poissons Ratio (y) = 0.37993 0.22985
# Poissons Ratio (z) = 0.08205 0.74488
#
# Static dielectric constant tensor:
#      x y z
#    x 1.726960 0.000000 -0.019750 
#    y 0.000000 1.604070 0.000000 
#    z -0.019750 0.000000 1.652570 
# 
# From -- ./inp_files/61519.got.cif
#   From: 2010.05.17/outbox.cif.g08.bks.cpg/sg13_31_cif.got.tgz:61519.got - 2010.06.03 16:44:36.
