data_PCOD9232782
_publ_section_title
;
Structure prediction by ZEFSAII (Michael W. Deem and Ramdas Pophale) SiO2 
 PCOD9232782
Probable space group: P 2/C
;
_chemical_formula_sum "Si O2"
_cell_formula_units_Z 26
_cell_length_a 10.828268
_cell_length_b 22.705588
_cell_length_c 5.192289
_cell_angle_alpha 90.000000
_cell_angle_beta 110.758726
_cell_angle_gamma 90.000000
_cell_volume 1193.713075
_symmetry_space_group_name_H-M "P 2/C"
_symmetry_group_IT_number 13
_symmetry_cell_setting 'monoclinic'
loop_
_space_group_symop_operation_xyz
x,y,z
-x,y,1/2-z
-x,-y,-z
x,-y,1/2+z
loop_
_atom_site_type_symbol
_atom_site_label
_atom_site_fract_x
_atom_site_fract_y
_atom_site_fract_z
Si Si1 0.351851 0.478008 0.815314
Si Si2 0.000000 0.682277 0.750000
Si Si3 0.888780 0.209129 0.477459
Si Si4 0.000000 0.887006 0.750000
Si Si5 0.500000 0.957978 0.250000
Si Si6 0.645071 0.720535 0.921186
Si Si7 0.287459 0.646884 0.034360
Si Si8 0.218627 0.038596 0.658799
O O1 0.289435 0.521469 0.554810
O O2 0.343899 0.415438 0.669112
O O3 0.500000 0.500000 0.000000
O O4 0.053548 0.728379 0.578890
O O5 0.872239 0.646287 0.568542
O O6 0.748530 0.226601 0.480643
O O7 0.888444 0.158536 0.267264
O O8 0.000000 0.186529 0.750000
O O9 0.916905 0.927390 0.495802
O O10 0.643850 0.927757 0.317465
O O11 0.500000 0.000000 0.500000
O O12 0.500000 0.741712 0.750000
O O13 0.674172 0.670651 0.720904
O O14 0.660195 0.692410 0.213361
O O15 0.220214 0.015443 0.952923
#
# Coordination Sequence:
#
# PCOD9232782 Si02
#       8
#     4   2   4   2   2   4   4   4
#     4  10  22  36  53  84 127 156 191 247 309 366
#     4   9  20  40  64  88 112 166 212 255 300 386
#     4  10  21  42  60  88 126 159 204 258 326 368
#     4  11  24  36  64  92 126 174 198 267 314 368
#     4   8  16  34  58  80 118 158 198 254 296 334
#     4  11  24  39  66  93 119 155 213 264 305 376
#     4  11  22  39  65  91 119 163 207 250 311 376
#     4  10  21  38  61  93 126 166 218 254 296 371
#
# _framework density 21.780778999999999
#
# number of rings (size 3 to 8) (size 9 to 14) (size 15 to 20)
#    0.000    1.846    1.538    1.846    8.615    0.000 
#    0.000    2.308    1.692    0.000    0.000    0.000 
#    0.000    0.000    0.000    0.000    0.000    0.000 
#
# Total GULP energy -144908.365997 kJ/mol
# GULP energy per Si atom -5573.398692 kJ/mol
# Density = 2.173121 g / cm^3
# Si number density = 21.780779 Si / 1000 Ang^3
#
#
#
# Elastic Constant Matrix: (Units=GPa)
#
#
# Indices 1 2 3 4 5 6 
#
# 1 78.5971 15.9847 10.4448 0.0000 28.2352 0.0000
# 2 15.9847 42.3803 -0.6233 0.0000 7.3062 0.0000
# 3 10.4448 -0.6233 92.5344 0.0000 -5.4820 0.0000
# 4 0.0000 0.0000 0.0000 99.3187 0.0000 -103.9922
# 5 28.2352 7.3062 -5.4820 0.0000 47.5599 0.0000
# 6 0.0000 0.0000 0.0000 -103.9922 0.0000 162.2737
#
#
#
# Elastic Compliance Matrix: (Units=1/GPa)
#
#
# Indices 1 2 3 4 5 6 
#
# 1 0.017692 -0.004981 -0.002625 0.000000 -0.010041 0.000000
# 2 -0.004981 0.025640 0.000681 0.000000 -0.000904 0.000000
# 3 -0.002625 0.000681 0.011271 0.000000 0.002753 0.000000
# 4 0.000000 0.000000 0.000000 0.030604 0.000000 0.019612
# 5 -0.010041 -0.000904 0.002753 0.000000 0.027443 0.000000
# 6 0.000000 0.000000 0.000000 0.019612 0.000000 0.018731
#
#
# Mechanical properties :
#
#
# Convention : Reuss Voigt Hill
#
# Bulk Modulus (GPa) = 24.53757 29.45826 26.99792
# Shear Modulus (GPa) = 31.48328 74.34414 52.91371
#
# Velocity S-wave (km/s) = 3.80605 5.84868 4.93422
# Velocity P-wave (km/s) = 5.53216 7.69179 6.69957
#
# Compressibility (1/GPa) = 0.04075383
#
# Stress axis : x y z
#
# Youngs Moduli (GPa) = 56.52275 39.00134 88.72467
#
# Poissons Ratio (x) = 0.19425 0.23294
# Poissons Ratio (y) = 0.28151 -0.06045
# Poissons Ratio (z) = 0.14839 -0.02657
#
# Static dielectric constant tensor:
#      x y z
#    x 1.843230 0.000000 -0.114550 
#    y 0.000000 1.786650 0.000000 
#    z -0.114550 0.000000 1.812230 
# 
# From -- ./inp_files/4218.got.cif
#   From: 2010.05.17/outbox.cif.g08.bks.cpg/sg13_3_cif.got.tgz:4218.got - 2010.06.03 16:44:36.
