data_PCOD9232427
_publ_section_title
;
Structure prediction by ZEFSAII (Michael W. Deem and Ramdas Pophale) SiO2 
 PCOD9232427
Probable space group: P 2/C
;
_chemical_formula_sum "Si O2"
_cell_formula_units_Z 30
_cell_length_a 7.701605
_cell_length_b 8.383082
_cell_length_c 18.589617
_cell_angle_alpha 90.000000
_cell_angle_beta 86.277304
_cell_angle_gamma 90.000000
_cell_volume 1197.672445
_symmetry_space_group_name_H-M "P 2/C"
_symmetry_group_IT_number 13
_symmetry_cell_setting 'monoclinic'
loop_
_space_group_symop_operation_xyz
x,y,z
-x,y,1/2-z
-x,-y,-z
x,-y,1/2+z
loop_
_atom_site_type_symbol
_atom_site_label
_atom_site_fract_x
_atom_site_fract_y
_atom_site_fract_z
Si Si1 0.631539 0.845952 0.062082
Si Si2 0.724971 0.166537 0.001481
Si Si3 0.000000 0.815223 0.250000
Si Si4 0.058936 0.410288 0.570465
Si Si5 0.061561 0.870325 0.824251
Si Si6 0.600437 0.300504 0.145187
Si Si7 0.246471 0.703605 0.589892
Si Si8 0.738619 0.628939 0.184092
O O1 0.429521 0.875373 0.049365
O O2 0.698629 0.740432 0.993316
O O3 0.646177 0.762108 0.137859
O O4 0.740451 0.008182 0.048719
O O5 0.665226 0.303993 0.059553
O O6 0.885330 0.234853 0.954292
O O7 0.174033 0.707420 0.247846
O O8 0.022724 0.942228 0.314335
O O9 0.218715 0.514416 0.595753
O O10 0.000000 0.500000 0.500000
O O11 0.909607 0.414557 0.632891
O O12 0.263005 0.822137 0.824227
O O13 0.000000 0.795099 0.750000
O O14 0.934230 0.791799 0.886416
O O15 0.401172 0.248094 0.140182
O O16 0.627048 0.468161 0.184349
#
# Coordination Sequence:
#
# PCOD9232427 Si02
#       8
#     4   4   2   4   4   4   4   4
#     4  10  22  37  64  93 135 165 217 267 340 391
#     4  10  21  37  57 101 133 166 205 277 330 402
#     4  10  28  44  66  90 132 182 222 276 332 402
#     4  12  21  36  63  99 137 167 217 264 333 405
#     4  10  24  46  65  90 127 169 224 272 324 399
#     4  11  22  40  71  93 134 167 220 275 333 392
#     4  11  22  41  68 101 123 176 214 275 338 395
#     4  12  23  40  65  97 134 179 217 274 329 398
#
# _framework density 25.048584999999999
#
# number of rings (size 3 to 8) (size 9 to 14) (size 15 to 20)
#    0.400    0.800    4.000    1.600    2.800    3.200 
#    0.000    0.000    5.867    0.000    0.000    0.000 
#    0.000    0.000    0.000    0.000    0.000    0.000 
#
# Total GULP energy -167694.483835 kJ/mol
# GULP energy per Si atom -5589.816128 kJ/mol
# Density = 2.499157 g / cm^3
# Si number density = 25.048585 Si / 1000 Ang^3
#
#
#
# Elastic Constant Matrix: (Units=GPa)
#
#
# Indices 1 2 3 4 5 6 
#
# 1 89.4581 28.8644 18.8706 0.0000 18.8769 0.0000
# 2 28.8644 118.3812 20.5115 0.0000 17.4066 0.0000
# 3 18.8706 20.5115 54.0206 0.0000 12.4478 0.0000
# 4 0.0000 0.0000 0.0000 36.9263 0.0000 16.6058
# 5 18.8769 17.4066 12.4478 0.0000 43.6709 0.0000
# 6 0.0000 0.0000 0.0000 16.6058 0.0000 23.9798
#
#
#
# Elastic Compliance Matrix: (Units=1/GPa)
#
#
# Indices 1 2 3 4 5 6 
#
# 1 0.013347 -0.002150 -0.002905 0.000000 -0.004084 0.000000
# 2 -0.002150 0.009723 -0.002421 0.000000 -0.002256 0.000000
# 3 -0.002905 -0.002421 0.021335 0.000000 -0.003861 0.000000
# 4 0.000000 0.000000 0.000000 0.039328 0.000000 -0.027235
# 5 -0.004084 -0.002256 -0.003861 0.000000 0.026663 0.000000
# 6 0.000000 0.000000 0.000000 -0.027235 0.000000 0.060561
#
#
# Mechanical properties :
#
#
# Convention : Reuss Voigt Hill
#
# Bulk Modulus (GPa) = 33.95278 44.26143 39.10711
# Shear Modulus (GPa) = 25.54575 33.82295 29.68435
#
# Velocity S-wave (km/s) = 3.19697 3.67862 3.44622
# Velocity P-wave (km/s) = 5.21648 5.97926 5.61085
#
# Compressibility (1/GPa) = 0.02945267
#
# Stress axis : x y z
#
# Youngs Moduli (GPa) = 74.92415 102.85153 46.87150
#
# Poissons Ratio (x) = 0.22118 0.13615
# Poissons Ratio (y) = 0.16112 0.11346
# Poissons Ratio (z) = 0.21763 0.24897
#
# Static dielectric constant tensor:
#      x y z
#    x 2.009930 0.000000 0.050030 
#    y 0.000000 2.024360 0.000000 
#    z 0.050030 0.000000 2.033840 
# 
# From -- ./inp_files/75693.got.cif
#   From: 2010.05.17/outbox.cif.g08.bks.cpg/sg13_38_cif.got.tgz:75693.got - 2010.06.03 16:44:36.
