data_PCOD9232548
_publ_section_title
;
Structure prediction by ZEFSAII (Michael W. Deem and Ramdas Pophale) SiO2 
 PCOD9232548
Probable space group: P 2/C
;
_chemical_formula_sum "Si O2"
_cell_formula_units_Z 32
_cell_length_a 8.343594
_cell_length_b 11.519041
_cell_length_c 16.016800
_cell_angle_alpha 90.000000
_cell_angle_beta 119.359671
_cell_angle_gamma 90.000000
_cell_volume 1341.658839
_symmetry_space_group_name_H-M "P 2/C"
_symmetry_group_IT_number 13
_symmetry_cell_setting 'monoclinic'
loop_
_space_group_symop_operation_xyz
x,y,z
-x,y,1/2-z
-x,-y,-z
x,-y,1/2+z
loop_
_atom_site_type_symbol
_atom_site_label
_atom_site_fract_x
_atom_site_fract_y
_atom_site_fract_z
Si Si1 0.615109 0.269907 0.089047
Si Si2 0.116012 0.219200 0.590071
Si Si3 0.719323 0.522476 0.715575
Si Si4 0.937392 0.893387 0.602886
Si Si5 0.352653 0.586787 0.066182
Si Si6 0.337598 0.068564 0.005329
Si Si7 0.065121 0.440821 0.894472
Si Si8 0.288949 0.001865 0.181406
O O1 0.676846 0.343094 0.185082
O O2 0.792174 0.193178 0.107514
O O3 0.431060 0.192716 0.045216
O O4 0.579664 0.362358 0.005747
O O5 0.040618 0.155780 0.486933
O O6 0.271535 0.304363 0.594306
O O7 0.971054 0.305654 0.595860
O O8 0.215091 0.128060 0.676218
O O9 0.518579 0.466111 0.660774
O O10 0.863775 0.499628 0.826633
O O11 0.823923 0.466673 0.662074
O O12 0.846159 0.022981 0.587869
O O13 0.145435 0.910311 0.686699
O O14 0.187193 0.500510 0.997566
O O15 0.290722 0.015927 0.082524
O O16 0.500000 0.000000 0.000000
O O17 0.500000 0.021278 0.250000
#
# Coordination Sequence:
#
# PCOD9232548 Si02
#       8
#     4   4   4   4   4   4   4   4
#     4   9  18  38  63  89 120 163 199 254 315 356
#     4  10  21  39  66  79 120 166 197 244 312 363
#     4  10  22  37  59  91 128 152 203 260 300 363
#     4   9  20  39  64  87 118 165 206 247 308 377
#     4  10  21  37  61  91 120 161 205 246 304 371
#     4   9  18  38  64  89 117 162 210 247 299 382
#     4  10  21  39  58  90 121 159 208 249 299 371
#     4  11  24  40  58  94 129 155 208 262 305 373
#
# _framework density 23.851071999999998
#
# number of rings (size 3 to 8) (size 9 to 14) (size 15 to 20)
#    0.000    2.250    0.000    4.125    1.750    4.000 
#   11.250    1.875    0.000    0.000    0.000    0.000 
#    0.000    0.000    0.000    0.000    0.000    0.000 
#
# Total GULP energy -178563.038987 kJ/mol
# GULP energy per Si atom -5580.094968 kJ/mol
# Density = 2.379679 g / cm^3
# Si number density = 23.851072 Si / 1000 Ang^3
#
#
#
# Elastic Constant Matrix: (Units=GPa)
#
#
# Indices 1 2 3 4 5 6 
#
# 1 41.0712 40.2170 53.8844 0.0000 34.0156 0.0000
# 2 40.2170 111.8090 45.4780 0.0000 25.2610 0.0000
# 3 53.8844 45.4780 119.5744 0.0000 44.0873 0.0000
# 4 0.0000 0.0000 0.0000 15.0244 0.0000 -0.0658
# 5 34.0156 25.2610 44.0873 0.0000 54.4580 0.0000
# 6 0.0000 0.0000 0.0000 -0.0658 0.0000 -12.4574
#
#
#
# Elastic Compliance Matrix: (Units=1/GPa)
#
#
# Indices 1 2 3 4 5 6 
#
# 1 0.116520 -0.020854 -0.030375 0.000000 -0.038516 0.000000
# 2 -0.020854 0.014529 0.002215 0.000000 0.004493 0.000000
# 3 -0.030375 0.002215 0.020801 0.000000 0.001106 0.000000
# 4 0.000000 0.000000 0.000000 0.066557 0.000000 -0.000352
# 5 -0.038516 0.004493 0.001106 0.000000 0.039441 0.000000
# 6 0.000000 0.000000 0.000000 -0.000352 0.000000 -0.080272
#
#
# Mechanical properties :
#
#
# Convention : Reuss Voigt Hill
#
# Bulk Modulus (GPa) = 18.58017 61.29037 39.93527
# Shear Modulus (GPa) = 17.03315 20.26335 18.64825
#
# Velocity S-wave (km/s) = 2.67525 2.91791 2.79921
# Velocity P-wave (km/s) = 4.16529 6.09140 5.21799
#
# Compressibility (1/GPa) = 0.05382081
#
# Stress axis : x y z
#
# Youngs Moduli (GPa) = 8.58223 68.82888 48.07482
#
# Poissons Ratio (x) = 1.43538 1.46028
# Poissons Ratio (y) = 0.17898 -0.10650
# Poissons Ratio (z) = 0.26069 -0.15247
#
# Static dielectric constant tensor:
#      x y z
#    x 1.933780 0.000000 -0.006220 
#    y 0.000000 1.940380 0.000000 
#    z -0.006220 0.000000 2.123210 
# 
# From -- ./inp_files/76472.got.cif
#   From: 2010.05.17/outbox.cif.g08.bks.cpg/sg13_39_cif.got.tgz:76472.got - 2010.06.03 16:44:36.
