data_PCOD9232985
_publ_section_title
;
Structure prediction by ZEFSAII (Michael W. Deem and Ramdas Pophale) SiO2 
 PCOD9232985
Probable space group: P 2/C
;
_chemical_formula_sum "Si O2"
_cell_formula_units_Z 18
_cell_length_a 6.725601
_cell_length_b 16.654478
_cell_length_c 7.733528
_cell_angle_alpha 90.000000
_cell_angle_beta 115.528973
_cell_angle_gamma 90.000000
_cell_volume 781.669592
_symmetry_space_group_name_H-M "P 2/C"
_symmetry_group_IT_number 13
_symmetry_cell_setting 'monoclinic'
loop_
_space_group_symop_operation_xyz
x,y,z
-x,y,1/2-z
-x,-y,-z
x,-y,1/2+z
loop_
_atom_site_type_symbol
_atom_site_label
_atom_site_fract_x
_atom_site_fract_y
_atom_site_fract_z
Si Si1 0.030163 0.407179 0.464305
Si Si2 0.334596 0.047430 0.561289
Si Si3 0.921988 0.108928 0.515727
Si Si4 0.223444 0.270960 0.944390
Si Si5 0.500000 0.331720 0.750000
O O1 0.275211 0.380096 0.618672
O O2 0.000000 0.397119 0.250000
O O3 0.000000 0.500000 0.500000
O O4 0.839507 0.351650 0.477446
O O5 0.500000 0.091777 0.750000
O O6 0.135446 0.109713 0.471914
O O7 0.500000 0.000000 0.500000
O O8 0.211486 0.969212 0.593236
O O9 0.774603 0.188328 0.449195
O O10 0.000000 0.096388 0.750000
O O11 0.426571 0.282475 0.892151
O O12 0.000000 0.259036 0.750000
#
# Coordination Sequence:
#
# PCOD9232985 Si02
#       5
#     4   4   4   4   2
#     4  11  24  43  67 101 137 171 219 269 317 391
#     4  11  22  38  60  89 120 167 210 262 328 380
#     4  10  21  39  61  88 124 160 215 269 309 391
#     4   9  21  41  63  96 123 168 219 265 326 389
#     4  10  22  44  72  92 132 180 214 266 338 386
#
# _framework density 23.027633000000002
#
# number of rings (size 3 to 8) (size 9 to 14) (size 15 to 20)
#    0.000    1.778    2.222    2.000    0.000    9.778 
#   10.000    0.000    0.000    0.000    0.000    0.000 
#    0.000    0.000    0.000    0.000    0.000    0.000 
#
# Total GULP energy -100281.582524 kJ/mol
# GULP energy per Si atom -5571.199029 kJ/mol
# Density = 2.297522 g / cm^3
# Si number density = 23.027633 Si / 1000 Ang^3
#
#
#
# Elastic Constant Matrix: (Units=GPa)
#
#
# Indices 1 2 3 4 5 6 
#
# 1 189.3264 57.8777 23.8087 0.0000 -23.9521 0.0000
# 2 57.8777 145.4097 14.4763 0.0000 -17.9256 0.0000
# 3 23.8087 14.4763 67.8861 0.0000 -1.0747 0.0000
# 4 0.0000 0.0000 0.0000 21.8055 0.0000 -9.2599
# 5 -23.9521 -17.9256 -1.0747 0.0000 36.7443 0.0000
# 6 0.0000 0.0000 0.0000 -9.2599 0.0000 14.1414
#
#
#
# Elastic Compliance Matrix: (Units=1/GPa)
#
#
# Indices 1 2 3 4 5 6 
#
# 1 0.006536 -0.002024 -0.001810 0.000000 0.003220 0.000000
# 2 -0.002024 0.008101 -0.000976 0.000000 0.002604 0.000000
# 3 -0.001810 -0.000976 0.015554 0.000000 -0.001201 0.000000
# 4 0.000000 0.000000 0.000000 0.063524 0.000000 0.041596
# 5 0.003220 0.002604 -0.001201 0.000000 0.030549 0.000000
# 6 0.000000 0.000000 0.000000 0.041596 0.000000 0.097952
#
#
# Mechanical properties :
#
#
# Convention : Reuss Voigt Hill
#
# Bulk Modulus (GPa) = 48.61264 66.10531 57.35897
# Shear Modulus (GPa) = 20.94736 34.96885 27.95811
#
# Velocity S-wave (km/s) = 3.01933 3.90110 3.48819
# Velocity P-wave (km/s) = 5.77162 7.00433 6.41764
#
# Compressibility (1/GPa) = 0.02057078
#
# Stress axis : x y z
#
# Youngs Moduli (GPa) = 153.00750 123.44049 64.29064
#
# Poissons Ratio (x) = 0.24988 0.11633
# Poissons Ratio (y) = 0.30974 0.06277
# Poissons Ratio (z) = 0.27687 0.12052
#
# Static dielectric constant tensor:
#      x y z
#    x 2.033360 0.000000 -0.231320 
#    y 0.000000 1.966620 0.000000 
#    z -0.231320 0.000000 2.298500 
# 
# From -- ./inp_files/9576.got.cif
#   From: 2010.05.17/outbox.cif.g08.bks.cpg/sg13_5_cif.got.tgz:9576.got - 2010.06.03 16:44:36.
