data_PCOD9232933
_publ_section_title
;
Structure prediction by ZEFSAII (Michael W. Deem and Ramdas Pophale) SiO2 
 PCOD9232933
Probable space group: P 2/C
;
_chemical_formula_sum "Si O2"
_cell_formula_units_Z 30
_cell_length_a 11.564414
_cell_length_b 15.061968
_cell_length_c 9.514599
_cell_angle_alpha 90.000000
_cell_angle_beta 103.184583
_cell_angle_gamma 90.000000
_cell_volume 1613.594435
_symmetry_space_group_name_H-M "P 2/C"
_symmetry_group_IT_number 13
_symmetry_cell_setting 'monoclinic'
loop_
_space_group_symop_operation_xyz
x,y,z
-x,y,1/2-z
-x,-y,-z
x,-y,1/2+z
loop_
_atom_site_type_symbol
_atom_site_label
_atom_site_fract_x
_atom_site_fract_y
_atom_site_fract_z
Si Si1 0.649123 0.573657 0.924525
Si Si2 0.623303 0.398769 0.088025
Si Si3 0.747475 0.246646 0.459736
Si Si4 0.110038 0.068672 0.388783
Si Si5 0.427068 0.116037 0.983608
Si Si6 0.948770 0.125796 0.589917
Si Si7 0.321183 0.204140 0.374285
Si Si8 0.500000 0.999384 0.250000
O O1 0.520579 0.608982 0.944582
O O2 0.651175 0.571622 0.755860
O O3 0.743172 0.649538 0.989828
O O4 0.661178 0.477083 0.994584
O O5 0.681237 0.304260 0.064858
O O6 0.670453 0.191795 0.549530
O O7 0.874603 0.201045 0.491976
O O8 0.682981 0.226988 0.293065
O O9 0.217236 0.133875 0.378996
O O10 0.000000 0.079249 0.250000
O O11 0.057919 0.094703 0.525149
O O12 0.131509 0.962441 0.402580
O O13 0.428019 0.058606 0.842567
O O14 0.556541 0.159609 0.042797
O O15 0.415994 0.056158 0.122229
O O16 0.000000 0.159124 0.750000
#
# Coordination Sequence:
#
# PCOD9232933 Si02
#       8
#     4   4   4   4   4   4   4   2
#     4   9  18  35  57  82 115 146 182 225 286 347
#     4   9  18  35  56  84 113 148 180 227 284 347
#     4  11  20  36  62  82 115 150 189 235 285 343
#     4  10  21  39  57  80 109 152 200 230 269 331
#     4  11  22  38  52  86 116 150 190 226 290 344
#     4  10  23  39  57  82 112 150 196 240 279 318
#     4  11  20  35  63  83 114 150 193 231 277 352
#     4  10  24  34  48  76 126 154 178 224 282 348
#
# _framework density 18.592032
#
# number of rings (size 3 to 8) (size 9 to 14) (size 15 to 20)
#    0.000    1.867    4.000    0.000    3.733    1.067 
#    4.800    0.000    0.000    1.600    0.000    0.000 
#    0.000    0.000    0.000    0.000    0.000    0.000 
#
# Total GULP energy -167300.333941 kJ/mol
# GULP energy per Si atom -5576.677798 kJ/mol
# Density = 1.854972 g / cm^3
# Si number density = 18.592032 Si / 1000 Ang^3
#
#
#
# Elastic Constant Matrix: (Units=GPa)
#
#
# Indices 1 2 3 4 5 6 
#
# 1 32.2882 25.9961 -3.4644 0.0000 -0.0076 0.0000
# 2 25.9961 119.9036 18.5660 0.0000 -2.5291 0.0000
# 3 -3.4644 18.5660 53.1551 0.0000 -10.8994 0.0000
# 4 0.0000 0.0000 0.0000 17.5215 0.0000 -2.3718
# 5 -0.0076 -2.5291 -10.8994 0.0000 16.5235 0.0000
# 6 0.0000 0.0000 0.0000 -2.3718 0.0000 20.9800
#
#
#
# Elastic Compliance Matrix: (Units=1/GPa)
#
#
# Indices 1 2 3 4 5 6 
#
# 1 0.039273 -0.009452 0.006439 0.000000 0.002819 0.000000
# 2 -0.009452 0.011101 -0.004794 0.000000 -0.001468 0.000000
# 3 0.006439 -0.004794 0.024004 0.000000 0.015103 0.000000
# 4 0.000000 0.000000 0.000000 0.057960 0.000000 0.006552
# 5 0.002819 -0.001468 0.015103 0.000000 0.070259 0.000000
# 6 0.000000 0.000000 0.000000 0.006552 0.000000 0.048405
#
#
# Mechanical properties :
#
#
# Convention : Reuss Voigt Hill
#
# Bulk Modulus (GPa) = 17.01762 31.94916 24.48339
# Shear Modulus (GPa) = 17.47008 21.95495 19.71251
#
# Velocity S-wave (km/s) = 3.06870 3.44012 3.25971
# Velocity P-wave (km/s) = 4.66143 5.74464 5.23115
#
# Compressibility (1/GPa) = 0.05876261
#
# Stress axis : x y z
#
# Youngs Moduli (GPa) = 25.46284 90.08393 41.65993
#
# Poissons Ratio (x) = 0.85150 -0.26825
# Poissons Ratio (y) = 0.24068 0.19973
# Poissons Ratio (z) = -0.16396 0.43189
#
# Static dielectric constant tensor:
#      x y z
#    x 1.646210 0.000000 -0.000940 
#    y 0.000000 1.670020 0.000000 
#    z -0.000940 0.000000 1.656100 
# 
# From -- ./inp_files/16842.got.cif
#   From: 2010.05.17/outbox.cif.g08.bks.cpg/sg13_9_cif.got.tgz:16842.got - 2010.06.03 16:44:36.
