data_PCOD9232679
_publ_section_title
;
Structure prediction by ZEFSAII (Michael W. Deem and Ramdas Pophale) SiO2 
 PCOD9232679
Probable space group: P 2/C
;
_chemical_formula_sum "Si O2"
_cell_formula_units_Z 16
_cell_length_a 7.244070
_cell_length_b 8.533537
_cell_length_c 16.423955
_cell_angle_alpha 90.000000
_cell_angle_beta 33.979807
_cell_angle_gamma 90.000000
_cell_volume 567.445432
_symmetry_space_group_name_H-M "P 2/C"
_symmetry_group_IT_number 13
_symmetry_cell_setting 'monoclinic'
loop_
_space_group_symop_operation_xyz
x,y,z
-x,y,1/2-z
-x,-y,-z
x,-y,1/2+z
loop_
_atom_site_type_symbol
_atom_site_label
_atom_site_fract_x
_atom_site_fract_y
_atom_site_fract_z
Si Si1 0.519239 0.809175 0.058712
Si Si2 0.818163 0.285509 0.987991
Si Si3 0.260427 0.496436 0.228321
Si Si4 0.180380 0.008094 0.321438
O O1 0.317414 0.932051 0.187759
O O2 0.479882 0.642855 0.116879
O O3 0.654949 0.220101 0.963774
O O4 0.888113 0.870671 0.913351
O O5 0.056228 0.430090 0.876960
O O6 0.511076 0.355178 0.148724
O O7 0.045317 0.137911 0.926557
O O8 0.000000 0.461212 0.250000
O O9 0.500000 0.070370 0.250000
#
# Coordination Sequence:
#
# PCOD9232679 Si02
#       4
#     4   4   4   4
#     4  10  21  38  58  82 112 149 191 233 276 331
#     4  10  21  38  61  87 113 145 190 235 279 334
#     4   9  18  35  58  86 111 138 186 240 277 324
#     4  11  23  39  56  83 119 152 186 230 277 333
#
# _framework density 28.196542999999998
#
# number of rings (size 3 to 8) (size 9 to 14) (size 15 to 20)
#    0.000    2.000    0.000    6.750    0.000    4.000 
#    0.000    6.250    0.000    0.000    0.000    0.000 
#    0.000    0.000    0.000    0.000    0.000    0.000 
#
# Total GULP energy -89887.399966 kJ/mol
# GULP energy per Si atom -5617.962498 kJ/mol
# Density = 2.813237 g / cm^3
# Si number density = 28.196543 Si / 1000 Ang^3
#
#
#
# Elastic Constant Matrix: (Units=GPa)
#
#
# Indices 1 2 3 4 5 6 
#
# 1 110.6340 64.0960 49.4301 0.0000 -7.6490 0.0000
# 2 64.0960 120.6262 124.5975 0.0000 -7.2356 0.0000
# 3 49.4301 124.5975 227.7651 0.0000 -31.5762 0.0000
# 4 0.0000 0.0000 0.0000 88.3165 0.0000 -2.0124
# 5 -7.6490 -7.2356 -31.5762 0.0000 30.5399 0.0000
# 6 0.0000 0.0000 0.0000 -2.0124 0.0000 34.0765
#
#
#
# Elastic Compliance Matrix: (Units=1/GPa)
#
#
# Indices 1 2 3 4 5 6 
#
# 1 0.014051 -0.010798 0.003491 0.000000 0.004571 0.000000
# 2 -0.010798 0.028869 -0.015030 0.000000 -0.011405 0.000000
# 3 0.003491 -0.015030 0.013404 0.000000 0.011172 0.000000
# 4 0.000000 0.000000 0.000000 0.011338 0.000000 0.000670
# 5 0.004571 -0.011405 0.011172 0.000000 0.042738 0.000000
# 6 0.000000 0.000000 0.000000 0.000670 0.000000 0.029385
#
#
# Mechanical properties :
#
#
# Convention : Reuss Voigt Hill
#
# Bulk Modulus (GPa) = 85.84140 103.91916 94.88028
# Shear Modulus (GPa) = 26.54750 45.31335 35.93042
#
# Velocity S-wave (km/s) = 3.07174 4.01316 3.57359
# Velocity P-wave (km/s) = 6.56436 7.64259 7.12390
#
# Compressibility (1/GPa) = 0.01164939
#
# Stress axis : x y z
#
# Youngs Moduli (GPa) = 71.16970 34.63960 74.60621
#
# Poissons Ratio (x) = 0.37405 -0.26049
# Poissons Ratio (y) = 0.76852 1.12134
# Poissons Ratio (z) = -0.24849 0.52064
#
# Static dielectric constant tensor:
#      x y z
#    x 2.215710 0.000000 0.043380 
#    y 0.000000 2.187650 0.000000 
#    z 0.043380 0.000000 2.166350 
# 
# From -- ./inp_files/14327.got.cif
#   From: 2010.05.17/outbox.cif.g08.bks.cpg/sg13_8_cif.got.tgz:14327.got - 2010.06.03 16:44:36.
