data_PCOD9232542
_publ_section_title
;
Structure prediction by ZEFSAII (Michael W. Deem and Ramdas Pophale) SiO2 
 PCOD9232542
Probable space group: P 2/C
;
_chemical_formula_sum "Si O2"
_cell_formula_units_Z 30
_cell_length_a 23.942844
_cell_length_b 6.271969
_cell_length_c 13.321552
_cell_angle_alpha 90.000000
_cell_angle_beta 138.772824
_cell_angle_gamma 90.000000
_cell_volume 1318.409629
_symmetry_space_group_name_H-M "P 2/C"
_symmetry_group_IT_number 13
_symmetry_cell_setting 'monoclinic'
loop_
_space_group_symop_operation_xyz
x,y,z
-x,y,1/2-z
-x,-y,-z
x,-y,1/2+z
loop_
_atom_site_type_symbol
_atom_site_label
_atom_site_fract_x
_atom_site_fract_y
_atom_site_fract_z
Si Si1 0.331295 0.105341 0.117079
Si Si2 0.756752 0.486342 0.563723
Si Si3 0.264518 0.273619 0.666920
Si Si4 0.592586 0.405265 0.117615
Si Si5 0.407737 0.248752 0.591325
Si Si6 0.088098 0.837095 0.963549
Si Si7 0.070775 0.603378 0.725632
Si Si8 0.000000 0.219153 0.750000
O O1 0.259498 0.234454 0.959305
O O2 0.381895 0.283229 0.247286
O O3 0.293073 0.935394 0.143991
O O4 0.390777 0.972417 0.123988
O O5 0.763591 0.554734 0.455708
O O6 0.672468 0.603630 0.488499
O O7 0.844528 0.581181 0.725545
O O8 0.343364 0.399392 0.820767
O O9 0.184198 0.208757 0.625359
O O10 0.500000 0.500000 0.000000
O O11 0.593635 0.235699 0.029593
O O12 0.500000 0.332872 0.750000
O O13 0.086201 0.751668 0.844945
O O14 0.017475 0.706898 0.931399
O O15 0.058272 0.077262 0.902799
O O16 0.053155 0.372637 0.749385
#
# Coordination Sequence:
#
# PCOD9232542 Si02
#       8
#     4   4   4   4   4   4   4   2
#     4  10  21  37  61  88 118 153 195 242 291 346
#     4   9  18  34  54  81 116 150 191 242 289 341
#     4   9  18  33  54  82 115 151 191 239 292 342
#     4  11  24  42  61  86 119 153 193 241 292 349
#     4  11  24  40  60  86 114 151 194 238 294 350
#     4   8  14  24  43  74 109 144 186 234 282 337
#     4   8  14  24  44  74 108 146 185 232 287 334
#     4   8  12  20  40  72 108 140 182 234 284 334
#
# _framework density 22.754688999999999
#
# number of rings (size 3 to 8) (size 9 to 14) (size 15 to 20)
#    0.000    2.933    0.000    3.200    0.000    6.933 
#    0.000    0.000    0.000    0.800    0.000    2.800 
#    0.000    0.000    0.000    0.000    0.000    0.133 
#
# Total GULP energy -167265.454358 kJ/mol
# GULP energy per Si atom -5575.515145 kJ/mol
# Density = 2.270290 g / cm^3
# Si number density = 22.754689 Si / 1000 Ang^3
#
#
#
# Elastic Constant Matrix: (Units=GPa)
#
#
# Indices 1 2 3 4 5 6 
#
# 1 56.3505 17.5134 25.9205 0.0000 17.2149 0.0000
# 2 17.5134 101.2502 19.3147 0.0000 13.7785 0.0000
# 3 25.9205 19.3147 65.7543 0.0000 29.6763 0.0000
# 4 0.0000 0.0000 0.0000 18.9298 0.0000 -2.9342
# 5 17.2149 13.7785 29.6763 0.0000 42.4617 0.0000
# 6 0.0000 0.0000 0.0000 -2.9342 0.0000 9.9891
#
#
#
# Elastic Compliance Matrix: (Units=1/GPa)
#
#
# Indices 1 2 3 4 5 6 
#
# 1 0.022603 -0.002134 -0.006515 0.000000 -0.003918 0.000000
# 2 -0.002134 0.010762 -0.001657 0.000000 -0.001469 0.000000
# 3 -0.006515 -0.001657 0.024582 0.000000 -0.014001 0.000000
# 4 0.000000 0.000000 0.000000 0.055347 0.000000 0.016257
# 5 -0.003918 -0.001469 -0.014001 0.000000 0.035401 0.000000
# 6 0.000000 0.000000 0.000000 0.016257 0.000000 0.104884
#
#
# Mechanical properties :
#
#
# Convention : Reuss Voigt Hill
#
# Bulk Modulus (GPa) = 26.78442 38.76135 32.77288
# Shear Modulus (GPa) = 17.44375 24.98322 21.21349
#
# Velocity S-wave (km/s) = 2.77176 3.31711 3.05662
# Velocity P-wave (km/s) = 4.69468 5.63404 5.18567
#
# Compressibility (1/GPa) = 0.03733514
#
# Stress axis : x y z
#
# Youngs Moduli (GPa) = 44.24188 92.92314 40.67969
#
# Poissons Ratio (x) = 0.19827 0.26503
# Poissons Ratio (y) = 0.09440 0.06741
# Poissons Ratio (z) = 0.28824 0.15398
#
# Static dielectric constant tensor:
#      x y z
#    x 1.879330 0.000000 -0.003140 
#    y 0.000000 1.849230 0.000000 
#    z -0.003140 0.000000 2.035020 
# 
# From -- ./inp_files/70934.got.cif
#   From: 2010.05.17/outbox.cif.g08.bks.cpg/sg13_36_cif.got.tgz:70934.got - 2010.06.03 16:44:36.
