data_PCOD9232851
_publ_section_title
;
Structure prediction by ZEFSAII (Michael W. Deem and Ramdas Pophale) SiO2 
 PCOD9232851
Probable space group: P 2/C
;
_chemical_formula_sum "Si O2"
_cell_formula_units_Z 28
_cell_length_a 20.501230
_cell_length_b 8.554072
_cell_length_c 23.336786
_cell_angle_alpha 90.000000
_cell_angle_beta 160.555055
_cell_angle_gamma 90.000000
_cell_volume 1362.413288
_symmetry_space_group_name_H-M "P 2/C"
_symmetry_group_IT_number 13
_symmetry_cell_setting 'monoclinic'
loop_
_space_group_symop_operation_xyz
x,y,z
-x,y,1/2-z
-x,-y,-z
x,-y,1/2+z
loop_
_atom_site_type_symbol
_atom_site_label
_atom_site_fract_x
_atom_site_fract_y
_atom_site_fract_z
Si Si1 0.041412 0.842901 0.498750
Si Si2 0.607615 0.219884 0.638038
Si Si3 0.534276 0.852596 0.605110
Si Si4 0.500000 0.817531 0.250000
Si Si5 0.662660 0.635934 0.492798
Si Si6 0.763902 0.279645 0.552047
Si Si7 0.200950 0.062401 0.013287
Si Si8 0.000000 0.147755 0.250000
O O1 0.256257 0.786742 0.698029
O O2 0.062609 0.888082 0.449784
O O3 0.840129 0.746513 0.336458
O O4 0.000000 0.000000 0.500000
O O5 0.530635 0.224476 0.508861
O O6 0.489356 0.331043 0.582696
O O7 0.565857 0.038744 0.621906
O O8 0.359286 0.824784 0.505270
O O9 0.593223 0.709528 0.375176
O O10 0.640151 0.938998 0.332507
O O11 0.705938 0.455820 0.518351
O O12 0.856038 0.738042 0.665352
O O13 0.715012 0.214837 0.448421
O O14 0.000000 0.270846 0.750000
O O15 0.102710 0.963123 0.881093
#
# Coordination Sequence:
#
# PCOD9232851 Si02
#       8
#     4   4   4   2   4   4   4   2
#     4  10  21  38  64 102 127 167 224 285 332 393
#     4  10  22  40  65  93 131 176 227 279 329 412
#     4  10  22  40  67  96 129 175 232 281 332 397
#     4  10  22  40  64  94 126 172 220 280 334 402
#     4  11  24  42  60  95 138 172 215 275 355 403
#     4  12  24  41  65 100 135 177 220 282 347 405
#     4  11  21  38  68  95 128 167 233 280 328 394
#     4  10  22  38  66  92 122 178 220 282 328 400
#
# _framework density 20.551767000000002
#
# number of rings (size 3 to 8) (size 9 to 14) (size 15 to 20)
#    0.000    1.429    1.429    5.143    6.000    2.286 
#    0.000    0.714    0.000    0.000    0.000    0.000 
#    0.000    0.000    0.000    0.000    0.000    0.000 
#
# Total GULP energy -156314.544129 kJ/mol
# GULP energy per Si atom -5582.662290 kJ/mol
# Density = 2.050499 g / cm^3
# Si number density = 20.551767 Si / 1000 Ang^3
#
#
#
# Elastic Constant Matrix: (Units=GPa)
#
#
# Indices 1 2 3 4 5 6 
#
# 1 140.3580 31.2664 37.9257 0.0000 26.3279 0.0000
# 2 31.2664 68.1735 25.4339 0.0000 5.4580 0.0000
# 3 37.9257 25.4339 116.4157 0.0000 21.8142 0.0000
# 4 0.0000 0.0000 0.0000 16.4135 0.0000 10.6943
# 5 26.3279 5.4580 21.8142 0.0000 36.4120 0.0000
# 6 0.0000 0.0000 0.0000 10.6943 0.0000 22.5624
#
#
#
# Elastic Compliance Matrix: (Units=1/GPa)
#
#
# Indices 1 2 3 4 5 6 
#
# 1 0.009222 -0.003325 -0.001264 0.000000 -0.005413 0.000000
# 2 -0.003325 0.017173 -0.002970 0.000000 0.001609 0.000000
# 3 -0.001264 -0.002970 0.010584 0.000000 -0.004982 0.000000
# 4 0.000000 0.000000 0.000000 0.088149 0.000000 -0.041781
# 5 -0.005413 0.001609 -0.004982 0.000000 0.034120 0.000000
# 6 0.000000 0.000000 0.000000 -0.041781 0.000000 0.064125
#
#
# Mechanical properties :
#
#
# Convention : Reuss Voigt Hill
#
# Bulk Modulus (GPa) = 45.74294 57.13323 51.43808
# Shear Modulus (GPa) = 20.34362 30.43232 25.38797
#
# Velocity S-wave (km/s) = 3.14964 3.85224 3.51852
# Velocity P-wave (km/s) = 5.96093 6.90264 6.44900
#
# Compressibility (1/GPa) = 0.02186130
#
# Stress axis : x y z
#
# Youngs Moduli (GPa) = 108.43638 58.23253 94.48200
#
# Poissons Ratio (x) = 0.19360 0.11940
# Poissons Ratio (y) = 0.36052 0.28063
# Poissons Ratio (z) = 0.13704 0.17296
#
# Static dielectric constant tensor:
#      x y z
#    x 1.699320 0.000000 0.000220 
#    y 0.000000 1.708890 0.000000 
#    z 0.000220 0.000000 1.863530 
# 
# From -- ./inp_files/88552.got.cif
#   From: 2010.05.17/outbox.cif.g08.bks.cpg/sg13_45_cif.got.tgz:88552.got - 2010.06.03 16:44:36.
