data_PCOD9232908
_publ_section_title
;
Structure prediction by ZEFSAII (Michael W. Deem and Ramdas Pophale) SiO2 
 PCOD9232908
Probable space group: P 2/C
;
_chemical_formula_sum "Si O2"
_cell_formula_units_Z 28
_cell_length_a 15.044474
_cell_length_b 9.615212
_cell_length_c 21.212223
_cell_angle_alpha 90.000000
_cell_angle_beta 27.637523
_cell_angle_gamma 90.000000
_cell_volume 1423.391115
_symmetry_space_group_name_H-M "P 2/C"
_symmetry_group_IT_number 13
_symmetry_cell_setting 'monoclinic'
loop_
_space_group_symop_operation_xyz
x,y,z
-x,y,1/2-z
-x,-y,-z
x,-y,1/2+z
loop_
_atom_site_type_symbol
_atom_site_label
_atom_site_fract_x
_atom_site_fract_y
_atom_site_fract_z
Si Si1 0.766223 0.607825 0.065603
Si Si2 0.079635 0.545649 0.767436
Si Si3 0.388885 0.271571 0.125567
Si Si4 0.863383 0.992665 0.676001
Si Si5 0.721046 0.069177 0.625767
Si Si6 0.406018 0.518647 0.207157
Si Si7 0.732060 0.276598 0.818542
O O1 0.728814 0.763785 0.113424
O O2 0.598328 0.562324 0.123048
O O3 0.753710 0.517745 0.137228
O O4 0.956859 0.594115 0.904789
O O5 0.281041 0.621663 0.647045
O O6 0.110043 0.381457 0.753356
O O7 0.000000 0.584695 0.750000
O O8 0.424585 0.367175 0.164411
O O9 0.252320 0.140257 0.224514
O O10 0.582212 0.239118 0.967394
O O11 0.781784 0.016444 0.656614
O O12 0.814268 0.133577 0.742323
O O13 0.094242 0.975963 0.531770
O O14 0.500000 0.026444 0.750000
O O15 0.357148 0.632938 0.183972
#
# Coordination Sequence:
#
# PCOD9232908 Si02
#       7
#     4   4   4   4   4   4   4
#     4  11  19  38  67  95 127 165 224 272 330 382
#     4  11  23  39  64  94 128 168 220 277 327 388
#     4  11  23  41  64  97 130 174 222 268 333 391
#     4  11  24  43  67  97 133 179 220 260 340 397
#     4  11  22  43  68  96 133 172 220 277 328 397
#     4  10  21  38  68  95 123 170 219 277 325 382
#     4  11  22  42  63  88 138 172 214 268 328 391
#
# _framework density 19.671330999999999
#
# number of rings (size 3 to 8) (size 9 to 14) (size 15 to 20)
#    0.000    1.143    4.286    3.857    0.000    4.571 
#    7.714    0.714    0.000    0.000    0.000    0.000 
#    0.000    0.000    0.000    0.000    0.000    0.000 
#
# Total GULP energy -156226.491981 kJ/mol
# GULP energy per Si atom -5579.517571 kJ/mol
# Density = 1.962656 g / cm^3
# Si number density = 19.671331 Si / 1000 Ang^3
#
#
#
# Elastic Constant Matrix: (Units=GPa)
#
#
# Indices 1 2 3 4 5 6 
#
# 1 57.6718 0.3199 11.6832 0.0000 3.1507 0.0000
# 2 0.3199 90.0225 18.6676 0.0000 3.9941 0.0000
# 3 11.6832 18.6676 110.1421 0.0000 10.6484 0.0000
# 4 0.0000 0.0000 0.0000 -4.1423 0.0000 -2.2388
# 5 3.1507 3.9941 10.6484 0.0000 28.9446 0.0000
# 6 0.0000 0.0000 0.0000 -2.2388 0.0000 14.9906
#
#
#
# Elastic Compliance Matrix: (Units=1/GPa)
#
#
# Indices 1 2 3 4 5 6 
#
# 1 0.017778 0.000373 -0.001822 0.000000 -0.001316 0.000000
# 2 0.000373 0.011544 -0.001906 0.000000 -0.000932 0.000000
# 3 -0.001822 -0.001906 0.009903 0.000000 -0.003182 0.000000
# 4 0.000000 0.000000 0.000000 -0.223383 0.000000 -0.033361
# 5 -0.001316 -0.000932 -0.003182 0.000000 0.035991 0.000000
# 6 0.000000 0.000000 0.000000 -0.033361 0.000000 0.061726
#
#
# Mechanical properties :
#
#
# Convention : Reuss Voigt Hill
#
# Bulk Modulus (GPa) = 30.75437 35.46422 33.10929
# Shear Modulus (GPa) = -72.57694 23.10297 -24.73698
#
# Velocity S-wave (km/s) = -6.08070 3.43074 -3.54999
# Velocity P-wave (km/s) = 5.79929 5.81041 0.25401
#
# Compressibility (1/GPa) = 0.03251570
#
# Stress axis : x y z
#
# Youngs Moduli (GPa) = 56.24802 86.62817 100.97884
#
# Poissons Ratio (x) = -0.03231 0.18396
# Poissons Ratio (y) = -0.02098 0.19246
# Poissons Ratio (z) = 0.10247 0.16511
#
# Static dielectric constant tensor:
#      x y z
#    x 1.701380 0.000000 -0.011290 
#    y 0.000000 1.657220 0.000000 
#    z -0.011290 0.000000 1.744630 
# 
# From -- ./inp_files/79921.got.cif
#   From: 2010.05.17/outbox.cif.g08.bks.cpg/sg13_40_cif.got.tgz:79921.got - 2010.06.03 16:44:36.
