data_PCOD9232254
_publ_section_title
;
Structure prediction by ZEFSAII (Michael W. Deem and Ramdas Pophale) SiO2 
 PCOD9232254
Probable space group: P 2/C
;
_chemical_formula_sum "Si O2"
_cell_formula_units_Z 14
_cell_length_a 8.591883
_cell_length_b 16.364322
_cell_length_c 4.982735
_cell_angle_alpha 90.000000
_cell_angle_beta 123.342345
_cell_angle_gamma 90.000000
_cell_volume 585.260678
_symmetry_space_group_name_H-M "P 2/C"
_symmetry_group_IT_number 13
_symmetry_cell_setting 'monoclinic'
loop_
_space_group_symop_operation_xyz
x,y,z
-x,y,1/2-z
-x,-y,-z
x,-y,1/2+z
loop_
_atom_site_type_symbol
_atom_site_label
_atom_site_fract_x
_atom_site_fract_y
_atom_site_fract_z
Si Si1 0.276587 0.206167 0.021921
Si Si2 0.722638 0.309680 0.970218
Si Si3 0.791041 0.534135 0.174851
Si Si4 0.000000 0.060093 0.750000
O O1 0.500000 0.197733 0.250000
O O2 0.222850 0.278499 0.182388
O O3 0.226868 0.235325 0.677500
O O4 0.172339 0.121702 0.963053
O O5 0.500000 0.318893 0.750000
O O6 0.796223 0.388120 0.876231
O O7 0.698097 0.467165 0.290093
O O8 0.000000 0.522763 0.250000
O O9 0.000000 0.000000 0.500000
#
# Coordination Sequence:
#
# PCOD9232254 Si02
#       4
#     4   4   4   2
#     4  10  23  43  65  96 131 166 213 265 315 379
#     4  10  21  39  63  90 125 173 220 262 319 376
#     4  10  21  36  54  87 129 168 216 270 323 367
#     4  12  26  44  68 102 128 164 212 248 326 402
#
# _framework density 23.920964999999999
#
# number of rings (size 3 to 8) (size 9 to 14) (size 15 to 20)
#    0.000    1.714    0.000    3.429    2.000    2.286 
#    0.000    0.000    0.000    0.000    0.000    0.000 
#    0.000    0.000    0.000    0.000    0.000    0.000 
#
# Total GULP energy -78108.347949 kJ/mol
# GULP energy per Si atom -5579.167711 kJ/mol
# Density = 2.386652 g / cm^3
# Si number density = 23.920965 Si / 1000 Ang^3
#
#
#
# Elastic Constant Matrix: (Units=GPa)
#
#
# Indices 1 2 3 4 5 6 
#
# 1 143.7987 77.1541 60.1129 0.0000 -30.3284 0.0000
# 2 77.1541 153.9353 16.3433 0.0000 -15.1567 0.0000
# 3 60.1129 16.3433 94.6215 0.0000 -39.2250 0.0000
# 4 0.0000 0.0000 0.0000 33.4871 0.0000 14.3206
# 5 -30.3284 -15.1567 -39.2250 0.0000 56.3888 0.0000
# 6 0.0000 0.0000 0.0000 14.3206 0.0000 -21.6029
#
#
#
# Elastic Compliance Matrix: (Units=1/GPa)
#
#
# Indices 1 2 3 4 5 6 
#
# 1 0.013152 -0.005780 -0.007123 0.000000 0.000565 0.000000
# 2 -0.005780 0.009235 0.002554 0.000000 0.001150 0.000000
# 3 -0.007123 0.002554 0.018758 0.000000 0.009904 0.000000
# 4 0.000000 0.000000 0.000000 0.023266 0.000000 0.015423
# 5 0.000565 0.001150 0.009904 0.000000 0.025237 0.000000
# 6 0.000000 0.000000 0.000000 0.015423 0.000000 -0.036066
#
#
# Mechanical properties :
#
#
# Convention : Reuss Voigt Hill
#
# Bulk Modulus (GPa) = 48.90676 77.73068 63.31872
# Shear Modulus (GPa) = 61.65410 29.57094 45.61252
#
# Velocity S-wave (km/s) = 5.08233 3.51977 4.37143
# Velocity P-wave (km/s) = 7.41145 7.00598 7.21156
#
# Compressibility (1/GPa) = 0.02044707
#
# Stress axis : x y z
#
# Youngs Moduli (GPa) = 76.03193 108.27860 53.31029
#
# Poissons Ratio (x) = 0.62587 0.37972
# Poissons Ratio (y) = 0.43948 -0.13614
# Poissons Ratio (z) = 0.54157 -0.27651
#
# Static dielectric constant tensor:
#      x y z
#    x 1.948580 0.000000 0.139800 
#    y 0.000000 1.913990 0.000000 
#    z 0.139800 0.000000 2.289230 
# 
# From -- ./inp_files/1040.got.cif
#   From: 2010.05.17/outbox.cif.g08.bks.cpg/sg13_1_cif.got.tgz:1040.got - 2010.06.03 16:44:36.
