data_PCOD9232930
_publ_section_title
;
Structure prediction by ZEFSAII (Michael W. Deem and Ramdas Pophale) SiO2 
 PCOD9232930
Probable space group: P 2/C
;
_chemical_formula_sum "Si O2"
_cell_formula_units_Z 30
_cell_length_a 17.941782
_cell_length_b 5.591816
_cell_length_c 31.165336
_cell_angle_alpha 90.000000
_cell_angle_beta 24.189463
_cell_angle_gamma 90.000000
_cell_volume 1281.193785
_symmetry_space_group_name_H-M "P 2/C"
_symmetry_group_IT_number 13
_symmetry_cell_setting 'monoclinic'
loop_
_space_group_symop_operation_xyz
x,y,z
-x,y,1/2-z
-x,-y,-z
x,-y,1/2+z
loop_
_atom_site_type_symbol
_atom_site_label
_atom_site_fract_x
_atom_site_fract_y
_atom_site_fract_z
Si Si1 0.500000 0.029646 0.750000
Si Si2 0.865777 0.715192 0.543980
Si Si3 0.599588 0.706058 0.542439
Si Si4 0.552436 0.930351 0.317473
Si Si5 0.911530 0.858236 0.606888
Si Si6 0.130383 0.558257 0.545552
Si Si7 0.612608 0.248190 0.942502
Si Si8 0.745502 0.405298 0.784399
O O1 0.681167 0.871191 0.649002
O O2 0.490049 0.160346 0.708640
O O3 0.915813 0.655734 0.567488
O O4 0.821587 0.562520 0.525292
O O5 0.029089 0.891377 0.444266
O O6 0.598407 0.929474 0.575640
O O7 0.701261 0.486216 0.512103
O O8 0.696358 0.755273 0.446250
O O9 0.390974 0.633630 0.640729
O O10 0.706373 0.132181 0.229359
O O11 0.653482 0.744058 0.294560
O O12 0.053699 0.811261 0.569961
O O13 0.951282 0.451637 0.662371
O O14 0.733035 0.267764 0.836340
O O15 0.500000 0.500000 0.000000
O O16 0.500000 0.000000 0.000000
#
# Coordination Sequence:
#
# PCOD9232930 Si02
#       8
#     2   4   4   4   4   4   4   4
#     4  10  22  36  60  90 132 166 224 276 332 416
#     4  10  21  39  56  88 125 176 214 279 332 406
#     4  11  24  41  66  97 131 174 227 283 348 418
#     4  11  20  41  62  89 132 172 220 276 344 403
#     4  10  22  38  59  85 129 173 221 271 339 402
#     4  12  23  39  64  97 130 172 231 276 343 414
#     4  10  22  44  73 102 137 181 229 291 354 420
#     4  11  24  42  68  93 131 179 221 282 355 413
#
# _framework density 23.415659999999999
#
# number of rings (size 3 to 8) (size 9 to 14) (size 15 to 20)
#    0.000    1.333    5.333    0.400    1.867    0.533 
#    0.000    1.333    0.000    1.600    0.000    0.000 
#    0.000    0.000    0.000    0.000    0.000    0.000 
#
# Total GULP energy -167248.327848 kJ/mol
# GULP energy per Si atom -5574.944262 kJ/mol
# Density = 2.336237 g / cm^3
# Si number density = 23.415660 Si / 1000 Ang^3
#
#
#
# Elastic Constant Matrix: (Units=GPa)
#
#
# Indices 1 2 3 4 5 6 
#
# 1 127.0518 9.2626 47.5773 0.0000 31.3813 0.0000
# 2 9.2626 41.5124 9.5075 0.0000 15.0331 0.0000
# 3 47.5773 9.5075 108.2869 0.0000 18.5954 0.0000
# 4 0.0000 0.0000 0.0000 20.7639 0.0000 2.5525
# 5 31.3813 15.0331 18.5954 0.0000 49.4853 0.0000
# 6 0.0000 0.0000 0.0000 2.5525 0.0000 27.5249
#
#
#
# Elastic Compliance Matrix: (Units=1/GPa)
#
#
# Indices 1 2 3 4 5 6 
#
# 1 0.010589 0.000470 -0.003759 0.000000 -0.005446 0.000000
# 2 0.000470 0.027196 -0.001202 0.000000 -0.008108 0.000000
# 3 -0.003759 -0.001202 0.011245 0.000000 -0.001477 0.000000
# 4 0.000000 0.000000 0.000000 0.048716 0.000000 -0.004518
# 5 -0.005446 -0.008108 -0.001477 0.000000 0.026680 0.000000
# 6 0.000000 0.000000 0.000000 -0.004518 0.000000 0.036750
#
#
# Mechanical properties :
#
#
# Convention : Reuss Voigt Hill
#
# Bulk Modulus (GPa) = 24.96921 45.50510 35.23715
# Shear Modulus (GPa) = 27.24707 33.58840 30.41773
#
# Velocity S-wave (km/s) = 3.41490 3.79151 3.60812
# Velocity P-wave (km/s) = 5.12204 6.21637 5.69555
#
# Compressibility (1/GPa) = 0.04004932
#
# Stress axis : x y z
#
# Youngs Moduli (GPa) = 94.43729 36.77033 88.92619
#
# Poissons Ratio (x) = -0.01729 0.33424
# Poissons Ratio (y) = -0.04440 0.10688
# Poissons Ratio (z) = 0.35495 0.04420
#
# Static dielectric constant tensor:
#      x y z
#    x 1.946980 0.000000 0.025010 
#    y 0.000000 2.004330 0.000000 
#    z 0.025010 0.000000 1.927430 
# 
# From -- ./inp_files/97165.got.cif
#   From: 2010.05.17/outbox.cif.g08.bks.cpg/sg13_49_cif.got.tgz:97165.got - 2010.06.03 16:44:36.
