data_PCOD9232224
_publ_section_title
;
Structure prediction by ZEFSAII (Michael W. Deem and Ramdas Pophale) SiO2 
 PCOD9232224
Probable space group: P 2/C
;
_chemical_formula_sum "Si O2"
_cell_formula_units_Z 20
_cell_length_a 8.724267
_cell_length_b 7.223294
_cell_length_c 17.107590
_cell_angle_alpha 90.000000
_cell_angle_beta 128.059636
_cell_angle_gamma 90.000000
_cell_volume 848.851405
_symmetry_space_group_name_H-M "P 2/C"
_symmetry_group_IT_number 13
_symmetry_cell_setting 'monoclinic'
loop_
_space_group_symop_operation_xyz
x,y,z
-x,y,1/2-z
-x,-y,-z
x,-y,1/2+z
loop_
_atom_site_type_symbol
_atom_site_label
_atom_site_fract_x
_atom_site_fract_y
_atom_site_fract_z
Si Si1 0.560609 0.216858 0.661052
Si Si2 0.413393 0.705421 0.964555
Si Si3 0.164065 0.137747 0.622080
Si Si4 0.991916 0.269365 0.072926
Si Si5 0.626094 0.359322 0.220697
O O1 0.554195 0.180647 0.566632
O O2 0.368916 0.124473 0.638714
O O3 0.761081 0.174724 0.767245
O O4 0.540968 0.437067 0.675069
O O5 0.206016 0.702581 0.942249
O O6 0.387289 0.748670 0.865186
O O7 0.500000 0.500000 0.000000
O O8 0.044459 0.288859 0.532610
O O9 0.049358 0.947304 0.592247
O O10 0.161555 0.371213 0.173914
O O11 0.500000 0.271314 0.250000
#
# Coordination Sequence:
#
# PCOD9232224 Si02
#       5
#     4   4   4   4   4
#     4   9  18  38  61  89 127 164 204 262 316 363
#     4   9  20  40  62  88 129 162 206 264 308 368
#     4   9  18  37  60  89 125 163 209 255 311 376
#     4  10  21  35  65  92 122 167 210 258 311 374
#     4  11  21  36  63  97 122 165 213 257 313 371
#
# _framework density 23.561250000000001
#
# number of rings (size 3 to 8) (size 9 to 14) (size 15 to 20)
#    0.000    2.400    2.000    0.600    2.800    0.800 
#    0.000    1.000    8.800    0.000    0.000    0.000 
#    0.000    0.000    0.000    0.000    0.000    0.000 
#
# Total GULP energy -111541.229911 kJ/mol
# GULP energy per Si atom -5577.061496 kJ/mol
# Density = 2.350762 g / cm^3
# Si number density = 23.561250 Si / 1000 Ang^3
#
#
#
# Elastic Constant Matrix: (Units=GPa)
#
#
# Indices 1 2 3 4 5 6 
#
# 1 87.2461 33.6018 74.7956 0.0000 -8.1791 0.0000
# 2 33.6018 70.3939 24.8316 0.0000 4.1867 0.0000
# 3 74.7956 24.8316 243.8696 0.0000 -31.1882 0.0000
# 4 0.0000 0.0000 0.0000 39.1361 0.0000 8.7308
# 5 -8.1791 4.1867 -31.1882 0.0000 37.4631 0.0000
# 6 0.0000 0.0000 0.0000 8.7308 0.0000 31.6603
#
#
#
# Elastic Compliance Matrix: (Units=1/GPa)
#
#
# Indices 1 2 3 4 5 6 
#
# 1 0.018418 -0.007140 -0.004819 0.000000 0.000808 0.000000
# 2 -0.007140 0.017863 -0.000094 0.000000 -0.003633 0.000000
# 3 -0.004819 -0.000094 0.006105 0.000000 0.004041 0.000000
# 4 0.000000 0.000000 0.000000 0.027227 0.000000 -0.007508
# 5 0.000808 -0.003633 0.004041 0.000000 0.030639 0.000000
# 6 0.000000 0.000000 0.000000 -0.007508 0.000000 0.033656
#
#
# Mechanical properties :
#
#
# Convention : Reuss Voigt Hill
#
# Bulk Modulus (GPa) = 54.70003 74.21862 64.45932
# Shear Modulus (GPa) = 30.46795 39.53727 35.00261
#
# Velocity S-wave (km/s) = 3.59992 4.10086 3.85853
# Velocity P-wave (km/s) = 6.36756 7.34789 6.87522
#
# Compressibility (1/GPa) = 0.01828153
#
# Stress axis : x y z
#
# Youngs Moduli (GPa) = 54.29325 55.98120 163.80688
#
# Poissons Ratio (x) = 0.39971 0.78934
# Poissons Ratio (y) = 0.38766 0.01534
# Poissons Ratio (z) = 0.26162 0.00524
#
# Static dielectric constant tensor:
#      x y z
#    x 1.805790 0.000000 -0.046960 
#    y 0.000000 1.966370 0.000000 
#    z -0.046960 0.000000 2.033090 
# 
# From -- ./inp_files/63921.got.cif
#   From: 2010.05.17/outbox.cif.g08.bks.cpg/sg13_32_cif.got.tgz:63921.got - 2010.06.03 16:44:36.
