data_PCOD9232073
_publ_section_title
;
Structure prediction by ZEFSAII (Michael W. Deem and Ramdas Pophale) SiO2 
 PCOD9232073
Probable space group: P 2/C
;
_chemical_formula_sum "Si O2"
_cell_formula_units_Z 28
_cell_length_a 13.318984
_cell_length_b 5.285478
_cell_length_c 22.058720
_cell_angle_alpha 90.000000
_cell_angle_beta 102.856115
_cell_angle_gamma 90.000000
_cell_volume 1513.944510
_symmetry_space_group_name_H-M "P 2/C"
_symmetry_group_IT_number 13
_symmetry_cell_setting 'monoclinic'
loop_
_space_group_symop_operation_xyz
x,y,z
-x,y,1/2-z
-x,-y,-z
x,-y,1/2+z
loop_
_atom_site_type_symbol
_atom_site_label
_atom_site_fract_x
_atom_site_fract_y
_atom_site_fract_z
Si Si1 0.415141 0.200978 0.513930
Si Si2 0.928886 0.221555 0.422132
Si Si3 0.301942 0.175957 0.080000
Si Si4 0.734049 0.566181 0.054769
Si Si5 0.575266 0.317147 0.624856
Si Si6 0.495003 0.796350 0.820964
Si Si7 0.965190 0.282904 0.571883
O O1 0.332309 0.305743 0.454852
O O2 0.490969 0.386066 0.560968
O O3 0.500000 0.000000 0.500000
O O4 0.343277 0.082113 0.556245
O O5 0.808809 0.154184 0.404030
O O6 0.956009 0.248953 0.497561
O O7 0.952625 0.500899 0.400897
O O8 0.998326 0.996662 0.403648
O O9 0.390665 0.260199 0.137580
O O10 0.288880 0.341149 0.017001
O O11 0.679528 0.718138 0.101155
O O12 0.855635 0.601985 0.077606
O O13 0.573771 0.554729 0.669569
O O14 0.543698 0.056347 0.653015
O O15 0.500000 0.828639 0.750000
#
# Coordination Sequence:
#
# PCOD9232073 Si02
#       7
#     4   4   4   4   4   4   4
#     4  11  20  31  48  81 115 143 179 214 271 338
#     4   9  19  32  45  74 105 148 173 210 260 325
#     4  10  21  32  56  76 112 145 181 219 273 324
#     4  11  20  32  54  83 111 144 172 222 283 324
#     4  11  22  36  56  79 110 144 178 223 270 329
#     4  11  24  40  55  79 108 146 187 225 261 322
#     4   9  20  30  48  72 113 137 176 210 263 331
#
# _framework density 18.494734000000001
#
# number of rings (size 3 to 8) (size 9 to 14) (size 15 to 20)
#    0.000    1.714    2.857    2.571   10.000    0.000 
#    0.000    0.000    0.000    0.000    0.000    6.000 
#    0.000    0.000    0.000    0.000    0.000    0.000 
#
# Total GULP energy -155884.595661 kJ/mol
# GULP energy per Si atom -5567.306988 kJ/mol
# Density = 1.845264 g / cm^3
# Si number density = 18.494734 Si / 1000 Ang^3
#
#
#
# Elastic Constant Matrix: (Units=GPa)
#
#
# Indices 1 2 3 4 5 6 
#
# 1 122.0814 42.2884 22.7862 0.0000 -15.8194 0.0000
# 2 42.2884 92.6851 16.9933 0.0000 -11.2240 0.0000
# 3 22.7862 16.9933 62.9316 0.0000 -8.2616 0.0000
# 4 0.0000 0.0000 0.0000 17.7050 0.0000 -4.6790
# 5 -15.8194 -11.2240 -8.2616 0.0000 11.5558 0.0000
# 6 0.0000 0.0000 0.0000 -4.6790 0.0000 21.5412
#
#
#
# Elastic Compliance Matrix: (Units=1/GPa)
#
#
# Indices 1 2 3 4 5 6 
#
# 1 0.011078 -0.003462 -0.001685 0.000000 0.010598 0.000000
# 2 -0.003462 0.013524 -0.001430 0.000000 0.007373 0.000000
# 3 -0.001685 -0.001430 0.018100 0.000000 0.009244 0.000000
# 4 0.000000 0.000000 0.000000 0.059921 0.000000 0.013015
# 5 0.010598 0.007373 0.009244 0.000000 0.114816 0.000000
# 6 0.000000 0.000000 0.000000 0.013015 0.000000 0.049250
#
#
# Mechanical properties :
#
#
# Convention : Reuss Voigt Hill
#
# Bulk Modulus (GPa) = 33.84378 49.09266 41.46822
# Shear Modulus (GPa) = 17.25962 23.20241 20.23101
#
# Velocity S-wave (km/s) = 3.05818 3.54579 3.31097
# Velocity P-wave (km/s) = 5.55057 6.58523 6.08991
#
# Compressibility (1/GPa) = 0.02954753
#
# Stress axis : x y z
#
# Youngs Moduli (GPa) = 90.26558 73.94242 55.24806
#
# Poissons Ratio (x) = 0.25601 0.09309
# Poissons Ratio (y) = 0.31252 0.07902
# Poissons Ratio (z) = 0.15210 0.10576
#
# Static dielectric constant tensor:
#      x y z
#    x 1.661010 0.000000 -0.006490 
#    y 0.000000 1.794180 0.000000 
#    z -0.006490 0.000000 1.634200 
# 
# From -- ./inp_files/85578.got.cif
#   From: 2010.05.17/outbox.cif.g08.bks.cpg/sg13_43_cif.got.tgz:85578.got - 2010.06.03 16:44:36.
