data_PCOD9232357
_publ_section_title
;
Structure prediction by ZEFSAII (Michael W. Deem and Ramdas Pophale) SiO2 
 PCOD9232357
Probable space group: P 2/C
;
_chemical_formula_sum "Si O2"
_cell_formula_units_Z 30
_cell_length_a 11.737055
_cell_length_b 13.414280
_cell_length_c 16.604659
_cell_angle_alpha 90.000000
_cell_angle_beta 36.863795
_cell_angle_gamma 90.000000
_cell_volume 1568.361004
_symmetry_space_group_name_H-M "P 2/C"
_symmetry_group_IT_number 13
_symmetry_cell_setting 'monoclinic'
loop_
_space_group_symop_operation_xyz
x,y,z
-x,y,1/2-z
-x,-y,-z
x,-y,1/2+z
loop_
_atom_site_type_symbol
_atom_site_label
_atom_site_fract_x
_atom_site_fract_y
_atom_site_fract_z
Si Si1 0.500000 0.730886 0.250000
Si Si2 0.423304 0.562526 0.968869
Si Si3 0.912064 0.417237 0.944338
Si Si4 0.672244 0.079778 0.215725
Si Si5 0.345754 0.136659 0.696261
Si Si6 0.284208 0.453543 0.808215
Si Si7 0.092628 0.813087 0.046628
Si Si8 0.436554 0.800538 0.970166
O O1 0.523216 0.802974 0.313896
O O2 0.665233 0.650491 0.176342
O O3 0.539864 0.515082 0.827639
O O4 0.451812 0.680670 0.966204
O O5 0.500000 0.500000 0.000000
O O6 0.201358 0.554004 0.071689
O O7 0.869441 0.303074 0.990941
O O8 0.137040 0.432321 0.819074
O O9 0.821965 0.481305 0.066225
O O10 0.500000 0.071439 0.250000
O O11 0.606495 0.160775 0.318110
O O12 0.684526 0.974825 0.253892
O O13 0.847986 0.118394 0.062761
O O14 0.438586 0.149422 0.556424
O O15 0.130405 0.177919 0.810159
O O16 0.238528 0.832852 0.037959
#
# Coordination Sequence:
#
# PCOD9232357 Si02
#       8
#     2   4   4   4   4   4   4   4
#     4  12  22  36  62  86 126 158 208 250 310 366
#     4  11  22  37  59  89 122 155 199 248 302 363
#     4  10  21  36  61  84 115 159 197 245 295 356
#     4  10  21  40  62  91 117 162 204 251 309 370
#     4  12  22  39  61  91 121 159 203 260 308 364
#     4  11  21  38  57  85 118 159 201 242 297 366
#     4  10  21  38  63  90 116 153 211 252 298 367
#     4  10  23  39  62  87 126 156 200 255 312 366
#
# _framework density 19.128247000000002
#
# number of rings (size 3 to 8) (size 9 to 14) (size 15 to 20)
#    0.000    1.333    3.333    2.800    0.000    2.667 
#    0.000    0.000    0.000    0.000    0.000    0.000 
#    0.000    0.000    0.000    0.000    0.000    0.000 
#
# Total GULP energy -167229.777430 kJ/mol
# GULP energy per Si atom -5574.325914 kJ/mol
# Density = 1.908471 g / cm^3
# Si number density = 19.128247 Si / 1000 Ang^3
#
#
#
# Elastic Constant Matrix: (Units=GPa)
#
#
# Indices 1 2 3 4 5 6 
#
# 1 105.4813 34.9552 28.5100 0.0000 8.1348 0.0000
# 2 34.9552 83.4220 8.6450 0.0000 12.3304 0.0000
# 3 28.5100 8.6450 47.0623 0.0000 6.4376 0.0000
# 4 0.0000 0.0000 0.0000 13.8717 0.0000 -5.4625
# 5 8.1348 12.3304 6.4376 0.0000 31.9881 0.0000
# 6 0.0000 0.0000 0.0000 -5.4625 0.0000 26.3277
#
#
#
# Elastic Compliance Matrix: (Units=1/GPa)
#
#
# Indices 1 2 3 4 5 6 
#
# 1 0.012917 -0.004680 -0.006954 0.000000 -0.000081 0.000000
# 2 -0.004680 0.014542 0.000789 0.000000 -0.004574 0.000000
# 3 -0.006954 0.000789 0.025827 0.000000 -0.003733 0.000000
# 4 0.000000 0.000000 0.000000 0.078503 0.000000 0.016288
# 5 -0.000081 -0.004574 -0.003733 0.000000 0.033797 0.000000
# 6 0.000000 0.000000 0.000000 0.016288 0.000000 0.041362
#
#
# Mechanical properties :
#
#
# Convention : Reuss Voigt Hill
#
# Bulk Modulus (GPa) = 31.64844 42.24287 36.94566
# Shear Modulus (GPa) = 20.90559 25.36121 23.13340
#
# Velocity S-wave (km/s) = 3.30952 3.64517 3.48139
# Velocity P-wave (km/s) = 5.58437 6.31256 5.95959
#
# Compressibility (1/GPa) = 0.03159714
#
# Stress axis : x y z
#
# Youngs Moduli (GPa) = 77.41688 68.76407 38.71920
#
# Poissons Ratio (x) = 0.32180 0.26926
# Poissons Ratio (y) = 0.36229 -0.03056
# Poissons Ratio (z) = 0.53838 -0.05428
#
# Static dielectric constant tensor:
#      x y z
#    x 1.715100 0.000000 -0.017710 
#    y 0.000000 1.665470 0.000000 
#    z -0.017710 0.000000 1.671060 
# 
# From -- ./inp_files/66648.got.cif
#   From: 2010.05.17/outbox.cif.g08.bks.cpg/sg13_34_cif.got.tgz:66648.got - 2010.06.03 16:44:36.
