data_PCOD9232036
_publ_section_title
;
Structure prediction by ZEFSAII (Michael W. Deem and Ramdas Pophale) SiO2 
 PCOD9232036
Probable space group: P 2/C
;
_chemical_formula_sum "Si O2"
_cell_formula_units_Z 18
_cell_length_a 6.931180
_cell_length_b 13.124525
_cell_length_c 10.772747
_cell_angle_alpha 90.000000
_cell_angle_beta 117.302432
_cell_angle_gamma 90.000000
_cell_volume 870.808077
_symmetry_space_group_name_H-M "P 2/C"
_symmetry_group_IT_number 13
_symmetry_cell_setting 'monoclinic'
loop_
_space_group_symop_operation_xyz
x,y,z
-x,y,1/2-z
-x,-y,-z
x,-y,1/2+z
loop_
_atom_site_type_symbol
_atom_site_label
_atom_site_fract_x
_atom_site_fract_y
_atom_site_fract_z
Si Si1 0.045029 0.834624 0.546751
Si Si2 0.283633 0.464612 0.503995
Si Si3 0.637499 0.980120 0.415635
Si Si4 0.000000 0.684046 0.750000
Si Si5 0.031662 0.360521 0.616355
O O1 0.817837 0.893982 0.497990
O O2 0.099197 0.760854 0.677742
O O3 0.010157 0.756723 0.423750
O O4 0.228297 0.917557 0.576523
O O5 0.500000 0.500000 0.500000
O O6 0.163556 0.389893 0.370705
O O7 0.257268 0.398768 0.622663
O O8 0.153858 0.568200 0.498308
O O9 0.500000 0.954484 0.250000
O O10 0.500000 0.000000 0.500000
O O11 0.000000 0.381869 0.750000
#
# Coordination Sequence:
#
# PCOD9232036 Si02
#       5
#     4   4   4   2   4
#     4  10  24  42  68  93 133 170 210 277 330 387
#     4  10  22  41  65  93 129 177 219 268 319 388
#     4  11  25  44  68  99 128 169 225 274 334 399
#     4  10  20  46  66  94 134 172 220 262 330 394
#     4  10  22  41  60  95 133 166 215 266 325 388
#
# _framework density 20.670456999999999
#
# number of rings (size 3 to 8) (size 9 to 14) (size 15 to 20)
#    0.000    1.778    1.111    1.333    3.111    8.000 
#    0.000    2.222    0.000    0.000    0.000    0.000 
#    0.000    0.000    0.000    0.000    0.000    0.000 
#
# Total GULP energy -100392.746363 kJ/mol
# GULP energy per Si atom -5577.374798 kJ/mol
# Density = 2.062341 g / cm^3
# Si number density = 20.670457 Si / 1000 Ang^3
#
#
#
# Elastic Constant Matrix: (Units=GPa)
#
#
# Indices 1 2 3 4 5 6 
#
# 1 131.7564 38.0267 45.5924 0.0000 -16.0844 0.0000
# 2 38.0267 120.0836 20.5705 0.0000 -0.5188 0.0000
# 3 45.5924 20.5705 95.3283 0.0000 -28.7293 0.0000
# 4 0.0000 0.0000 0.0000 25.3780 0.0000 -8.4232
# 5 -16.0844 -0.5188 -28.7293 0.0000 24.8563 0.0000
# 6 0.0000 0.0000 0.0000 -8.4232 0.0000 17.8978
#
#
#
# Elastic Compliance Matrix: (Units=1/GPa)
#
#
# Indices 1 2 3 4 5 6 
#
# 1 0.009784 -0.002497 -0.003450 0.000000 0.002292 0.000000
# 2 -0.002497 0.009436 -0.001948 0.000000 -0.003671 0.000000
# 3 -0.003450 -0.001948 0.018223 0.000000 0.018789 0.000000
# 4 0.000000 0.000000 0.000000 0.046699 0.000000 0.021978
# 5 0.002292 -0.003671 0.018789 0.000000 0.063355 0.000000
# 6 0.000000 0.000000 0.000000 0.021978 0.000000 0.066216
#
#
# Mechanical properties :
#
#
# Convention : Reuss Voigt Hill
#
# Bulk Modulus (GPa) = 46.18356 61.72751 53.95553
# Shear Modulus (GPa) = 21.12187 29.82498 25.47343
#
# Velocity S-wave (km/s) = 3.20009 3.80265 3.51431
# Velocity P-wave (km/s) = 6.00378 7.01482 6.52890
#
# Compressibility (1/GPa) = 0.02165273
#
# Stress axis : x y z
#
# Youngs Moduli (GPa) = 102.20665 105.97452 54.87586
#
# Poissons Ratio (x) = 0.26467 0.18931
# Poissons Ratio (y) = 0.25526 0.10690
# Poissons Ratio (z) = 0.35260 0.20644
#
# Static dielectric constant tensor:
#      x y z
#    x 1.766900 0.000000 0.015520 
#    y 0.000000 1.715320 0.000000 
#    z 0.015520 0.000000 1.880830 
# 
# From -- ./inp_files/25890.got.cif
#   From: 2010.05.17/outbox.cif.g08.bks.cpg/sg13_13_cif.got.tgz:25890.got - 2010.06.03 16:44:36.
