data_PCOD9232017
_publ_section_title
;
Structure prediction by ZEFSAII (Michael W. Deem and Ramdas Pophale) SiO2 
 PCOD9232017
Probable space group: P 2/C
;
_chemical_formula_sum "Si O2"
_cell_formula_units_Z 28
_cell_length_a 8.935149
_cell_length_b 14.643681
_cell_length_c 11.729540
_cell_angle_alpha 90.000000
_cell_angle_beta 61.211951
_cell_angle_gamma 90.000000
_cell_volume 1345.051614
_symmetry_space_group_name_H-M "P 2/C"
_symmetry_group_IT_number 13
_symmetry_cell_setting 'monoclinic'
loop_
_space_group_symop_operation_xyz
x,y,z
-x,y,1/2-z
-x,-y,-z
x,-y,1/2+z
loop_
_atom_site_type_symbol
_atom_site_label
_atom_site_fract_x
_atom_site_fract_y
_atom_site_fract_z
Si Si1 0.143294 0.480066 0.297259
Si Si2 0.692926 0.330074 0.410877
Si Si3 0.018085 0.314391 0.453869
Si Si4 0.606961 0.648932 0.320155
Si Si5 0.849181 0.797960 0.218381
Si Si6 0.100901 0.002055 0.838242
Si Si7 0.317246 0.818334 0.757640
O O1 0.266716 0.403038 0.200364
O O2 0.075854 0.421051 0.431763
O O3 0.260334 0.569624 0.263519
O O4 0.000000 0.497359 0.250000
O O5 0.539780 0.374706 0.537251
O O6 0.651634 0.231311 0.374633
O O7 0.870505 0.316034 0.412451
O O8 0.177280 0.248513 0.368347
O O9 0.924381 0.268299 0.593962
O O10 0.500000 0.678730 0.250000
O O11 0.703928 0.737912 0.329289
O O12 0.805620 0.899339 0.193539
O O13 0.000000 0.811757 0.250000
O O14 0.000000 0.995732 0.750000
O O15 0.228748 0.916725 0.787769
O O16 0.000000 0.000000 0.000000
O O17 0.500000 0.821458 0.750000
#
# Coordination Sequence:
#
# PCOD9232017 Si02
#       7
#     4   4   4   4   4   4   4
#     4   9  21  41  64  92 124 173 225 276 332 404
#     4  10  22  43  67  92 134 175 224 272 337 410
#     4  10  20  44  69  90 126 179 224 269 340 404
#     4  12  24  40  60  98 132 173 216 281 340 399
#     4  11  25  42  66  95 134 177 224 279 344 405
#     4  11  24  45  74 100 136 183 232 281 346 417
#     4  11  24  41  70 104 129 172 227 281 334 409
#
# _framework density 20.817046000000001
#
# number of rings (size 3 to 8) (size 9 to 14) (size 15 to 20)
#    0.000    1.429    2.857    3.000    2.000    3.429 
#    2.571    1.429    0.000    0.000    0.000    0.000 
#    0.000    0.000    0.000    0.000    0.000    0.000 
#
# Total GULP energy -155938.622239 kJ/mol
# GULP energy per Si atom -5569.236509 kJ/mol
# Density = 2.076967 g / cm^3
# Si number density = 20.817046 Si / 1000 Ang^3
#
#
#
# Elastic Constant Matrix: (Units=GPa)
#
#
# Indices 1 2 3 4 5 6 
#
# 1 86.4672 55.3789 1.5346 0.0000 -17.3607 0.0000
# 2 55.3789 158.9313 29.5999 0.0000 -16.7238 0.0000
# 3 1.5346 29.5999 32.1780 0.0000 -8.0100 0.0000
# 4 0.0000 0.0000 0.0000 24.2227 0.0000 -25.7357
# 5 -17.3607 -16.7238 -8.0100 0.0000 24.9517 0.0000
# 6 0.0000 0.0000 0.0000 -25.7357 0.0000 354.4109
#
#
#
# Elastic Compliance Matrix: (Units=1/GPa)
#
#
# Indices 1 2 3 4 5 6 
#
# 1 0.017690 -0.006508 0.007739 0.000000 0.010431 0.000000
# 2 -0.006508 0.010213 -0.009247 0.000000 -0.000651 0.000000
# 3 0.007739 -0.009247 0.042400 0.000000 0.012798 0.000000
# 4 0.000000 0.000000 0.000000 0.044735 0.000000 0.003248
# 5 0.010431 -0.000651 0.012798 0.000000 0.051007 0.000000
# 6 0.000000 0.000000 0.000000 0.003248 0.000000 0.003057
#
#
# Mechanical properties :
#
#
# Convention : Reuss Voigt Hill
#
# Bulk Modulus (GPa) = 18.42553 50.06704 34.24628
# Shear Modulus (GPa) = 24.60342 93.45459 59.02900
#
# Velocity S-wave (km/s) = 3.44159 6.70752 5.33082
# Velocity P-wave (km/s) = 4.96620 9.17011 7.37408
#
# Compressibility (1/GPa) = 0.05427253
#
# Stress axis : x y z
#
# Youngs Moduli (GPa) = 56.52911 97.91186 23.58510
#
# Poissons Ratio (x) = 0.63719 -0.18253
# Poissons Ratio (y) = 0.36788 0.21808
# Poissons Ratio (z) = -0.43749 0.90535
#
# Static dielectric constant tensor:
#      x y z
#    x 1.699850 0.000000 0.027160 
#    y 0.000000 1.756020 0.000000 
#    z 0.027160 0.000000 1.910990 
# 
# From -- ./inp_files/30032.got.cif
#   From: 2010.05.17/outbox.cif.g08.bks.cpg/sg13_16_cif.got.tgz:30032.got - 2010.06.03 16:44:36.
