data_PCOD9232438
_publ_section_title
;
Structure prediction by ZEFSAII (Michael W. Deem and Ramdas Pophale) SiO2 
 PCOD9232438
Probable space group: P 2/C
;
_chemical_formula_sum "Si O2"
_cell_formula_units_Z 20
_cell_length_a 9.290656
_cell_length_b 22.343849
_cell_length_c 8.796666
_cell_angle_alpha 90.000000
_cell_angle_beta 147.582877
_cell_angle_gamma 90.000000
_cell_volume 978.929344
_symmetry_space_group_name_H-M "P 2/C"
_symmetry_group_IT_number 13
_symmetry_cell_setting 'monoclinic'
loop_
_space_group_symop_operation_xyz
x,y,z
-x,y,1/2-z
-x,-y,-z
x,-y,1/2+z
loop_
_atom_site_type_symbol
_atom_site_label
_atom_site_fract_x
_atom_site_fract_y
_atom_site_fract_z
Si Si1 0.701990 0.751377 0.556295
Si Si2 0.422002 0.358525 0.357457
Si Si3 0.516964 0.885117 0.093772
Si Si4 0.056823 0.064874 0.980319
Si Si5 0.068424 0.435768 0.631570
O O1 0.634471 0.708247 0.635414
O O2 0.607869 0.818996 0.506292
O O3 0.000000 0.750773 0.750000
O O4 0.500000 0.726897 0.250000
O O5 0.500000 0.355622 0.250000
O O6 0.644113 0.403196 0.628203
O O7 0.140819 0.390748 0.128590
O O8 0.500000 0.912466 0.250000
O O9 0.831745 0.888281 0.338039
O O10 0.345115 0.917268 0.808209
O O11 0.000000 0.061844 0.750000
O O12 0.000000 0.000000 0.000000
O O13 0.000000 0.440006 0.750000
O O14 0.000000 0.500000 0.500000
#
# Coordination Sequence:
#
# PCOD9232438 Si02
#       5
#     4   4   4   4   4
#     4  11  23  41  64  92 122 160 206 253 304 364
#     4  10  22  39  59  86 121 156 197 249 305 359
#     4  11  23  43  65  91 128 166 206 260 313 367
#     4  12  25  42  65  95 127 166 211 257 311 372
#     4  10  21  37  57  84 117 156 198 247 301 358
#
# _framework density 20.430484
#
# number of rings (size 3 to 8) (size 9 to 14) (size 15 to 20)
#    0.000    1.200    0.000    7.200    0.000    4.000 
#    0.000    2.000    0.000    0.000    0.000    0.000 
#    0.000    0.000    0.000    0.000    0.000    0.000 
#
# Total GULP energy -111544.367424 kJ/mol
# GULP energy per Si atom -5577.218371 kJ/mol
# Density = 2.038398 g / cm^3
# Si number density = 20.430484 Si / 1000 Ang^3
#
#
#
# Elastic Constant Matrix: (Units=GPa)
#
#
# Indices 1 2 3 4 5 6 
#
# 1 53.8414 11.3610 19.2166 0.0000 -8.3223 0.0000
# 2 11.3610 73.0393 16.7526 0.0000 -6.2233 0.0000
# 3 19.2166 16.7526 123.4967 0.0000 1.4306 0.0000
# 4 0.0000 0.0000 0.0000 -9.5271 0.0000 -120.0251
# 5 -8.3223 -6.2233 1.4306 0.0000 21.4112 0.0000
# 6 0.0000 0.0000 0.0000 -120.0251 0.0000 -194.3880
#
#
#
# Elastic Compliance Matrix: (Units=1/GPa)
#
#
# Indices 1 2 3 4 5 6 
#
# 1 0.021330 -0.001918 -0.003151 0.000000 0.007944 0.000000
# 2 -0.001918 0.014699 -0.001738 0.000000 0.003643 0.000000
# 3 -0.003151 -0.001738 0.008850 0.000000 -0.002321 0.000000
# 4 0.000000 0.000000 0.000000 0.015484 0.000000 -0.009561
# 5 0.007944 0.003643 -0.002321 0.000000 0.051006 0.000000
# 6 0.000000 0.000000 0.000000 -0.009561 0.000000 0.000759
#
#
# Mechanical properties :
#
#
# Convention : Reuss Voigt Hill
#
# Bulk Modulus (GPa) = 31.98406 38.33754 35.16080
# Shear Modulus (GPa) = 36.72052 -22.96431 6.87811
#
# Velocity S-wave (km/s) = 4.24410 -3.35628 1.83682
# Velocity P-wave (km/s) = 6.30124 1.94579 4.66325
#
# Compressibility (1/GPa) = 0.03126557
#
# Stress axis : x y z
#
# Youngs Moduli (GPa) = 46.88161 68.03383 112.99091
#
# Poissons Ratio (x) = 0.13051 0.35602
# Poissons Ratio (y) = 0.08993 0.19633
# Poissons Ratio (z) = 0.14772 0.11821
#
# Static dielectric constant tensor:
#      x y z
#    x 1.808150 0.000000 0.028110 
#    y 0.000000 1.740840 0.000000 
#    z 0.028110 0.000000 1.710460 
# 
# From -- ./inp_files/9510.got.cif
#   From: 2010.05.17/outbox.cif.g08.bks.cpg/sg13_5_cif.got.tgz:9510.got - 2010.06.03 16:44:36.
