data_PCOD9232738
_publ_section_title
;
Structure prediction by ZEFSAII (Michael W. Deem and Ramdas Pophale) SiO2 
 PCOD9232738
Probable space group: P 2/C
;
_chemical_formula_sum "Si O2"
_cell_formula_units_Z 20
_cell_length_a 4.875401
_cell_length_b 12.287583
_cell_length_c 14.161364
_cell_angle_alpha 90.000000
_cell_angle_beta 69.862484
_cell_angle_gamma 90.000000
_cell_volume 796.502065
_symmetry_space_group_name_H-M "P 2/C"
_symmetry_group_IT_number 13
_symmetry_cell_setting 'monoclinic'
loop_
_space_group_symop_operation_xyz
x,y,z
-x,y,1/2-z
-x,-y,-z
x,-y,1/2+z
loop_
_atom_site_type_symbol
_atom_site_label
_atom_site_fract_x
_atom_site_fract_y
_atom_site_fract_z
Si Si1 0.456119 0.258117 0.619754
Si Si2 0.047152 0.881060 0.378754
Si Si3 0.304374 0.258117 0.119754
Si Si4 0.195341 0.881060 0.878754
Si Si5 0.500000 0.430229 0.250000
Si Si6 0.000000 0.569772 0.250000
O O1 0.725306 0.219115 0.652206
O O2 0.580261 0.277948 0.500000
O O3 0.250819 0.357909 0.671521
O O4 0.244473 0.153111 0.639964
O O5 0.960479 0.885695 0.500000
O O6 0.160275 1.000000 0.339726
O O7 0.970283 0.219114 0.152206
O O8 0.406138 0.357910 0.171521
O O9 0.475600 0.153111 0.139964
O O10 0.798688 0.500000 0.201312
#
# Coordination Sequence:
#
# PCOD9232738 Si02
#       6
#     4   4   4   4   2   2
#     4  10  21  38  60  87 119 153 194 243 296 356
#     4   9  17  33  60  91 121 152 184 228 293 364
#     4  10  21  38  60  87 119 153 194 243 296 356
#     4   9  17  33  60  91 121 152 184 228 293 364
#     4  12  26  42  60  82 114 158 210 262 302 340
#     4  12  26  42  60  82 114 158 210 262 302 340
#
# _framework density 25.109791000000001
#
# number of rings (size 3 to 8) (size 9 to 14) (size 15 to 20)
#    0.000    2.000    0.000    3.600    0.000    6.400 
#    0.000    4.000    0.000    0.000    0.000    0.000 
#    0.000    0.000    0.000    0.000    0.000    0.000 
#
# Total GULP energy -111978.222219 kJ/mol
# GULP energy per Si atom -5598.911111 kJ/mol
# Density = 2.505264 g / cm^3
# Si number density = 25.109791 Si / 1000 Ang^3
#
#
#
# Elastic Constant Matrix: (Units=GPa)
#
#
# Indices 1 2 3 4 5 6 
#
# 1 138.5786 35.3919 25.8113 0.0000 -0.1600 0.0000
# 2 35.3919 99.0827 25.2277 0.0000 -0.0477 0.0000
# 3 25.8113 25.2277 90.5462 0.0000 -0.0655 0.0000
# 4 0.0000 0.0000 0.0000 13.0564 0.0000 -0.0445
# 5 -0.1600 -0.0477 -0.0655 0.0000 39.3409 0.0000
# 6 0.0000 0.0000 0.0000 -0.0445 0.0000 22.5203
#
#
#
# Elastic Compliance Matrix: (Units=1/GPa)
#
#
# Indices 1 2 3 4 5 6 
#
# 1 0.008158 -0.002499 -0.001629 0.000000 0.000027 0.000000
# 2 -0.002499 0.011629 -0.002528 0.000000 0.000000 0.000000
# 3 -0.001629 -0.002528 0.012213 0.000000 0.000011 0.000000
# 4 0.000000 0.000000 0.000000 0.076591 0.000000 0.000151
# 5 0.000027 0.000000 0.000011 0.000000 0.025419 0.000000
# 6 0.000000 0.000000 0.000000 0.000151 0.000000 0.044405
#
#
# Mechanical properties :
#
#
# Convention : Reuss Voigt Hill
#
# Bulk Modulus (GPa) = 53.51131 55.67437 54.59284
# Shear Modulus (GPa) = 25.25823 31.10195 28.18009
#
# Velocity S-wave (km/s) = 3.17505 3.52325 3.35367
# Velocity P-wave (km/s) = 5.89902 6.22668 6.06506
#
# Compressibility (1/GPa) = 0.01868764
#
# Stress axis : x y z
#
# Youngs Moduli (GPa) = 122.58115 85.99328 81.88169
#
# Poissons Ratio (x) = 0.21491 0.13340
# Poissons Ratio (y) = 0.30635 0.20696
# Poissons Ratio (z) = 0.19971 0.21735
#
# Static dielectric constant tensor:
#      x y z
#    x 1.905410 0.000000 0.000660 
#    y 0.000000 1.992510 0.000000 
#    z 0.000660 0.000000 2.046790 
# 
# From -- ./inp_files/60931.got.cif
#   From: 2010.05.17/outbox.cif.g08.bks.cpg/sg13_31_cif.got.tgz:60931.got - 2010.06.03 16:44:36.
