data_PCOD9232174
_publ_section_title
;
Structure prediction by ZEFSAII (Michael W. Deem and Ramdas Pophale) SiO2 
 PCOD9232174
Probable space group: P 2/C
;
_chemical_formula_sum "Si O2"
_cell_formula_units_Z 32
_cell_length_a 18.214813
_cell_length_b 12.674820
_cell_length_c 13.202446
_cell_angle_alpha 90.000000
_cell_angle_beta 23.123789
_cell_angle_gamma 90.000000
_cell_volume 1197.023892
_symmetry_space_group_name_H-M "P 2/C"
_symmetry_group_IT_number 13
_symmetry_cell_setting 'monoclinic'
loop_
_space_group_symop_operation_xyz
x,y,z
-x,y,1/2-z
-x,-y,-z
x,-y,1/2+z
loop_
_atom_site_type_symbol
_atom_site_label
_atom_site_fract_x
_atom_site_fract_y
_atom_site_fract_z
Si Si1 0.861268 0.424775 0.277577
Si Si2 0.510517 0.132463 0.871077
Si Si3 0.882581 0.897248 0.803047
Si Si4 0.812217 0.854400 0.394809
Si Si5 0.882498 0.229501 0.112832
Si Si6 0.562134 0.113794 0.026966
Si Si7 0.559046 0.586463 0.568203
Si Si8 0.748862 0.567391 0.132112
O O1 0.914606 0.339222 0.127136
O O2 0.707580 0.500522 0.423207
O O3 0.782260 0.374033 0.482775
O O4 0.054725 0.474137 0.072421
O O5 0.670207 0.145205 0.585179
O O6 0.435423 0.012246 0.955632
O O7 0.340314 0.211361 0.106929
O O8 0.619680 0.128002 0.839373
O O9 0.949411 0.858478 0.609509
O O10 0.000000 0.858882 0.750000
O O11 0.876528 0.023776 0.815819
O O12 0.651600 0.847064 0.683920
O O13 0.693277 0.835922 0.443658
O O14 0.998096 0.785928 0.140342
O O15 0.500000 0.640021 0.750000
O O16 0.656285 0.631277 0.342871
O O17 0.381712 0.528013 0.741434
#
# Coordination Sequence:
#
# PCOD9232174 Si02
#       8
#     4   4   4   4   4   4   4   4
#     4  10  22  38  59  97 133 167 194 258 317 375
#     4  10  21  35  56  81 109 151 206 268 316 366
#     4  11  23  35  55  83 111 159 221 268 311 367
#     4  10  21  37  57  78 110 157 216 264 306 369
#     4  12  24  36  56  87 127 160 200 259 326 377
#     4   9  19  38  57  76 103 152 215 268 311 352
#     4   9  18  37  69 101 123 165 208 252 296 364
#     4   9  19  38  66  93 129 163 207 242 300 376
#
# _framework density 26.732966000000001
#
# number of rings (size 3 to 8) (size 9 to 14) (size 15 to 20)
#    0.000    2.000    1.250    1.875    7.000    3.000 
#    2.250    0.000    2.750    9.000    0.000    0.000 
#    0.000    0.000    0.000    0.000    0.000    0.000 
#
# Total GULP energy -178951.542780 kJ/mol
# GULP energy per Si atom -5592.235712 kJ/mol
# Density = 2.667212 g / cm^3
# Si number density = 26.732966 Si / 1000 Ang^3
#
#
#
# Elastic Constant Matrix: (Units=GPa)
#
#
# Indices 1 2 3 4 5 6 
#
# 1 119.2530 21.1059 51.4488 0.0000 7.1444 0.0000
# 2 21.1059 63.0882 36.2203 0.0000 -5.7206 0.0000
# 3 51.4488 36.2203 141.9841 0.0000 14.8400 0.0000
# 4 0.0000 0.0000 0.0000 11.9112 0.0000 -4.0938
# 5 7.1444 -5.7206 14.8400 0.0000 84.9611 0.0000
# 6 0.0000 0.0000 0.0000 -4.0938 0.0000 -9.6442
#
#
#
# Elastic Compliance Matrix: (Units=1/GPa)
#
#
# Indices 1 2 3 4 5 6 
#
# 1 0.010070 -0.001562 -0.003210 0.000000 -0.000391 0.000000
# 2 -0.001562 0.019194 -0.004563 0.000000 0.002221 0.000000
# 3 -0.003210 -0.004563 0.009548 0.000000 -0.001705 0.000000
# 4 0.000000 0.000000 0.000000 0.073266 0.000000 -0.031100
# 5 -0.000391 0.002221 -0.001705 0.000000 0.012250 0.000000
# 6 0.000000 0.000000 0.000000 -0.031100 0.000000 -0.090488
#
#
# Mechanical properties :
#
#
# Convention : Reuss Voigt Hill
#
# Bulk Modulus (GPa) = 49.64137 60.20836 54.92487
# Shear Modulus (GPa) = 84.42560 31.81563 58.12062
#
# Velocity S-wave (km/s) = 5.62580 3.45356 4.66780
# Velocity P-wave (km/s) = 7.79802 6.20273 7.04567
#
# Compressibility (1/GPa) = 0.02014449
#
# Stress axis : x y z
#
# Youngs Moduli (GPa) = 99.30388 52.09918 104.73119
#
# Poissons Ratio (x) = 0.08136 0.33615
# Poissons Ratio (y) = 0.15508 0.47786
# Poissons Ratio (z) = 0.31873 0.23771
#
# Static dielectric constant tensor:
#      x y z
#    x 2.079150 0.000000 -0.017590 
#    y 0.000000 2.033120 0.000000 
#    z -0.017590 0.000000 2.113350 
# 
# From -- ./inp_files/57863.got.cif
#   From: 2010.05.17/outbox.cif.g08.bks.cpg/sg13_29_cif.got.tgz:57863.got - 2010.06.03 16:44:36.
