data_PCOD9232745
_publ_section_title
;
Structure prediction by ZEFSAII (Michael W. Deem and Ramdas Pophale) SiO2 
 PCOD9232745
Probable space group: P 2/C
;
_chemical_formula_sum "Si O2"
_cell_formula_units_Z 24
_cell_length_a 10.985132
_cell_length_b 9.043132
_cell_length_c 13.230599
_cell_angle_alpha 90.000000
_cell_angle_beta 63.180493
_cell_angle_gamma 90.000000
_cell_volume 1172.948429
_symmetry_space_group_name_H-M "P 2/C"
_symmetry_group_IT_number 13
_symmetry_cell_setting 'monoclinic'
loop_
_space_group_symop_operation_xyz
x,y,z
-x,y,1/2-z
-x,-y,-z
x,-y,1/2+z
loop_
_atom_site_type_symbol
_atom_site_label
_atom_site_fract_x
_atom_site_fract_y
_atom_site_fract_z
Si Si1 0.718125 0.511998 0.939966
Si Si2 0.000000 0.359420 0.250000
Si Si3 0.838594 0.114401 0.190963
Si Si4 0.373986 0.043418 0.614362
Si Si5 0.804863 0.786298 0.478453
Si Si6 0.476021 0.647040 0.144255
Si Si7 0.000000 0.139397 0.750000
O O1 0.870500 0.562490 0.853213
O O2 0.726187 0.368961 0.011386
O O3 0.634859 0.453102 0.873241
O O4 0.619373 0.632041 0.029877
O O5 0.078102 0.253868 0.299874
O O6 0.689198 0.088256 0.295573
O O7 0.915307 0.971319 0.208153
O O8 0.830009 0.135484 0.074729
O O9 0.268842 0.099449 0.568813
O O10 0.416390 0.186475 0.663768
O O11 0.500000 0.000000 0.500000
O O12 0.935250 0.756252 0.359335
O O13 0.500000 0.600823 0.250000
#
# Coordination Sequence:
#
# PCOD9232745 Si02
#       7
#     4   2   4   4   4   4   2
#     4  10  23  43  62  95 131 165 218 264 315 385
#     4  11  23  42  64  98 133 161 214 274 320 381
#     4  10  22  37  61  92 122 167 205 257 325 381
#     4  10  22  40  61  91 123 158 215 269 312 376
#     4  10  21  38  60  88 121 166 204 258 317 375
#     4  10  23  43  66  91 127 175 213 260 316 385
#     4   9  19  40  56  86 127 157 202 256 310 383
#
# _framework density 20.461258999999998
#
# number of rings (size 3 to 8) (size 9 to 14) (size 15 to 20)
#    0.000    2.000    0.000    2.000    4.667    0.667 
#    9.000    0.000    0.000    0.000    0.000    0.000 
#    0.000    0.000    0.000    0.000    0.000    0.000 
#
# Total GULP energy -133675.808584 kJ/mol
# GULP energy per Si atom -5569.825358 kJ/mol
# Density = 2.041469 g / cm^3
# Si number density = 20.461259 Si / 1000 Ang^3
#
#
#
# Elastic Constant Matrix: (Units=GPa)
#
#
# Indices 1 2 3 4 5 6 
#
# 1 81.6771 44.9666 71.0263 0.0000 -5.6104 0.0000
# 2 44.9666 54.7180 42.0597 0.0000 4.2297 0.0000
# 3 71.0263 42.0597 131.4140 0.0000 -0.9001 0.0000
# 4 0.0000 0.0000 0.0000 12.7597 0.0000 -24.3048
# 5 -5.6104 4.2297 -0.9001 0.0000 39.1640 0.0000
# 6 0.0000 0.0000 0.0000 -24.3048 0.0000 10.6567
#
#
#
# Elastic Compliance Matrix: (Units=1/GPa)
#
#
# Indices 1 2 3 4 5 6 
#
# 1 0.033525 -0.018785 -0.012062 0.000000 0.006554 0.000000
# 2 -0.018785 0.035075 -0.001117 0.000000 -0.006505 0.000000
# 3 -0.012062 -0.001117 0.014478 0.000000 -0.001275 0.000000
# 4 0.000000 0.000000 0.000000 -0.023434 0.000000 -0.053447
# 5 0.006554 -0.006505 -0.001275 0.000000 0.027146 0.000000
# 6 0.000000 0.000000 0.000000 -0.053447 0.000000 -0.028059
#
#
# Mechanical properties :
#
#
# Convention : Reuss Voigt Hill
#
# Bulk Modulus (GPa) = 52.22562 64.87937 58.55250
# Shear Modulus (GPa) = 38.74708 19.83318 29.29013
#
# Velocity S-wave (km/s) = 4.35636 3.11674 3.78761
# Velocity P-wave (km/s) = 7.13326 6.68800 6.91422
#
# Compressibility (1/GPa) = 0.01914769
#
# Stress axis : x y z
#
# Youngs Moduli (GPa) = 29.82866 28.51062 69.07113
#
# Poissons Ratio (x) = 0.53558 0.83315
# Poissons Ratio (y) = 0.56033 0.07718
# Poissons Ratio (z) = 0.35980 0.03186
#
# Static dielectric constant tensor:
#      x y z
#    x 1.601430 0.000000 0.039190 
#    y 0.000000 1.728860 0.000000 
#    z 0.039190 0.000000 1.670870 
# 
# From -- ./inp_files/32535.got.cif
#   From: 2010.05.17/outbox.cif.g08.bks.cpg/sg13_17_cif.got.tgz:32535.got - 2010.06.03 16:44:36.
