data_PCOD9232593
_publ_section_title
;
Structure prediction by ZEFSAII (Michael W. Deem and Ramdas Pophale) SiO2 
 PCOD9232593
Probable space group: P 2/C
;
_chemical_formula_sum "Si O2"
_cell_formula_units_Z 28
_cell_length_a 14.694719
_cell_length_b 10.210091
_cell_length_c 9.207841
_cell_angle_alpha 90.000000
_cell_angle_beta 66.127757
_cell_angle_gamma 90.000000
_cell_volume 1263.306500
_symmetry_space_group_name_H-M "P 2/C"
_symmetry_group_IT_number 13
_symmetry_cell_setting 'monoclinic'
loop_
_space_group_symop_operation_xyz
x,y,z
-x,y,1/2-z
-x,-y,-z
x,-y,1/2+z
loop_
_atom_site_type_symbol
_atom_site_label
_atom_site_fract_x
_atom_site_fract_y
_atom_site_fract_z
Si Si1 0.047970 0.709579 0.059898
Si Si2 0.745250 0.506042 0.864416
Si Si3 0.391842 0.597486 0.795960
Si Si4 0.885899 0.992851 0.526158
Si Si5 0.872532 0.589823 0.017728
Si Si6 0.247591 0.002884 0.137197
Si Si7 0.609811 0.902672 0.706266
O O1 0.121755 0.831319 0.980079
O O2 0.000000 0.734566 0.250000
O O3 0.962193 0.688477 0.993461
O O4 0.093076 0.562149 0.032223
O O5 0.657638 0.560993 0.822952
O O6 0.810507 0.421671 0.708475
O O7 0.688655 0.431919 0.028554
O O8 0.810561 0.613371 0.910277
O O9 0.500000 0.532796 0.750000
O O10 0.405033 0.750124 0.787370
O O11 0.817993 0.060715 0.692530
O O12 0.844606 0.053819 0.403456
O O13 0.000000 0.000000 0.500000
O O14 0.332291 0.070719 0.180992
O O15 0.315122 0.936036 0.972177
O O16 0.500000 0.965802 0.750000
#
# Coordination Sequence:
#
# PCOD9232593 Si02
#       7
#     4   4   4   4   4   4   4
#     4  11  22  39  62  84 130 160 213 263 306 370
#     4  10  21  37  63  93 125 159 213 254 309 389
#     4  10  22  40  64  92 127 167 199 260 330 380
#     4  11  24  42  60  89 129 174 211 263 323 376
#     4  10  22  38  60  95 118 169 209 256 316 361
#     4  10  23  39  64  94 121 166 220 262 319 384
#     4  10  22  43  69  92 125 166 214 276 333 379
#
# _framework density 22.164059999999999
#
# number of rings (size 3 to 8) (size 9 to 14) (size 15 to 20)
#    0.000    1.714    1.429    2.143    8.000    2.286 
#    2.571    4.286    0.000   15.429    0.000    0.000 
#    0.000    0.000    0.000    0.000    0.000    0.000 
#
# Total GULP energy -155887.078074 kJ/mol
# GULP energy per Si atom -5567.395645 kJ/mol
# Density = 2.211361 g / cm^3
# Si number density = 22.164060 Si / 1000 Ang^3
#
#
#
# Elastic Constant Matrix: (Units=GPa)
#
#
# Indices 1 2 3 4 5 6 
#
# 1 206.5852 22.7965 29.2262 0.0000 39.6963 0.0000
# 2 22.7965 54.6650 10.3965 0.0000 3.6062 0.0000
# 3 29.2262 10.3965 113.8477 0.0000 15.0158 0.0000
# 4 0.0000 0.0000 0.0000 -8.6092 0.0000 -0.4486
# 5 39.6963 3.6062 15.0158 0.0000 56.3978 0.0000
# 6 0.0000 0.0000 0.0000 -0.4486 0.0000 26.7322
#
#
#
# Elastic Compliance Matrix: (Units=1/GPa)
#
#
# Indices 1 2 3 4 5 6 
#
# 1 0.005918 -0.002059 -0.000828 0.000000 -0.003813 0.000000
# 2 -0.002059 0.019365 -0.001314 0.000000 0.000561 0.000000
# 3 -0.000828 -0.001314 0.009357 0.000000 -0.001824 0.000000
# 4 0.000000 0.000000 0.000000 -0.116053 0.000000 -0.001948
# 5 -0.003813 0.000561 -0.001824 0.000000 0.020865 0.000000
# 6 0.000000 0.000000 0.000000 -0.001948 0.000000 0.037375
#
#
# Mechanical properties :
#
#
# Convention : Reuss Voigt Hill
#
# Bulk Modulus (GPa) = 38.11313 55.54844 46.83079
# Shear Modulus (GPa) = -829.77086 35.74941 -397.01072
#
# Velocity S-wave (km/s) = -19.36981 4.02051 -13.39823
# Velocity P-wave (km/s) = 21.97770 6.83150 14.77075
#
# Compressibility (1/GPa) = 0.02623768
#
# Stress axis : x y z
#
# Youngs Moduli (GPa) = 168.98548 51.64046 106.87338
#
# Poissons Ratio (x) = 0.10631 0.08851
# Poissons Ratio (y) = 0.34790 0.14041
# Poissons Ratio (z) = 0.13996 0.06785
#
# Static dielectric constant tensor:
#      x y z
#    x 1.992040 0.000000 0.030910 
#    y 0.000000 1.832200 0.000000 
#    z 0.030910 0.000000 1.791000 
# 
# From -- ./inp_files/18728.got.cif
#   From: 2010.05.17/outbox.cif.g08.bks.cpg/sg13_10_cif.got.tgz:18728.got - 2010.06.03 16:44:36.
