data_PCOD9232983
_publ_section_title
;
Structure prediction by ZEFSAII (Michael W. Deem and Ramdas Pophale) SiO2 
 PCOD9232983
Probable space group: P 2/C
;
_chemical_formula_sum "Si O2"
_cell_formula_units_Z 24
_cell_length_a 13.059770
_cell_length_b 11.482419
_cell_length_c 24.422519
_cell_angle_alpha 90.000000
_cell_angle_beta 159.899567
_cell_angle_gamma 90.000000
_cell_volume 1258.626709
_symmetry_space_group_name_H-M "P 2/C"
_symmetry_group_IT_number 13
_symmetry_cell_setting 'monoclinic'
loop_
_space_group_symop_operation_xyz
x,y,z
-x,y,1/2-z
-x,-y,-z
x,-y,1/2+z
loop_
_atom_site_type_symbol
_atom_site_label
_atom_site_fract_x
_atom_site_fract_y
_atom_site_fract_z
Si Si1 0.648212 0.624656 0.079219
Si Si2 0.312446 0.593321 0.100577
Si Si3 0.576075 0.248403 0.938161
Si Si4 0.744065 0.962526 0.165272
Si Si5 0.384556 0.359251 0.252699
Si Si6 0.257575 0.222899 0.297546
O O1 0.607744 0.657599 0.121653
O O2 0.000000 0.622742 0.250000
O O3 0.500000 0.500000 0.000000
O O4 0.472998 0.717407 0.951461
O O5 0.500000 0.595276 0.250000
O O6 0.403999 0.708891 0.113456
O O7 0.414436 0.468931 0.126743
O O8 0.956145 0.597744 0.926702
O O9 0.403904 0.130727 0.868169
O O10 0.913623 0.262038 0.130450
O O11 0.791945 0.083751 0.221330
O O12 0.000000 0.922434 0.250000
O O13 0.500000 0.000000 0.000000
O O14 0.500000 0.321668 0.250000
O O15 0.373791 0.264250 0.296137
#
# Coordination Sequence:
#
# PCOD9232983 Si02
#       6
#     4   4   4   4   4   4
#     4  12  24  36  56  86 119 153 193 243 302 360
#     4  10  21  39  61  88 120 154 197 245 297 359
#     4  11  23  39  60  87 118 157 201 245 298 354
#     4  12  22  41  62  87 122 162 202 244 301 356
#     4  10  21  39  62  88 118 157 194 244 302 354
#     4  11  23  40  60  85 121 154 200 249 293 360
#
# _framework density 19.068401000000001
#
# number of rings (size 3 to 8) (size 9 to 14) (size 15 to 20)
#    0.000    1.000    3.333    5.000    0.000    5.333 
#    0.000    0.833    0.000    4.000    0.000    0.000 
#    0.000    0.000    0.000    0.000    0.000    0.000 
#
# Total GULP energy -133631.780350 kJ/mol
# GULP energy per Si atom -5567.990848 kJ/mol
# Density = 1.902500 g / cm^3
# Si number density = 19.068401 Si / 1000 Ang^3
#
#
#
# Elastic Constant Matrix: (Units=GPa)
#
#
# Indices 1 2 3 4 5 6 
#
# 1 90.0953 31.5953 27.8664 0.0000 27.5288 0.0000
# 2 31.5953 78.5515 10.9130 0.0000 16.2731 0.0000
# 3 27.8664 10.9130 85.1787 0.0000 26.9222 0.0000
# 4 0.0000 0.0000 0.0000 18.6516 0.0000 4.7680
# 5 27.5288 16.2731 26.9222 0.0000 33.2002 0.0000
# 6 0.0000 0.0000 0.0000 4.7680 0.0000 38.9014
#
#
#
# Elastic Compliance Matrix: (Units=1/GPa)
#
#
# Indices 1 2 3 4 5 6 
#
# 1 0.016121 -0.004185 -0.001561 0.000000 -0.010049 0.000000
# 2 -0.004185 0.015272 0.000917 0.000000 -0.004759 0.000000
# 3 -0.001561 0.000917 0.015956 0.000000 -0.012093 0.000000
# 4 0.000000 0.000000 0.000000 0.055349 0.000000 -0.006784
# 5 -0.010049 -0.004759 -0.012093 0.000000 0.050592 0.000000
# 6 0.000000 0.000000 0.000000 -0.006784 0.000000 0.026537
#
#
# Mechanical properties :
#
#
# Convention : Reuss Voigt Hill
#
# Bulk Modulus (GPa) = 26.53343 43.84166 35.18755
# Shear Modulus (GPa) = 24.74636 30.38068 27.56352
#
# Velocity S-wave (km/s) = 3.60636 3.99588 3.80611
# Velocity P-wave (km/s) = 5.59341 6.65816 6.14887
#
# Compressibility (1/GPa) = 0.03768830
#
# Stress axis : x y z
#
# Youngs Moduli (GPa) = 62.03238 65.47739 62.67378
#
# Poissons Ratio (x) = 0.27405 0.09786
# Poissons Ratio (y) = 0.25963 -0.05745
# Poissons Ratio (z) = 0.09686 -0.06002
#
# Static dielectric constant tensor:
#      x y z
#    x 1.611180 0.000000 -0.017230 
#    y 0.000000 1.771450 0.000000 
#    z -0.017230 0.000000 1.588470 
# 
# From -- ./inp_files/86634.got.cif
#   From: 2010.05.17/outbox.cif.g08.bks.cpg/sg13_44_cif.got.tgz:86634.got - 2010.06.03 16:44:36.
