data_PCOD9232128
_publ_section_title
;
Structure prediction by ZEFSAII (Michael W. Deem and Ramdas Pophale) SiO2 
 PCOD9232128
Probable space group: P 2/C
;
_chemical_formula_sum "Si O2"
_cell_formula_units_Z 24
_cell_length_a 10.421905
_cell_length_b 9.430526
_cell_length_c 12.820443
_cell_angle_alpha 90.000000
_cell_angle_beta 116.709763
_cell_angle_gamma 90.000000
_cell_volume 1125.591672
_symmetry_space_group_name_H-M "P 2/C"
_symmetry_group_IT_number 13
_symmetry_cell_setting 'monoclinic'
loop_
_space_group_symop_operation_xyz
x,y,z
-x,y,1/2-z
-x,-y,-z
x,-y,1/2+z
loop_
_atom_site_type_symbol
_atom_site_label
_atom_site_fract_x
_atom_site_fract_y
_atom_site_fract_z
Si Si1 0.199018 0.782373 0.928309
Si Si2 0.000000 0.801871 0.250000
Si Si3 0.500000 0.465188 0.750000
Si Si4 0.857341 0.060236 0.504287
Si Si5 0.220143 0.405230 0.757608
Si Si6 0.351959 0.508943 0.507642
Si Si7 0.143100 0.271999 0.175604
O O1 0.287976 0.647485 0.999472
O O2 0.212588 0.791979 0.807241
O O3 0.029625 0.748457 0.882244
O O4 0.239076 0.922162 0.007767
O O5 0.099184 0.891417 0.363461
O O6 0.096280 0.709561 0.204794
O O7 0.376625 0.377746 0.765250
O O8 0.408311 0.561805 0.638214
O O9 0.807767 0.186558 0.409630
O O10 0.000000 0.000000 0.500000
O O11 0.242281 0.414867 0.891266
O O12 0.170631 0.558923 0.697001
O O13 0.500000 0.500000 0.500000
#
# Coordination Sequence:
#
# PCOD9232128 Si02
#       7
#     4   2   2   4   4   4   4
#     4   9  17  35  58  83 123 154 199 254 307 366
#     4  12  24  36  60 100 124 146 214 264 308 378
#     4  10  22  36  60  82 118 164 202 244 320 368
#     4  10  21  34  55  90 121 163 194 245 310 386
#     4  10  22  37  58  92 122 155 199 267 313 366
#     4   9  19  37  58  86 114 159 206 255 305 360
#     4   9  18  34  57  85 121 156 195 249 326 368
#
# _framework density 21.322120000000002
#
# number of rings (size 3 to 8) (size 9 to 14) (size 15 to 20)
#    0.000    2.333    0.000    4.000    7.000    0.667 
#    0.000    0.000    0.000    5.000    0.000    0.000 
#    0.000    0.000    0.000    0.000    0.000    0.000 
#
# Total GULP energy -133677.512710 kJ/mol
# GULP energy per Si atom -5569.896363 kJ/mol
# Density = 2.127359 g / cm^3
# Si number density = 21.322120 Si / 1000 Ang^3
#
#
#
# Elastic Constant Matrix: (Units=GPa)
#
#
# Indices 1 2 3 4 5 6 
#
# 1 57.5108 24.3458 -6.3773 0.0000 -6.9578 0.0000
# 2 24.3458 73.8092 19.9129 0.0000 0.2339 0.0000
# 3 -6.3773 19.9129 101.8433 0.0000 -0.3754 0.0000
# 4 0.0000 0.0000 0.0000 8.0541 0.0000 -11.4787
# 5 -6.9578 0.2339 -0.3754 0.0000 25.8364 0.0000
# 6 0.0000 0.0000 0.0000 -11.4787 0.0000 13.2709
#
#
#
# Elastic Compliance Matrix: (Units=1/GPa)
#
#
# Indices 1 2 3 4 5 6 
#
# 1 0.021836 -0.008020 0.002957 0.000000 0.005996 0.000000
# 2 -0.008020 0.017249 -0.003884 0.000000 -0.002372 0.000000
# 3 0.002957 -0.003884 0.010767 0.000000 0.000988 0.000000
# 4 0.000000 0.000000 0.000000 -0.533502 0.000000 -0.461455
# 5 0.005996 -0.002372 0.000988 0.000000 0.040356 0.000000
# 6 0.000000 0.000000 0.000000 -0.461455 0.000000 -0.323785
#
#
# Mechanical properties :
#
#
# Convention : Reuss Voigt Hill
#
# Bulk Modulus (GPa) = 31.28790 34.32512 32.80651
# Shear Modulus (GPa) = -6.77017 22.45108 7.84046
#
# Velocity S-wave (km/s) = -1.78384 3.24844 1.91967
# Velocity P-wave (km/s) = 3.23466 5.49573 4.50922
#
# Compressibility (1/GPa) = 0.03196124
#
# Stress axis : x y z
#
# Youngs Moduli (GPa) = 45.79530 57.97463 92.87497
#
# Poissons Ratio (x) = 0.46493 -0.27468
# Poissons Ratio (y) = 0.36726 0.36068
# Poissons Ratio (z) = -0.13544 0.22515
#
# Static dielectric constant tensor:
#      x y z
#    x 1.733500 0.000000 -0.061940 
#    y 0.000000 1.756090 0.000000 
#    z -0.061940 0.000000 1.881710 
# 
# From -- ./inp_files/32733.got.cif
#   From: 2010.05.17/outbox.cif.g08.bks.cpg/sg13_17_cif.got.tgz:32733.got - 2010.06.03 16:44:36.
