data_PCOD9232825
_publ_section_title
;
Structure prediction by ZEFSAII (Michael W. Deem and Ramdas Pophale) SiO2 
 PCOD9232825
Probable space group: P 2/C
;
_chemical_formula_sum "Si O2"
_cell_formula_units_Z 28
_cell_length_a 13.049106
_cell_length_b 15.319416
_cell_length_c 7.834696
_cell_angle_alpha 90.000000
_cell_angle_beta 129.496268
_cell_angle_gamma 90.000000
_cell_volume 1208.577462
_symmetry_space_group_name_H-M "P 2/C"
_symmetry_group_IT_number 13
_symmetry_cell_setting 'monoclinic'
loop_
_space_group_symop_operation_xyz
x,y,z
-x,y,1/2-z
-x,-y,-z
x,-y,1/2+z
loop_
_atom_site_type_symbol
_atom_site_label
_atom_site_fract_x
_atom_site_fract_y
_atom_site_fract_z
Si Si1 0.500000 0.976014 0.750000
Si Si2 0.069083 0.276940 0.015170
Si Si3 0.863662 0.404057 0.928419
Si Si4 0.500000 0.389210 0.250000
Si Si5 0.964817 0.097433 0.911739
Si Si6 0.227119 0.581884 0.554103
Si Si7 0.395654 0.689077 0.284013
Si Si8 0.660885 0.111272 0.717091
O O1 0.621473 0.038304 0.816157
O O2 0.440824 0.915527 0.540360
O O3 0.991618 0.343717 0.055357
O O4 0.053046 0.179665 0.070943
O O5 0.000000 0.276089 0.750000
O O6 0.207793 0.325516 0.128252
O O7 0.867249 0.505158 0.980295
O O8 0.816060 0.404049 0.683662
O O9 0.743448 0.358806 0.900135
O O10 0.619506 0.444088 0.293217
O O11 0.555930 0.334398 0.471131
O O12 0.811540 0.111361 0.804555
O O13 0.000000 0.098927 0.750000
O O14 0.000000 0.000000 0.000000
O O15 0.500000 0.663871 0.250000
O O16 0.370068 0.792426 0.250632
#
# Coordination Sequence:
#
# PCOD9232825 Si02
#       8
#     2   4   4   2   4   4   4   4
#     4  10  23  38  67  90 128 168 210 283 323 398
#     4   9  19  40  62  86 121 167 208 256 323 386
#     4  10  21  38  63  88 122 163 210 263 321 385
#     4  10  25  40  59  98 128 170 218 257 329 398
#     4  11  23  41  66  90 128 169 212 268 326 393
#     4  10  22  38  62  90 122 164 212 262 323 388
#     4  11  23  40  66  92 132 172 211 269 327 395
#     4  11  21  43  61  96 125 168 221 265 336 394
#
# _framework density 23.167732999999998
#
# number of rings (size 3 to 8) (size 9 to 14) (size 15 to 20)
#    0.000    1.714    2.143    1.714    5.000    1.143 
#    5.143    1.429    0.000    0.000    0.000    0.000 
#    0.000    0.000    0.000    0.000    0.000    0.000 
#
# Total GULP energy -156351.914507 kJ/mol
# GULP energy per Si atom -5583.996947 kJ/mol
# Density = 2.311500 g / cm^3
# Si number density = 23.167733 Si / 1000 Ang^3
#
#
#
# Elastic Constant Matrix: (Units=GPa)
#
#
# Indices 1 2 3 4 5 6 
#
# 1 150.4352 43.8313 11.5450 0.0000 5.2806 0.0000
# 2 43.8313 142.3604 -1.9822 0.0000 6.4046 0.0000
# 3 11.5450 -1.9822 29.1504 0.0000 -1.3484 0.0000
# 4 0.0000 0.0000 0.0000 13.5820 0.0000 4.6226
# 5 5.2806 6.4046 -1.3484 0.0000 19.9837 0.0000
# 6 0.0000 0.0000 0.0000 4.6226 0.0000 48.3082
#
#
#
# Elastic Compliance Matrix: (Units=1/GPa)
#
#
# Indices 1 2 3 4 5 6 
#
# 1 0.007627 -0.002326 -0.003248 0.000000 -0.001489 0.000000
# 2 -0.002326 0.007841 0.001371 0.000000 -0.001806 0.000000
# 3 -0.003248 0.001371 0.035815 0.000000 0.002835 0.000000
# 4 0.000000 0.000000 0.000000 0.076106 0.000000 -0.007283
# 5 -0.001489 -0.001806 0.002835 0.000000 0.051204 0.000000
# 6 0.000000 0.000000 0.000000 -0.007283 0.000000 0.021397
#
#
# Mechanical properties :
#
#
# Convention : Reuss Voigt Hill
#
# Bulk Modulus (GPa) = 23.32243 47.63712 35.47978
# Shear Modulus (GPa) = 22.45286 34.27822 28.36554
#
# Velocity S-wave (km/s) = 3.11648 3.85069 3.50287
# Velocity P-wave (km/s) = 4.79985 6.35428 5.63096
#
# Compressibility (1/GPa) = 0.04287718
#
# Stress axis : x y z
#
# Youngs Moduli (GPa) = 131.11812 127.53417 27.92092
#
# Poissons Ratio (x) = 0.29670 0.09068
# Poissons Ratio (y) = 0.30504 -0.03828
# Poissons Ratio (z) = 0.42582 -0.17485
#
# Static dielectric constant tensor:
#      x y z
#    x 1.781120 0.000000 0.076160 
#    y 0.000000 1.871660 0.000000 
#    z 0.076160 0.000000 1.851530 
# 
# From -- ./inp_files/16575.got.cif
#   From: 2010.05.17/outbox.cif.g08.bks.cpg/sg13_9_cif.got.tgz:16575.got - 2010.06.03 16:44:36.
