data_PCOD9232169
_publ_section_title
;
Structure prediction by ZEFSAII (Michael W. Deem and Ramdas Pophale) SiO2 
 PCOD9232169
Probable space group: P 2/C
;
_chemical_formula_sum "Si O2"
_cell_formula_units_Z 26
_cell_length_a 13.850553
_cell_length_b 11.348144
_cell_length_c 11.105170
_cell_angle_alpha 90.000000
_cell_angle_beta 126.493335
_cell_angle_gamma 90.000000
_cell_volume 1403.244225
_symmetry_space_group_name_H-M "P 2/C"
_symmetry_group_IT_number 13
_symmetry_cell_setting 'monoclinic'
loop_
_space_group_symop_operation_xyz
x,y,z
-x,y,1/2-z
-x,-y,-z
x,-y,1/2+z
loop_
_atom_site_type_symbol
_atom_site_label
_atom_site_fract_x
_atom_site_fract_y
_atom_site_fract_z
Si Si1 0.000000 0.217462 0.750000
Si Si2 0.355861 0.586116 0.147033
Si Si3 0.363610 0.545172 0.889117
Si Si4 0.122767 0.038089 0.020238
Si Si5 0.993882 0.360645 0.976785
Si Si6 0.814750 0.781393 0.513065
Si Si7 0.776135 0.237893 0.260573
O O1 0.912581 0.126329 0.614879
O O2 0.950598 0.305151 0.817276
O O3 0.500000 0.578561 0.250000
O O4 0.311275 0.525871 0.236772
O O5 0.310671 0.719526 0.112612
O O6 0.310875 0.531593 0.985555
O O7 0.343866 0.683246 0.841282
O O8 0.500000 0.500000 0.000000
O O9 0.215312 0.110427 0.172451
O O10 0.176663 0.915911 0.017392
O O11 0.000000 0.000000 0.000000
O O12 0.913541 0.296992 0.018175
O O13 0.000000 0.500000 0.000000
O O14 0.129401 0.315156 0.094539
O O15 0.828683 0.773888 0.665995
#
# Coordination Sequence:
#
# PCOD9232169 Si02
#       7
#     2   4   4   4   4   4   4
#     4  10  22  36  52  78 118 156 190 236 282 360
#     4   9  19  37  60  85 111 148 197 243 301 355
#     4   9  18  37  60  83 113 147 189 246 295 353
#     4  11  20  37  55  80 118 158 199 231 286 360
#     4  11  23  35  52  83 119 150 191 240 299 356
#     4  11  21  35  58  81 111 161 189 238 295 353
#     4  10  21  35  55  83 113 152 195 235 288 357
#
# _framework density 18.528492
#
# number of rings (size 3 to 8) (size 9 to 14) (size 15 to 20)
#    0.000    1.846    3.077    2.308    2.154    0.000 
#    8.308    0.000    0.000   11.077    0.000    0.000 
#    0.000    0.000    0.000    0.000    0.000    0.000 
#
# Total GULP energy -144745.874193 kJ/mol
# GULP energy per Si atom -5567.149007 kJ/mol
# Density = 1.848632 g / cm^3
# Si number density = 18.528492 Si / 1000 Ang^3
#
#
#
# Elastic Constant Matrix: (Units=GPa)
#
#
# Indices 1 2 3 4 5 6 
#
# 1 43.1862 42.2234 37.2524 0.0000 -16.7103 0.0000
# 2 42.2234 164.9069 60.3730 0.0000 -24.2015 0.0000
# 3 37.2524 60.3730 92.3195 0.0000 -31.6219 0.0000
# 4 0.0000 0.0000 0.0000 33.3006 0.0000 -0.7558
# 5 -16.7103 -24.2015 -31.6219 0.0000 30.9520 0.0000
# 6 0.0000 0.0000 0.0000 -0.7558 0.0000 31.4005
#
#
#
# Elastic Compliance Matrix: (Units=1/GPa)
#
#
# Indices 1 2 3 4 5 6 
#
# 1 0.039974 -0.005499 -0.010175 0.000000 0.006886 0.000000
# 2 -0.005499 0.008769 -0.003359 0.000000 0.000455 0.000000
# 3 -0.010175 -0.003359 0.022080 0.000000 0.014438 0.000000
# 4 0.000000 0.000000 0.000000 0.030046 0.000000 0.000723
# 5 0.006886 0.000455 0.014438 0.000000 0.051132 0.000000
# 6 0.000000 0.000000 0.000000 0.000723 0.000000 0.031864
#
#
# Mechanical properties :
#
#
# Convention : Reuss Voigt Hill
#
# Bulk Modulus (GPa) = 30.53000 64.45668 47.49334
# Shear Modulus (GPa) = 21.47305 29.83489 25.65397
#
# Velocity S-wave (km/s) = 3.40799 4.01710 3.72502
# Velocity P-wave (km/s) = 5.65676 7.50863 6.64750
#
# Compressibility (1/GPa) = 0.03275467
#
# Stress axis : x y z
#
# Youngs Moduli (GPa) = 25.01654 114.04073 45.28976
#
# Poissons Ratio (x) = 0.62714 0.46083
# Poissons Ratio (y) = 0.13757 0.15215
# Poissons Ratio (z) = 0.25455 0.38311
#
# Static dielectric constant tensor:
#      x y z
#    x 1.661720 0.000000 -0.005370 
#    y 0.000000 1.582030 0.000000 
#    z -0.005370 0.000000 1.716600 
# 
# From -- ./inp_files/36969.got.cif
#   From: 2010.05.17/outbox.cif.g08.bks.cpg/sg13_19_cif.got.tgz:36969.got - 2010.06.03 16:44:36.
