data_PCOD9232342
_publ_section_title
;
Structure prediction by ZEFSAII (Michael W. Deem and Ramdas Pophale) SiO2 
 PCOD9232342
Probable space group: P 2/C
;
_chemical_formula_sum "Si O2"
_cell_formula_units_Z 24
_cell_length_a 17.853536
_cell_length_b 8.373378
_cell_length_c 22.184997
_cell_angle_alpha 90.000000
_cell_angle_beta 162.564099
_cell_angle_gamma 90.000000
_cell_volume 993.761458
_symmetry_space_group_name_H-M "P 2/C"
_symmetry_group_IT_number 13
_symmetry_cell_setting 'monoclinic'
loop_
_space_group_symop_operation_xyz
x,y,z
-x,y,1/2-z
-x,-y,-z
x,-y,1/2+z
loop_
_atom_site_type_symbol
_atom_site_label
_atom_site_fract_x
_atom_site_fract_y
_atom_site_fract_z
Si Si1 0.752267 0.685066 0.479315
Si Si2 0.168982 0.693936 0.466303
Si Si3 0.707071 0.633792 0.169689
Si Si4 0.558440 0.187904 0.663777
Si Si5 0.607386 0.824106 0.735298
Si Si6 0.957047 0.336045 0.406588
O O1 0.500000 0.738029 0.250000
O O2 0.752931 0.492157 0.481519
O O3 0.701207 0.755536 0.505933
O O4 0.989935 0.730812 0.620680
O O5 0.321666 0.784663 0.532401
O O6 0.254059 0.771590 0.595962
O O7 0.869176 0.695151 0.238419
O O8 0.587859 0.775868 0.116010
O O9 0.908977 0.523123 0.360343
O O10 0.500000 0.500000 0.000000
O O11 0.625112 0.010207 0.734248
O O12 0.778441 0.299473 0.859649
O O13 0.737250 0.735884 0.778519
#
# Coordination Sequence:
#
# PCOD9232342 Si02
#       6
#     4   4   4   4   4   4
#     4   9  18  32  56  87 122 157 206 259 307 377
#     4  10  21  36  59  94 130 160 212 270 328 376
#     4  11  24  42  64  89 124 175 223 259 307 388
#     4  11  22  36  64  96 126 161 212 272 327 377
#     4  11  21  34  62 101 128 157 205 281 341 373
#     4  10  21  37  61  91 123 165 211 266 316 379
#
# _framework density 24.150665
#
# number of rings (size 3 to 8) (size 9 to 14) (size 15 to 20)
#    0.000    1.667    3.333    2.000    9.333    0.000 
#    0.000    8.333    0.000    4.000    0.000    0.000 
#    0.000    0.000    0.000    0.000    0.000    0.000 
#
# Total GULP energy -133969.860791 kJ/mol
# GULP energy per Si atom -5582.077533 kJ/mol
# Density = 2.409570 g / cm^3
# Si number density = 24.150665 Si / 1000 Ang^3
#
#
#
# Elastic Constant Matrix: (Units=GPa)
#
#
# Indices 1 2 3 4 5 6 
#
# 1 144.8551 42.1778 55.5843 0.0000 57.2875 0.0000
# 2 42.1778 80.9567 17.4074 0.0000 4.5833 0.0000
# 3 55.5843 17.4074 88.0400 0.0000 34.4425 0.0000
# 4 0.0000 0.0000 0.0000 -14.9928 0.0000 6.4227
# 5 57.2875 4.5833 34.4425 0.0000 51.5505 0.0000
# 6 0.0000 0.0000 0.0000 6.4227 0.0000 37.6259
#
#
#
# Elastic Compliance Matrix: (Units=1/GPa)
#
#
# Indices 1 2 3 4 5 6 
#
# 1 0.016055 -0.006902 -0.002751 0.000000 -0.015390 0.000000
# 2 -0.006902 0.015889 -0.001668 0.000000 0.007372 0.000000
# 3 -0.002751 -0.001668 0.016478 0.000000 -0.007804 0.000000
# 4 0.000000 0.000000 0.000000 -0.062154 0.000000 0.010610
# 5 -0.015390 0.007372 -0.007804 0.000000 0.041060 0.000000
# 6 0.000000 0.000000 0.000000 0.010610 0.000000 0.024766
#
#
# Mechanical properties :
#
#
# Convention : Reuss Voigt Hill
#
# Bulk Modulus (GPa) = 38.78807 60.46564 49.62686
# Shear Modulus (GPa) = 60.00106 28.08220 44.04163
#
# Velocity S-wave (km/s) = 4.98983 3.41367 4.27502
# Velocity P-wave (km/s) = 7.02094 6.37407 6.70531
#
# Compressibility (1/GPa) = 0.02578112
#
# Stress axis : x y z
#
# Youngs Moduli (GPa) = 62.28461 62.93494 60.68604
#
# Poissons Ratio (x) = 0.43437 0.16695
# Poissons Ratio (y) = 0.42988 0.10123
# Poissons Ratio (z) = 0.17134 0.10498
#
# Static dielectric constant tensor:
#      x y z
#    x 2.061810 0.000000 -0.021060 
#    y 0.000000 1.835980 0.000000 
#    z -0.021060 0.000000 2.021410 
# 
# From -- ./inp_files/87944.got.cif
#   From: 2010.05.17/outbox.cif.g08.bks.cpg/sg13_44_cif.got.tgz:87944.got - 2010.06.03 16:44:36.
