data_PCOD9232434
_publ_section_title
;
Structure prediction by ZEFSAII (Michael W. Deem and Ramdas Pophale) SiO2 
 PCOD9232434
Probable space group: P 2/C
;
_chemical_formula_sum "Si O2"
_cell_formula_units_Z 30
_cell_length_a 17.367936
_cell_length_b 12.257716
_cell_length_c 8.722679
_cell_angle_alpha 90.000000
_cell_angle_beta 121.671516
_cell_angle_gamma 90.000000
_cell_volume 1580.425684
_symmetry_space_group_name_H-M "P 2/C"
_symmetry_group_IT_number 13
_symmetry_cell_setting 'monoclinic'
loop_
_space_group_symop_operation_xyz
x,y,z
-x,y,1/2-z
-x,-y,-z
x,-y,1/2+z
loop_
_atom_site_type_symbol
_atom_site_label
_atom_site_fract_x
_atom_site_fract_y
_atom_site_fract_z
Si Si1 0.614750 0.600724 0.724363
Si Si2 0.000000 0.460188 0.750000
Si Si3 0.788038 0.323955 0.220300
Si Si4 0.126637 0.556518 0.142203
Si Si5 0.587220 0.636193 0.054444
Si Si6 0.118514 0.095183 0.703868
Si Si7 0.091370 0.865784 0.533598
Si Si8 0.749034 0.253865 0.838811
O O1 0.701273 0.655466 0.736794
O O2 0.615934 0.613557 0.908588
O O3 0.520838 0.650448 0.562493
O O4 0.608847 0.472518 0.675440
O O5 0.068279 0.392072 0.718172
O O6 0.940889 0.530954 0.569054
O O7 0.833184 0.443358 0.252114
O O8 0.862959 0.246549 0.371997
O O9 0.759954 0.266856 0.032150
O O10 0.205331 0.635321 0.176428
O O11 0.644890 0.736228 0.180293
O O12 0.193631 0.159581 0.684197
O O13 0.016861 0.134616 0.554678
O O14 0.125263 0.967564 0.670263
O O15 0.119640 0.110955 0.887716
#
# Coordination Sequence:
#
# PCOD9232434 Si02
#       8
#     4   2   4   4   4   4   4   4
#     4  10  21  37  57  83 116 152 191 237 290 349
#     4  10  24  38  48  70 120 158 192 230 282 342
#     4  12  24  36  58  85 117 152 195 238 286 347
#     4  11  24  36  51  80 114 156 193 232 283 342
#     4  10  21  37  57  83 116 152 191 237 290 349
#     4  10  23  41  62  85 115 154 198 243 288 337
#     4  10  23  41  62  85 115 154 198 243 288 337
#     4  12  24  36  58  85 117 152 195 238 286 347
#
# _framework density 18.982227000000002
#
# number of rings (size 3 to 8) (size 9 to 14) (size 15 to 20)
#    0.000    1.333    2.667    2.400    7.467    3.200 
#    0.000    0.000    0.000    0.800    0.000    0.000 
#    0.000    0.000    0.000    0.000    0.000    0.000 
#
# Total GULP energy -167632.751620 kJ/mol
# GULP energy per Si atom -5587.758387 kJ/mol
# Density = 1.893902 g / cm^3
# Si number density = 18.982227 Si / 1000 Ang^3
#
#
#
# Elastic Constant Matrix: (Units=GPa)
#
#
# Indices 1 2 3 4 5 6 
#
# 1 82.2305 0.9081 -2.7617 0.0000 -1.5569 0.0000
# 2 0.9081 47.3791 -15.2676 0.0000 2.2457 0.0000
# 3 -2.7617 -15.2676 34.2229 0.0000 -4.0208 0.0000
# 4 0.0000 0.0000 0.0000 42.6541 0.0000 -36.7783
# 5 -1.5569 2.2457 -4.0208 0.0000 24.1279 0.0000
# 6 0.0000 0.0000 0.0000 -36.7783 0.0000 73.3185
#
#
#
# Elastic Compliance Matrix: (Units=1/GPa)
#
#
# Indices 1 2 3 4 5 6 
#
# 1 0.012217 0.000087 0.001138 0.000000 0.000970 0.000000
# 2 0.000087 0.024656 0.010952 0.000000 -0.000464 0.000000
# 3 0.001138 0.010952 0.034768 0.000000 0.004848 0.000000
# 4 0.000000 0.000000 0.000000 0.041313 0.000000 0.020724
# 5 0.000970 -0.000464 0.004848 0.000000 0.042359 0.000000
# 6 0.000000 0.000000 0.000000 0.020724 0.000000 0.024035
#
#
# Mechanical properties :
#
#
# Convention : Reuss Voigt Hill
#
# Bulk Modulus (GPa) = 10.41725 14.39890 12.40808
# Shear Modulus (GPa) = 26.73922 40.08367 33.41144
#
# Velocity S-wave (km/s) = 3.75726 4.60025 4.19996
# Velocity P-wave (km/s) = 4.93179 5.98484 5.48365
#
# Compressibility (1/GPa) = 0.09599462
#
# Stress axis : x y z
#
# Youngs Moduli (GPa) = 81.85593 40.55819 28.76244
#
# Poissons Ratio (x) = -0.00352 -0.03275
# Poissons Ratio (y) = -0.00710 -0.31501
# Poissons Ratio (z) = -0.09319 -0.44419
#
# Static dielectric constant tensor:
#      x y z
#    x 1.671460 0.000000 0.012460 
#    y 0.000000 1.638050 0.000000 
#    z 0.012460 0.000000 1.695040 
# 
# From -- ./inp_files/21761.got.cif
#   From: 2010.05.17/outbox.cif.g08.bks.cpg/sg13_11_cif.got.tgz:21761.got - 2010.06.03 16:44:36.
