data_PCOD9232231
_publ_section_title
;
Structure prediction by ZEFSAII (Michael W. Deem and Ramdas Pophale) SiO2 
 PCOD9232231
Probable space group: P 2/C
;
_chemical_formula_sum "Si O2"
_cell_formula_units_Z 20
_cell_length_a 11.509072
_cell_length_b 8.432117
_cell_length_c 27.715838
_cell_angle_alpha 90.000000
_cell_angle_beta 157.709957
_cell_angle_gamma 90.000000
_cell_volume 1020.193342
_symmetry_space_group_name_H-M "P 2/C"
_symmetry_group_IT_number 13
_symmetry_cell_setting 'monoclinic'
loop_
_space_group_symop_operation_xyz
x,y,z
-x,y,1/2-z
-x,-y,-z
x,-y,1/2+z
loop_
_atom_site_type_symbol
_atom_site_label
_atom_site_fract_x
_atom_site_fract_y
_atom_site_fract_z
Si Si1 0.788175 0.370194 0.392192
Si Si2 0.768445 0.401986 0.205222
Si Si3 0.308710 0.573068 0.971357
Si Si4 0.450674 0.111276 0.330560
Si Si5 0.131023 0.133995 0.451966
O O1 0.500000 0.435925 0.250000
O O2 0.645084 0.239400 0.374133
O O3 0.000000 0.500000 0.500000
O O4 0.991162 0.267028 0.433397
O O5 0.699977 0.218215 0.185614
O O6 0.000000 0.425760 0.250000
O O7 0.955017 0.461313 0.323416
O O8 0.458194 0.491752 0.074804
O O9 0.318338 0.762450 0.984027
O O10 0.500000 0.500000 0.000000
O O11 0.164846 0.054236 0.187639
O O12 0.661683 0.981108 0.436572
#
# Coordination Sequence:
#
# PCOD9232231 Si02
#       5
#     4   4   4   4   4
#     4  10  21  36  56  81 108 141 181 224 269 323
#     4   9  18  34  53  75 104 137 176 222 264 314
#     4   9  18  34  54  76 102 136 178 219 261 314
#     4  10  21  36  53  78 111 140 176 223 270 324
#     4  10  21  36  54  80 110 142 178 222 274 325
#
# _framework density 19.604126999999998
#
# number of rings (size 3 to 8) (size 9 to 14) (size 15 to 20)
#    0.000    2.400    0.000    1.800    0.000    3.200 
#    0.000   12.000    0.000    0.000    0.000    0.000 
#    0.000    0.000    0.000    0.000    0.000    0.000 
#
# Total GULP energy -111341.540086 kJ/mol
# GULP energy per Si atom -5567.077004 kJ/mol
# Density = 1.955951 g / cm^3
# Si number density = 19.604127 Si / 1000 Ang^3
#
#
#
# Elastic Constant Matrix: (Units=GPa)
#
#
# Indices 1 2 3 4 5 6 
#
# 1 44.8979 30.7520 52.9279 0.0000 -8.3097 0.0000
# 2 30.7520 73.2251 99.3125 0.0000 -24.2786 0.0000
# 3 52.9279 99.3125 206.7342 0.0000 -56.1834 0.0000
# 4 0.0000 0.0000 0.0000 49.9378 0.0000 -11.3976
# 5 -8.3097 -24.2786 -56.1834 0.0000 29.0973 0.0000
# 6 0.0000 0.0000 0.0000 -11.3976 0.0000 29.6893
#
#
#
# Elastic Compliance Matrix: (Units=1/GPa)
#
#
# Indices 1 2 3 4 5 6 
#
# 1 0.035721 -0.005912 -0.010254 0.000000 -0.014532 0.000000
# 2 -0.005912 0.041002 -0.019662 0.000000 -0.005442 0.000000
# 3 -0.010254 -0.019662 0.024521 0.000000 0.028012 0.000000
# 4 0.000000 0.000000 0.000000 0.021948 0.000000 0.008426
# 5 -0.014532 -0.005442 0.028012 0.000000 0.079764 0.000000
# 6 0.000000 0.000000 0.000000 0.008426 0.000000 0.036917
#
#
# Mechanical properties :
#
#
# Convention : Reuss Voigt Hill
#
# Bulk Modulus (GPa) = 33.79921 76.76021 55.27971
# Shear Modulus (GPa) = 15.55731 31.20254 23.37993
#
# Velocity S-wave (km/s) = 2.82010 3.99385 3.45715
# Velocity P-wave (km/s) = 5.28036 7.77869 6.64794
#
# Compressibility (1/GPa) = 0.02958649
#
# Stress axis : x y z
#
# Youngs Moduli (GPa) = 27.99472 24.38892 40.78206
#
# Poissons Ratio (x) = 0.14419 0.41820
# Poissons Ratio (y) = 0.16551 0.80187
# Poissons Ratio (z) = 0.28707 0.47954
#
# Static dielectric constant tensor:
#      x y z
#    x 1.799000 0.000000 -0.018960 
#    y 0.000000 1.658830 0.000000 
#    z -0.018960 0.000000 1.727490 
# 
# From -- ./inp_files/20826.got.cif
#   From: 2010.05.17/outbox.cif.g08.bks.cpg/sg13_11_cif.got.tgz:20826.got - 2010.06.03 16:44:36.
