data_PCOD9232870
_publ_section_title
;
Structure prediction by ZEFSAII (Michael W. Deem and Ramdas Pophale) SiO2 
 PCOD9232870
Probable space group: P 2/C
;
_chemical_formula_sum "Si O2"
_cell_formula_units_Z 26
_cell_length_a 26.478823
_cell_length_b 4.982107
_cell_length_c 18.837427
_cell_angle_alpha 90.000000
_cell_angle_beta 32.398342
_cell_angle_gamma 90.000000
_cell_volume 1331.490074
_symmetry_space_group_name_H-M "P 2/C"
_symmetry_group_IT_number 13
_symmetry_cell_setting 'monoclinic'
loop_
_space_group_symop_operation_xyz
x,y,z
-x,y,1/2-z
-x,-y,-z
x,-y,1/2+z
loop_
_atom_site_type_symbol
_atom_site_label
_atom_site_fract_x
_atom_site_fract_y
_atom_site_fract_z
Si Si1 0.672963 0.161577 0.576255
Si Si2 0.411583 0.807557 0.590022
Si Si3 0.771378 0.041311 0.754671
Si Si4 0.454912 0.453904 0.670395
Si Si5 0.500000 0.166727 0.250000
Si Si6 0.889717 0.496574 0.144560
Si Si7 0.234268 0.302761 0.594329
O O1 0.727140 0.835519 0.379350
O O2 0.711571 0.435086 0.496643
O O3 0.587586 0.028335 0.634240
O O4 0.753454 0.931748 0.478453
O O5 0.313634 0.955078 0.693965
O O6 0.407929 0.607290 0.660387
O O7 0.446591 0.655469 0.477552
O O8 0.500000 0.000000 0.500000
O O9 0.836893 0.786225 0.696084
O O10 0.839222 0.286352 0.652715
O O11 0.476511 0.648622 0.710608
O O12 0.380234 0.234978 0.787486
O O13 0.865085 0.599048 0.254203
O O14 0.000000 0.500000 0.000000
#
# Coordination Sequence:
#
# PCOD9232870 Si02
#       7
#     4   4   4   4   2   4   4
#     4  12  23  36  56  89 121 169 209 270 313 368
#     4  11  27  42  57  91 137 187 218 256 317 392
#     4  10  23  38  64  89 132 172 203 265 321 387
#     4  11  27  39  60  84 135 173 237 257 316 379
#     4  12  26  36  62  86 124 170 224 270 304 366
#     4  10  21  38  64  97 128 157 205 274 340 385
#     4  10  22  35  60  86 127 153 211 260 334 368
#
# _framework density 19.526996
#
# number of rings (size 3 to 8) (size 9 to 14) (size 15 to 20)
#    0.923    0.308    3.077    1.846   12.923    0.000 
#    0.000    0.000    0.000    0.000    0.000    1.077 
#    9.231    0.000    0.000    0.000    0.000    0.000 
#
# Total GULP energy -144948.697133 kJ/mol
# GULP energy per Si atom -5574.949890 kJ/mol
# Density = 1.948255 g / cm^3
# Si number density = 19.526996 Si / 1000 Ang^3
#
#
#
# Elastic Constant Matrix: (Units=GPa)
#
#
# Indices 1 2 3 4 5 6 
#
# 1 49.3245 29.1629 41.7329 0.0000 3.3840 0.0000
# 2 29.1629 136.7735 53.4809 0.0000 0.9538 0.0000
# 3 41.7329 53.4809 139.8303 0.0000 -1.4623 0.0000
# 4 0.0000 0.0000 0.0000 18.3887 0.0000 -1.5569
# 5 3.3840 0.9538 -1.4623 0.0000 28.2705 0.0000
# 6 0.0000 0.0000 0.0000 -1.5569 0.0000 26.3286
#
#
#
# Elastic Compliance Matrix: (Units=1/GPa)
#
#
# Indices 1 2 3 4 5 6 
#
# 1 0.028654 -0.003204 -0.007365 0.000000 -0.003703 0.000000
# 2 -0.003204 0.008961 -0.002472 0.000000 -0.000047 0.000000
# 3 -0.007365 -0.002472 0.010311 0.000000 0.001498 0.000000
# 4 0.000000 0.000000 0.000000 0.054655 0.000000 0.003232
# 5 -0.003703 -0.000047 0.001498 0.000000 0.035895 0.000000
# 6 0.000000 0.000000 0.000000 0.003232 0.000000 0.038173
#
#
# Mechanical properties :
#
#
# Convention : Reuss Voigt Hill
#
# Bulk Modulus (GPa) = 45.77850 63.85353 54.81602
# Shear Modulus (GPa) = 23.80826 28.03432 25.92129
#
# Velocity S-wave (km/s) = 3.49556 3.79313 3.64738
# Velocity P-wave (km/s) = 6.30766 7.20798 6.77279
#
# Compressibility (1/GPa) = 0.02184431
#
# Stress axis : x y z
#
# Youngs Moduli (GPa) = 34.89945 111.59098 96.98651
#
# Poissons Ratio (x) = 0.35752 0.71432
# Poissons Ratio (y) = 0.11181 0.23972
# Poissons Ratio (z) = 0.25704 0.27582
#
# Static dielectric constant tensor:
#      x y z
#    x 1.685890 0.000000 0.030720 
#    y 0.000000 1.795840 0.000000 
#    z 0.030720 0.000000 1.753140 
# 
# From -- ./inp_files/70886.got.cif
#   From: 2010.05.17/outbox.cif.g08.bks.cpg/sg13_36_cif.got.tgz:70886.got - 2010.06.03 16:44:36.
