data_PCOD9232690
_publ_section_title
;
Structure prediction by ZEFSAII (Michael W. Deem and Ramdas Pophale) SiO2 
 PCOD9232690
Probable space group: P 2/C
;
_chemical_formula_sum "Si O2"
_cell_formula_units_Z 20
_cell_length_a 17.497894
_cell_length_b 7.460209
_cell_length_c 7.896569
_cell_angle_alpha 90.000000
_cell_angle_beta 61.598120
_cell_angle_gamma 90.000000
_cell_volume 906.727333
_symmetry_space_group_name_H-M "P 2/C"
_symmetry_group_IT_number 13
_symmetry_cell_setting 'monoclinic'
loop_
_space_group_symop_operation_xyz
x,y,z
-x,y,1/2-z
-x,-y,-z
x,-y,1/2+z
loop_
_atom_site_type_symbol
_atom_site_label
_atom_site_fract_x
_atom_site_fract_y
_atom_site_fract_z
Si Si1 0.194229 0.928207 0.427381
Si Si2 0.064836 0.105338 0.809690
Si Si3 0.326837 0.327544 0.690008
Si Si4 0.298125 0.282574 0.317230
Si Si5 0.510127 0.793006 0.941086
O O1 0.123711 0.963749 0.645031
O O2 0.282558 0.820517 0.356916
O O3 0.139439 0.812442 0.347516
O O4 0.228427 0.129206 0.345758
O O5 0.000000 0.206973 0.750000
O O6 0.000000 0.000000 0.000000
O O7 0.311754 0.276643 0.507743
O O8 0.280890 0.513821 0.782877
O O9 0.431324 0.320384 0.606324
O O10 0.390182 0.250472 0.127513
O O11 0.500000 0.771746 0.750000
O O12 0.500000 0.000000 0.000000
#
# Coordination Sequence:
#
# PCOD9232690 Si02
#       5
#     4   4   4   4   4
#     4  11  20  39  66  91 122 158 207 251 305 366
#     4   9  20  38  66  94 116 157 197 248 320 380
#     4  11  24  38  60  92 127 168 209 250 299 352
#     4  11  24  38  60  92 127 167 210 251 296 356
#     4  10  21  38  58  87 127 169 208 248 298 347
#
# _framework density 22.057348000000001
#
# number of rings (size 3 to 8) (size 9 to 14) (size 15 to 20)
#    0.000    1.600    4.000    0.600    2.800    1.600 
#    0.000    0.000    0.000   24.000    0.000    0.000 
#    0.000    0.000    0.000    0.000    0.000    0.000 
#
# Total GULP energy -111369.007887 kJ/mol
# GULP energy per Si atom -5568.450394 kJ/mol
# Density = 2.200714 g / cm^3
# Si number density = 22.057348 Si / 1000 Ang^3
#
#
#
# Elastic Constant Matrix: (Units=GPa)
#
#
# Indices 1 2 3 4 5 6 
#
# 1 82.7101 -0.4363 33.8446 0.0000 -17.3108 0.0000
# 2 -0.4363 95.4873 28.7053 0.0000 -17.8752 0.0000
# 3 33.8446 28.7053 121.2018 0.0000 -45.5672 0.0000
# 4 0.0000 0.0000 0.0000 15.9835 0.0000 6.3191
# 5 -17.3108 -17.8752 -45.5672 0.0000 29.2172 0.0000
# 6 0.0000 0.0000 0.0000 6.3191 0.0000 11.9501
#
#
#
# Elastic Compliance Matrix: (Units=1/GPa)
#
#
# Indices 1 2 3 4 5 6 
#
# 1 0.014275 0.001881 -0.001981 0.000000 0.006520 0.000000
# 2 0.001881 0.012077 -0.000456 0.000000 0.007792 0.000000
# 3 -0.001981 -0.000456 0.020224 0.000000 0.030089 0.000000
# 4 0.000000 0.000000 0.000000 0.079102 0.000000 -0.041828
# 5 0.006520 0.007792 0.030089 0.000000 0.089784 0.000000
# 6 0.000000 0.000000 0.000000 -0.041828 0.000000 0.105799
#
#
# Mechanical properties :
#
#
# Convention : Reuss Voigt Hill
#
# Bulk Modulus (GPa) = 21.99475 47.06961 34.53218
# Shear Modulus (GPa) = 14.81362 27.24920 21.03141
#
# Velocity S-wave (km/s) = 2.59433 3.51861 3.09121
# Velocity P-wave (km/s) = 4.35515 6.15577 5.33202
#
# Compressibility (1/GPa) = 0.04546539
#
# Stress axis : x y z
#
# Youngs Moduli (GPa) = 70.05075 82.80231 49.44590
#
# Poissons Ratio (x) = -0.15576 0.09793
# Poissons Ratio (y) = -0.13178 0.02255
# Poissons Ratio (z) = 0.13874 0.03777
#
# Static dielectric constant tensor:
#      x y z
#    x 2.015440 0.000000 0.072900 
#    y 0.000000 1.940990 0.000000 
#    z 0.072900 0.000000 1.843210 
# 
# From -- ./inp_files/17870.got.cif
#   From: 2010.05.17/outbox.cif.g08.bks.cpg/sg13_9_cif.got.tgz:17870.got - 2010.06.03 16:44:36.
