data_PCOD9232180
_publ_section_title
;
Structure prediction by ZEFSAII (Michael W. Deem and Ramdas Pophale) SiO2 
 PCOD9232180
Probable space group: P 2/C
;
_chemical_formula_sum "Si O2"
_cell_formula_units_Z 30
_cell_length_a 13.277961
_cell_length_b 8.423344
_cell_length_c 18.088689
_cell_angle_alpha 90.000000
_cell_angle_beta 136.477697
_cell_angle_gamma 90.000000
_cell_volume 1393.199460
_symmetry_space_group_name_H-M "P 2/C"
_symmetry_group_IT_number 13
_symmetry_cell_setting 'monoclinic'
loop_
_space_group_symop_operation_xyz
x,y,z
-x,y,1/2-z
-x,-y,-z
x,-y,1/2+z
loop_
_atom_site_type_symbol
_atom_site_label
_atom_site_fract_x
_atom_site_fract_y
_atom_site_fract_z
Si Si1 0.805045 0.182867 0.021312
Si Si2 0.881112 0.628858 0.412521
Si Si3 0.708143 0.036048 0.165278
Si Si4 0.918453 0.116117 0.515114
Si Si5 0.000000 0.150232 0.250000
Si Si6 0.523993 0.232815 0.956867
Si Si7 0.633095 0.165008 0.277510
Si Si8 0.431291 0.515085 0.293951
O O1 0.910496 0.252048 0.141354
O O2 0.830089 0.276901 0.959174
O O3 0.636797 0.170226 0.954242
O O4 0.860826 0.003061 0.045160
O O5 0.738961 0.557479 0.300219
O O6 0.000000 0.500000 0.500000
O O7 0.964361 0.751586 0.403813
O O8 0.871109 0.051214 0.221196
O O9 0.699479 0.061794 0.247729
O O10 0.621113 0.871860 0.107536
O O11 0.619281 0.183640 0.079687
O O12 0.773490 0.197508 0.403577
O O13 0.000000 0.000000 0.500000
O O14 0.491612 0.403777 0.901482
O O15 0.500000 0.083256 0.250000
O O16 0.561876 0.324831 0.206511
O O17 0.500000 0.568202 0.250000
#
# Coordination Sequence:
#
# PCOD9232180 Si02
#       8
#     4   4   4   4   2   4   4   4
#     4  10  21  38  60  89 120 165 210 256 315 376
#     4  11  21  37  60  87 129 158 206 262 311 373
#     4  10  22  40  62  90 124 161 213 259 313 371
#     4  10  21  35  56  90 117 156 198 257 309 353
#     4  10  22  38  62  86 126 166 206 250 316 380
#     4  10  22  39  61  89 119 165 207 263 309 379
#     4  11  23  39  63  92 124 161 208 259 310 379
#     4  11  23  38  61  91 125 168 207 253 317 373
#
# _framework density 21.533169999999998
#
# number of rings (size 3 to 8) (size 9 to 14) (size 15 to 20)
#    0.000    1.600    2.667    2.400    5.600    1.067 
#    0.000    0.000    0.000    1.600    0.000    0.000 
#    0.000    0.000    0.000    0.000    0.000    0.000 
#
# Total GULP energy -167151.161857 kJ/mol
# GULP energy per Si atom -5571.705395 kJ/mol
# Density = 2.148416 g / cm^3
# Si number density = 21.533170 Si / 1000 Ang^3
#
#
#
# Elastic Constant Matrix: (Units=GPa)
#
#
# Indices 1 2 3 4 5 6 
#
# 1 115.4618 5.0498 16.0747 0.0000 26.9022 0.0000
# 2 5.0498 34.1864 1.5878 0.0000 2.9854 0.0000
# 3 16.0747 1.5878 51.5695 0.0000 14.9381 0.0000
# 4 0.0000 0.0000 0.0000 31.0625 0.0000 2.7941
# 5 26.9022 2.9854 14.9381 0.0000 39.2998 0.0000
# 6 0.0000 0.0000 0.0000 2.7941 0.0000 14.6500
#
#
#
# Elastic Compliance Matrix: (Units=1/GPa)
#
#
# Indices 1 2 3 4 5 6 
#
# 1 0.010412 -0.000904 -0.001318 0.000000 -0.006558 0.000000
# 2 -0.000904 0.029529 -0.000176 0.000000 -0.001557 0.000000
# 3 -0.001318 -0.000176 0.021960 0.000000 -0.007432 0.000000
# 4 0.000000 0.000000 0.000000 0.032755 0.000000 -0.006247
# 5 -0.006558 -0.001557 -0.007432 0.000000 0.032877 0.000000
# 6 0.000000 0.000000 0.000000 -0.006247 0.000000 0.069451
#
#
# Mechanical properties :
#
#
# Convention : Reuss Voigt Hill
#
# Bulk Modulus (GPa) = 17.51184 27.40473 22.45828
# Shear Modulus (GPa) = 22.64326 28.90282 25.77304
#
# Velocity S-wave (km/s) = 3.24628 3.66764 3.46338
# Velocity P-wave (km/s) = 4.71182 5.53984 5.14253
#
# Compressibility (1/GPa) = 0.05710423
#
# Stress axis : x y z
#
# Youngs Moduli (GPa) = 96.04480 33.86488 45.53671
#
# Poissons Ratio (x) = 0.03062 0.06002
# Poissons Ratio (y) = 0.08683 0.00803
# Poissons Ratio (z) = 0.12660 0.00597
#
# Static dielectric constant tensor:
#      x y z
#    x 1.805080 0.000000 -0.041880 
#    y 0.000000 1.843280 0.000000 
#    z -0.041880 0.000000 1.831610 
# 
# From -- ./inp_files/79675.got.cif
#   From: 2010.05.17/outbox.cif.g08.bks.cpg/sg13_40_cif.got.tgz:79675.got - 2010.06.03 16:44:36.
