data_PCOD9232795
_publ_section_title
;
Structure prediction by ZEFSAII (Michael W. Deem and Ramdas Pophale) SiO2 
 PCOD9232795
Probable space group: P 2/C
;
_chemical_formula_sum "Si O2"
_cell_formula_units_Z 18
_cell_length_a 13.620015
_cell_length_b 9.235935
_cell_length_c 17.453083
_cell_angle_alpha 90.000000
_cell_angle_beta 154.567252
_cell_angle_gamma 90.000000
_cell_volume 942.854340
_symmetry_space_group_name_H-M "P 2/C"
_symmetry_group_IT_number 13
_symmetry_cell_setting 'monoclinic'
loop_
_space_group_symop_operation_xyz
x,y,z
-x,y,1/2-z
-x,-y,-z
x,-y,1/2+z
loop_
_atom_site_type_symbol
_atom_site_label
_atom_site_fract_x
_atom_site_fract_y
_atom_site_fract_z
Si Si1 0.601382 0.153215 0.049333
Si Si2 0.853852 0.265486 0.544867
Si Si3 0.302301 0.586694 0.314069
Si Si4 0.360610 0.680557 0.766431
Si Si5 0.000000 0.998567 0.750000
O O1 0.676153 0.229781 0.181459
O O2 0.416253 0.257975 0.879963
O O3 0.801012 0.109030 0.133830
O O4 0.500000 0.000000 0.000000
O O5 0.769169 0.254040 0.397733
O O6 0.631722 0.316701 0.436751
O O7 0.932239 0.111883 0.635014
O O8 0.067801 0.377044 0.693554
O O9 0.500000 0.500000 0.500000
O O10 0.273689 0.482368 0.221296
#
# Coordination Sequence:
#
# PCOD9232795 Si02
#       5
#     4   4   4   4   2
#     4  11  21  39  61  91 120 161 206 245 311 371
#     4  11  21  39  64  88 125 165 203 252 324 361
#     4  10  21  38  62  86 122 158 205 255 301 366
#     4  10  23  39  64  91 122 162 208 260 307 370
#     4  12  22  38  64  90 126 168 202 256 308 388
#
# _framework density 19.090966000000002
#
# number of rings (size 3 to 8) (size 9 to 14) (size 15 to 20)
#    0.000    1.333    4.444    2.000    0.000    4.444 
#    0.000    0.000    0.000    0.000    0.000    0.000 
#    0.000    0.000    0.000    0.000    0.000    0.000 
#
# Total GULP energy -100340.357536 kJ/mol
# GULP energy per Si atom -5574.464308 kJ/mol
# Density = 1.904751 g / cm^3
# Si number density = 19.090966 Si / 1000 Ang^3
#
#
#
# Elastic Constant Matrix: (Units=GPa)
#
#
# Indices 1 2 3 4 5 6 
#
# 1 50.4423 30.9412 17.5600 0.0000 -6.9265 0.0000
# 2 30.9412 120.2619 25.9576 0.0000 1.5956 0.0000
# 3 17.5600 25.9576 84.6711 0.0000 8.2885 0.0000
# 4 0.0000 0.0000 0.0000 21.9545 0.0000 11.5392
# 5 -6.9265 1.5956 8.2885 0.0000 46.3406 0.0000
# 6 0.0000 0.0000 0.0000 11.5392 0.0000 37.1244
#
#
#
# Elastic Compliance Matrix: (Units=1/GPa)
#
#
# Indices 1 2 3 4 5 6 
#
# 1 0.025366 -0.005733 -0.003963 0.000000 0.004698 0.000000
# 2 -0.005733 0.010202 -0.001853 0.000000 -0.000877 0.000000
# 3 -0.003963 -0.001853 0.013488 0.000000 -0.002941 0.000000
# 4 0.000000 0.000000 0.000000 0.054443 0.000000 -0.016922
# 5 0.004698 -0.000877 -0.002941 0.000000 0.022838 0.000000
# 6 0.000000 0.000000 0.000000 -0.016922 0.000000 0.032196
#
#
# Mechanical properties :
#
#
# Convention : Reuss Voigt Hill
#
# Bulk Modulus (GPa) = 38.52332 44.92145 41.72238
# Shear Modulus (GPa) = 26.27661 33.14498 29.71079
#
# Velocity S-wave (km/s) = 3.71400 4.17125 3.94924
# Velocity P-wave (km/s) = 6.21404 6.83962 6.53432
#
# Compressibility (1/GPa) = 0.02595830
#
# Stress axis : x y z
#
# Youngs Moduli (GPa) = 39.42289 98.02237 74.13904
#
# Poissons Ratio (x) = 0.56198 0.29381
# Poissons Ratio (y) = 0.22602 0.13736
# Poissons Ratio (z) = 0.15623 0.18161
#
# Static dielectric constant tensor:
#      x y z
#    x 1.646640 0.000000 -0.046460 
#    y 0.000000 1.647700 0.000000 
#    z -0.046460 0.000000 1.699970 
# 
# From -- ./inp_files/27805.got.cif
#   From: 2010.05.17/outbox.cif.g08.bks.cpg/sg13_14_cif.got.tgz:27805.got - 2010.06.03 16:44:36.
