data_PCOD9232777
_publ_section_title
;
Structure prediction by ZEFSAII (Michael W. Deem and Ramdas Pophale) SiO2 
 PCOD9232777
Probable space group: P 2/C
;
_chemical_formula_sum "Si O2"
_cell_formula_units_Z 24
_cell_length_a 22.817619
_cell_length_b 8.503380
_cell_length_c 17.052018
_cell_angle_alpha 90.000000
_cell_angle_beta 158.656305
_cell_angle_gamma 90.000000
_cell_volume 1204.185303
_symmetry_space_group_name_H-M "P 2/C"
_symmetry_group_IT_number 13
_symmetry_cell_setting 'monoclinic'
loop_
_space_group_symop_operation_xyz
x,y,z
-x,y,1/2-z
-x,-y,-z
x,-y,1/2+z
loop_
_atom_site_type_symbol
_atom_site_label
_atom_site_fract_x
_atom_site_fract_y
_atom_site_fract_z
Si Si1 0.839905 0.090587 0.827080
Si Si2 0.831683 0.458383 0.073439
Si Si3 0.495388 0.441613 0.582274
Si Si4 0.835676 0.561520 0.257227
Si Si5 0.493625 0.063799 0.580343
Si Si6 0.837019 0.100147 0.015324
O O1 0.836000 0.254111 0.776260
O O2 0.675589 0.999379 0.599240
O O3 0.841517 0.114075 0.925102
O O4 0.000000 0.000000 0.000000
O O5 0.835468 0.499983 0.168711
O O6 0.834762 0.273143 0.052991
O O7 0.000000 0.525444 0.250000
O O8 0.657618 0.509267 0.823939
O O9 0.500000 0.500000 0.500000
O O10 0.328937 0.497328 0.411313
O O11 0.494939 0.252427 0.583837
O O12 0.000000 0.500000 0.500000
O O13 0.500000 0.000000 0.500000
O O14 0.670064 0.017561 0.832899
O O15 0.000000 0.021406 0.250000
#
# Coordination Sequence:
#
# PCOD9232777 Si02
#       6
#     4   4   4   4   4   4
#     4  11  23  41  62  92 129 167 211 265 332 394
#     4  10  21  38  61  91 121 156 210 265 312 371
#     4  11  21  38  65  92 124 166 211 261 315 379
#     4  12  23  39  64  92 123 165 215 269 318 381
#     4   9  19  36  59  86 122 163 202 246 311 381
#     4   9  18  38  63  87 119 165 211 256 313 384
#
# _framework density 19.930488
#
# number of rings (size 3 to 8) (size 9 to 14) (size 15 to 20)
#    0.000    1.667    0.000    7.500    0.000    0.000 
#    0.000   10.000    0.000    0.000    0.000    0.000 
#    0.000    0.000    0.000    0.000    0.000    0.000 
#
# Total GULP energy -133808.417118 kJ/mol
# GULP energy per Si atom -5575.350713 kJ/mol
# Density = 1.988512 g / cm^3
# Si number density = 19.930488 Si / 1000 Ang^3
#
#
#
# Elastic Constant Matrix: (Units=GPa)
#
#
# Indices 1 2 3 4 5 6 
#
# 1 158.4285 39.5396 94.0402 0.0000 13.0842 0.0000
# 2 39.5396 79.7883 53.4692 0.0000 12.6967 0.0000
# 3 94.0402 53.4692 251.6584 0.0000 25.9839 0.0000
# 4 0.0000 0.0000 0.0000 29.7081 0.0000 8.3754
# 5 13.0842 12.6967 25.9839 0.0000 52.7830 0.0000
# 6 0.0000 0.0000 0.0000 8.3754 0.0000 29.3191
#
#
#
# Elastic Compliance Matrix: (Units=1/GPa)
#
#
# Indices 1 2 3 4 5 6 
#
# 1 0.008499 -0.002405 -0.002641 0.000000 -0.000228 0.000000
# 2 -0.002405 0.015518 -0.002185 0.000000 -0.002061 0.000000
# 3 -0.002641 -0.002185 0.005587 0.000000 -0.001570 0.000000
# 4 0.000000 0.000000 0.000000 0.036609 0.000000 -0.010458
# 5 -0.000228 -0.002061 -0.001570 0.000000 0.020271 0.000000
# 6 0.000000 0.000000 0.000000 -0.010458 0.000000 0.037095
#
#
# Mechanical properties :
#
#
# Convention : Reuss Voigt Hill
#
# Bulk Modulus (GPa) = 66.05254 95.99701 81.02477
# Shear Modulus (GPa) = 34.94331 42.55046 38.74689
#
# Velocity S-wave (km/s) = 4.19174 4.62556 4.41398
# Velocity P-wave (km/s) = 7.52602 8.76346 8.16820
#
# Compressibility (1/GPa) = 0.01513946
#
# Stress axis : x y z
#
# Youngs Moduli (GPa) = 117.66121 64.44306 178.98481
#
# Poissons Ratio (x) = 0.15501 0.47275
# Poissons Ratio (y) = 0.28302 0.39115
# Poissons Ratio (z) = 0.31078 0.14083
#
# Static dielectric constant tensor:
#      x y z
#    x 1.728670 0.000000 0.063610 
#    y 0.000000 1.719860 0.000000 
#    z 0.063610 0.000000 1.776330 
# 
# From -- ./inp_files/71242.got.cif
#   From: 2010.05.17/outbox.cif.g08.bks.cpg/sg13_36_cif.got.tgz:71242.got - 2010.06.03 16:44:36.
