data_PCOD9232176
_publ_section_title
;
Structure prediction by ZEFSAII (Michael W. Deem and Ramdas Pophale) SiO2 
 PCOD9232176
Probable space group: P 2/C
;
_chemical_formula_sum "Si O2"
_cell_formula_units_Z 18
_cell_length_a 6.838098
_cell_length_b 20.106431
_cell_length_c 5.465246
_cell_angle_alpha 90.000000
_cell_angle_beta 102.068400
_cell_angle_gamma 90.000000
_cell_volume 734.808026
_symmetry_space_group_name_H-M "P 2/C"
_symmetry_group_IT_number 13
_symmetry_cell_setting 'monoclinic'
loop_
_space_group_symop_operation_xyz
x,y,z
-x,y,1/2-z
-x,-y,-z
x,-y,1/2+z
loop_
_atom_site_type_symbol
_atom_site_label
_atom_site_fract_x
_atom_site_fract_y
_atom_site_fract_z
Si Si1 0.256167 0.244318 0.172440
Si Si2 0.586571 0.075002 0.018732
Si Si3 0.224261 0.527089 0.076738
Si Si4 0.739304 0.682359 0.323250
Si Si5 0.000000 0.125071 0.250000
O O1 0.500000 0.239575 0.250000
O O2 0.826807 0.081019 0.078728
O O3 0.133983 0.175128 0.120879
O O4 0.198549 0.289528 0.925098
O O5 0.500000 0.102201 0.250000
O O6 0.500000 0.108276 0.750000
O O7 0.500000 0.000000 0.000000
O O8 0.313441 0.490260 0.335989
O O9 0.214003 0.605245 0.124532
O O10 0.000000 0.500000 0.000000
O O11 0.500000 0.686428 0.250000
O O12 0.799206 0.724141 0.578384
#
# Coordination Sequence:
#
# PCOD9232176 Si02
#       5
#     4   4   4   4   2
#     4  10  24  43  65  97 133 177 235 291 345 421
#     4  10  25  47  72 108 150 186 234 286 340 422
#     4  10  21  35  56  85 119 161 217 278 337 412
#     4  10  22  42  62  88 133 176 220 290 359 409
#     4  12  26  44  78 106 142 196 236 290 364 414
#
# _framework density 24.496193000000002
#
# number of rings (size 3 to 8) (size 9 to 14) (size 15 to 20)
#    0.000    1.778    0.000    2.000    0.000   17.778 
#    0.000    0.000    0.000    0.000    0.000    0.000 
#    0.000    0.000    0.000    0.000    0.000    0.000 
#
# Total GULP energy -100608.268287 kJ/mol
# GULP energy per Si atom -5589.348238 kJ/mol
# Density = 2.444044 g / cm^3
# Si number density = 24.496193 Si / 1000 Ang^3
#
#
#
# Elastic Constant Matrix: (Units=GPa)
#
#
# Indices 1 2 3 4 5 6 
#
# 1 161.1459 37.9469 89.4572 0.0000 16.1777 0.0000
# 2 37.9469 134.4799 62.0512 0.0000 4.1622 0.0000
# 3 89.4572 62.0512 224.5667 0.0000 -2.5975 0.0000
# 4 0.0000 0.0000 0.0000 -31.9877 0.0000 9.2282
# 5 16.1777 4.1622 -2.5975 0.0000 62.1574 0.0000
# 6 0.0000 0.0000 0.0000 9.2282 0.0000 79.9179
#
#
#
# Elastic Compliance Matrix: (Units=1/GPa)
#
#
# Indices 1 2 3 4 5 6 
#
# 1 0.008366 -0.000850 -0.003124 0.000000 -0.002251 0.000000
# 2 -0.000850 0.008637 -0.002053 0.000000 -0.000443 0.000000
# 3 -0.003124 -0.002053 0.006279 0.000000 0.001213 0.000000
# 4 0.000000 0.000000 0.000000 -0.030254 0.000000 0.003493
# 5 -0.002251 -0.000443 0.001213 0.000000 0.016754 0.000000
# 6 0.000000 0.000000 0.000000 0.003493 0.000000 0.012109
#
#
# Mechanical properties :
#
#
# Convention : Reuss Voigt Hill
#
# Bulk Modulus (GPa) = 89.06131 99.90036 94.48083
# Shear Modulus (GPa) = 132.67204 44.06667 88.36935
#
# Velocity S-wave (km/s) = 7.36735 4.24597 6.01274
# Velocity P-wave (km/s) = 10.43104 8.05656 9.31973
#
# Compressibility (1/GPa) = 0.01122822
#
# Stress axis : x y z
#
# Youngs Moduli (GPa) = 119.53535 115.78269 159.26686
#
# Poissons Ratio (x) = 0.09836 0.49752
# Poissons Ratio (y) = 0.10155 0.32701
# Poissons Ratio (z) = 0.37341 0.23773
#
# Static dielectric constant tensor:
#      x y z
#    x 1.959100 0.000000 -0.015080 
#    y 0.000000 2.080890 0.000000 
#    z -0.015080 0.000000 1.996800 
# 
# From -- ./inp_files/1876.got.cif
#   From: 2010.05.17/outbox.cif.g08.bks.cpg/sg13_1_cif.got.tgz:1876.got - 2010.06.03 16:44:36.
