data_PCOD9232138
_publ_section_title
;
Structure prediction by ZEFSAII (Michael W. Deem and Ramdas Pophale) SiO2 
 PCOD9232138
Probable space group: P 2/C
;
_chemical_formula_sum "Si O2"
_cell_formula_units_Z 24
_cell_length_a 22.252719
_cell_length_b 7.585658
_cell_length_c 11.599990
_cell_angle_alpha 90.000000
_cell_angle_beta 149.902724
_cell_angle_gamma 90.000000
_cell_volume 981.925576
_symmetry_space_group_name_H-M "P 2/C"
_symmetry_group_IT_number 13
_symmetry_cell_setting 'monoclinic'
loop_
_space_group_symop_operation_xyz
x,y,z
-x,y,1/2-z
-x,-y,-z
x,-y,1/2+z
loop_
_atom_site_type_symbol
_atom_site_label
_atom_site_fract_x
_atom_site_fract_y
_atom_site_fract_z
Si Si1 0.111034 0.880311 0.724700
Si Si2 0.500000 0.840414 0.250000
Si Si3 0.230488 0.718281 0.221703
Si Si4 0.241859 0.878038 0.733888
Si Si5 0.298028 0.186257 0.082877
Si Si6 0.000000 0.337963 0.250000
Si Si7 0.456006 0.699236 0.427783
O O1 0.164875 0.782261 0.703264
O O2 0.062967 0.762366 0.747104
O O3 0.000000 0.000000 0.500000
O O4 0.223537 0.005467 0.944559
O O5 0.621977 0.923984 0.501031
O O6 0.450411 0.745035 0.283093
O O7 0.271050 0.703892 0.422740
O O8 0.337212 0.702310 0.307295
O O9 0.187467 0.924237 0.135294
O O10 0.119840 0.591076 0.009504
O O11 0.251211 0.765377 0.632961
O O12 0.441070 0.181453 0.339385
O O13 0.500000 0.500000 0.500000
#
# Coordination Sequence:
#
# PCOD9232138 Si02
#       7
#     4   2   4   4   4   2   4
#     4  11  18  33  54  91 135 164 191 243 313 397
#     4  10  24  38  58  92 122 160 196 268 328 372
#     4  11  23  36  65  93 128 165 204 258 324 387
#     4  10  21  34  58  92 132 157 198 251 330 384
#     4  10  21  37  60  93 123 167 206 262 318 380
#     4  12  20  36  58  94 138 168 196 250 322 406
#     4  11  26  44  65  86 124 170 226 266 306 371
#
# _framework density 24.441772
#
# number of rings (size 3 to 8) (size 9 to 14) (size 15 to 20)
#    0.000    1.333    5.000    1.500    9.333    1.333 
#    0.000    0.000    0.000    6.000    0.000    0.000 
#    0.000    0.000    0.000    0.000    0.000    0.000 
#
# Total GULP energy -133810.365557 kJ/mol
# GULP energy per Si atom -5575.431898 kJ/mol
# Density = 2.438614 g / cm^3
# Si number density = 24.441772 Si / 1000 Ang^3
#
#
#
# Elastic Constant Matrix: (Units=GPa)
#
#
# Indices 1 2 3 4 5 6 
#
# 1 249.2666 23.4913 83.3622 0.0000 8.6299 0.0000
# 2 23.4913 49.2066 23.8158 0.0000 8.4057 0.0000
# 3 83.3622 23.8158 141.7471 0.0000 -5.7976 0.0000
# 4 0.0000 0.0000 0.0000 1.0839 0.0000 -1.5329
# 5 8.6299 8.4057 -5.7976 0.0000 50.0512 0.0000
# 6 0.0000 0.0000 0.0000 -1.5329 0.0000 8.5827
#
#
#
# Elastic Compliance Matrix: (Units=1/GPa)
#
#
# Indices 1 2 3 4 5 6 
#
# 1 0.005099 -0.000847 -0.002900 0.000000 -0.001073 0.000000
# 2 -0.000847 0.023162 -0.003563 0.000000 -0.004156 0.000000
# 3 -0.002900 -0.003563 0.009449 0.000000 0.002193 0.000000
# 4 0.000000 0.000000 0.000000 1.234337 0.000000 0.220452
# 5 -0.001073 -0.004156 0.002193 0.000000 0.021117 0.000000
# 6 0.000000 0.000000 0.000000 0.220452 0.000000 0.155887
#
#
# Mechanical properties :
#
#
# Convention : Reuss Voigt Hill
#
# Bulk Modulus (GPa) = 43.31281 77.95098 60.63189
# Shear Modulus (GPa) = 3.39820 32.58029 17.98925
#
# Velocity S-wave (km/s) = 1.18040 3.65495 2.71588
# Velocity P-wave (km/s) = 4.42912 7.05502 5.89026
#
# Compressibility (1/GPa) = 0.02308786
#
# Stress axis : x y z
#
# Youngs Moduli (GPa) = 196.13161 43.17491 105.83425
#
# Poissons Ratio (x) = 0.03658 0.30693
# Poissons Ratio (y) = 0.16617 0.37712
# Poissons Ratio (z) = 0.56879 0.15384
#
# Static dielectric constant tensor:
#      x y z
#    x 1.975880 0.000000 -0.067350 
#    y 0.000000 1.993200 0.000000 
#    z -0.067350 0.000000 2.063600 
# 
# From -- ./inp_files/41687.got.cif
#   From: 2010.05.17/outbox.cif.g08.bks.cpg/sg13_21_cif.got.tgz:41687.got - 2010.06.03 16:44:36.
