data_PCOD9232030
_publ_section_title
;
Structure prediction by ZEFSAII (Michael W. Deem and Ramdas Pophale) SiO2 
 PCOD9232030
Probable space group: P 2/C
;
_chemical_formula_sum "Si O2"
_cell_formula_units_Z 28
_cell_length_a 19.545731
_cell_length_b 4.615861
_cell_length_c 21.837290
_cell_angle_alpha 90.000000
_cell_angle_beta 29.173284
_cell_angle_gamma 90.000000
_cell_volume 960.363737
_symmetry_space_group_name_H-M "P 2/C"
_symmetry_group_IT_number 13
_symmetry_cell_setting 'monoclinic'
loop_
_space_group_symop_operation_xyz
x,y,z
-x,y,1/2-z
-x,-y,-z
x,-y,1/2+z
loop_
_atom_site_type_symbol
_atom_site_label
_atom_site_fract_x
_atom_site_fract_y
_atom_site_fract_z
Si Si1 0.889786 0.905948 0.008653
Si Si2 0.000000 0.424426 0.750000
Si Si3 0.500000 0.502325 0.250000
Si Si4 0.743625 0.918801 0.510047
Si Si5 0.867493 0.358919 0.730455
Si Si6 0.894692 0.695150 0.587718
Si Si7 0.479557 0.769923 0.388031
Si Si8 0.441869 0.742195 0.999391
O O1 0.808263 0.861005 0.009594
O O2 0.018940 0.115128 0.879792
O O3 0.789127 0.117185 0.128573
O O4 0.922871 0.589824 0.019489
O O5 0.872308 0.243585 0.877992
O O6 0.928031 0.534524 0.741891
O O7 0.369936 0.297878 0.371244
O O8 0.549038 0.710437 0.267856
O O9 0.667644 0.098933 0.517381
O O10 0.521562 0.032846 0.914518
O O11 0.720966 0.207666 0.858832
O O12 0.834310 0.571939 0.697997
O O13 0.000000 0.000000 0.500000
O O14 0.454280 0.446840 0.428902
O O15 0.500000 0.500000 0.000000
#
# Coordination Sequence:
#
# PCOD9232030 Si02
#       8
#     4   2   2   4   4   4   4   4
#     4   9  21  40  67 102 145 192 253 311 389 459
#     4  10  20  44  74 108 148 188 258 316 388 456
#     4  12  26  50  78 112 162 200 270 330 396 476
#     4  11  24  46  76 116 148 205 255 330 393 469
#     4  10  21  39  69  99 145 189 250 310 389 451
#     4   9  19  38  61  97 144 187 240 301 370 458
#     4  12  26  51  78 108 155 196 264 323 386 468
#     4  12  28  49  76 112 152 205 259 319 393 477
#
# _framework density 29.155618
#
# number of rings (size 3 to 8) (size 9 to 14) (size 15 to 20)
#    0.000    1.429    2.857    0.857    2.000    5.714 
#    0.000    5.714    0.000    0.000    0.000    0.000 
#    0.000    0.000    0.000    0.000    0.000    0.000 
#
# Total GULP energy -155894.081051 kJ/mol
# GULP energy per Si atom -5567.645752 kJ/mol
# Density = 2.908926 g / cm^3
# Si number density = 29.155618 Si / 1000 Ang^3
#
#
#
# Elastic Constant Matrix: (Units=GPa)
#
#
# Indices 1 2 3 4 5 6 
#
# 1 164.8957 48.4042 19.1640 0.0000 23.8340 0.0000
# 2 48.4042 157.8018 37.5638 0.0000 7.6592 0.0000
# 3 19.1640 37.5638 152.0028 0.0000 12.5620 0.0000
# 4 0.0000 0.0000 0.0000-1077.8702 0.0000 -750.4557
# 5 23.8340 7.6592 12.5620 0.0000 38.3119 0.0000
# 6 0.0000 0.0000 0.0000 -750.4557 0.0000 -446.8750
#
#
#
# Elastic Compliance Matrix: (Units=1/GPa)
#
#
# Indices 1 2 3 4 5 6 
#
# 1 0.007253 -0.002007 -0.000081 0.000000 -0.004085 0.000000
# 2 -0.002007 0.007314 -0.001580 0.000000 0.000305 0.000000
# 3 -0.000081 -0.001580 0.007143 0.000000 -0.001976 0.000000
# 4 0.000000 0.000000 0.000000 0.005482 0.000000 -0.009207
# 5 -0.004085 0.000305 -0.001976 0.000000 0.029230 0.000000
# 6 0.000000 0.000000 0.000000 -0.009207 0.000000 0.013224
#
#
# Mechanical properties :
#
#
# Convention : Reuss Voigt Hill
#
# Bulk Modulus (GPa) = 69.56756 76.10713 72.83734
# Shear Modulus (GPa) = 61.14476 -272.64878 -105.75201
#
# Velocity S-wave (km/s) = 4.58447 -9.68081 -6.02912
# Velocity P-wave (km/s) = 7.20665 9.93966 4.84051
#
# Compressibility (1/GPa) = 0.01437452
#
# Stress axis : x y z
#
# Youngs Moduli (GPa) = 137.86452 136.72310 140.00369
#
# Poissons Ratio (x) = 0.27446 0.01132
# Poissons Ratio (y) = 0.27676 0.22115
# Poissons Ratio (z) = 0.01114 0.21596
#
# Static dielectric constant tensor:
#      x y z
#    x 3.196500 0.000000 -0.116260 
#    y 0.000000 2.279590 0.000000 
#    z -0.116260 0.000000 2.304410 
# 
# From -- ./inp_files/80862.got.cif
#   From: 2010.05.17/outbox.cif.g08.bks.cpg/sg13_41_cif.got.tgz:80862.got - 2010.06.03 16:44:36.
