data_PCOD9232158
_publ_section_title
;
Structure prediction by ZEFSAII (Michael W. Deem and Ramdas Pophale) SiO2 
 PCOD9232158
Probable space group: P 2/C
;
_chemical_formula_sum "Si O2"
_cell_formula_units_Z 32
_cell_length_a 14.089936
_cell_length_b 6.048570
_cell_length_c 31.583864
_cell_angle_alpha 90.000000
_cell_angle_beta 37.183264
_cell_angle_gamma 90.000000
_cell_volume 1626.774369
_symmetry_space_group_name_H-M "P 2/C"
_symmetry_group_IT_number 13
_symmetry_cell_setting 'monoclinic'
loop_
_space_group_symop_operation_xyz
x,y,z
-x,y,1/2-z
-x,-y,-z
x,-y,1/2+z
loop_
_atom_site_type_symbol
_atom_site_label
_atom_site_fract_x
_atom_site_fract_y
_atom_site_fract_z
Si Si1 0.983750 0.203177 0.880302
Si Si2 0.590975 0.192285 0.840713
Si Si3 0.791492 0.748617 0.574396
Si Si4 0.264667 0.949585 0.485086
Si Si5 0.477328 0.482649 0.211587
Si Si6 0.092911 0.553033 0.260228
Si Si7 0.212392 0.174266 0.275523
Si Si8 0.037997 0.415029 0.048889
O O1 0.002113 0.292557 0.826314
O O2 0.033328 0.397260 0.895245
O O3 0.102425 0.995633 0.839845
O O4 0.809996 0.128286 0.956418
O O5 0.526486 0.337895 0.824353
O O6 0.734449 0.337805 0.808329
O O7 0.668663 0.974905 0.793603
O O8 0.446625 0.115657 0.921087
O O9 0.621641 0.681518 0.651546
O O10 0.914637 0.744982 0.569150
O O11 0.860421 0.548540 0.521663
O O12 0.774743 0.955191 0.548345
O O13 0.162988 0.731684 0.529151
O O14 0.500000 0.583177 0.250000
O O15 0.318211 0.340550 0.265214
O O16 0.115823 0.322820 0.276783
O O17 0.000000 0.530965 0.250000
#
# Coordination Sequence:
#
# PCOD9232158 Si02
#       8
#     4   4   4   4   4   4   4   4
#     4  10  23  38  65  90 123 160 208 255 313 361
#     4  10  22  41  63  91 122 163 202 257 314 361
#     4  10  21  35  53  86 124 171 215 248 290 344
#     4  11  20  39  62  88 126 170 208 251 304 362
#     4  11  23  36  55  86 131 167 214 252 298 354
#     4  10  23  44  68  91 119 152 199 257 323 386
#     4  10  22  42  59  89 119 165 205 253 314 365
#     4  10  21  37  56  84 128 167 213 255 291 351
#
# _framework density 19.670828
#
# number of rings (size 3 to 8) (size 9 to 14) (size 15 to 20)
#    0.000    1.750    2.500    1.125    7.000    2.500 
#    0.000    0.625    0.000    3.750    0.000    0.000 
#    0.000    0.000    0.000    0.000    0.000    0.000 
#
# Total GULP energy -178595.942148 kJ/mol
# GULP energy per Si atom -5581.123192 kJ/mol
# Density = 1.962606 g / cm^3
# Si number density = 19.670828 Si / 1000 Ang^3
#
#
#
# Elastic Constant Matrix: (Units=GPa)
#
#
# Indices 1 2 3 4 5 6 
#
# 1 85.2474 13.4943 36.4777 0.0000 -4.0594 0.0000
# 2 13.4943 64.0339 30.7283 0.0000 -10.6187 0.0000
# 3 36.4777 30.7283 121.8624 0.0000 -18.8237 0.0000
# 4 0.0000 0.0000 0.0000 37.9197 0.0000 -4.4687
# 5 -4.0594 -10.6187 -18.8237 0.0000 22.3788 0.0000
# 6 0.0000 0.0000 0.0000 -4.4687 0.0000 13.4185
#
#
#
# Elastic Compliance Matrix: (Units=1/GPa)
#
#
# Indices 1 2 3 4 5 6 
#
# 1 0.013553 -0.001186 -0.003982 0.000000 -0.001454 0.000000
# 2 -0.001186 0.018448 -0.003422 0.000000 0.005659 0.000000
# 3 -0.003982 -0.003422 0.011377 0.000000 0.007223 0.000000
# 4 0.000000 0.000000 0.000000 0.027449 0.000000 0.009141
# 5 -0.001454 0.005659 0.007223 0.000000 0.053182 0.000000
# 6 0.000000 0.000000 0.000000 0.009141 0.000000 0.077569
#
#
# Mechanical properties :
#
#
# Convention : Reuss Voigt Hill
#
# Bulk Modulus (GPa) = 38.17471 48.06051 43.11761
# Shear Modulus (GPa) = 21.97889 27.43963 24.70926
#
# Velocity S-wave (km/s) = 3.34628 3.73894 3.54805
# Velocity P-wave (km/s) = 5.86336 6.56696 6.22511
#
# Compressibility (1/GPa) = 0.02619535
#
# Stress axis : x y z
#
# Youngs Moduli (GPa) = 73.78328 54.20784 87.89841
#
# Poissons Ratio (x) = 0.06430 0.35005
# Poissons Ratio (y) = 0.08752 0.30082
# Poissons Ratio (z) = 0.29384 0.18552
#
# Static dielectric constant tensor:
#      x y z
#    x 1.663230 0.000000 -0.009580 
#    y 0.000000 1.695880 0.000000 
#    z -0.009580 0.000000 1.720680 
# 
# From -- ./inp_files/96855.got.cif
#   From: 2010.05.17/outbox.cif.g08.bks.cpg/sg13_49_cif.got.tgz:96855.got - 2010.06.03 16:44:36.
