data_PCOD9232395
_publ_section_title
;
Structure prediction by ZEFSAII (Michael W. Deem and Ramdas Pophale) SiO2 
 PCOD9232395
Probable space group: P 2/C
;
_chemical_formula_sum "Si O2"
_cell_formula_units_Z 26
_cell_length_a 14.488436
_cell_length_b 8.857591
_cell_length_c 15.158118
_cell_angle_alpha 90.000000
_cell_angle_beta 40.669026
_cell_angle_gamma 90.000000
_cell_volume 1267.717383
_symmetry_space_group_name_H-M "P 2/C"
_symmetry_group_IT_number 13
_symmetry_cell_setting 'monoclinic'
loop_
_space_group_symop_operation_xyz
x,y,z
-x,y,1/2-z
-x,-y,-z
x,-y,1/2+z
loop_
_atom_site_type_symbol
_atom_site_label
_atom_site_fract_x
_atom_site_fract_y
_atom_site_fract_z
Si Si1 0.008811 0.321636 0.972968
Si Si2 0.458503 0.531861 0.374428
Si Si3 0.223960 0.789262 0.194432
Si Si4 0.553209 0.287864 0.438423
Si Si5 0.837145 0.610518 0.435361
Si Si6 0.000000 0.665638 0.750000
Si Si7 0.840354 0.133943 0.236536
O O1 0.952583 0.204019 0.086004
O O2 0.902789 0.297355 0.967282
O O3 0.000000 0.500000 0.000000
O O4 0.167868 0.288933 0.824434
O O5 0.500000 0.604230 0.250000
O O6 0.558070 0.416442 0.358395
O O7 0.419229 0.642838 0.483704
O O8 0.326615 0.430509 0.438577
O O9 0.393717 0.778913 0.059074
O O10 0.156263 0.695929 0.162763
O O11 0.161934 0.957060 0.243610
O O12 0.680155 0.175207 0.325970
O O13 0.920140 0.451405 0.371608
O O14 0.116098 0.771762 0.709104
#
# Coordination Sequence:
#
# PCOD9232395 Si02
#       7
#     4   4   4   4   4   2   4
#     4  12  24  40  68  96 128 168 220 269 314 384
#     4  10  21  36  65  96 123 165 219 270 315 379
#     4  11  25  43  65  93 135 171 209 270 330 385
#     4  10  23  41  65  91 131 171 215 261 326 386
#     4  11  21  41  63  93 127 167 214 266 322 374
#     4  12  22  38  66  88 124 168 208 260 316 378
#     4  12  25  43  64  97 131 171 214 265 328 385
#
# _framework density 20.509302999999999
#
# number of rings (size 3 to 8) (size 9 to 14) (size 15 to 20)
#    0.000    0.923    4.615    1.846    8.615    0.000 
#    0.000    0.000    0.000    1.846    0.000    0.000 
#    0.000    0.000    0.000    0.000    0.000    0.000 
#
# Total GULP energy -144954.056229 kJ/mol
# GULP energy per Si atom -5575.156009 kJ/mol
# Density = 2.046262 g / cm^3
# Si number density = 20.509303 Si / 1000 Ang^3
#
#
#
# Elastic Constant Matrix: (Units=GPa)
#
#
# Indices 1 2 3 4 5 6 
#
# 1 68.0260 5.1460 19.4429 0.0000 -0.5441 0.0000
# 2 5.1460 96.9026 16.5982 0.0000 2.9308 0.0000
# 3 19.4429 16.5982 61.3084 0.0000 5.3252 0.0000
# 4 0.0000 0.0000 0.0000 -26.7112 0.0000 -10.0420
# 5 -0.5441 2.9308 5.3252 0.0000 35.9869 0.0000
# 6 0.0000 0.0000 0.0000 -10.0420 0.0000 23.8234
#
#
#
# Elastic Compliance Matrix: (Units=1/GPa)
#
#
# Indices 1 2 3 4 5 6 
#
# 1 0.016202 0.000004 -0.005228 0.000000 0.001018 0.000000
# 2 0.000004 0.010829 -0.002894 0.000000 -0.000454 0.000000
# 3 -0.005228 -0.002894 0.018983 0.000000 -0.002652 0.000000
# 4 0.000000 0.000000 0.000000 -0.032316 0.000000 -0.013622
# 5 0.001018 -0.000454 -0.002652 0.000000 0.028233 0.000000
# 6 0.000000 0.000000 0.000000 -0.013622 0.000000 0.036234
#
#
# Mechanical properties :
#
#
# Convention : Reuss Voigt Hill
#
# Bulk Modulus (GPa) = 33.58044 34.29012 33.93528
# Shear Modulus (GPa) = 47.92726 18.95647 33.44186
#
# Velocity S-wave (km/s) = 4.83935 3.04351 4.04241
# Velocity P-wave (km/s) = 6.90178 5.39501 6.19438
#
# Compressibility (1/GPa) = 0.02977924
#
# Stress axis : x y z
#
# Youngs Moduli (GPa) = 61.71965 92.34649 52.67955
#
# Poissons Ratio (x) = -0.00039 0.27540
# Poissons Ratio (y) = -0.00026 0.15244
# Poissons Ratio (z) = 0.32266 0.26722
#
# Static dielectric constant tensor:
#      x y z
#    x 1.728780 0.000000 0.003230 
#    y 0.000000 1.719090 0.000000 
#    z 0.003230 0.000000 1.823760 
# 
# From -- ./inp_files/53298.got.cif
#   From: 2010.05.17/outbox.cif.g08.bks.cpg/sg13_27_cif.got.tgz:53298.got - 2010.06.03 16:44:36.
