data_PCOD9232027
_publ_section_title
;
Structure prediction by ZEFSAII (Michael W. Deem and Ramdas Pophale) SiO2 
 PCOD9232027
Probable space group: P 2/C
;
_chemical_formula_sum "Si O2"
_cell_formula_units_Z 16
_cell_length_a 8.622278
_cell_length_b 8.938844
_cell_length_c 10.622834
_cell_angle_alpha 90.000000
_cell_angle_beta 118.402309
_cell_angle_gamma 90.000000
_cell_volume 720.184074
_symmetry_space_group_name_H-M "P 2/C"
_symmetry_group_IT_number 13
_symmetry_cell_setting 'monoclinic'
loop_
_space_group_symop_operation_xyz
x,y,z
-x,y,1/2-z
-x,-y,-z
x,-y,1/2+z
loop_
_atom_site_type_symbol
_atom_site_label
_atom_site_fract_x
_atom_site_fract_y
_atom_site_fract_z
Si Si1 0.812043 0.065493 0.462572
Si Si2 0.293628 0.376255 0.812913
Si Si3 0.500000 0.854676 0.250000
Si Si4 0.190501 0.583189 0.560128
Si Si5 0.000000 0.833928 0.250000
O O1 0.804600 0.237765 0.416571
O O2 0.844400 0.074029 0.625278
O O3 0.657229 0.962062 0.355151
O O4 0.000000 0.000000 0.500000
O O5 0.446899 0.257342 0.843232
O O6 0.301428 0.507204 0.714505
O O7 0.115160 0.280490 0.711907
O O8 0.268005 0.431282 0.946942
O O9 0.000000 0.500000 0.500000
#
# Coordination Sequence:
#
# PCOD9232027 Si02
#       5
#     4   4   2   4   2
#     4  11  23  45  70 106 147 195 243 304 378 437
#     4  11  23  44  72 106 147 189 246 308 365 438
#     4  12  26  46  72 112 152 190 248 316 364 442
#     4  11  21  44  73 104 144 197 245 300 370 446
#     4  10  20  44  72  98 148 184 246 296 368 438
#
# _framework density 22.216542
#
# number of rings (size 3 to 8) (size 9 to 14) (size 15 to 20)
#    0.000    1.000    7.500    0.000    0.000    6.000 
#    9.000    0.000    0.000    0.000    0.000    0.000 
#    0.000    0.000    0.000    0.000    0.000    0.000 
#
# Total GULP energy -89139.180906 kJ/mol
# GULP energy per Si atom -5571.198807 kJ/mol
# Density = 2.216598 g / cm^3
# Si number density = 22.216542 Si / 1000 Ang^3
#
#
#
# Elastic Constant Matrix: (Units=GPa)
#
#
# Indices 1 2 3 4 5 6 
#
# 1 133.3306 81.2161 64.3831 0.0000 -12.5310 0.0000
# 2 81.2161 173.8272 95.9316 0.0000 -7.5282 0.0000
# 3 64.3831 95.9316 121.8527 0.0000 -14.0903 0.0000
# 4 0.0000 0.0000 0.0000 29.1027 0.0000 -5.9008
# 5 -12.5310 -7.5282 -14.0903 0.0000 40.6908 0.0000
# 6 0.0000 0.0000 0.0000 -5.9008 0.0000 45.6947
#
#
#
# Elastic Compliance Matrix: (Units=1/GPa)
#
#
# Indices 1 2 3 4 5 6 
#
# 1 0.011255 -0.003560 -0.002937 0.000000 0.001790 0.000000
# 2 -0.003560 0.011333 -0.007214 0.000000 -0.001498 0.000000
# 3 -0.002937 -0.007214 0.015812 0.000000 0.003236 0.000000
# 4 0.000000 0.000000 0.000000 0.035285 0.000000 0.004557
# 5 0.001790 -0.001498 0.003236 0.000000 0.025970 0.000000
# 6 0.000000 0.000000 0.000000 0.004557 0.000000 0.022473
#
#
# Mechanical properties :
#
#
# Convention : Reuss Voigt Hill
#
# Bulk Modulus (GPa) = 91.09537 101.34136 96.21836
# Shear Modulus (GPa) = 32.63494 35.59629 34.11562
#
# Velocity S-wave (km/s) = 3.83684 4.00715 3.92292
# Velocity P-wave (km/s) = 7.79236 8.19292 7.99515
#
# Compressibility (1/GPa) = 0.01097751
#
# Stress axis : x y z
#
# Youngs Moduli (GPa) = 88.84641 88.24018 63.24311
#
# Poissons Ratio (x) = 0.31417 0.18574
# Poissons Ratio (y) = 0.31633 0.45623
# Poissons Ratio (z) = 0.26094 0.63656
#
# Static dielectric constant tensor:
#      x y z
#    x 0.076590 0.000000 2.281270 
#    y 0.000000 1.926960 0.000000 
#    z 2.281270 0.000000 -1.035930 
# 
# From -- ./inp_files/28409.got.cif
#   From: 2010.05.17/outbox.cif.g08.bks.cpg/sg13_15_cif.got.tgz:28409.got - 2010.06.03 16:44:36.
