data_PCOD9232265
_publ_section_title
;
Structure prediction by ZEFSAII (Michael W. Deem and Ramdas Pophale) SiO2 
 PCOD9232265
Probable space group: P 2/C
;
_chemical_formula_sum "Si O2"
_cell_formula_units_Z 20
_cell_length_a 5.396417
_cell_length_b 10.380932
_cell_length_c 19.375876
_cell_angle_alpha 90.000000
_cell_angle_beta 48.760054
_cell_angle_gamma 90.000000
_cell_volume 816.197634
_symmetry_space_group_name_H-M "P 2/C"
_symmetry_group_IT_number 13
_symmetry_cell_setting 'monoclinic'
loop_
_space_group_symop_operation_xyz
x,y,z
-x,y,1/2-z
-x,-y,-z
x,-y,1/2+z
loop_
_atom_site_type_symbol
_atom_site_label
_atom_site_fract_x
_atom_site_fract_y
_atom_site_fract_z
Si Si1 0.851076 0.047696 0.344278
Si Si2 0.744961 0.017200 0.107914
Si Si3 0.646398 0.758463 0.543717
Si Si4 0.262563 0.655867 0.356244
Si Si5 0.237726 0.494151 0.144058
O O1 0.593157 0.952580 0.354933
O O2 0.621319 0.137545 0.434680
O O3 0.000000 0.118174 0.250000
O O4 0.124413 0.988837 0.341580
O O5 0.688509 0.173879 0.111347
O O6 0.000000 0.000000 0.000000
O O7 0.464253 0.622981 0.577646
O O8 0.993922 0.748733 0.441323
O O9 0.500000 0.700956 0.250000
O O10 0.506511 0.597484 0.369666
O O11 0.014238 0.550529 0.366597
O O12 0.000000 0.450987 0.250000
#
# Coordination Sequence:
#
# PCOD9232265 Si02
#       5
#     4   4   4   4   4
#     4  10  22  39  63  92 119 155 197 256 301 359
#     4  10  23  40  63  87 127 153 202 253 311 362
#     4  10  23  34  66  81 126 153 207 238 316 350
#     4  10  22  37  54  84 123 161 203 246 294 362
#     4  10  21  36  55  86 119 155 204 250 295 359
#
# _framework density 24.503869000000002
#
# number of rings (size 3 to 8) (size 9 to 14) (size 15 to 20)
#    1.200    0.800    0.000    3.000    5.600    0.000 
#    3.600    2.000    0.000    1.200    0.000    0.000 
#    0.000    0.000    0.000    0.000    0.000    0.000 
#
# Total GULP energy -111426.322760 kJ/mol
# GULP energy per Si atom -5571.316138 kJ/mol
# Density = 2.444810 g / cm^3
# Si number density = 24.503869 Si / 1000 Ang^3
#
#
#
# Elastic Constant Matrix: (Units=GPa)
#
#
# Indices 1 2 3 4 5 6 
#
# 1 169.3499 8.0305 38.3842 0.0000 -21.2695 0.0000
# 2 8.0305 59.3644 30.2733 0.0000 -6.1595 0.0000
# 3 38.3842 30.2733 149.7685 0.0000 -30.6313 0.0000
# 4 0.0000 0.0000 0.0000 33.8133 0.0000 -7.6539
# 5 -21.2695 -6.1595 -30.6313 0.0000 35.9390 0.0000
# 6 0.0000 0.0000 0.0000 -7.6539 0.0000 3.5528
#
#
#
# Elastic Compliance Matrix: (Units=1/GPa)
#
#
# Indices 1 2 3 4 5 6 
#
# 1 0.006517 -0.000035 -0.001060 0.000000 0.002947 0.000000
# 2 -0.000035 0.018781 -0.003795 0.000000 -0.000036 0.000000
# 3 -0.001060 -0.003795 0.009028 0.000000 0.006417 0.000000
# 4 0.000000 0.000000 0.000000 0.057722 0.000000 0.124353
# 5 0.002947 -0.000036 0.006417 0.000000 0.035032 0.000000
# 6 0.000000 0.000000 0.000000 0.124353 0.000000 0.549365
#
#
# Mechanical properties :
#
#
# Convention : Reuss Voigt Hill
#
# Bulk Modulus (GPa) = 40.73964 59.09542 49.91753
# Shear Modulus (GPa) = 7.20037 34.78069 20.99053
#
# Velocity S-wave (km/s) = 1.71605 3.77157 2.92998
# Velocity P-wave (km/s) = 4.53744 6.56776 5.64464
#
# Compressibility (1/GPa) = 0.02454612
#
# Stress axis : x y z
#
# Youngs Moduli (GPa) = 153.44270 53.24461 110.76396
#
# Poissons Ratio (x) = 0.00187 0.11746
# Poissons Ratio (y) = 0.00538 0.42032
# Poissons Ratio (z) = 0.16271 0.20205
#
# Static dielectric constant tensor:
#      x y z
#    x 2.053480 0.000000 -0.080480 
#    y 0.000000 2.011570 0.000000 
#    z -0.080480 0.000000 1.976660 
# 
# From -- ./inp_files/53895.got.cif
#   From: 2010.05.17/outbox.cif.g08.bks.cpg/sg13_27_cif.got.tgz:53895.got - 2010.06.03 16:44:36.
