data_PCOD9232364
_publ_section_title
;
Structure prediction by ZEFSAII (Michael W. Deem and Ramdas Pophale) SiO2 
 PCOD9232364
Probable space group: P 2/C
;
_chemical_formula_sum "Si O2"
_cell_formula_units_Z 24
_cell_length_a 8.342312
_cell_length_b 7.102725
_cell_length_c 19.519540
_cell_angle_alpha 90.000000
_cell_angle_beta 47.308111
_cell_angle_gamma 90.000000
_cell_volume 850.108980
_symmetry_space_group_name_H-M "P 2/C"
_symmetry_group_IT_number 13
_symmetry_cell_setting 'monoclinic'
loop_
_space_group_symop_operation_xyz
x,y,z
-x,y,1/2-z
-x,-y,-z
x,-y,1/2+z
loop_
_atom_site_type_symbol
_atom_site_label
_atom_site_fract_x
_atom_site_fract_y
_atom_site_fract_z
Si Si1 0.766987 0.041630 0.607814
Si Si2 0.681931 0.488739 0.614547
Si Si3 0.746285 0.438662 0.450537
Si Si4 0.696017 0.001028 0.493153
Si Si5 0.090633 0.074885 0.794576
Si Si6 0.192620 0.496947 0.769759
O O1 0.704360 0.262362 0.623946
O O2 0.619811 0.950920 0.591550
O O3 0.768137 0.977389 0.686095
O O4 0.000000 0.000000 0.500000
O O5 0.796003 0.536349 0.509806
O O6 0.431858 0.551421 0.673952
O O7 0.774001 0.559240 0.659690
O O8 0.500000 0.500000 0.500000
O O9 0.761748 0.219953 0.467379
O O10 0.932676 0.459905 0.338735
O O11 0.500000 0.000000 0.500000
O O12 0.880211 0.879556 0.402835
O O13 0.198485 0.274179 0.749061
O O14 0.000000 0.987850 0.750000
#
# Coordination Sequence:
#
# PCOD9232364 Si02
#       6
#     4   4   4   4   4   4
#     4   8  17  36  61  89 121 161 210 260 319 392
#     4   9  20  38  62  90 123 169 215 258 325 386
#     4  11  23  38  62  91 125 168 211 265 326 388
#     4  10  21  39  61  87 122 163 212 261 321 386
#     4  10  21  36  61  92 120 158 204 265 326 379
#     4  10  21  38  64  91 123 166 215 263 320 398
#
# _framework density 28.231674999999999
#
# number of rings (size 3 to 8) (size 9 to 14) (size 15 to 20)
#    0.000    2.333    0.000    1.500    7.000    0.000 
#    3.000    1.667    0.000   16.000    0.000    0.000 
#    0.000    0.000    0.000    0.000    0.000    0.000 
#
# Total GULP energy -133779.105022 kJ/mol
# GULP energy per Si atom -5574.129376 kJ/mol
# Density = 2.816742 g / cm^3
# Si number density = 28.231675 Si / 1000 Ang^3
#
#
#
# Elastic Constant Matrix: (Units=GPa)
#
#
# Indices 1 2 3 4 5 6 
#
# 1 134.9586 5.8751 47.0971 0.0000 21.0568 0.0000
# 2 5.8751 116.3513 21.5272 0.0000 -9.7899 0.0000
# 3 47.0971 21.5272 169.5934 0.0000 11.9592 0.0000
# 4 0.0000 0.0000 0.0000 32.8097 0.0000 -5.2588
# 5 21.0568 -9.7899 11.9592 0.0000 81.2307 0.0000
# 6 0.0000 0.0000 0.0000 -5.2588 0.0000 18.1635
#
#
#
# Elastic Compliance Matrix: (Units=1/GPa)
#
#
# Indices 1 2 3 4 5 6 
#
# 1 0.008481 -0.000181 -0.002198 0.000000 -0.001897 0.000000
# 2 -0.000181 0.008930 -0.001175 0.000000 0.001296 0.000000
# 3 -0.002198 -0.001175 0.006695 0.000000 -0.000557 0.000000
# 4 0.000000 0.000000 0.000000 0.031962 0.000000 0.009254
# 5 -0.001897 0.001296 -0.000557 0.000000 0.013041 0.000000
# 6 0.000000 0.000000 0.000000 0.009254 0.000000 0.057735
#
#
# Mechanical properties :
#
#
# Convention : Reuss Voigt Hill
#
# Bulk Modulus (GPa) = 58.83054 63.32244 61.07649
# Shear Modulus (GPa) = 35.81211 49.53438 42.67325
#
# Velocity S-wave (km/s) = 3.56548 4.19330 3.89207
# Velocity P-wave (km/s) = 6.15093 6.77667 6.47137
#
# Compressibility (1/GPa) = 0.01699797
#
# Stress axis : x y z
#
# Youngs Moduli (GPa) = 117.91545 111.97962 149.35668
#
# Poissons Ratio (x) = 0.02027 0.32835
# Poissons Ratio (y) = 0.02135 0.17544
# Poissons Ratio (z) = 0.25923 0.13154
#
# Static dielectric constant tensor:
#      x y z
#    x 2.772390 0.000000 -0.092550 
#    y 0.000000 1.985330 0.000000 
#    z -0.092550 0.000000 2.273240 
# 
# From -- ./inp_files/75605.got.cif
#   From: 2010.05.17/outbox.cif.g08.bks.cpg/sg13_38_cif.got.tgz:75605.got - 2010.06.03 16:44:36.
