data_PCOD9232662
_publ_section_title
;
Structure prediction by ZEFSAII (Michael W. Deem and Ramdas Pophale) SiO2 
 PCOD9232662
Probable space group: P 2/C
;
_chemical_formula_sum "Si O2"
_cell_formula_units_Z 20
_cell_length_a 8.573441
_cell_length_b 7.457906
_cell_length_c 16.768763
_cell_angle_alpha 90.000000
_cell_angle_beta 41.467156
_cell_angle_gamma 90.000000
_cell_volume 709.996347
_symmetry_space_group_name_H-M "P 2/C"
_symmetry_group_IT_number 13
_symmetry_cell_setting 'monoclinic'
loop_
_space_group_symop_operation_xyz
x,y,z
-x,y,1/2-z
-x,-y,-z
x,-y,1/2+z
loop_
_atom_site_type_symbol
_atom_site_label
_atom_site_fract_x
_atom_site_fract_y
_atom_site_fract_z
Si Si1 0.858754 0.238084 0.901979
Si Si2 0.551826 0.149435 0.324909
Si Si3 0.170153 0.338506 0.914508
Si Si4 0.456550 0.730691 0.115474
Si Si5 0.930470 0.172416 0.391200
O O1 0.653732 0.246511 0.047571
O O2 0.755253 0.319761 0.861243
O O3 0.103066 0.297443 0.849462
O O4 0.892381 0.026780 0.875367
O O5 0.500000 0.143556 0.250000
O O6 0.560239 0.942702 0.353336
O O7 0.812841 0.233275 0.234127
O O8 0.428808 0.367392 0.852130
O O9 0.076473 0.178903 0.008749
O O10 0.000000 0.500000 0.000000
O O11 0.691116 0.720612 0.966955
#
# Coordination Sequence:
#
# PCOD9232662 Si02
#       5
#     4   4   4   4   4
#     4  11  20  37  59  86 117 148 197 245 294 340
#     4  11  17  32  62  88 113 145 190 247 287 341
#     4  10  21  38  57  81 119 156 192 235 290 359
#     4   9  22  35  56  92 112 149 196 241 300 340
#     4   9  19  35  57  88 111 148 193 237 290 339
#
# _framework density 28.169160999999999
#
# number of rings (size 3 to 8) (size 9 to 14) (size 15 to 20)
#    1.200    0.800    2.000    4.200    0.000    4.000 
#    0.000    0.000   13.200    0.000   10.400    0.000 
#    0.000    0.000    0.000    0.000    0.000    0.000 
#
# Total GULP energy -111792.177939 kJ/mol
# GULP energy per Si atom -5589.608897 kJ/mol
# Density = 2.810505 g / cm^3
# Si number density = 28.169161 Si / 1000 Ang^3
#
#
#
# Elastic Constant Matrix: (Units=GPa)
#
#
# Indices 1 2 3 4 5 6 
#
# 1 303.0902 46.9200 95.3868 0.0000 -20.7865 0.0000
# 2 46.9200 63.9660 -2.4211 0.0000 4.5990 0.0000
# 3 95.3868 -2.4211 148.0443 0.0000 -21.7707 0.0000
# 4 0.0000 0.0000 0.0000 21.1071 0.0000 -5.6077
# 5 -20.7865 4.5990 -21.7707 0.0000 83.7346 0.0000
# 6 0.0000 0.0000 0.0000 -5.6077 0.0000 -1.5816
#
#
#
# Elastic Compliance Matrix: (Units=1/GPa)
#
#
# Indices 1 2 3 4 5 6 
#
# 1 0.004911 -0.003765 -0.003136 0.000000 0.000611 0.000000
# 2 -0.003765 0.018584 0.002539 0.000000 -0.001295 0.000000
# 3 -0.003136 0.002539 0.009027 0.000000 0.001429 0.000000
# 4 0.000000 0.000000 0.000000 0.024397 0.000000 -0.086499
# 5 0.000611 -0.001295 0.001429 0.000000 0.012537 0.000000
# 6 0.000000 0.000000 0.000000 -0.086499 0.000000 -0.325579
#
#
# Mechanical properties :
#
#
# Convention : Reuss Voigt Hill
#
# Bulk Modulus (GPa) = 42.01894 88.31910 65.16902
# Shear Modulus (GPa) = -20.87964 45.66633 12.39335
#
# Velocity S-wave (km/s) = -2.72550 4.03071 2.09980
# Velocity P-wave (km/s) = 2.24602 7.28584 5.39110
#
# Compressibility (1/GPa) = 0.02379879
#
# Stress axis : x y z
#
# Youngs Moduli (GPa) = 203.62505 53.80937 110.77911
#
# Poissons Ratio (x) = 0.20259 0.34740
# Poissons Ratio (y) = 0.76662 -0.28129
# Poissons Ratio (z) = 0.63857 -0.13663
#
# Static dielectric constant tensor:
#      x y z
#    x 2.290990 0.000000 0.033730 
#    y 0.000000 2.114610 0.000000 
#    z 0.033730 0.000000 2.335830 
# 
# From -- ./inp_files/75525.got.cif
#   From: 2010.05.17/outbox.cif.g08.bks.cpg/sg13_38_cif.got.tgz:75525.got - 2010.06.03 16:44:36.
