data_PCOD9232628
_publ_section_title
;
Structure prediction by ZEFSAII (Michael W. Deem and Ramdas Pophale) SiO2 
 PCOD9232628
Probable space group: P 2/C
;
_chemical_formula_sum "Si O2"
_cell_formula_units_Z 26
_cell_length_a 22.520389
_cell_length_b 7.303952
_cell_length_c 16.453616
_cell_angle_alpha 90.000000
_cell_angle_beta 24.347935
_cell_angle_gamma 90.000000
_cell_volume 1115.793851
_symmetry_space_group_name_H-M "P 2/C"
_symmetry_group_IT_number 13
_symmetry_cell_setting 'monoclinic'
loop_
_space_group_symop_operation_xyz
x,y,z
-x,y,1/2-z
-x,-y,-z
x,-y,1/2+z
loop_
_atom_site_type_symbol
_atom_site_label
_atom_site_fract_x
_atom_site_fract_y
_atom_site_fract_z
Si Si1 0.760720 0.982519 0.178969
Si Si2 0.150982 0.034048 0.263714
Si Si3 0.029176 0.758504 0.307137
Si Si4 0.722013 0.406513 0.730201
Si Si5 0.421781 0.266559 0.175108
Si Si6 0.500000 0.390047 0.250000
Si Si7 0.799110 0.541941 0.812920
O O1 0.734872 0.979003 0.308783
O O2 0.633955 0.072653 0.286099
O O3 0.803103 0.777029 0.100170
O O4 0.886050 0.131425 0.010050
O O5 0.164959 0.245446 0.226561
O O6 0.150369 0.906290 0.185168
O O7 0.000000 0.000000 0.500000
O O8 0.081086 0.580574 0.291266
O O9 0.000000 0.717673 0.250000
O O10 0.692770 0.571055 0.704553
O O11 0.787114 0.481910 0.733290
O O12 0.564739 0.324548 0.948247
O O13 0.454714 0.274584 0.228469
O O14 0.358916 0.505084 0.452101
#
# Coordination Sequence:
#
# PCOD9232628 Si02
#       7
#     4   4   4   4   4   2   4
#     4  11  21  39  65  95 124 169 220 265 323 380
#     4  10  23  40  65  98 128 169 224 270 325 386
#     4  11  25  41  63  97 134 170 215 270 336 394
#     4  10  21  37  66  93 124 167 219 271 308 387
#     4  10  21  40  61  94 127 166 217 262 328 380
#     4  10  24  42  66  96 132 178 206 270 342 402
#     4  11  22  44  66  93 136 171 220 270 333 395
#
# _framework density 23.301794000000001
#
# number of rings (size 3 to 8) (size 9 to 14) (size 15 to 20)
#    0.000    1.538    3.077    1.385    0.000    6.769 
#    0.000    1.538    0.000    0.000    0.000    0.000 
#    0.000    0.000    0.000    0.000    0.000    0.000 
#
# Total GULP energy -145305.766841 kJ/mol
# GULP energy per Si atom -5588.683340 kJ/mol
# Density = 2.324876 g / cm^3
# Si number density = 23.301794 Si / 1000 Ang^3
#
#
#
# Elastic Constant Matrix: (Units=GPa)
#
#
# Indices 1 2 3 4 5 6 
#
# 1 151.8018 37.5923 1.4264 0.0000 -3.7290 0.0000
# 2 37.5923 150.0433 12.1644 0.0000 -13.9488 0.0000
# 3 1.4264 12.1644 83.6412 0.0000 -8.9645 0.0000
# 4 0.0000 0.0000 0.0000 26.5042 0.0000 -6.3296
# 5 -3.7290 -13.9488 -8.9645 0.0000 8.2796 0.0000
# 6 0.0000 0.0000 0.0000 -6.3296 0.0000 19.4653
#
#
#
# Elastic Compliance Matrix: (Units=1/GPa)
#
#
# Indices 1 2 3 4 5 6 
#
# 1 0.007026 -0.001734 0.000179 0.000000 0.000437 0.000000
# 2 -0.001734 0.008338 0.000270 0.000000 0.013558 0.000000
# 3 0.000179 0.000270 0.013542 0.000000 0.015198 0.000000
# 4 0.000000 0.000000 0.000000 0.040907 0.000000 0.013302
# 5 0.000437 0.013558 0.015198 0.000000 0.160272 0.000000
# 6 0.000000 0.000000 0.000000 0.013302 0.000000 0.055699
#
#
# Mechanical properties :
#
#
# Convention : Reuss Voigt Hill
#
# Bulk Modulus (GPa) = 37.97029 54.20584 46.08807
# Shear Modulus (GPa) = 16.82751 33.13670 24.98210
#
# Velocity S-wave (km/s) = 2.69021 3.77512 3.27786
# Velocity P-wave (km/s) = 5.09706 6.50500 5.84359
#
# Compressibility (1/GPa) = 0.02633638
#
# Stress axis : x y z
#
# Youngs Moduli (GPa) = 142.32743 119.93595 73.84198
#
# Poissons Ratio (x) = 0.20800 -0.01323
# Poissons Ratio (y) = 0.24683 -0.01994
# Poissons Ratio (z) = -0.02551 -0.03239
#
# Static dielectric constant tensor:
#      x y z
#    x 1.947560 0.000000 -0.067650 
#    y 0.000000 1.870550 0.000000 
#    z -0.067650 0.000000 1.889020 
# 
# From -- ./inp_files/70884.got.cif
#   From: 2010.05.17/outbox.cif.g08.bks.cpg/sg13_36_cif.got.tgz:70884.got - 2010.06.03 16:44:36.
