data_PCOD9232584
_publ_section_title
;
Structure prediction by ZEFSAII (Michael W. Deem and Ramdas Pophale) SiO2 
 PCOD9232584
Probable space group: P 2/C
;
_chemical_formula_sum "Si O2"
_cell_formula_units_Z 30
_cell_length_a 6.922439
_cell_length_b 10.651318
_cell_length_c 20.676843
_cell_angle_alpha 90.000000
_cell_angle_beta 88.413947
_cell_angle_gamma 90.000000
_cell_volume 1523.983625
_symmetry_space_group_name_H-M "P 2/C"
_symmetry_group_IT_number 13
_symmetry_cell_setting 'monoclinic'
loop_
_space_group_symop_operation_xyz
x,y,z
-x,y,1/2-z
-x,-y,-z
x,-y,1/2+z
loop_
_atom_site_type_symbol
_atom_site_label
_atom_site_fract_x
_atom_site_fract_y
_atom_site_fract_z
Si Si1 0.978356 0.331166 0.317113
Si Si2 0.319031 0.213090 0.387722
Si Si3 0.305261 0.424699 0.488885
Si Si4 0.988336 0.445826 0.901102
Si Si5 0.500000 0.109166 0.750000
Si Si6 0.019087 0.004205 0.922259
Si Si7 0.875942 0.782892 0.184441
Si Si8 0.292474 0.098966 0.166363
O O1 0.188441 0.292234 0.339899
O O2 0.900488 0.426566 0.371181
O O3 0.000000 0.401776 0.250000
O O4 0.852895 0.206127 0.306377
O O5 0.351647 0.299062 0.449429
O O6 0.189185 0.093687 0.405562
O O7 0.514957 0.170228 0.354481
O O8 0.500000 0.500000 0.500000
O O9 0.162690 0.510657 0.446351
O O10 0.181327 0.389403 0.553371
O O11 0.070704 0.352826 0.845940
O O12 0.348938 0.190821 0.794158
O O13 0.641306 0.014778 0.788433
O O14 0.817977 0.954796 0.894708
O O15 0.069231 0.123908 0.876110
O O16 0.000000 0.000000 0.000000
O O17 0.000000 0.803437 0.250000
#
# Coordination Sequence:
#
# PCOD9232584 Si02
#       8
#     4   4   4   4   2   4   4   4
#     4  10  21  37  63  90 118 157 205 271 319 377
#     4  10  21  38  61  92 119 158 211 266 323 383
#     4  10  21  41  68  93 128 170 219 278 342 400
#     4  10  23  42  63  95 130 171 218 269 338 415
#     4  12  24  42  66 100 132 188 226 280 346 414
#     4  11  24  41  62  93 129 170 222 275 333 397
#     4  12  25  44  66  95 141 186 226 277 348 429
#     4  11  22  39  65  92 125 164 222 273 330 388
#
# _framework density 19.685251000000001
#
# number of rings (size 3 to 8) (size 9 to 14) (size 15 to 20)
#    0.000    1.333    2.667    2.800    1.867    4.800 
#    2.400    2.667    0.000    0.000    0.000    0.000 
#    0.000    0.000    0.000    0.000    0.000    0.000 
#
# Total GULP energy -167324.854288 kJ/mol
# GULP energy per Si atom -5577.495143 kJ/mol
# Density = 1.964045 g / cm^3
# Si number density = 19.685251 Si / 1000 Ang^3
#
#
#
# Elastic Constant Matrix: (Units=GPa)
#
#
# Indices 1 2 3 4 5 6 
#
# 1 79.5769 26.8716 27.1855 0.0000 -15.7210 0.0000
# 2 26.8716 67.7356 28.5672 0.0000 -0.8262 0.0000
# 3 27.1855 28.5672 109.9239 0.0000 -4.3370 0.0000
# 4 0.0000 0.0000 0.0000 41.5896 0.0000 -6.0928
# 5 -15.7210 -0.8262 -4.3370 0.0000 25.8970 0.0000
# 6 0.0000 0.0000 0.0000 -6.0928 0.0000 28.2967
#
#
#
# Elastic Compliance Matrix: (Units=1/GPa)
#
#
# Indices 1 2 3 4 5 6 
#
# 1 0.017273 -0.005722 -0.002394 0.000000 0.009902 0.000000
# 2 -0.005722 0.018477 -0.003524 0.000000 -0.003474 0.000000
# 3 -0.002394 -0.003524 0.010613 0.000000 0.000212 0.000000
# 4 0.000000 0.000000 0.000000 0.024828 0.000000 0.005346
# 5 0.009902 -0.003474 0.000212 0.000000 0.044550 0.000000
# 6 0.000000 0.000000 0.000000 0.005346 0.000000 0.036491
#
#
# Mechanical properties :
#
#
# Convention : Reuss Voigt Hill
#
# Bulk Modulus (GPa) = 43.32071 46.94279 45.13175
# Shear Modulus (GPa) = 27.29169 30.79747 29.04458
#
# Velocity S-wave (km/s) = 3.72748 3.95966 3.84532
# Velocity P-wave (km/s) = 6.37024 6.69355 6.53390
#
# Compressibility (1/GPa) = 0.02308365
#
# Stress axis : x y z
#
# Youngs Moduli (GPa) = 57.89479 54.12126 94.22036
#
# Poissons Ratio (x) = 0.30967 0.22557
# Poissons Ratio (y) = 0.33127 0.33202
# Poissons Ratio (z) = 0.13860 0.19071
#
# Static dielectric constant tensor:
#      x y z
#    x 1.828560 0.000000 0.039240 
#    y 0.000000 1.717600 0.000000 
#    z 0.039240 0.000000 1.704070 
# 
# From -- ./inp_files/73650.got.cif
#   From: 2010.05.17/outbox.cif.g08.bks.cpg/sg13_37_cif.got.tgz:73650.got - 2010.06.03 16:44:36.
