data_PCOD9232480
_publ_section_title
;
Structure prediction by ZEFSAII (Michael W. Deem and Ramdas Pophale) SiO2 
 PCOD9232480
Probable space group: P 2/C
;
_chemical_formula_sum "Si O2"
_cell_formula_units_Z 30
_cell_length_a 21.523526
_cell_length_b 11.891627
_cell_length_c 13.036311
_cell_angle_alpha 90.000000
_cell_angle_beta 152.289736
_cell_angle_gamma 90.000000
_cell_volume 1551.539972
_symmetry_space_group_name_H-M "P 2/C"
_symmetry_group_IT_number 13
_symmetry_cell_setting 'monoclinic'
loop_
_space_group_symop_operation_xyz
x,y,z
-x,y,1/2-z
-x,-y,-z
x,-y,1/2+z
loop_
_atom_site_type_symbol
_atom_site_label
_atom_site_fract_x
_atom_site_fract_y
_atom_site_fract_z
Si Si1 0.064792 0.573606 0.956327
Si Si2 0.343522 0.182905 0.542264
Si Si3 0.814620 0.970568 0.852854
Si Si4 0.500000 0.161661 0.250000
Si Si5 0.371987 0.005005 0.238004
Si Si6 0.775077 0.220639 0.714158
Si Si7 0.027343 0.197453 0.672223
Si Si8 0.841935 0.375866 0.288274
O O1 0.000000 0.571750 0.750000
O O2 0.931109 0.568805 0.830322
O O3 0.146441 0.685320 0.106992
O O4 0.163385 0.471069 0.131725
O O5 0.500000 0.187522 0.750000
O O6 0.272693 0.102363 0.354662
O O7 0.329979 0.115877 0.629764
O O8 0.281856 0.307418 0.439929
O O9 0.750131 0.950892 0.870929
O O10 0.802244 0.099832 0.804872
O O11 0.966283 0.927266 0.070354
O O12 0.615551 0.233051 0.473827
O O13 0.422688 0.081891 0.218131
O O14 0.500000 0.000000 0.500000
O O15 0.834259 0.215143 0.684431
O O16 0.000000 0.228154 0.750000
O O17 0.930228 0.277710 0.466318
#
# Coordination Sequence:
#
# PCOD9232480 Si02
#       8
#     4   4   4   2   4   4   4   4
#     4  10  22  42  64  86 112 156 204 256 308 349
#     4  11  20  37  59  89 124 160 197 243 290 369
#     4  11  22  35  57  89 123 158 200 242 299 359
#     4  12  22  38  56  84 136 164 196 236 294 396
#     4  12  19  34  58  84 124 173 196 229 303 365
#     4  11  22  38  57  90 123 160 197 247 310 360
#     4  10  21  37  59  86 116 157 200 251 294 355
#     4   9  22  40  63  83 114 156 205 248 301 359
#
# _framework density 19.335629000000001
#
# number of rings (size 3 to 8) (size 9 to 14) (size 15 to 20)
#    0.000    1.333    4.667    1.600    1.867    0.533 
#    1.200    0.000    0.000    0.800    0.000    0.000 
#    0.000    0.000    0.000    0.000    0.000    0.000 
#
# Total GULP energy -167261.835385 kJ/mol
# GULP energy per Si atom -5575.394513 kJ/mol
# Density = 1.929162 g / cm^3
# Si number density = 19.335629 Si / 1000 Ang^3
#
#
#
# Elastic Constant Matrix: (Units=GPa)
#
#
# Indices 1 2 3 4 5 6 
#
# 1 69.0695 19.1570 17.2708 0.0000 -20.0895 0.0000
# 2 19.1570 90.7914 40.9509 0.0000 -1.3173 0.0000
# 3 17.2708 40.9509 84.1494 0.0000 -9.9194 0.0000
# 4 0.0000 0.0000 0.0000 20.4538 0.0000 2.3110
# 5 -20.0895 -1.3173 -9.9194 0.0000 32.8024 0.0000
# 6 0.0000 0.0000 0.0000 2.3110 0.0000 15.4478
#
#
#
# Elastic Compliance Matrix: (Units=1/GPa)
#
#
# Indices 1 2 3 4 5 6 
#
# 1 0.018899 -0.003421 -0.000898 0.000000 0.011166 0.000000
# 2 -0.003421 0.014809 -0.006928 0.000000 -0.003595 0.000000
# 3 -0.000898 -0.006928 0.015909 0.000000 0.003983 0.000000
# 4 0.000000 0.000000 0.000000 0.049731 0.000000 -0.007440
# 5 0.011166 -0.003595 0.003983 0.000000 0.038384 0.000000
# 6 0.000000 0.000000 0.000000 -0.007440 0.000000 0.065847
#
#
# Mechanical properties :
#
#
# Convention : Reuss Voigt Hill
#
# Bulk Modulus (GPa) = 36.86924 44.30751 40.58838
# Shear Modulus (GPa) = 21.26623 24.84958 23.05790
#
# Velocity S-wave (km/s) = 3.31999 3.58882 3.45702
# Velocity P-wave (km/s) = 5.81428 6.33542 6.08044
#
# Compressibility (1/GPa) = 0.02712288
#
# Stress axis : x y z
#
# Youngs Moduli (GPa) = 52.91253 67.52701 62.85712
#
# Poissons Ratio (x) = 0.23099 0.05645
# Poissons Ratio (y) = 0.18100 0.43550
# Poissons Ratio (z) = 0.04751 0.46786
#
# Static dielectric constant tensor:
#      x y z
#    x 1.734930 0.000000 -0.009430 
#    y 0.000000 1.699490 0.000000 
#    z -0.009430 0.000000 1.707210 
# 
# From -- ./inp_files/40864.got.cif
#   From: 2010.05.17/outbox.cif.g08.bks.cpg/sg13_21_cif.got.tgz:40864.got - 2010.06.03 16:44:36.
