data_PCOD9232482
_publ_section_title
;
Structure prediction by ZEFSAII (Michael W. Deem and Ramdas Pophale) SiO2 
 PCOD9232482
Probable space group: P 2/C
;
_chemical_formula_sum "Si O2"
_cell_formula_units_Z 20
_cell_length_a 12.530704
_cell_length_b 6.921890
_cell_length_c 8.907561
_cell_angle_alpha 90.000000
_cell_angle_beta 94.133394
_cell_angle_gamma 90.000000
_cell_volume 770.597992
_symmetry_space_group_name_H-M "P 2/C"
_symmetry_group_IT_number 13
_symmetry_cell_setting 'monoclinic'
loop_
_space_group_symop_operation_xyz
x,y,z
-x,y,1/2-z
-x,-y,-z
x,-y,1/2+z
loop_
_atom_site_type_symbol
_atom_site_label
_atom_site_fract_x
_atom_site_fract_y
_atom_site_fract_z
Si Si1 0.000000 0.109976 0.750000
Si Si2 0.218321 0.250950 0.929624
Si Si3 0.874197 0.753197 0.475577
Si Si4 0.500000 0.086080 0.250000
Si Si5 0.355849 0.888127 0.987169
Si Si6 0.839029 0.589099 0.772008
O O1 0.099268 0.192973 0.863134
O O2 0.077597 0.070696 0.614170
O O3 0.233464 0.447624 0.837472
O O4 0.300610 0.080102 0.910379
O O5 0.220780 0.291214 0.107475
O O6 0.746232 0.773779 0.462099
O O7 0.898956 0.721993 0.653914
O O8 0.905677 0.562010 0.383058
O O9 0.575952 0.201560 0.142087
O O10 0.568572 0.954006 0.370403
#
# Coordination Sequence:
#
# PCOD9232482 Si02
#       6
#     2   4   4   2   4   4
#     4  10  22  36  58  88 122 158 192 228 282 346
#     4  10  21  37  59  86 120 155 193 235 283 342
#     4  10  21  37  59  86 120 155 193 235 283 342
#     4  10  22  38  66  86 106 150 204 244 294 352
#     4  11  22  41  64  86 112 151 200 247 290 344
#     4   9  20  36  58  84 120 158 192 232 282 336
#
# _framework density 25.953869999999998
#
# number of rings (size 3 to 8) (size 9 to 14) (size 15 to 20)
#    0.000    2.000    0.000    3.600    0.000   14.400 
#    0.000    0.000    0.000   84.000    0.000    0.000 
#    0.000    0.000    0.000    0.000    0.000    0.000 
#
# Total GULP energy -111460.218670 kJ/mol
# GULP energy per Si atom -5573.010934 kJ/mol
# Density = 2.589480 g / cm^3
# Si number density = 25.953870 Si / 1000 Ang^3
#
#
#
# Elastic Constant Matrix: (Units=GPa)
#
#
# Indices 1 2 3 4 5 6 
#
# 1 134.4261 8.0873 54.2917 0.0000 1.6104 0.0000
# 2 8.0873 49.2544 25.3107 0.0000 -4.6039 0.0000
# 3 54.2917 25.3107 219.2556 0.0000 -30.8703 0.0000
# 4 0.0000 0.0000 0.0000 120.6832 0.0000 8.1312
# 5 1.6104 -4.6039 -30.8703 0.0000 68.0055 0.0000
# 6 0.0000 0.0000 0.0000 8.1312 0.0000 25.8336
#
#
#
# Elastic Compliance Matrix: (Units=1/GPa)
#
#
# Indices 1 2 3 4 5 6 
#
# 1 0.008364 -0.000356 -0.002202 0.000000 -0.001222 0.000000
# 2 -0.000356 0.021606 -0.002349 0.000000 0.000405 0.000000
# 3 -0.002202 -0.002349 0.005728 0.000000 0.002493 0.000000
# 4 0.000000 0.000000 0.000000 0.008466 0.000000 -0.002665
# 5 -0.001222 0.000405 0.002493 0.000000 0.015893 0.000000
# 6 0.000000 0.000000 0.000000 -0.002665 0.000000 0.039548
#
#
# Mechanical properties :
#
#
# Convention : Reuss Voigt Hill
#
# Bulk Modulus (GPa) = 38.63282 64.25729 51.44506
# Shear Modulus (GPa) = 42.35555 63.92087 53.13821
#
# Velocity S-wave (km/s) = 4.04413 4.96811 4.52974
# Velocity P-wave (km/s) = 6.06004 7.59747 6.87189
#
# Compressibility (1/GPa) = 0.02588472
#
# Stress axis : x y z
#
# Youngs Moduli (GPa) = 119.55320 46.28308 174.56831
#
# Poissons Ratio (x) = 0.01648 0.38442
# Poissons Ratio (y) = 0.04256 0.41007
# Poissons Ratio (z) = 0.26327 0.10872
#
# Static dielectric constant tensor:
#      x y z
#    x 2.046530 0.000000 -0.032390 
#    y 0.000000 2.227580 0.000000 
#    z -0.032390 0.000000 2.074540 
# 
# From -- ./inp_files/14955.got.cif
#   From: 2010.05.17/outbox.cif.g08.bks.cpg/sg13_8_cif.got.tgz:14955.got - 2010.06.03 16:44:36.
