data_PCOD9232399
_publ_section_title
;
Structure prediction by ZEFSAII (Michael W. Deem and Ramdas Pophale) SiO2 
 PCOD9232399
Probable space group: P 2/C
;
_chemical_formula_sum "Si O2"
_cell_formula_units_Z 26
_cell_length_a 8.137828
_cell_length_b 9.338045
_cell_length_c 23.822265
_cell_angle_alpha 90.000000
_cell_angle_beta 132.748028
_cell_angle_gamma 90.000000
_cell_volume 1329.377054
_symmetry_space_group_name_H-M "P 2/C"
_symmetry_group_IT_number 13
_symmetry_cell_setting 'monoclinic'
loop_
_space_group_symop_operation_xyz
x,y,z
-x,y,1/2-z
-x,-y,-z
x,-y,1/2+z
loop_
_atom_site_type_symbol
_atom_site_label
_atom_site_fract_x
_atom_site_fract_y
_atom_site_fract_z
Si Si1 0.731267 0.091614 0.903823
Si Si2 0.153861 0.012075 0.952317
Si Si3 0.623232 0.279700 0.632420
Si Si4 0.738935 0.395062 0.178352
Si Si5 0.607108 0.130491 0.213262
Si Si6 0.000000 0.053324 0.750000
Si Si7 0.560450 0.779173 0.532823
O O1 0.561180 0.222625 0.866212
O O2 0.910336 0.082600 0.895713
O O3 0.575081 0.952868 0.865785
O O4 0.849451 0.084758 0.991845
O O5 0.248461 0.901864 0.928679
O O6 0.336876 0.136635 0.998833
O O7 0.697862 0.436055 0.668103
O O8 0.506176 0.281549 0.543919
O O9 0.825047 0.162432 0.678710
O O10 0.623565 0.294724 0.198241
O O11 0.649494 0.333171 0.098342
O O12 0.000000 0.371858 0.250000
O O13 0.500000 0.117824 0.250000
O O14 0.840341 0.047629 0.252009
#
# Coordination Sequence:
#
# PCOD9232399 Si02
#       7
#     4   4   4   4   4   2   4
#     4   9  19  37  60  89 124 158 211 267 304 370
#     4   9  18  35  64  95 120 156 211 271 311 362
#     4  10  22  42  64  91 127 172 210 254 326 384
#     4  12  24  42  61  91 134 168 209 261 321 388
#     4  11  24  38  64  94 125 168 217 264 321 376
#     4  10  22  44  66  94 126 166 216 274 310 372
#     4  10  21  36  66  94 122 166 216 255 320 383
#
# _framework density 19.558032000000001
#
# number of rings (size 3 to 8) (size 9 to 14) (size 15 to 20)
#    0.000    1.846    3.077    0.462    6.462    0.000 
#    0.000    5.385    0.000    0.000    0.000    0.000 
#    0.000    0.000    0.000    0.000    0.000    0.000 
#
# Total GULP energy -144876.746859 kJ/mol
# GULP energy per Si atom -5572.182571 kJ/mol
# Density = 1.951352 g / cm^3
# Si number density = 19.558032 Si / 1000 Ang^3
#
#
#
# Elastic Constant Matrix: (Units=GPa)
#
#
# Indices 1 2 3 4 5 6 
#
# 1 126.6833 53.5881 32.7559 0.0000 28.2103 0.0000
# 2 53.5881 119.8252 23.9362 0.0000 3.9328 0.0000
# 3 32.7559 23.9362 61.5009 0.0000 3.5552 0.0000
# 4 0.0000 0.0000 0.0000 22.8532 0.0000 4.7286
# 5 28.2103 3.9328 3.5552 0.0000 25.7015 0.0000
# 6 0.0000 0.0000 0.0000 4.7286 0.0000 10.2639
#
#
#
# Elastic Compliance Matrix: (Units=1/GPa)
#
#
# Indices 1 2 3 4 5 6 
#
# 1 0.014528 -0.005035 -0.004940 0.000000 -0.014492 0.000000
# 2 -0.005035 0.010815 -0.001765 0.000000 0.004115 0.000000
# 3 -0.004940 -0.001765 0.019404 0.000000 0.003009 0.000000
# 4 0.000000 0.000000 0.000000 0.048368 0.000000 -0.022283
# 5 -0.014492 0.004115 0.003009 0.000000 0.053769 0.000000
# 6 0.000000 0.000000 0.000000 -0.022283 0.000000 0.107695
#
#
# Mechanical properties :
#
#
# Convention : Reuss Voigt Hill
#
# Bulk Modulus (GPa) = 47.02362 58.72998 52.87680
# Shear Modulus (GPa) = 17.53467 24.94567 21.24017
#
# Velocity S-wave (km/s) = 2.99749 3.57525 3.29904
# Velocity P-wave (km/s) = 6.00626 6.86563 6.45028
#
# Compressibility (1/GPa) = 0.02126591
#
# Stress axis : x y z
#
# Youngs Moduli (GPa) = 68.83235 92.46692 51.53452
#
# Poissons Ratio (x) = 0.46554 0.25461
# Poissons Ratio (y) = 0.34655 0.09098
# Poissons Ratio (z) = 0.34007 0.16325
#
# Static dielectric constant tensor:
#      x y z
#    x 1.735170 0.000000 -0.021710 
#    y 0.000000 1.659320 0.000000 
#    z -0.021710 0.000000 1.753760 
# 
# From -- ./inp_files/63881.got.cif
#   From: 2010.05.17/outbox.cif.g08.bks.cpg/sg13_32_cif.got.tgz:63881.got - 2010.06.03 16:44:36.
