data_PCOD9232992
_publ_section_title
;
Structure prediction by ZEFSAII (Michael W. Deem and Ramdas Pophale) SiO2 
 PCOD9232992
Probable space group: P 2/C
;
_chemical_formula_sum "Si O2"
_cell_formula_units_Z 28
_cell_length_a 5.364909
_cell_length_b 8.943462
_cell_length_c 28.535301
_cell_angle_alpha 90.000000
_cell_angle_beta 70.206512
_cell_angle_gamma 90.000000
_cell_volume 1288.257986
_symmetry_space_group_name_H-M "P 2/C"
_symmetry_group_IT_number 13
_symmetry_cell_setting 'monoclinic'
loop_
_space_group_symop_operation_xyz
x,y,z
-x,y,1/2-z
-x,-y,-z
x,-y,1/2+z
loop_
_atom_site_type_symbol
_atom_site_label
_atom_site_fract_x
_atom_site_fract_y
_atom_site_fract_z
Si Si1 0.001230 0.601958 0.376889
Si Si2 0.151589 0.892514 0.057308
Si Si3 0.688911 0.320166 0.372042
Si Si4 0.192641 0.190615 0.782055
Si Si5 0.094799 0.142141 0.298695
Si Si6 0.649161 0.079799 0.061465
Si Si7 0.552924 0.576070 0.696588
O O1 0.934021 0.728905 0.418677
O O2 0.795032 0.463786 0.393013
O O3 0.038700 0.698718 0.326968
O O4 0.279563 0.513438 0.353254
O O5 0.398437 0.966672 0.069897
O O6 0.250980 0.882804 0.997292
O O7 0.889133 0.996381 0.072485
O O8 0.876535 0.178818 0.351439
O O9 0.433304 0.235853 0.408338
O O10 0.698184 0.382595 0.317899
O O11 0.500000 0.218040 0.750000
O O12 0.000000 0.189241 0.750000
O O13 0.200460 0.022605 0.801491
O O14 0.000000 0.144837 0.250000
O O15 0.301415 0.272282 0.297537
O O16 0.500000 0.503465 0.750000
#
# Coordination Sequence:
#
# PCOD9232992 Si02
#       7
#     4   4   4   4   4   4   4
#     4  11  27  39  65  98 134 181 217 281 335 413
#     4  10  24  48  73 102 130 171 220 284 347 395
#     4  11  25  40  66  99 130 183 221 275 336 406
#     4  11  26  41  63  93 131 175 228 280 331 385
#     4  10  21  39  61  92 123 176 232 279 320 392
#     4  10  24  47  76  98 132 170 223 284 338 408
#     4  11  23  40  62  89 141 180 223 266 331 394
#
# _framework density 21.734776
#
# number of rings (size 3 to 8) (size 9 to 14) (size 15 to 20)
#    0.000    1.429    1.429    1.714   14.000    0.571 
#    0.000    0.714    0.000    0.000    0.000    0.000 
#    0.000    0.000    0.000    0.000    0.000    0.000 
#
# Total GULP energy -155899.358503 kJ/mol
# GULP energy per Si atom -5567.834232 kJ/mol
# Density = 2.168531 g / cm^3
# Si number density = 21.734776 Si / 1000 Ang^3
#
#
#
# Elastic Constant Matrix: (Units=GPa)
#
#
# Indices 1 2 3 4 5 6 
#
# 1 76.1800 27.8176 27.1962 0.0000 -10.0553 0.0000
# 2 27.8176 155.5513 56.6902 0.0000 -17.9018 0.0000
# 3 27.1962 56.6902 73.9954 0.0000 -14.0835 0.0000
# 4 0.0000 0.0000 0.0000 47.3360 0.0000 15.4863
# 5 -10.0553 -17.9018 -14.0835 0.0000 25.5871 0.0000
# 6 0.0000 0.0000 0.0000 15.4863 0.0000 245.1246
#
#
#
# Elastic Compliance Matrix: (Units=1/GPa)
#
#
# Indices 1 2 3 4 5 6 
#
# 1 0.015415 -0.000767 -0.004498 0.000000 0.003045 0.000000
# 2 -0.000767 0.009136 -0.006209 0.000000 0.002673 0.000000
# 3 -0.004498 -0.006209 0.020957 0.000000 0.005423 0.000000
# 4 0.000000 0.000000 0.000000 0.021571 0.000000 -0.001363
# 5 0.003045 0.002673 0.005423 0.000000 0.045134 0.000000
# 6 0.000000 0.000000 0.000000 -0.001363 0.000000 0.004166
#
#
# Mechanical properties :
#
#
# Convention : Reuss Voigt Hill
#
# Bulk Modulus (GPa) = 44.32743 58.79273 51.56008
# Shear Modulus (GPa) = 34.04890 76.54437 55.29664
#
# Velocity S-wave (km/s) = 3.96228 5.94087 5.04943
# Velocity P-wave (km/s) = 6.43209 8.61205 7.60063
#
# Compressibility (1/GPa) = 0.02255940
#
# Stress axis : x y z
#
# Youngs Moduli (GPa) = 64.87320 109.45229 47.71710
#
# Poissons Ratio (x) = 0.08392 0.21465
# Poissons Ratio (y) = 0.04974 0.29628
# Poissons Ratio (z) = 0.29183 0.67960
#
# Static dielectric constant tensor:
#      x y z
#    x 2.615100 0.000000 1.489190 
#    y 0.000000 1.858280 0.000000 
#    z 1.489190 0.000000 4.991110 
# 
# From -- ./inp_files/94971.got.cif
#   From: 2010.05.17/outbox.cif.g08.bks.cpg/sg13_48_cif.got.tgz:94971.got - 2010.06.03 16:44:36.
