data_PCOD9232276
_publ_section_title
;
Structure prediction by ZEFSAII (Michael W. Deem and Ramdas Pophale) SiO2 
 PCOD9232276
Probable space group: P 2/C
;
_chemical_formula_sum "Si O2"
_cell_formula_units_Z 24
_cell_length_a 5.111007
_cell_length_b 21.934211
_cell_length_c 13.759847
_cell_angle_alpha 90.000000
_cell_angle_beta 138.467846
_cell_angle_gamma 90.000000
_cell_volume 1022.779448
_symmetry_space_group_name_H-M "P 2/C"
_symmetry_group_IT_number 13
_symmetry_cell_setting 'monoclinic'
loop_
_space_group_symop_operation_xyz
x,y,z
-x,y,1/2-z
-x,-y,-z
x,-y,1/2+z
loop_
_atom_site_type_symbol
_atom_site_label
_atom_site_fract_x
_atom_site_fract_y
_atom_site_fract_z
Si Si1 0.085043 0.843683 0.077644
Si Si2 0.964546 0.104498 0.353961
Si Si3 0.927859 0.407017 0.918579
Si Si4 0.966356 0.463969 0.354921
Si Si5 0.967490 0.719315 0.356876
Si Si6 0.962847 0.032152 0.853524
O O1 0.500000 0.845084 0.250000
O O2 0.875629 0.781722 0.051884
O O3 0.878807 0.907651 0.049405
O O4 0.157191 0.848800 0.983058
O O5 0.500000 0.106555 0.250000
O O6 0.000000 0.116710 0.250000
O O7 0.121099 0.035553 0.419776
O O8 0.500000 0.404521 0.750000
O O9 0.121324 0.468053 0.926478
O O10 0.131796 0.343413 0.947853
O O11 0.876499 0.417809 0.019259
O O12 0.500000 0.465329 0.250000
O O13 0.000000 0.451109 0.250000
O O14 0.500000 0.719654 0.250000
O O15 0.000000 0.719740 0.250000
O O16 0.500000 0.027872 0.750000
O O17 0.000000 0.042127 0.750000
#
# Coordination Sequence:
#
# PCOD9232276 Si02
#       6
#     4   4   4   4   4   4
#     4  10  21  38  59  83 108 143 188 229 267 322
#     4  10  22  38  56  80 112 144 177 223 283 333
#     4   9  20  37  59  83 113 150 186 225 274 327
#     4  10  21  36  57  86 116 145 183 230 276 322
#     4  10  21  36  56  83 111 143 184 228 270 319
#     4   9  18  33  54  80 107 138 177 225 274 323
#
# _framework density 23.465468000000001
#
# number of rings (size 3 to 8) (size 9 to 14) (size 15 to 20)
#    0.000    2.333    0.000    1.500    0.000   14.000 
#    0.000   11.667    0.000    0.000    0.000    0.000 
#    0.000    0.000    0.000    0.000    0.000    0.000 
#
# Total GULP energy -134209.855466 kJ/mol
# GULP energy per Si atom -5592.077311 kJ/mol
# Density = 2.341206 g / cm^3
# Si number density = 23.465468 Si / 1000 Ang^3
#
#
#
# Elastic Constant Matrix: (Units=GPa)
#
#
# Indices 1 2 3 4 5 6 
#
# 1 135.4519 39.7885 55.3020 0.0000 -50.5733 0.0000
# 2 39.7885 163.0916 77.2972 0.0000 -50.1428 0.0000
# 3 55.3020 77.2972 161.4413 0.0000 -52.3781 0.0000
# 4 0.0000 0.0000 0.0000 11.8052 0.0000 -6.1853
# 5 -50.5733 -50.1428 -52.3781 0.0000 60.3549 0.0000
# 6 0.0000 0.0000 0.0000 -6.1853 0.0000 21.7895
#
#
#
# Elastic Compliance Matrix: (Units=1/GPa)
#
#
# Indices 1 2 3 4 5 6 
#
# 1 0.010908 0.000543 -0.001231 0.000000 0.008522 0.000000
# 2 0.000543 0.008988 -0.002671 0.000000 0.005604 0.000000
# 3 -0.001231 -0.002671 0.009521 0.000000 0.005012 0.000000
# 4 0.000000 0.000000 0.000000 0.099509 0.000000 0.028247
# 5 0.008522 0.005604 0.005012 0.000000 0.032715 0.000000
# 6 0.000000 0.000000 0.000000 0.028247 0.000000 0.053912
#
#
# Mechanical properties :
#
#
# Convention : Reuss Voigt Hill
#
# Bulk Modulus (GPa) = 44.05842 89.41780 66.73811
# Shear Modulus (GPa) = 21.75448 37.96307 29.85877
#
# Velocity S-wave (km/s) = 3.04811 4.02659 3.57102
# Velocity P-wave (km/s) = 5.58611 7.73348 6.74579
#
# Compressibility (1/GPa) = 0.02269714
#
# Stress axis : x y z
#
# Youngs Moduli (GPa) = 91.67579 111.25875 105.03182
#
# Poissons Ratio (x) = -0.06038 0.12933
# Poissons Ratio (y) = -0.04975 0.28056
# Poissons Ratio (z) = 0.11289 0.29720
#
# Static dielectric constant tensor:
#      x y z
#    x 1.976140 0.000000 0.043800 
#    y 0.000000 1.998100 0.000000 
#    z 0.043800 0.000000 1.863620 
# 
# From -- ./inp_files/26861.got.cif
#   From: 2010.05.17/outbox.cif.g08.bks.cpg/sg13_14_cif.got.tgz:26861.got - 2010.06.03 16:44:36.
