data_PCOD9232300
_publ_section_title
;
Structure prediction by ZEFSAII (Michael W. Deem and Ramdas Pophale) SiO2 
 PCOD9232300
Probable space group: P 2/C
;
_chemical_formula_sum "Si O2"
_cell_formula_units_Z 30
_cell_length_a 12.776835
_cell_length_b 5.720994
_cell_length_c 16.368158
_cell_angle_alpha 90.000000
_cell_angle_beta 95.089028
_cell_angle_gamma 90.000000
_cell_volume 1191.733769
_symmetry_space_group_name_H-M "P 2/C"
_symmetry_group_IT_number 13
_symmetry_cell_setting 'monoclinic'
loop_
_space_group_symop_operation_xyz
x,y,z
-x,y,1/2-z
-x,-y,-z
x,-y,1/2+z
loop_
_atom_site_type_symbol
_atom_site_label
_atom_site_fract_x
_atom_site_fract_y
_atom_site_fract_z
Si Si1 0.510261 0.267077 0.589016
Si Si2 0.342158 0.353000 0.324715
Si Si3 0.500000 0.957201 0.750000
Si Si4 0.025994 0.473451 0.903587
Si Si5 0.207915 0.054308 0.121236
Si Si6 0.793088 0.556367 0.315143
Si Si7 0.670652 0.074788 0.020892
Si Si8 0.031824 0.974958 0.906859
O O1 0.564619 0.497079 0.627489
O O2 0.401048 0.263889 0.532824
O O3 0.491787 0.107528 0.667506
O O4 0.594130 0.142473 0.534796
O O5 0.399821 0.204230 0.258885
O O6 0.251190 0.504433 0.277657
O O7 0.301101 0.179742 0.390501
O O8 0.081854 0.225864 0.890048
O O9 0.078644 0.722397 0.889429
O O10 0.917081 0.447250 0.845463
O O11 0.000000 0.500000 0.000000
O O12 0.242810 0.322320 0.137644
O O13 0.249164 0.815071 0.166111
O O14 0.232889 0.999106 0.028440
O O15 0.085808 0.047887 0.138774
O O16 0.000000 0.000000 0.000000
#
# Coordination Sequence:
#
# PCOD9232300 Si02
#       8
#     4   4   2   4   4   4   4   4
#     4  10  22  39  54  75 107 153 195 236 287 343
#     4  11  23  36  56  79 111 152 191 245 294 340
#     4  10  22  36  56  80 102 150 198 244 286 336
#     4   8  14  28  48  77 111 135 170 223 278 323
#     4  10  21  36  57  85 115 148 186 243 281 337
#     4  10  22  34  57  86 114 142 192 239 284 331
#     4  10  23  37  54  75 114 151 197 228 292 344
#     4   8  14  27  49  79 111 134 174 223 278 321
#
# _framework density 25.173410000000001
#
# number of rings (size 3 to 8) (size 9 to 14) (size 15 to 20)
#    0.000    2.400    0.000    1.600    9.333    0.000 
#    0.000    0.000    0.000    0.000    0.000   14.933 
#    0.000    0.000    0.000    0.000    0.000    0.000 
#
# Total GULP energy -167377.464404 kJ/mol
# GULP energy per Si atom -5579.248813 kJ/mol
# Density = 2.511611 g / cm^3
# Si number density = 25.173410 Si / 1000 Ang^3
#
#
#
# Elastic Constant Matrix: (Units=GPa)
#
#
# Indices 1 2 3 4 5 6 
#
# 1 73.8393 17.3961 10.4607 0.0000 -1.8134 0.0000
# 2 17.3961 201.0679 3.2100 0.0000 -15.1003 0.0000
# 3 10.4607 3.2100 42.6864 0.0000 1.6747 0.0000
# 4 0.0000 0.0000 0.0000 33.3098 0.0000 4.4493
# 5 -1.8134 -15.1003 1.6747 0.0000 25.4874 0.0000
# 6 0.0000 0.0000 0.0000 4.4493 0.0000 10.6771
#
#
#
# Elastic Compliance Matrix: (Units=1/GPa)
#
#
# Indices 1 2 3 4 5 6 
#
# 1 0.014314 -0.001141 -0.003444 0.000000 0.000569 0.000000
# 2 -0.001141 0.005307 -0.000240 0.000000 0.003079 0.000000
# 3 -0.003444 -0.000240 0.024367 0.000000 -0.001988 0.000000
# 4 0.000000 0.000000 0.000000 0.031791 0.000000 -0.013248
# 5 0.000569 0.003079 -0.001988 0.000000 0.041230 0.000000
# 6 0.000000 0.000000 0.000000 -0.013248 0.000000 0.099179
#
#
# Mechanical properties :
#
#
# Convention : Reuss Voigt Hill
#
# Bulk Modulus (GPa) = 29.12304 42.19191 35.65747
# Shear Modulus (GPa) = 21.07179 32.99665 27.03422
#
# Velocity S-wave (km/s) = 2.89635 3.62439 3.28063
# Velocity P-wave (km/s) = 4.77275 5.85763 5.34280
#
# Compressibility (1/GPa) = 0.03433707
#
# Stress axis : x y z
#
# Youngs Moduli (GPa) = 69.86381 188.42323 41.03943
#
# Poissons Ratio (x) = 0.21493 0.14135
# Poissons Ratio (y) = 0.07969 0.00986
# Poissons Ratio (z) = 0.24063 0.04529
#
# Static dielectric constant tensor:
#      x y z
#    x 1.964830 0.000000 0.081700 
#    y 0.000000 2.069500 0.000000 
#    z 0.081700 0.000000 2.017530 
# 
# From -- ./inp_files/54690.got.cif
#   From: 2010.05.17/outbox.cif.g08.bks.cpg/sg13_28_cif.got.tgz:54690.got - 2010.06.03 16:44:36.
