data_PCOD9232252
_publ_section_title
;
Structure prediction by ZEFSAII (Michael W. Deem and Ramdas Pophale) SiO2 
 PCOD9232252
Probable space group: P 2/C
;
_chemical_formula_sum "Si O2"
_cell_formula_units_Z 32
_cell_length_a 13.725298
_cell_length_b 7.187202
_cell_length_c 18.573993
_cell_angle_alpha 90.000000
_cell_angle_beta 135.676508
_cell_angle_gamma 90.000000
_cell_volume 1280.215389
_symmetry_space_group_name_H-M "P 2/C"
_symmetry_group_IT_number 13
_symmetry_cell_setting 'monoclinic'
loop_
_space_group_symop_operation_xyz
x,y,z
-x,y,1/2-z
-x,-y,-z
x,-y,1/2+z
loop_
_atom_site_type_symbol
_atom_site_label
_atom_site_fract_x
_atom_site_fract_y
_atom_site_fract_z
Si Si1 0.059240 0.111929 0.667300
Si Si2 0.138371 0.581534 0.865414
Si Si3 0.412734 0.940299 0.100943
Si Si4 0.711622 0.072361 0.813141
Si Si5 0.621073 0.509724 0.918996
Si Si6 0.797056 0.010618 0.122377
Si Si7 0.320671 0.476241 0.214515
Si Si8 0.031102 0.526729 0.599287
O O1 0.023740 0.321289 0.628230
O O2 0.138426 0.023322 0.640558
O O3 0.175662 0.104196 0.791606
O O4 0.923112 0.029973 0.633201
O O5 0.188269 0.768895 0.852997
O O6 0.000000 0.511936 0.750000
O O7 0.079071 0.640045 0.913034
O O8 0.269656 0.454197 0.958494
O O9 0.397442 0.715495 0.089410
O O10 0.319316 0.987763 0.121651
O O11 0.572701 0.992798 0.198098
O O12 0.345852 0.022546 0.994401
O O13 0.699784 0.298501 0.800224
O O14 0.675204 0.572339 0.868387
O O15 0.461247 0.574513 0.830724
O O16 0.187455 0.399543 0.185096
O O17 0.000000 0.500000 0.500000
#
# Coordination Sequence:
#
# PCOD9232252 Si02
#       8
#     4   4   4   4   4   4   4   4
#     4  10  21  36  54  82 121 150 198 240 296 347
#     4  11  21  36  58  85 120 155 197 237 294 352
#     4   8  15  29  53  81 112 147 197 233 293 348
#     4   8  15  29  52  83 110 149 192 247 281 343
#     4   8  14  28  55  79 113 149 184 237 287 346
#     4  10  21  38  53  83 118 161 194 236 296 352
#     4   8  14  30  52  84 111 141 191 238 291 342
#     4  11  22  37  60  90 114 147 200 250 296 345
#
# _framework density 24.995794
#
# number of rings (size 3 to 8) (size 9 to 14) (size 15 to 20)
#    0.000    2.750    2.500    1.500    3.500    1.000 
#    0.000    0.625    0.000    1.500    0.000    0.000 
#    0.000    0.000    0.000    0.000    0.000    0.000 
#
# Total GULP energy -178757.412357 kJ/mol
# GULP energy per Si atom -5586.169136 kJ/mol
# Density = 2.493890 g / cm^3
# Si number density = 24.995794 Si / 1000 Ang^3
#
#
#
# Elastic Constant Matrix: (Units=GPa)
#
#
# Indices 1 2 3 4 5 6 
#
# 1 51.2450 2.7461 -9.4658 0.0000 8.1885 0.0000
# 2 2.7461 94.1903 12.4195 0.0000 -13.0480 0.0000
# 3 -9.4658 12.4195 156.8935 0.0000 -9.1387 0.0000
# 4 0.0000 0.0000 0.0000 3.3677 0.0000 -2.8664
# 5 8.1885 -13.0480 -9.1387 0.0000 34.3136 0.0000
# 6 0.0000 0.0000 0.0000 -2.8664 0.0000 12.8379
#
#
#
# Elastic Compliance Matrix: (Units=1/GPa)
#
#
# Indices 1 2 3 4 5 6 
#
# 1 0.020617 -0.001460 0.001057 0.000000 -0.005194 0.000000
# 2 -0.001460 0.011376 -0.000728 0.000000 0.004480 0.000000
# 3 0.001057 -0.000728 0.006566 0.000000 0.001220 0.000000
# 4 0.000000 0.000000 0.000000 0.366613 0.000000 0.081857
# 5 -0.005194 0.004480 0.001220 0.000000 0.032411 0.000000
# 6 0.000000 0.000000 0.000000 0.081857 0.000000 0.096171
#
#
# Mechanical properties :
#
#
# Convention : Reuss Voigt Hill
#
# Bulk Modulus (GPa) = 27.54943 34.85872 31.20408
# Shear Modulus (GPa) = 9.12216 29.87910 19.50063
#
# Velocity S-wave (km/s) = 1.91243 3.46116 2.79616
# Velocity P-wave (km/s) = 3.99025 5.47256 4.78910
#
# Compressibility (1/GPa) = 0.03629839
#
# Stress axis : x y z
#
# Youngs Moduli (GPa) = 48.50254 87.90454 152.29579
#
# Poissons Ratio (x) = 0.12834 -0.16097
# Poissons Ratio (y) = 0.07081 0.11081
# Poissons Ratio (z) = -0.05126 0.06396
#
# Static dielectric constant tensor:
#      x y z
#    x 1.779040 0.000000 -0.110870 
#    y 0.000000 1.991830 0.000000 
#    z -0.110870 0.000000 1.925040 
# 
# From -- ./inp_files/79830.got.cif
#   From: 2010.05.17/outbox.cif.g08.bks.cpg/sg13_40_cif.got.tgz:79830.got - 2010.06.03 16:44:36.
