data_PCOD9232235
_publ_section_title
;
Structure prediction by ZEFSAII (Michael W. Deem and Ramdas Pophale) SiO2 
 PCOD9232235
Probable space group: P 2/C
;
_chemical_formula_sum "Si O2"
_cell_formula_units_Z 30
_cell_length_a 24.955657
_cell_length_b 14.626780
_cell_length_c 23.450918
_cell_angle_alpha 90.000000
_cell_angle_beta 11.592452
_cell_angle_gamma 90.000000
_cell_volume 1720.137482
_symmetry_space_group_name_H-M "P 2/C"
_symmetry_group_IT_number 13
_symmetry_cell_setting 'monoclinic'
loop_
_space_group_symop_operation_xyz
x,y,z
-x,y,1/2-z
-x,-y,-z
x,-y,1/2+z
loop_
_atom_site_type_symbol
_atom_site_label
_atom_site_fract_x
_atom_site_fract_y
_atom_site_fract_z
Si Si1 0.710508 0.489136 0.081786
Si Si2 0.000000 0.943902 0.750000
Si Si3 0.435689 0.316444 0.749582
Si Si4 0.946563 0.797427 0.713675
Si Si5 0.401054 0.907366 0.788395
Si Si6 0.715819 0.291051 0.075968
Si Si7 0.367870 0.035590 0.564009
Si Si8 0.855403 0.915272 0.094242
O O1 0.500000 0.482011 0.250000
O O2 0.620257 0.578870 0.210279
O O3 0.700146 0.389860 0.122921
O O4 0.000000 0.503736 0.750000
O O5 0.188523 0.010890 0.516761
O O6 0.136952 0.877996 0.654551
O O7 0.500000 0.319007 0.750000
O O8 0.691572 0.261240 0.459859
O O9 0.165083 0.262783 0.018788
O O10 0.102597 0.839520 0.497303
O O11 0.500000 0.899508 0.750000
O O12 0.302042 0.806276 0.873916
O O13 0.620670 0.932819 0.512988
O O14 0.500000 0.290507 0.250000
O O15 0.000000 0.290895 0.750000
O O16 0.276338 0.108243 0.707298
O O17 0.656714 0.994003 0.277743
O O18 0.148691 0.956398 0.797855
#
# Coordination Sequence:
#
# PCOD9232235 Si02
#       8
#     4   2   4   4   4   4   4   4
#     4   9  17  31  49  67  98 132 164 210 250 304
#     4  12  22  30  46  74 112 136 158 198 258 302
#     4  11  20  32  46  73  98 132 168 204 252 305
#     4  12  22  31  48  71 105 136 168 201 247 300
#     4  11  22  33  52  78 107 137 164 209 259 314
#     4   9  18  32  48  72 100 130 166 203 256 310
#     4  10  21  36  54  68  99 137 179 207 245 285
#     4  10  21  37  50  70  95 141 181 210 233 292
#
# _framework density 17.440466000000001
#
# number of rings (size 3 to 8) (size 9 to 14) (size 15 to 20)
#    0.000    1.600    3.333    3.200    1.867    0.000 
#    0.000    0.000    0.000    0.000    0.000    1.867 
#    0.000    0.000    0.000    0.800    0.000    0.000 
#
# Total GULP energy -167046.111977 kJ/mol
# GULP energy per Si atom -5568.203733 kJ/mol
# Density = 1.740077 g / cm^3
# Si number density = 17.440466 Si / 1000 Ang^3
#
#
#
# Elastic Constant Matrix: (Units=GPa)
#
#
# Indices 1 2 3 4 5 6 
#
# 1 48.2057 11.0193 21.4029 0.0000 14.2695 0.0000
# 2 11.0193 114.6664 33.3944 0.0000 5.7483 0.0000
# 3 21.4029 33.3944 87.9602 0.0000 -1.6220 0.0000
# 4 0.0000 0.0000 0.0000 16.4373 0.0000 -6.9039
# 5 14.2695 5.7483 -1.6220 0.0000 41.5857 0.0000
# 6 0.0000 0.0000 0.0000 -6.9039 0.0000 -0.2063
#
#
#
# Elastic Compliance Matrix: (Units=1/GPa)
#
#
# Indices 1 2 3 4 5 6 
#
# 1 0.026442 -0.000170 -0.006541 0.000000 -0.009305 0.000000
# 2 -0.000170 0.009901 -0.003744 0.000000 -0.001456 0.000000
# 3 -0.006541 -0.003744 0.014443 0.000000 0.003325 0.000000
# 4 0.000000 0.000000 0.000000 0.004041 0.000000 -0.135224
# 5 -0.009305 -0.001456 0.003325 0.000000 0.027571 0.000000
# 6 0.000000 0.000000 0.000000 -0.135224 0.000000 -0.321950
#
#
# Mechanical properties :
#
#
# Convention : Reuss Voigt Hill
#
# Bulk Modulus (GPa) = 33.47226 42.49616 37.98421
# Shear Modulus (GPa) = -23.95966 23.89771 -0.03098
#
# Velocity S-wave (km/s) = -3.71050 3.70570 -0.13341
# Velocity P-wave (km/s) = 0.93643 6.53673 4.66936
#
# Compressibility (1/GPa) = 0.02987549
#
# Stress axis : x y z
#
# Youngs Moduli (GPa) = 37.81903 101.00233 69.23621
#
# Poissons Ratio (x) = 0.01713 0.45288
# Poissons Ratio (y) = 0.00641 0.25925
# Poissons Ratio (z) = 0.24738 0.37820
#
# Static dielectric constant tensor:
#      x y z
#    x 1.629660 0.000000 -0.012800 
#    y 0.000000 1.687990 0.000000 
#    z -0.012800 0.000000 1.603810 
# 
# From -- ./inp_files/94444.got.cif
#   From: 2010.05.17/outbox.cif.g08.bks.cpg/sg13_48_cif.got.tgz:94444.got - 2010.06.03 16:44:36.
