data_PCOD9232333
_publ_section_title
;
Structure prediction by ZEFSAII (Michael W. Deem and Ramdas Pophale) SiO2 
 PCOD9232333
Probable space group: P 2/C
;
_chemical_formula_sum "Si O2"
_cell_formula_units_Z 30
_cell_length_a 17.644031
_cell_length_b 8.723759
_cell_length_c 28.532048
_cell_angle_alpha 90.000000
_cell_angle_beta 19.320298
_cell_angle_gamma 90.000000
_cell_volume 1452.994227
_symmetry_space_group_name_H-M "P 2/C"
_symmetry_group_IT_number 13
_symmetry_cell_setting 'monoclinic'
loop_
_space_group_symop_operation_xyz
x,y,z
-x,y,1/2-z
-x,-y,-z
x,-y,1/2+z
loop_
_atom_site_type_symbol
_atom_site_label
_atom_site_fract_x
_atom_site_fract_y
_atom_site_fract_z
Si Si1 0.478464 0.183419 0.011244
Si Si2 0.139349 0.740674 0.287161
Si Si3 0.098239 0.561327 0.593918
Si Si4 0.597313 0.427545 0.782564
Si Si5 0.867604 0.983012 0.647602
Si Si6 0.359882 0.286150 0.179215
Si Si7 0.000000 0.691661 0.750000
Si Si8 0.743237 0.808336 0.131150
O O1 0.501828 0.268690 0.048093
O O2 0.223725 0.219081 0.139239
O O3 0.682865 0.240158 0.858750
O O4 0.500000 0.000000 0.000000
O O5 0.945127 0.618531 0.388513
O O6 0.287066 0.664222 0.242494
O O7 0.049171 0.900741 0.360573
O O8 0.883643 0.650847 0.697566
O O9 0.097367 0.595121 0.649617
O O10 0.331395 0.616554 0.433914
O O11 0.588078 0.600450 0.807861
O O12 0.729338 0.366652 0.659350
O O13 0.662406 0.884744 0.788476
O O14 0.054981 0.860569 0.520920
O O15 0.786264 0.083265 0.651106
O O16 0.500000 0.842412 0.250000
#
# Coordination Sequence:
#
# PCOD9232333 Si02
#       8
#     4   4   4   4   4   4   2   4
#     4  11  21  40  60  92 130 174 210 254 316 375
#     4  10  21  38  62  87 130 163 206 262 310 378
#     4  10  21  36  59  87 124 168 209 253 308 375
#     4  10  21  39  59  88 117 161 206 256 315 377
#     4  10  21  41  60  92 118 155 208 261 320 377
#     4  10  22  36  61  88 123 163 205 258 304 377
#     4  10  22  36  60  86 126 182 216 248 308 386
#     4  10  22  40  66  82 116 161 201 263 330 373
#
# _framework density 20.647019
#
# number of rings (size 3 to 8) (size 9 to 14) (size 15 to 20)
#    0.000    1.867    2.667    0.800    1.867    3.200 
#    2.400    3.333    0.000    0.000    0.000    0.000 
#    0.000    0.000    0.000    0.000    0.000    0.000 
#
# Total GULP energy -167243.993343 kJ/mol
# GULP energy per Si atom -5574.799778 kJ/mol
# Density = 2.060003 g / cm^3
# Si number density = 20.647019 Si / 1000 Ang^3
#
#
#
# Elastic Constant Matrix: (Units=GPa)
#
#
# Indices 1 2 3 4 5 6 
#
# 1 60.2810 37.7128 40.0575 0.0000 14.7150 0.0000
# 2 37.7128 94.2414 24.8345 0.0000 17.3862 0.0000
# 3 40.0575 24.8345 68.9652 0.0000 8.3740 0.0000
# 4 0.0000 0.0000 0.0000 22.8957 0.0000 5.3256
# 5 14.7150 17.3862 8.3740 0.0000 29.7718 0.0000
# 6 0.0000 0.0000 0.0000 5.3256 0.0000 12.8393
#
#
#
# Elastic Compliance Matrix: (Units=1/GPa)
#
#
# Indices 1 2 3 4 5 6 
#
# 1 0.034104 -0.008018 -0.015990 0.000000 -0.007677 0.000000
# 2 -0.008018 0.014686 -0.000074 0.000000 -0.004593 0.000000
# 3 -0.015990 -0.000074 0.023657 0.000000 0.001292 0.000000
# 4 0.000000 0.000000 0.000000 0.048340 0.000000 -0.020051
# 5 -0.007677 -0.004593 0.001292 0.000000 0.039702 0.000000
# 6 0.000000 0.000000 0.000000 -0.020051 0.000000 0.086202
#
#
# Mechanical properties :
#
#
# Convention : Reuss Voigt Hill
#
# Bulk Modulus (GPa) = 41.17740 47.63303 44.40521
# Shear Modulus (GPa) = 16.50438 21.16022 18.83230
#
# Velocity S-wave (km/s) = 2.83036 3.20481 3.02339
# Velocity P-wave (km/s) = 5.53788 6.06751 5.80873
#
# Compressibility (1/GPa) = 0.02428517
#
# Stress axis : x y z
#
# Youngs Moduli (GPa) = 29.32181 68.09050 42.27056
#
# Poissons Ratio (x) = 0.54593 0.67589
# Poissons Ratio (y) = 0.23510 0.00312
# Poissons Ratio (z) = 0.46885 0.00503
#
# Static dielectric constant tensor:
#      x y z
#    x 1.774800 0.000000 0.023200 
#    y 0.000000 1.766290 0.000000 
#    z 0.023200 0.000000 1.765740 
# 
# From -- ./inp_files/97346.got.cif
#   From: 2010.05.17/outbox.cif.g08.bks.cpg/sg13_49_cif.got.tgz:97346.got - 2010.06.03 16:44:36.
