data_PCOD9232463
_publ_section_title
;
Structure prediction by ZEFSAII (Michael W. Deem and Ramdas Pophale) SiO2 
 PCOD9232463
Probable space group: P 2/C
;
_chemical_formula_sum "Si O2"
_cell_formula_units_Z 30
_cell_length_a 22.064032
_cell_length_b 14.891260
_cell_length_c 24.580132
_cell_angle_alpha 90.000000
_cell_angle_beta 10.592042
_cell_angle_gamma 90.000000
_cell_volume 1484.502976
_symmetry_space_group_name_H-M "P 2/C"
_symmetry_group_IT_number 13
_symmetry_cell_setting 'monoclinic'
loop_
_space_group_symop_operation_xyz
x,y,z
-x,y,1/2-z
-x,-y,-z
x,-y,1/2+z
loop_
_atom_site_type_symbol
_atom_site_label
_atom_site_fract_x
_atom_site_fract_y
_atom_site_fract_z
Si Si1 0.500000 0.580694 0.250000
Si Si2 0.598862 0.400213 0.817074
Si Si3 0.044166 0.881119 0.864368
Si Si4 0.006212 0.312693 0.932440
Si Si5 0.551489 0.194667 0.396973
Si Si6 0.022219 0.512890 0.110067
Si Si7 0.364900 0.003528 0.705069
Si Si8 0.960195 0.265164 0.222752
O O1 0.206094 0.504706 0.504694
O O2 0.228661 0.658549 0.475175
O O3 0.834125 0.364462 0.656790
O O4 0.773532 0.452582 0.613908
O O5 0.387624 0.315933 0.980851
O O6 0.342146 0.472122 0.067691
O O7 0.151478 0.821269 0.821660
O O8 0.990265 0.815975 0.861715
O O9 0.366277 0.941000 0.566159
O O10 0.729314 0.942169 0.157220
O O11 0.245613 0.232932 0.700828
O O12 0.970919 0.386165 0.916787
O O13 0.670951 0.268586 0.248993
O O14 0.507681 0.098536 0.406561
O O15 0.000000 0.000000 0.000000
O O16 0.000000 0.237546 0.250000
#
# Coordination Sequence:
#
# PCOD9232463 Si02
#       8
#     2   4   4   4   4   4   4   4
#     4  10  24  40  58  82 122 158 208 242 300 352
#     4  11  22  37  55  82 124 157 195 246 301 346
#     4  11  22  36  60  88 122 160 193 237 304 374
#     4  12  22  35  59  88 118 156 204 247 301 354
#     4  11  21  36  58  89 122 149 195 249 299 358
#     4  11  23  39  56  82 117 162 199 251 296 356
#     4  10  21  37  58  87 122 153 182 238 304 363
#     4  11  23  37  61  85 125 161 204 245 296 363
#
# _framework density 20.208784000000001
#
# number of rings (size 3 to 8) (size 9 to 14) (size 15 to 20)
#    0.000    1.067    2.667    6.400    3.733    0.000 
#    0.000    0.000    0.000    0.000    6.933    0.000 
#    0.000    0.000    0.000    0.000    0.000    0.000 
#
# Total GULP energy -167156.430068 kJ/mol
# GULP energy per Si atom -5571.881002 kJ/mol
# Density = 2.016279 g / cm^3
# Si number density = 20.208784 Si / 1000 Ang^3
#
#
#
# Elastic Constant Matrix: (Units=GPa)
#
#
# Indices 1 2 3 4 5 6 
#
# 1 58.6285 26.6443 -7.9556 0.0000 14.1951 0.0000
# 2 26.6443 91.7779 1.0489 0.0000 5.0626 0.0000
# 3 -7.9556 1.0489 44.7221 0.0000 17.2486 0.0000
# 4 0.0000 0.0000 0.0000 32.2653 0.0000 23.9381
# 5 14.1951 5.0626 17.2486 0.0000 32.4232 0.0000
# 6 0.0000 0.0000 0.0000 23.9381 0.0000 53.5710
#
#
#
# Elastic Compliance Matrix: (Units=1/GPa)
#
#
# Indices 1 2 3 4 5 6 
#
# 1 0.025339 -0.006609 0.010749 0.000000 -0.015780 0.000000
# 2 -0.006609 0.012723 -0.002294 0.000000 0.002127 0.000000
# 3 0.010749 -0.002294 0.032715 0.000000 -0.021752 0.000000
# 4 0.000000 0.000000 0.000000 0.046364 0.000000 -0.020718
# 5 -0.015780 0.002127 -0.021752 0.000000 0.048990 0.000000
# 6 0.000000 0.000000 0.000000 -0.020718 0.000000 0.027924
#
#
# Mechanical properties :
#
#
# Convention : Reuss Voigt Hill
#
# Bulk Modulus (GPa) = 13.42847 26.06707 19.74777
# Shear Modulus (GPa) = 23.23552 35.34462 29.29007
#
# Velocity S-wave (km/s) = 3.39451 4.18661 3.81119
# Velocity P-wave (km/s) = 4.69285 6.02471 5.40000
#
# Compressibility (1/GPa) = 0.07446865
#
# Stress axis : x y z
#
# Youngs Moduli (GPa) = 39.46483 78.59585 30.56662
#
# Poissons Ratio (x) = 0.51941 -0.32855
# Poissons Ratio (y) = 0.26081 0.07013
# Poissons Ratio (z) = -0.42419 0.18033
#
# Static dielectric constant tensor:
#      x y z
#    x 1.640330 0.000000 0.162540 
#    y 0.000000 1.744800 0.000000 
#    z 0.162540 0.000000 1.592830 
# 
# From -- ./inp_files/93894.got.cif
#   From: 2010.05.17/outbox.cif.g08.bks.cpg/sg13_47_cif.got.tgz:93894.got - 2010.06.03 16:44:36.
