data_PCOD9232498
_publ_section_title
;
Structure prediction by ZEFSAII (Michael W. Deem and Ramdas Pophale) SiO2 
 PCOD9232498
Probable space group: P 2/C
;
_chemical_formula_sum "Si O2"
_cell_formula_units_Z 20
_cell_length_a 21.171021
_cell_length_b 7.579956
_cell_length_c 14.797403
_cell_angle_alpha 90.000000
_cell_angle_beta 19.460715
_cell_angle_gamma 90.000000
_cell_volume 791.129242
_symmetry_space_group_name_H-M "P 2/C"
_symmetry_group_IT_number 13
_symmetry_cell_setting 'monoclinic'
loop_
_space_group_symop_operation_xyz
x,y,z
-x,y,1/2-z
-x,-y,-z
x,-y,1/2+z
loop_
_atom_site_type_symbol
_atom_site_label
_atom_site_fract_x
_atom_site_fract_y
_atom_site_fract_z
Si Si1 0.091102 0.051753 0.282055
Si Si2 0.025633 0.547904 0.570444
Si Si3 0.433987 0.172714 0.714798
Si Si4 0.295367 0.548574 0.860599
Si Si5 0.749077 0.905800 0.664220
O O1 0.014213 0.246514 0.365793
O O2 0.313859 0.082746 0.958657
O O3 0.000000 0.000000 0.500000
O O4 0.025932 0.915412 0.123158
O O5 0.217645 0.506843 0.365808
O O6 0.000000 0.500000 0.500000
O O7 0.867897 0.452459 0.843859
O O8 0.422759 0.386180 0.725744
O O9 0.645135 0.119636 0.401045
O O10 0.313752 0.089999 0.794092
O O11 0.338956 0.752668 0.781321
#
# Coordination Sequence:
#
# PCOD9232498 Si02
#       5
#     4   4   4   4   4
#     4  11  23  39  64  91 132 171 212 274 327 389
#     4  10  21  37  59  97 128 167 221 265 317 401
#     4  10  23  41  60  96 126 160 222 265 316 399
#     4  10  21  39  65  90 128 169 215 269 331 389
#     4  11  22  39  67  90 123 171 211 265 331 387
#
# _framework density 25.280318999999999
#
# number of rings (size 3 to 8) (size 9 to 14) (size 15 to 20)
#    0.000    1.600    2.000    2.400    8.400    0.800 
#    0.000    0.000    0.000    3.600    0.000    0.000 
#    0.000    0.000    0.000    0.000    0.000    0.000 
#
# Total GULP energy -111491.707564 kJ/mol
# GULP energy per Si atom -5574.585378 kJ/mol
# Density = 2.522278 g / cm^3
# Si number density = 25.280319 Si / 1000 Ang^3
#
#
#
# Elastic Constant Matrix: (Units=GPa)
#
#
# Indices 1 2 3 4 5 6 
#
# 1 62.8754 6.4879 46.2739 0.0000 27.4536 0.0000
# 2 6.4879 121.8272 46.8093 0.0000 0.3979 0.0000
# 3 46.2739 46.8093 164.7707 0.0000 30.2775 0.0000
# 4 0.0000 0.0000 0.0000 47.5761 0.0000 10.0723
# 5 27.4536 0.3979 30.2775 0.0000 54.0598 0.0000
# 6 0.0000 0.0000 0.0000 10.0723 0.0000 12.2073
#
#
#
# Elastic Compliance Matrix: (Units=1/GPa)
#
#
# Indices 1 2 3 4 5 6 
#
# 1 0.023605 0.000761 -0.005174 0.000000 -0.009095 0.000000
# 2 0.000761 0.009358 -0.003108 0.000000 0.001286 0.000000
# 3 -0.005174 -0.003108 0.008827 0.000000 -0.002293 0.000000
# 4 0.000000 0.000000 0.000000 0.025468 0.000000 -0.021013
# 5 -0.009095 0.001286 -0.002293 0.000000 0.024392 0.000000
# 6 0.000000 0.000000 0.000000 -0.021013 0.000000 0.099256
#
#
# Mechanical properties :
#
#
# Convention : Reuss Voigt Hill
#
# Bulk Modulus (GPa) = 37.38849 60.95729 49.17289
# Shear Modulus (GPa) = 23.27050 39.42880 31.34965
#
# Velocity S-wave (km/s) = 3.03726 3.95354 3.52530
# Velocity P-wave (km/s) = 5.20784 6.70862 6.00530
#
# Compressibility (1/GPa) = 0.02674620
#
# Stress axis : x y z
#
# Youngs Moduli (GPa) = 42.36350 106.86098 113.29518
#
# Poissons Ratio (x) = -0.08128 0.58619
# Poissons Ratio (y) = -0.03222 0.35216
# Poissons Ratio (z) = 0.21919 0.33216
#
# Static dielectric constant tensor:
#      x y z
#    x 2.030350 0.000000 0.014120 
#    y 0.000000 1.718900 0.000000 
#    z 0.014120 0.000000 2.044260 
# 
# From -- ./inp_files/58571.got.cif
#   From: 2010.05.17/outbox.cif.g08.bks.cpg/sg13_30_cif.got.tgz:58571.got - 2010.06.03 16:44:36.
