data_PCOD9232382
_publ_section_title
;
Structure prediction by ZEFSAII (Michael W. Deem and Ramdas Pophale) SiO2 
 PCOD9232382
Probable space group: P 2/C
;
_chemical_formula_sum "Si O2"
_cell_formula_units_Z 32
_cell_length_a 26.680446
_cell_length_b 8.675822
_cell_length_c 19.975490
_cell_angle_alpha 90.000000
_cell_angle_beta 18.974833
_cell_angle_gamma 90.000000
_cell_volume 1503.448884
_symmetry_space_group_name_H-M "P 2/C"
_symmetry_group_IT_number 13
_symmetry_cell_setting 'monoclinic'
loop_
_space_group_symop_operation_xyz
x,y,z
-x,y,1/2-z
-x,-y,-z
x,-y,1/2+z
loop_
_atom_site_type_symbol
_atom_site_label
_atom_site_fract_x
_atom_site_fract_y
_atom_site_fract_z
Si Si1 0.261787 0.133607 0.666642
Si Si2 0.322221 0.951153 0.720003
Si Si3 0.025987 0.865598 0.649340
Si Si4 0.444964 0.334106 0.247329
Si Si5 0.033998 0.688729 0.909126
Si Si6 0.640008 0.587046 0.787032
Si Si7 0.846646 0.139592 0.840364
Si Si8 0.923948 0.382894 0.003673
O O1 0.417668 0.227605 0.455297
O O2 0.134862 0.255199 0.852574
O O3 0.197974 0.075833 0.676497
O O4 0.279806 0.997888 0.697203
O O5 0.331914 0.770756 0.730404
O O6 0.500000 0.000000 0.500000
O O7 0.194834 0.058186 0.920031
O O8 0.957583 0.782838 0.670041
O O9 0.000000 0.769137 0.750000
O O10 0.907175 0.006054 0.809856
O O11 0.500000 0.401542 0.250000
O O12 0.388914 0.435014 0.255306
O O13 0.300482 0.226628 0.446632
O O14 0.130919 0.692148 0.856227
O O15 0.044699 0.511962 0.873571
O O16 0.797122 0.525971 0.621240
O O17 0.500000 0.500000 0.000000
O O18 0.988002 0.255767 0.650022
#
# Coordination Sequence:
#
# PCOD9232382 Si02
#       8
#     4   4   4   4   4   4   4   4
#     4   9  19  36  64  89 118 160 207 256 311 366
#     4  11  22  38  63  89 122 157 209 259 309 366
#     4  11  23  39  61  91 128 161 204 259 315 370
#     4  10  21  40  61  90 125 165 199 251 314 377
#     4   9  21  40  62  87 125 158 202 255 318 362
#     4  12  24  38  63  90 118 159 215 255 303 372
#     4  10  21  36  63  90 122 160 208 252 313 373
#     4  10  21  39  62  90 118 159 205 258 302 374
#
# _framework density 21.284393999999999
#
# number of rings (size 3 to 8) (size 9 to 14) (size 15 to 20)
#    0.000    1.750    2.500    1.500    3.500    2.500 
#    2.250    0.000    0.000    0.750    0.000    0.000 
#    0.000    0.000    0.000    0.000    0.000    0.000 
#
# Total GULP energy -178167.982841 kJ/mol
# GULP energy per Si atom -5567.749464 kJ/mol
# Density = 2.123595 g / cm^3
# Si number density = 21.284394 Si / 1000 Ang^3
#
#
#
# Elastic Constant Matrix: (Units=GPa)
#
#
# Indices 1 2 3 4 5 6 
#
# 1 153.1655 19.4249 51.7974 0.0000 11.4476 0.0000
# 2 19.4249 38.3460 -14.5985 0.0000 2.7987 0.0000
# 3 51.7974 -14.5985 42.1825 0.0000 -1.5439 0.0000
# 4 0.0000 0.0000 0.0000 21.7268 0.0000 -4.6805
# 5 11.4476 2.7987 -1.5439 0.0000 36.7002 0.0000
# 6 0.0000 0.0000 0.0000 -4.6805 0.0000 24.7875
#
#
#
# Elastic Compliance Matrix: (Units=1/GPa)
#
#
# Indices 1 2 3 4 5 6 
#
# 1 0.022492 -0.024780 -0.036438 0.000000 -0.006659 0.000000
# 2 -0.024780 0.057463 0.050515 0.000000 0.005472 0.000000
# 3 -0.036438 0.050515 0.086340 0.000000 0.011146 0.000000
# 4 0.000000 0.000000 0.000000 0.047978 0.000000 0.009059
# 5 -0.006659 0.005472 0.011146 0.000000 0.029376 0.000000
# 6 0.000000 0.000000 0.000000 0.009059 0.000000 0.042053
#
#
# Mechanical properties :
#
#
# Convention : Reuss Voigt Hill
#
# Bulk Modulus (GPa) = 6.90185 38.54907 22.72546
# Shear Modulus (GPa) = 14.06853 28.44760 21.25807
#
# Velocity S-wave (km/s) = 2.57374 3.65985 3.16375
# Velocity P-wave (km/s) = 3.47590 6.00084 4.90367
#
# Compressibility (1/GPa) = 0.14488862
#
# Stress axis : x y z
#
# Youngs Moduli (GPa) = 44.46089 17.40263 11.58215
#
# Poissons Ratio (x) = 0.43123 0.42203
# Poissons Ratio (y) = 1.10172 -0.58507
# Poissons Ratio (z) = 1.62006 -0.87909
#
# Static dielectric constant tensor:
#      x y z
#    x 1.864870 0.000000 -0.048100 
#    y 0.000000 1.797310 0.000000 
#    z -0.048100 0.000000 1.750230 
# 
# From -- ./inp_files/82496.got.cif
#   From: 2010.05.17/outbox.cif.g08.bks.cpg/sg13_42_cif.got.tgz:82496.got - 2010.06.03 16:44:36.
