data_PCOD9232624
_publ_section_title
;
Structure prediction by ZEFSAII (Michael W. Deem and Ramdas Pophale) SiO2 
 PCOD9232624
Probable space group: P 2/C
;
_chemical_formula_sum "Si O2"
_cell_formula_units_Z 16
_cell_length_a 5.269864
_cell_length_b 14.659663
_cell_length_c 8.730643
_cell_angle_alpha 90.000000
_cell_angle_beta 83.374812
_cell_angle_gamma 90.000000
_cell_volume 669.976764
_symmetry_space_group_name_H-M "P 2/C"
_symmetry_group_IT_number 13
_symmetry_cell_setting 'monoclinic'
loop_
_space_group_symop_operation_xyz
x,y,z
-x,y,1/2-z
-x,-y,-z
x,-y,1/2+z
loop_
_atom_site_type_symbol
_atom_site_label
_atom_site_fract_x
_atom_site_fract_y
_atom_site_fract_z
Si Si1 0.963692 0.705924 0.933348
Si Si2 0.470494 0.398410 0.437648
Si Si3 0.624254 0.865283 0.889506
Si Si4 0.170464 0.945576 0.110707
O O1 0.706885 0.654436 0.996133
O O2 0.867003 0.811269 0.941665
O O3 0.000000 0.689323 0.750000
O O4 0.212259 0.659699 0.990050
O O5 0.500000 0.403039 0.250000
O O6 0.500000 0.500000 0.500000
O O7 0.500000 0.814670 0.750000
O O8 0.710562 0.963349 0.821494
O O9 0.398939 0.885759 0.025465
O O10 0.000000 0.897035 0.250000
O O11 0.000000 0.000000 0.000000
#
# Coordination Sequence:
#
# PCOD9232624 Si02
#       4
#     4   4   4   4
#     4  10  21  37  65  99 128 169 228 279 327 401
#     4  10  21  39  67  99 130 169 216 271 337 415
#     4  11  22  37  64  96 129 179 240 291 338 397
#     4  11  23  39  63  93 133 186 235 284 344 401
#
# _framework density 23.881426000000001
#
# number of rings (size 3 to 8) (size 9 to 14) (size 15 to 20)
#    0.000    1.500    2.500    3.750    3.500    0.000 
#    0.000    0.000    5.500    1.500    0.000    0.000 
#    0.000    0.000    0.000    0.000    0.000    0.000 
#
# Total GULP energy -89313.298730 kJ/mol
# GULP energy per Si atom -5582.081171 kJ/mol
# Density = 2.382707 g / cm^3
# Si number density = 23.881426 Si / 1000 Ang^3
#
#
#
# Elastic Constant Matrix: (Units=GPa)
#
#
# Indices 1 2 3 4 5 6 
#
# 1 206.2196 66.8629 39.6753 0.0000 -24.8981 0.0000
# 2 66.8629 144.2877 12.2122 0.0000 -12.2698 0.0000
# 3 39.6753 12.2122 63.2739 0.0000 -20.5899 0.0000
# 4 0.0000 0.0000 0.0000 23.1636 0.0000 2.7298
# 5 -24.8981 -12.2698 -20.5899 0.0000 41.7009 0.0000
# 6 0.0000 0.0000 0.0000 2.7298 0.0000 41.9756
#
#
#
# Elastic Compliance Matrix: (Units=1/GPa)
#
#
# Indices 1 2 3 4 5 6 
#
# 1 0.006471 -0.002606 -0.003034 0.000000 0.001599 0.000000
# 2 -0.002606 0.008194 0.000394 0.000000 0.001050 0.000000
# 3 -0.003034 0.000394 0.020349 0.000000 0.008351 0.000000
# 4 0.000000 0.000000 0.000000 0.043505 0.000000 -0.002829
# 5 0.001599 0.001050 0.008351 0.000000 0.029367 0.000000
# 6 0.000000 0.000000 0.000000 -0.002829 0.000000 0.024007
#
#
# Mechanical properties :
#
#
# Convention : Reuss Voigt Hill
#
# Bulk Modulus (GPa) = 40.78119 72.36466 56.57293
# Shear Modulus (GPa) = 33.20966 41.03675 37.12321
#
# Velocity S-wave (km/s) = 3.73313 4.14980 3.94697
# Velocity P-wave (km/s) = 5.97455 7.30264 6.67173
#
# Compressibility (1/GPa) = 0.02452111
#
# Stress axis : x y z
#
# Youngs Moduli (GPa) = 154.53803 122.03963 49.14365
#
# Poissons Ratio (x) = 0.31802 0.14912
# Poissons Ratio (y) = 0.40270 -0.01936
# Poissons Ratio (z) = 0.46893 -0.04809
#
# Static dielectric constant tensor:
#      x y z
#    x -0.122390 0.000000 0.802720 
#    y 0.000000 2.061680 0.000000 
#    z 0.802720 0.000000 1.601370 
# 
# From -- ./inp_files/8915.got.cif
#   From: 2010.05.17/outbox.cif.g08.bks.cpg/sg13_5_cif.got.tgz:8915.got - 2010.06.03 16:44:36.
