data_PCOD9232860
_publ_section_title
;
Structure prediction by ZEFSAII (Michael W. Deem and Ramdas Pophale) SiO2 
 PCOD9232860
Probable space group: P 2/C
;
_chemical_formula_sum "Si O2"
_cell_formula_units_Z 16
_cell_length_a 23.923632
_cell_length_b 6.543071
_cell_length_c 14.320711
_cell_angle_alpha 90.000000
_cell_angle_beta 21.603501
_cell_angle_gamma 90.000000
_cell_volume 825.344251
_symmetry_space_group_name_H-M "P 2/C"
_symmetry_group_IT_number 13
_symmetry_cell_setting 'monoclinic'
loop_
_space_group_symop_operation_xyz
x,y,z
-x,y,1/2-z
-x,-y,-z
x,-y,1/2+z
loop_
_atom_site_type_symbol
_atom_site_label
_atom_site_fract_x
_atom_site_fract_y
_atom_site_fract_z
Si Si1 0.834200 0.811867 0.098310
Si Si2 0.069728 0.395512 0.484847
Si Si3 0.327429 0.921324 0.519638
Si Si4 0.131491 0.029162 0.653350
O O1 0.863496 0.571636 0.051598
O O2 0.694151 0.886021 0.377405
O O3 0.830411 0.931719 0.006190
O O4 0.986122 0.897467 0.913059
O O5 0.210949 0.251531 0.236722
O O6 0.000000 0.500000 0.500000
O O7 0.937415 0.257222 0.737035
O O8 0.268285 0.995581 0.511130
O O9 0.500000 0.851135 0.250000
#
# Coordination Sequence:
#
# PCOD9232860 Si02
#       4
#     4   4   4   4
#     4  10  21  38  64  91 120 161 210 254 304 361
#     4  11  19  41  67  87 119 165 215 249 303 364
#     4  11  23  39  58  92 133 162 196 256 317 366
#     4  10  21  38  64  95 119 157 209 263 298 366
#
# _framework density 19.385850000000001
#
# number of rings (size 3 to 8) (size 9 to 14) (size 15 to 20)
#    0.000    1.500    5.000    1.500    0.000   10.000 
#    0.000    1.250    0.000    0.000    0.000    0.000 
#    0.000    0.000    0.000    0.000    0.000    0.000 
#
# Total GULP energy -89228.113252 kJ/mol
# GULP energy per Si atom -5576.757078 kJ/mol
# Density = 1.934173 g / cm^3
# Si number density = 19.385850 Si / 1000 Ang^3
#
#
#
# Elastic Constant Matrix: (Units=GPa)
#
#
# Indices 1 2 3 4 5 6 
#
# 1 117.4139 67.8169 55.4175 0.0000 10.8515 0.0000
# 2 67.8169 135.2717 30.2860 0.0000 4.6244 0.0000
# 3 55.4175 30.2860 87.3851 0.0000 -15.0020 0.0000
# 4 0.0000 0.0000 0.0000 20.6793 0.0000 2.6440
# 5 10.8515 4.6244 -15.0020 0.0000 16.7040 0.0000
# 6 0.0000 0.0000 0.0000 2.6440 0.0000 28.8641
#
#
#
# Elastic Compliance Matrix: (Units=1/GPa)
#
#
# Indices 1 2 3 4 5 6 
#
# 1 0.023336 -0.006816 -0.017398 0.000000 -0.028898 0.000000
# 2 -0.006816 0.010469 0.001131 0.000000 0.002546 0.000000
# 3 -0.017398 0.001131 0.028341 0.000000 0.036443 0.000000
# 4 0.000000 0.000000 0.000000 0.048931 0.000000 -0.004482
# 5 -0.028898 0.002546 0.036443 0.000000 0.110664 0.000000
# 6 0.000000 0.000000 0.000000 -0.004482 0.000000 0.035056
#
#
# Mechanical properties :
#
#
# Convention : Reuss Voigt Hill
#
# Bulk Modulus (GPa) = 62.57486 71.90128 67.23807
# Shear Modulus (GPa) = 16.21845 25.68618 20.95232
#
# Velocity S-wave (km/s) = 2.89556 3.64400 3.29113
# Velocity P-wave (km/s) = 6.59756 7.40777 7.01437
#
# Compressibility (1/GPa) = 0.01598086
#
# Stress axis : x y z
#
# Youngs Moduli (GPa) = 42.85171 95.51574 35.28400
#
# Poissons Ratio (x) = 0.65105 0.61388
# Poissons Ratio (y) = 0.29209 -0.03991
# Poissons Ratio (z) = 0.74554 -0.10804
#
# Static dielectric constant tensor:
#      x y z
#    x 1.723580 0.000000 0.036430 
#    y 0.000000 1.745880 0.000000 
#    z 0.036430 0.000000 1.673820 
# 
# From -- ./inp_files/48388.got.cif
#   From: 2010.05.17/outbox.cif.g08.bks.cpg/sg13_25_cif.got.tgz:48388.got - 2010.06.03 16:44:36.
