data_PCOD9232737
_publ_section_title
;
Structure prediction by ZEFSAII (Michael W. Deem and Ramdas Pophale) SiO2 
 PCOD9232737
Probable space group: P 2/C
;
_chemical_formula_sum "Si O2"
_cell_formula_units_Z 30
_cell_length_a 14.436405
_cell_length_b 17.183965
_cell_length_c 5.494736
_cell_angle_alpha 90.000000
_cell_angle_beta 112.883155
_cell_angle_gamma 90.000000
_cell_volume 1255.828197
_symmetry_space_group_name_H-M "P 2/C"
_symmetry_group_IT_number 13
_symmetry_cell_setting 'monoclinic'
loop_
_space_group_symop_operation_xyz
x,y,z
-x,y,1/2-z
-x,-y,-z
x,-y,1/2+z
loop_
_atom_site_type_symbol
_atom_site_label
_atom_site_fract_x
_atom_site_fract_y
_atom_site_fract_z
Si Si1 0.871132 0.959481 0.265132
Si Si2 0.941560 0.321622 0.445334
Si Si3 0.140248 0.526011 0.749194
Si Si4 0.618358 0.720685 0.884411
Si Si5 0.634524 0.536507 0.985667
Si Si6 0.000000 0.176198 0.750000
Si Si7 0.647004 0.978191 0.505283
Si Si8 0.376523 0.799453 0.109755
O O1 0.921505 0.875273 0.321213
O O2 0.902833 0.005712 0.537040
O O3 0.750347 0.971379 0.134945
O O4 0.853265 0.382987 0.312682
O O5 0.931648 0.231842 0.510133
O O6 0.000000 0.322501 0.250000
O O7 0.000000 0.350924 0.750000
O O8 0.093086 0.483302 0.468106
O O9 0.248250 0.486369 0.887016
O O10 0.500000 0.739675 0.750000
O O11 0.656114 0.748325 0.658049
O O12 0.625686 0.628405 0.935397
O O13 0.659046 0.764446 0.167163
O O14 0.594922 0.508624 0.207350
O O15 0.662235 0.886620 0.476451
O O16 0.596286 0.988590 0.713322
O O17 0.500000 0.802322 0.250000
#
# Coordination Sequence:
#
# PCOD9232737 Si02
#       8
#     4   4   4   4   4   2   4   4
#     4  10  22  39  63  86 117 158 197 245 302 360
#     4  10  23  38  61  90 113 155 195 250 301 358
#     4  10  21  39  59  84 119 157 198 242 304 353
#     4  10  21  38  62  91 123 162 204 250 306 358
#     4  10  21  38  60  86 124 161 203 249 300 362
#     4  10  24  40  64  86 122 150 202 252 306 354
#     4  10  21  39  60  91 122 161 203 245 305 367
#     4  10  21  38  62  91 127 161 200 254 304 362
#
# _framework density 23.888615999999999
#
# number of rings (size 3 to 8) (size 9 to 14) (size 15 to 20)
#    0.400    1.600    0.000    2.800    1.867    2.667 
#    0.000   16.000    0.000    0.000    0.000    0.000 
#    0.000    0.000    0.000    0.000    0.000    0.000 
#
# Total GULP energy -167420.079507 kJ/mol
# GULP energy per Si atom -5580.669317 kJ/mol
# Density = 2.383424 g / cm^3
# Si number density = 23.888616 Si / 1000 Ang^3
#
#
#
# Elastic Constant Matrix: (Units=GPa)
#
#
# Indices 1 2 3 4 5 6 
#
# 1 59.2807 9.1739 44.2585 0.0000 -10.3415 0.0000
# 2 9.1739 155.1816 71.6563 0.0000 -17.2058 0.0000
# 3 44.2585 71.6563 223.5625 0.0000 -39.3115 0.0000
# 4 0.0000 0.0000 0.0000 59.2004 0.0000 16.5027
# 5 -10.3415 -17.2058 -39.3115 0.0000 43.3213 0.0000
# 6 0.0000 0.0000 0.0000 16.5027 0.0000 45.0526
#
#
#
# Elastic Compliance Matrix: (Units=1/GPa)
#
#
# Indices 1 2 3 4 5 6 
#
# 1 0.019951 0.000809 -0.003944 0.000000 0.001505 0.000000
# 2 0.000809 0.007630 -0.002426 0.000000 0.001022 0.000000
# 3 -0.003944 -0.002426 0.006778 0.000000 0.004246 0.000000
# 4 0.000000 0.000000 0.000000 0.018813 0.000000 -0.006891
# 5 0.001505 0.001022 0.004246 0.000000 0.027701 0.000000
# 6 0.000000 0.000000 0.000000 -0.006891 0.000000 0.024720
#
#
# Mechanical properties :
#
#
# Convention : Reuss Voigt Hill
#
# Bulk Modulus (GPa) = 43.03717 76.46691 59.75204
# Shear Modulus (GPa) = 40.17319 50.37728 45.27523
#
# Velocity S-wave (km/s) = 4.10529 4.59719 4.35819
# Velocity P-wave (km/s) = 6.36601 7.76261 7.09874
#
# Compressibility (1/GPa) = 0.02323573
#
# Stress axis : x y z
#
# Youngs Moduli (GPa) = 50.12268 131.06618 147.53700
#
# Poissons Ratio (x) = -0.10599 0.58194
# Poissons Ratio (y) = -0.04053 0.35791
# Poissons Ratio (z) = 0.19770 0.31795
#
# Static dielectric constant tensor:
#      x y z
#    x 1.937430 0.000000 0.041660 
#    y 0.000000 1.875490 0.000000 
#    z 0.041660 0.000000 1.984300 
# 
# From -- ./inp_files/6281.got.cif
#   From: 2010.05.17/outbox.cif.g08.bks.cpg/sg13_4_cif.got.tgz:6281.got - 2010.06.03 16:44:36.
