data_PCOD9232672
_publ_section_title
;
Structure prediction by ZEFSAII (Michael W. Deem and Ramdas Pophale) SiO2 
 PCOD9232672
Probable space group: P 2/C
;
_chemical_formula_sum "Si O2"
_cell_formula_units_Z 32
_cell_length_a 5.000476
_cell_length_b 12.461628
_cell_length_c 25.338913
_cell_angle_alpha 90.000000
_cell_angle_beta 113.794168
_cell_angle_gamma 90.000000
_cell_volume 1444.759488
_symmetry_space_group_name_H-M "P 2/C"
_symmetry_group_IT_number 13
_symmetry_cell_setting 'monoclinic'
loop_
_space_group_symop_operation_xyz
x,y,z
-x,y,1/2-z
-x,-y,-z
x,-y,1/2+z
loop_
_atom_site_type_symbol
_atom_site_label
_atom_site_fract_x
_atom_site_fract_y
_atom_site_fract_z
Si Si1 0.084174 0.797887 0.631938
Si Si2 0.748951 0.412039 0.527188
Si Si3 0.899680 0.684841 0.147677
Si Si4 0.503443 0.556523 0.311462
Si Si5 0.776359 0.591087 0.914938
Si Si6 0.289548 0.868712 0.807704
Si Si7 0.983941 0.986101 0.436640
Si Si8 0.366344 0.912526 0.373663
O O1 0.065422 0.682087 0.605245
O O2 0.399348 0.820521 0.685057
O O3 0.803201 0.810049 0.646002
O O4 0.086719 0.895552 0.590964
O O5 0.500000 0.500000 0.500000
O O6 0.729638 0.343646 0.579024
O O7 0.730323 0.355749 0.468869
O O8 0.038072 0.484109 0.557714
O O9 0.772040 0.617145 0.186095
O O10 0.822344 0.807614 0.153466
O O11 0.229599 0.643561 0.165369
O O12 0.500000 0.521274 0.250000
O O13 0.541667 0.457368 0.355429
O O14 0.000000 0.855359 0.750000
O O15 0.311453 0.993681 0.826401
O O16 0.717011 0.904098 0.403059
O O17 0.258893 0.949548 0.423418
O O18 0.000000 0.000000 0.500000
#
# Coordination Sequence:
#
# PCOD9232672 Si02
#       8
#     4   4   4   4   4   4   4   4
#     4  10  23  38  61  90 118 154 203 245 296 364
#     4  10  21  39  63  89 124 162 201 256 298 367
#     4  11  23  41  63  92 122 160 210 246 312 369
#     4  11  24  41  60  88 124 157 204 260 302 363
#     4  10  23  40  60  91 123 161 205 247 309 362
#     4  10  22  41  60  85 119 156 203 253 296 354
#     4  10  21  38  57  90 125 155 192 243 298 357
#     4  10  22  39  60  88 120 157 202 247 295 360
#
# _framework density 22.149016
#
# number of rings (size 3 to 8) (size 9 to 14) (size 15 to 20)
#    0.000    1.750    1.250    1.875    3.500    3.000 
#    0.000    0.000    0.000    0.000    0.000    0.000 
#    0.000    0.000    0.000    0.000    0.000    0.000 
#
# Total GULP energy -178398.988833 kJ/mol
# GULP energy per Si atom -5574.968401 kJ/mol
# Density = 2.209860 g / cm^3
# Si number density = 22.149016 Si / 1000 Ang^3
#
#
#
# Elastic Constant Matrix: (Units=GPa)
#
#
# Indices 1 2 3 4 5 6 
#
# 1 72.4278 -5.1167 -9.0492 0.0000 -7.9341 0.0000
# 2 -5.1167 50.5783 3.9176 0.0000 -11.1907 0.0000
# 3 -9.0492 3.9176 92.6518 0.0000 -6.9862 0.0000
# 4 0.0000 0.0000 0.0000 2.7028 0.0000 -6.7292
# 5 -7.9341 -11.1907 -6.9862 0.0000 18.3083 0.0000
# 6 0.0000 0.0000 0.0000 -6.7292 0.0000 17.8090
#
#
#
# Elastic Compliance Matrix: (Units=1/GPa)
#
#
# Indices 1 2 3 4 5 6 
#
# 1 0.015367 0.003518 0.002076 0.000000 0.009602 0.000000
# 2 0.003518 0.023670 0.000565 0.000000 0.016208 0.000000
# 3 0.002076 0.000565 0.011394 0.000000 0.005593 0.000000
# 4 0.000000 0.000000 0.000000 6.243766 0.000000 2.359220
# 5 0.009602 0.016208 0.005593 0.000000 0.070822 0.000000
# 6 0.000000 0.000000 0.000000 2.359220 0.000000 0.947588
#
#
# Mechanical properties :
#
#
# Convention : Reuss Voigt Hill
#
# Bulk Modulus (GPa) = 15.93669 21.68461 18.81065
# Shear Modulus (GPa) = 0.68295 22.82444 11.75369
#
# Velocity S-wave (km/s) = 0.55589 3.21361 2.30611
# Velocity P-wave (km/s) = 2.76095 4.85606 3.94995
#
# Compressibility (1/GPa) = 0.06274828
#
# Stress axis : x y z
#
# Youngs Moduli (GPa) = 65.07605 42.24842 87.76792
#
# Poissons Ratio (x) = -0.14864 -0.18221
# Poissons Ratio (y) = -0.22895 -0.04958
# Poissons Ratio (z) = -0.13510 -0.02387
#
# Static dielectric constant tensor:
#      x y z
#    x 1.839050 0.000000 0.003410 
#    y 0.000000 1.799690 0.000000 
#    z 0.003410 0.000000 1.886260 
# 
# From -- ./inp_files/83807.got.cif
#   From: 2010.05.17/outbox.cif.g08.bks.cpg/sg13_42_cif.got.tgz:83807.got - 2010.06.03 16:44:36.
