data_PCOD9232869
_publ_section_title
;
Structure prediction by ZEFSAII (Michael W. Deem and Ramdas Pophale) SiO2 
 PCOD9232869
Probable space group: P 2/C
;
_chemical_formula_sum "Si O2"
_cell_formula_units_Z 20
_cell_length_a 9.202864
_cell_length_b 10.100075
_cell_length_c 8.862136
_cell_angle_alpha 90.000000
_cell_angle_beta 94.525530
_cell_angle_gamma 90.000000
_cell_volume 821.163973
_symmetry_space_group_name_H-M "P 2/C"
_symmetry_group_IT_number 13
_symmetry_cell_setting 'monoclinic'
loop_
_space_group_symop_operation_xyz
x,y,z
-x,y,1/2-z
-x,-y,-z
x,-y,1/2+z
loop_
_atom_site_type_symbol
_atom_site_label
_atom_site_fract_x
_atom_site_fract_y
_atom_site_fract_z
Si Si1 0.209104 0.077138 0.105807
Si Si2 0.439728 0.830330 0.412550
Si Si3 0.060241 0.194744 0.603347
Si Si4 0.612100 0.444064 0.630826
Si Si5 0.281125 0.277704 0.381445
O O1 0.244549 0.174616 0.246577
O O2 0.159027 0.932728 0.157731
O O3 0.345665 0.066152 0.002041
O O4 0.071429 0.136701 0.006087
O O5 0.500000 0.868408 0.250000
O O6 0.329033 0.701280 0.400242
O O7 0.571391 0.774833 0.526801
O O8 0.160223 0.280494 0.502159
O O9 0.000000 0.259223 0.750000
O O10 0.500000 0.407187 0.750000
O O11 0.500000 0.500000 0.500000
O O12 0.705475 0.572250 0.679403
#
# Coordination Sequence:
#
# PCOD9232869 Si02
#       5
#     4   4   4   4   4
#     4  11  22  40  63  91 126 165 207 255 312 364
#     4  10  21  38  64  96 127 159 201 252 305 369
#     4  11  24  42  61  85 124 169 209 256 313 363
#     4   9  18  35  60  92 126 157 190 243 311 361
#     4  11  21  38  66  94 123 162 209 254 304 371
#
# _framework density 24.355671000000001
#
# number of rings (size 3 to 8) (size 9 to 14) (size 15 to 20)
#    0.000    1.600    0.000    7.200    0.000    0.800 
#    0.000    4.000    0.000    6.000    0.000    0.000 
#    0.000    0.000    0.000    0.000    0.000    0.000 
#
# Total GULP energy -111860.057851 kJ/mol
# GULP energy per Si atom -5593.002893 kJ/mol
# Density = 2.430024 g / cm^3
# Si number density = 24.355671 Si / 1000 Ang^3
#
#
#
# Elastic Constant Matrix: (Units=GPa)
#
#
# Indices 1 2 3 4 5 6 
#
# 1 106.7644 16.6555 23.3939 0.0000 -14.0619 0.0000
# 2 16.6555 105.9252 26.4049 0.0000 -8.1302 0.0000
# 3 23.3939 26.4049 99.6300 0.0000 1.0677 0.0000
# 4 0.0000 0.0000 0.0000 24.1849 0.0000 0.9980
# 5 -14.0619 -8.1302 1.0677 0.0000 40.7064 0.0000
# 6 0.0000 0.0000 0.0000 0.9980 0.0000 17.4450
#
#
#
# Elastic Compliance Matrix: (Units=1/GPa)
#
#
# Indices 1 2 3 4 5 6 
#
# 1 0.010454 -0.000806 -0.002279 0.000000 0.003510 0.000000
# 2 -0.000806 0.010352 -0.002574 0.000000 0.001856 0.000000
# 3 -0.002279 -0.002574 0.011271 0.000000 -0.001597 0.000000
# 4 0.000000 0.000000 0.000000 0.041446 0.000000 -0.002371
# 5 0.003510 0.001856 -0.001597 0.000000 0.026191 0.000000
# 6 0.000000 0.000000 0.000000 -0.002371 0.000000 0.057459
#
#
# Mechanical properties :
#
#
# Convention : Reuss Voigt Hill
#
# Bulk Modulus (GPa) = 48.17194 49.46981 48.82087
# Shear Modulus (GPa) = 28.50462 32.85828 30.68145
#
# Velocity S-wave (km/s) = 3.42475 3.67700 3.55311
# Velocity P-wave (km/s) = 5.95483 6.19537 6.07629
#
# Compressibility (1/GPa) = 0.02075898
#
# Stress axis : x y z
#
# Youngs Moduli (GPa) = 95.65930 96.60383 88.71961
#
# Poissons Ratio (x) = 0.07790 0.20215
# Poissons Ratio (y) = 0.07713 0.22837
# Poissons Ratio (z) = 0.21796 0.24866
#
# Static dielectric constant tensor:
#      x y z
#    x 1.946900 0.000000 0.040030 
#    y 0.000000 2.435090 0.000000 
#    z 0.040030 0.000000 1.896480 
# 
# From -- ./inp_files/11774.got.cif
#   From: 2010.05.17/outbox.cif.g08.bks.cpg/sg13_6_cif.got.tgz:11774.got - 2010.06.03 16:44:36.
