data_PCOD9232242
_publ_section_title
;
Structure prediction by ZEFSAII (Michael W. Deem and Ramdas Pophale) SiO2 
 PCOD9232242
Probable space group: P 2/C
;
_chemical_formula_sum "Si O2"
_cell_formula_units_Z 20
_cell_length_a 5.052131
_cell_length_b 23.414849
_cell_length_c 9.253782
_cell_angle_alpha 90.000000
_cell_angle_beta 66.909233
_cell_angle_gamma 90.000000
_cell_volume 1006.974861
_symmetry_space_group_name_H-M "P 2/C"
_symmetry_group_IT_number 13
_symmetry_cell_setting 'monoclinic'
loop_
_space_group_symop_operation_xyz
x,y,z
-x,y,1/2-z
-x,-y,-z
x,-y,1/2+z
loop_
_atom_site_type_symbol
_atom_site_label
_atom_site_fract_x
_atom_site_fract_y
_atom_site_fract_z
Si Si1 0.330642 0.641205 0.638590
Si Si2 0.625908 0.877995 0.061196
Si Si3 0.118374 0.054680 0.560737
Si Si4 0.662572 0.230064 0.361085
Si Si5 0.306473 0.535271 0.435182
O O1 0.500000 0.622050 0.750000
O O2 0.433623 0.705227 0.578503
O O3 0.312584 0.597540 0.509037
O O4 0.000000 0.647200 0.750000
O O5 0.500000 0.877662 0.250000
O O6 0.450385 0.926644 0.008765
O O7 0.957487 0.894234 0.011362
O O8 0.595068 0.816933 0.994861
O O9 0.000000 0.049809 0.750000
O O10 0.000000 0.000000 0.500000
O O11 0.500000 0.214375 0.250000
O O12 0.000000 0.229552 0.250000
O O13 0.500000 0.537646 0.250000
O O14 0.500000 0.500000 0.500000
O O15 0.000000 0.500000 0.500000
#
# Coordination Sequence:
#
# PCOD9232242 Si02
#       5
#     4   4   4   4   4
#     4  10  21  39  60  84 118 153 191 242 293 347
#     4  10  21  37  56  80 112 145 182 231 284 337
#     4  10  21  36  54  79 109 144 184 230 282 335
#     4  10  21  37  59  86 113 148 191 234 286 345
#     4  12  24  39  61  89 120 158 201 245 297 356
#
# _framework density 19.861467999999999
#
# number of rings (size 3 to 8) (size 9 to 14) (size 15 to 20)
#    0.000    1.600    0.000    5.400    0.000    3.200 
#    0.000    0.000    0.000   12.000    0.000    0.000 
#    0.000    0.000    0.000    0.000    0.000    0.000 
#
# Total GULP energy -111414.710949 kJ/mol
# GULP energy per Si atom -5570.735547 kJ/mol
# Density = 1.981626 g / cm^3
# Si number density = 19.861468 Si / 1000 Ang^3
#
#
#
# Elastic Constant Matrix: (Units=GPa)
#
#
# Indices 1 2 3 4 5 6 
#
# 1 145.1178 23.1923 41.6817 0.0000 22.0173 0.0000
# 2 23.1923 117.5170 68.2924 0.0000 23.3322 0.0000
# 3 41.6817 68.2924 80.7116 0.0000 21.9006 0.0000
# 4 0.0000 0.0000 0.0000 22.0962 0.0000 9.1735
# 5 22.0173 23.3322 21.9006 0.0000 27.6693 0.0000
# 6 0.0000 0.0000 0.0000 9.1735 0.0000 35.2886
#
#
#
# Elastic Compliance Matrix: (Units=1/GPa)
#
#
# Indices 1 2 3 4 5 6 
#
# 1 0.008714 0.002145 -0.005021 0.000000 -0.004768 0.000000
# 2 0.002145 0.017572 -0.014635 0.000000 -0.004940 0.000000
# 3 -0.005021 -0.014635 0.029206 0.000000 -0.006780 0.000000
# 4 0.000000 0.000000 0.000000 0.050732 0.000000 -0.013188
# 5 -0.004768 -0.004940 -0.006780 0.000000 0.049468 0.000000
# 6 0.000000 0.000000 0.000000 -0.013188 0.000000 0.031766
#
#
# Mechanical properties :
#
#
# Convention : Reuss Voigt Hill
#
# Bulk Modulus (GPa) = 48.85498 67.74212 58.29855
# Shear Modulus (GPa) = 21.80519 31.02283 26.41401
#
# Velocity S-wave (km/s) = 3.31700 3.95645 3.65075
# Velocity P-wave (km/s) = 6.27066 7.41975 6.86928
#
# Compressibility (1/GPa) = 0.02046874
#
# Stress axis : x y z
#
# Youngs Moduli (GPa) = 114.76062 56.90895 34.23970
#
# Poissons Ratio (x) = -0.12206 0.17192
# Poissons Ratio (y) = -0.24615 0.50111
# Poissons Ratio (z) = 0.57622 0.83288
#
# Static dielectric constant tensor:
#      x y z
#    x 1.765370 0.000000 0.022840 
#    y 0.000000 1.793030 0.000000 
#    z 0.022840 0.000000 1.656400 
# 
# From -- ./inp_files/9955.got.cif
#   From: 2010.05.17/outbox.cif.g08.bks.cpg/sg13_5_cif.got.tgz:9955.got - 2010.06.03 16:44:36.
