data_PCOD9232173
_publ_section_title
;
Structure prediction by ZEFSAII (Michael W. Deem and Ramdas Pophale) SiO2 
 PCOD9232173
Probable space group: P 2/C
;
_chemical_formula_sum "Si O2"
_cell_formula_units_Z 30
_cell_length_a 21.050479
_cell_length_b 14.243243
_cell_length_c 8.123956
_cell_angle_alpha 90.000000
_cell_angle_beta 38.296299
_cell_angle_gamma 90.000000
_cell_volume 1509.523173
_symmetry_space_group_name_H-M "P 2/C"
_symmetry_group_IT_number 13
_symmetry_cell_setting 'monoclinic'
loop_
_space_group_symop_operation_xyz
x,y,z
-x,y,1/2-z
-x,-y,-z
x,-y,1/2+z
loop_
_atom_site_type_symbol
_atom_site_label
_atom_site_fract_x
_atom_site_fract_y
_atom_site_fract_z
Si Si1 0.500000 0.847866 0.750000
Si Si2 0.065816 0.109950 0.287057
Si Si3 0.568716 0.212869 0.763741
Si Si4 0.349229 0.980567 0.550563
Si Si5 0.792747 0.950129 0.389776
Si Si6 0.801674 0.258942 0.332279
Si Si7 0.890962 0.775965 0.285081
Si Si8 0.017557 0.605609 0.018837
O O1 0.511149 0.791658 0.556409
O O2 0.593489 0.921475 0.565274
O O3 0.165806 0.177641 0.104142
O O4 0.000000 0.111406 0.250000
O O5 0.993965 0.161479 0.567912
O O6 0.110056 0.008332 0.241252
O O7 0.500000 0.249539 0.750000
O O8 0.678685 0.263244 0.568116
O O9 0.596780 0.105461 0.650467
O O10 0.233978 0.994919 0.720268
O O11 0.319049 0.955134 0.797127
O O12 0.816188 0.840774 0.331477
O O13 0.840198 0.234906 0.067244
O O14 0.870171 0.349855 0.242683
O O15 0.930383 0.677727 0.130961
O O16 0.000000 0.609963 0.250000
O O17 0.000000 0.500000 0.000000
#
# Coordination Sequence:
#
# PCOD9232173 Si02
#       8
#     2   4   4   4   4   4   4   4
#     4  12  24  38  54  88 120 166 238 262 302 358
#     4  11  21  32  48  81 119 165 203 248 292 359
#     4  12  23  40  62  84 123 169 212 267 312 350
#     4  12  21  34  52  74 118 165 211 267 297 346
#     4  12  21  33  50  75 118 166 209 244 308 359
#     4  10  21  41  57  85 121 157 207 251 302 383
#     4  10  21  35  56  78 115 157 200 242 303 380
#     4   9  20  38  63  87 118 149 193 251 314 388
#
# _framework density 19.873825
#
# number of rings (size 3 to 8) (size 9 to 14) (size 15 to 20)
#    0.000    1.067    4.667    3.600    0.000    4.800 
#    0.000    0.000    0.000    0.000    0.000    3.733 
#    2.000    0.000    0.000    0.000    0.000    0.000 
#
# Total GULP energy -167123.644351 kJ/mol
# GULP energy per Si atom -5570.788145 kJ/mol
# Density = 1.982859 g / cm^3
# Si number density = 19.873825 Si / 1000 Ang^3
#
#
#
# Elastic Constant Matrix: (Units=GPa)
#
#
# Indices 1 2 3 4 5 6 
#
# 1 92.6843 22.4841 20.0639 0.0000 -21.6355 0.0000
# 2 22.4841 111.7618 16.8161 0.0000 -13.8837 0.0000
# 3 20.0639 16.8161 101.6973 0.0000 -0.5333 0.0000
# 4 0.0000 0.0000 0.0000 15.3832 0.0000 -5.5761
# 5 -21.6355 -13.8837 -0.5333 0.0000 30.8350 0.0000
# 6 0.0000 0.0000 0.0000 -5.5761 0.0000 21.9335
#
#
#
# Elastic Compliance Matrix: (Units=1/GPa)
#
#
# Indices 1 2 3 4 5 6 
#
# 1 0.013735 -0.001274 -0.002452 0.000000 0.009021 0.000000
# 2 -0.001274 0.009845 -0.001358 0.000000 0.003516 0.000000
# 3 -0.002452 -0.001358 0.010530 0.000000 -0.002150 0.000000
# 4 0.000000 0.000000 0.000000 0.071605 0.000000 0.018204
# 5 0.009021 0.003516 -0.002150 0.000000 0.040306 0.000000
# 6 0.000000 0.000000 0.000000 0.018204 0.000000 0.050220
#
#
# Mechanical properties :
#
#
# Convention : Reuss Voigt Hill
#
# Bulk Modulus (GPa) = 41.76645 47.20798 44.48721
# Shear Modulus (GPa) = 23.32204 30.08229 26.70216
#
# Velocity S-wave (km/s) = 3.42936 3.89480 3.66947
# Velocity P-wave (km/s) = 6.06153 6.63562 6.35506
#
# Compressibility (1/GPa) = 0.02394266
#
# Stress axis : x y z
#
# Youngs Moduli (GPa) = 72.80727 101.57527 94.96547
#
# Poissons Ratio (x) = 0.12936 0.23284
# Poissons Ratio (y) = 0.09273 0.12898
# Poissons Ratio (z) = 0.17851 0.13796
#
# Static dielectric constant tensor:
#      x y z
#    x -0.877060 0.000000 -2.306640 
#    y 0.000000 1.700290 0.000000 
#    z -2.306640 0.000000 -0.168880 
# 
# From -- ./inp_files/23489.got.cif
#   From: 2010.05.17/outbox.cif.g08.bks.cpg/sg13_12_cif.got.tgz:23489.got - 2010.06.03 16:44:36.
