data_PCOD9232445
_publ_section_title
;
Structure prediction by ZEFSAII (Michael W. Deem and Ramdas Pophale) SiO2 
 PCOD9232445
Probable space group: P 2/C
;
_chemical_formula_sum "Si O2"
_cell_formula_units_Z 30
_cell_length_a 6.432854
_cell_length_b 15.883838
_cell_length_c 16.198304
_cell_angle_alpha 90.000000
_cell_angle_beta 76.162691
_cell_angle_gamma 90.000000
_cell_volume 1607.083397
_symmetry_space_group_name_H-M "P 2/C"
_symmetry_group_IT_number 13
_symmetry_cell_setting 'monoclinic'
loop_
_space_group_symop_operation_xyz
x,y,z
-x,y,1/2-z
-x,-y,-z
x,-y,1/2+z
loop_
_atom_site_type_symbol
_atom_site_label
_atom_site_fract_x
_atom_site_fract_y
_atom_site_fract_z
Si Si1 0.008840 0.613261 0.921018
Si Si2 0.352293 0.615803 0.199102
Si Si3 0.664915 0.487105 0.556811
Si Si4 0.779626 0.954156 0.547170
Si Si5 0.000000 0.478959 0.250000
Si Si6 0.474623 0.892045 0.427300
Si Si7 0.962548 0.199974 0.488342
Si Si8 0.148686 0.778455 0.156706
O O1 0.242359 0.574876 0.918713
O O2 0.955762 0.578011 0.834667
O O3 0.982681 0.711748 0.939566
O O4 0.855561 0.568823 0.002238
O O5 0.500000 0.665822 0.250000
O O6 0.531676 0.565856 0.133577
O O7 0.194380 0.543705 0.247891
O O8 0.216928 0.680910 0.158488
O O9 0.500000 0.500000 0.500000
O O10 0.629206 0.927193 0.484995
O O11 0.875499 0.866501 0.570978
O O12 0.639764 0.027011 0.604589
O O13 0.000000 0.000000 0.500000
O O14 0.636063 0.834435 0.360365
O O15 0.279151 0.836831 0.483758
O O16 0.036707 0.208912 0.577874
O O17 0.000000 0.797392 0.250000
#
# Coordination Sequence:
#
# PCOD9232445 Si02
#       8
#     4   4   4   4   2   4   4   4
#     4  11  24  37  59  86 115 158 207 255 296 359
#     4  12  24  39  56  79 121 165 201 249 310 358
#     4  11  22  37  58  81 113 155 202 250 304 363
#     4   8  16  35  61  90 113 141 192 242 289 364
#     4  12  24  42  54  84 116 170 210 254 308 352
#     4   9  18  35  60  88 116 155 186 235 312 359
#     4  10  21  37  57  92 116 151 207 247 294 365
#     4  11  24  33  54  89 126 155 195 248 300 369
#
# _framework density 18.667356000000002
#
# number of rings (size 3 to 8) (size 9 to 14) (size 15 to 20)
#    0.000    1.600    3.333    1.600    5.600    1.067 
#    0.000    0.000    0.000    0.000   79.733    0.000 
#    0.000    0.000    0.000    0.000    0.000    0.000 
#
# Total GULP energy -167038.017448 kJ/mol
# GULP energy per Si atom -5567.933915 kJ/mol
# Density = 1.862487 g / cm^3
# Si number density = 18.667356 Si / 1000 Ang^3
#
#
#
# Elastic Constant Matrix: (Units=GPa)
#
#
# Indices 1 2 3 4 5 6 
#
# 1 95.4596 41.7862 22.4527 0.0000 -8.6184 0.0000
# 2 41.7862 139.8700 25.0791 0.0000 -18.7005 0.0000
# 3 22.4527 25.0791 42.8596 0.0000 -20.7978 0.0000
# 4 0.0000 0.0000 0.0000 16.1488 0.0000 -8.3771
# 5 -8.6184 -18.7005 -20.7978 0.0000 32.5766 0.0000
# 6 0.0000 0.0000 0.0000 -8.3771 0.0000 35.3114
#
#
#
# Elastic Compliance Matrix: (Units=1/GPa)
#
#
# Indices 1 2 3 4 5 6 
#
# 1 0.013072 -0.003107 -0.006110 0.000000 -0.002226 0.000000
# 2 -0.003107 0.008849 -0.002150 0.000000 0.002885 0.000000
# 3 -0.006110 -0.002150 0.038261 0.000000 0.021576 0.000000
# 4 0.000000 0.000000 0.000000 0.070614 0.000000 0.016752
# 5 -0.002226 0.002885 0.021576 0.000000 0.045539 0.000000
# 6 0.000000 0.000000 0.000000 0.016752 0.000000 0.032294
#
#
# Mechanical properties :
#
#
# Convention : Reuss Voigt Hill
#
# Bulk Modulus (GPa) = 26.70463 50.75834 38.73149
# Shear Modulus (GPa) = 20.50476 29.39877 24.95177
#
# Velocity S-wave (km/s) = 3.31785 3.97278 3.65999
# Velocity P-wave (km/s) = 5.38647 6.94938 6.21724
#
# Compressibility (1/GPa) = 0.03744669
#
# Stress axis : x y z
#
# Youngs Moduli (GPa) = 76.49959 113.00615 26.13636
#
# Poissons Ratio (x) = 0.35115 0.15969
# Poissons Ratio (y) = 0.23771 0.05620
# Poissons Ratio (z) = 0.46742 0.24299
#
# Static dielectric constant tensor:
#      x y z
#    x 1.721620 0.000000 0.012260 
#    y 0.000000 1.683670 0.000000 
#    z 0.012260 0.000000 1.618260 
# 
# From -- ./inp_files/61593.got.cif
#   From: 2010.05.17/outbox.cif.g08.bks.cpg/sg13_31_cif.got.tgz:61593.got - 2010.06.03 16:44:36.
