data_PCOD9232861
_publ_section_title
;
Structure prediction by ZEFSAII (Michael W. Deem and Ramdas Pophale) SiO2 
 PCOD9232861
Probable space group: P 2/C
;
_chemical_formula_sum "Si O2"
_cell_formula_units_Z 30
_cell_length_a 17.406720
_cell_length_b 16.506113
_cell_length_c 14.784023
_cell_angle_alpha 90.000000
_cell_angle_beta 20.180806
_cell_angle_gamma 90.000000
_cell_volume 1465.389484
_symmetry_space_group_name_H-M "P 2/C"
_symmetry_group_IT_number 13
_symmetry_cell_setting 'monoclinic'
loop_
_space_group_symop_operation_xyz
x,y,z
-x,y,1/2-z
-x,-y,-z
x,-y,1/2+z
loop_
_atom_site_type_symbol
_atom_site_label
_atom_site_fract_x
_atom_site_fract_y
_atom_site_fract_z
Si Si1 0.943494 0.738113 0.559881
Si Si2 0.010833 0.971323 0.841555
Si Si3 0.725401 0.085572 0.287322
Si Si4 0.683096 0.471977 0.724350
Si Si5 0.290572 0.171874 0.787661
Si Si6 0.500000 0.447661 0.250000
Si Si7 0.045214 0.398228 0.806283
Si Si8 0.488738 0.685014 0.366587
O O1 0.834460 0.825136 0.660335
O O2 0.179901 0.765899 0.339520
O O3 0.964698 0.677960 0.452481
O O4 0.769220 0.691259 0.817950
O O5 0.000000 0.000826 0.750000
O O6 0.229476 0.955265 0.663252
O O7 0.904199 0.882044 0.956905
O O8 0.855014 0.030304 0.072839
O O9 0.468761 0.107097 0.552702
O O10 0.625737 0.502200 0.687003
O O11 0.638211 0.376451 0.761675
O O12 0.917735 0.519390 0.481173
O O13 0.500000 0.500000 0.000000
O O14 0.411625 0.225822 0.728521
O O15 0.311866 0.402379 0.515560
O O16 0.000000 0.386610 0.750000
O O17 0.500000 0.662354 0.250000
#
# Coordination Sequence:
#
# PCOD9232861 Si02
#       8
#     4   4   4   4   4   2   4   4
#     4  10  22  41  63  93 125 168 208 266 327 379
#     4  10  21  38  64  92 123 169 208 256 317 378
#     4   9  21  41  60  91 130 159 213 260 309 385
#     4  11  22  41  62  88 122 167 211 268 329 379
#     4  10  23  37  63  89 130 164 203 257 325 381
#     4  10  24  40  58  88 120 164 216 260 320 392
#     4  10  23  41  63  88 125 168 218 268 323 390
#     4  11  24  40  62  95 127 159 212 269 323 395
#
# _framework density 20.472372
#
# number of rings (size 3 to 8) (size 9 to 14) (size 15 to 20)
#    0.000    1.867    2.000    0.400    7.467    3.200 
#    2.400    0.000    0.000    3.200    0.000    0.000 
#    0.000    0.000    0.000    0.000    0.000    0.000 
#
# Total GULP energy -167049.005050 kJ/mol
# GULP energy per Si atom -5568.300168 kJ/mol
# Density = 2.042578 g / cm^3
# Si number density = 20.472372 Si / 1000 Ang^3
#
#
#
# Elastic Constant Matrix: (Units=GPa)
#
#
# Indices 1 2 3 4 5 6 
#
# 1 79.8833 28.4659 39.4732 0.0000 13.3340 0.0000
# 2 28.4659 89.8419 33.7434 0.0000 8.1569 0.0000
# 3 39.4732 33.7434 93.0313 0.0000 3.6796 0.0000
# 4 0.0000 0.0000 0.0000 22.5670 0.0000 3.7712
# 5 13.3340 8.1569 3.6796 0.0000 33.5006 0.0000
# 6 0.0000 0.0000 0.0000 3.7712 0.0000 23.7917
#
#
#
# Elastic Compliance Matrix: (Units=1/GPa)
#
#
# Indices 1 2 3 4 5 6 
#
# 1 0.017491 -0.002695 -0.006222 0.000000 -0.005622 0.000000
# 2 -0.002695 0.013537 -0.003695 0.000000 -0.001818 0.000000
# 3 -0.006222 -0.003695 0.014659 0.000000 0.001766 0.000000
# 4 0.000000 0.000000 0.000000 0.045518 0.000000 -0.007215
# 5 -0.005622 -0.001818 0.001766 0.000000 0.032337 0.000000
# 6 0.000000 0.000000 0.000000 -0.007215 0.000000 0.043175
#
#
# Mechanical properties :
#
#
# Convention : Reuss Voigt Hill
#
# Bulk Modulus (GPa) = 48.86349 51.79128 50.32739
# Shear Modulus (GPa) = 25.15565 26.71013 25.93289
#
# Velocity S-wave (km/s) = 3.50917 3.61597 3.56297
# Velocity P-wave (km/s) = 6.35129 6.54115 6.44692
#
# Compressibility (1/GPa) = 0.02046518
#
# Stress axis : x y z
#
# Youngs Moduli (GPa) = 57.17082 73.87025 68.21601
#
# Poissons Ratio (x) = 0.19906 0.42443
# Poissons Ratio (y) = 0.15406 0.25205
# Poissons Ratio (z) = 0.35571 0.27294
#
# Static dielectric constant tensor:
#      x y z
#    x 1.772910 0.000000 -0.072680 
#    y 0.000000 1.739520 0.000000 
#    z -0.072680 0.000000 1.807720 
# 
# From -- ./inp_files/55953.got.cif
#   From: 2010.05.17/outbox.cif.g08.bks.cpg/sg13_28_cif.got.tgz:55953.got - 2010.06.03 16:44:36.
