data_PCOD9232886
_publ_section_title
;
Structure prediction by ZEFSAII (Michael W. Deem and Ramdas Pophale) SiO2 
 PCOD9232886
Probable space group: P 2/C
;
_chemical_formula_sum "Si O2"
_cell_formula_units_Z 28
_cell_length_a 5.055851
_cell_length_b 13.274896
_cell_length_c 21.357880
_cell_angle_alpha 90.000000
_cell_angle_beta 107.104290
_cell_angle_gamma 90.000000
_cell_volume 1370.053048
_symmetry_space_group_name_H-M "P 2/C"
_symmetry_group_IT_number 13
_symmetry_cell_setting 'monoclinic'
loop_
_space_group_symop_operation_xyz
x,y,z
-x,y,1/2-z
-x,-y,-z
x,-y,1/2+z
loop_
_atom_site_type_symbol
_atom_site_label
_atom_site_fract_x
_atom_site_fract_y
_atom_site_fract_z
Si Si1 0.500677 0.488949 0.890522
Si Si2 0.500000 0.455598 0.250000
Si Si3 0.363554 0.713840 0.557879
Si Si4 0.920965 0.192004 0.120456
Si Si5 0.796864 0.220132 0.795322
Si Si6 0.200267 0.987328 0.704334
Si Si7 0.979731 0.363524 0.581049
Si Si8 0.000000 0.313101 0.250000
O O1 0.509548 0.484631 0.815628
O O2 0.521268 0.604731 0.912823
O O3 0.223415 0.441439 0.898428
O O4 0.766355 0.425366 0.931711
O O5 0.765265 0.383990 0.262182
O O6 0.617782 0.792114 0.569965
O O7 0.198026 0.695362 0.482620
O O8 0.145582 0.749938 0.594566
O O9 0.892748 0.243531 0.186704
O O10 0.052674 0.082761 0.142956
O O11 0.500000 0.254465 0.750000
O O12 0.000000 0.225153 0.750000
O O13 0.903453 0.287116 0.859363
O O14 0.766815 0.103231 0.813977
O O15 0.500000 0.949400 0.750000
O O16 0.000000 0.988169 0.750000
#
# Coordination Sequence:
#
# PCOD9232886 Si02
#       8
#     4   2   4   4   4   4   4   2
#     4  12  24  41  63  88 126 165 214 254 311 362
#     4  12  24  38  60  94 122 160 202 276 302 356
#     4  12  25  43  59  93 130 172 204 250 303 387
#     4  12  22  38  65  93 127 163 201 248 318 378
#     4  10  23  44  66  93 121 156 212 270 305 356
#     4  10  21  38  65  95 125 157 200 257 322 369
#     4  12  26  43  65  85 126 174 215 250 307 365
#     4  12  20  38  58  88 132 154 196 260 314 358
#
# _framework density 20.437165
#
# number of rings (size 3 to 8) (size 9 to 14) (size 15 to 20)
#    0.000    0.571    3.571    5.143    4.000    0.000 
#    0.000    1.429    0.000    0.000    0.000    0.000 
#    0.000    0.000    0.000    0.000    0.000    0.000 
#
# Total GULP energy -156711.937535 kJ/mol
# GULP energy per Si atom -5596.854912 kJ/mol
# Density = 2.039065 g / cm^3
# Si number density = 20.437165 Si / 1000 Ang^3
#
#
#
# Elastic Constant Matrix: (Units=GPa)
#
#
# Indices 1 2 3 4 5 6 
#
# 1 100.0562 20.7202 12.5845 0.0000 15.2997 0.0000
# 2 20.7202 75.4990 45.6254 0.0000 5.5166 0.0000
# 3 12.5845 45.6254 95.1124 0.0000 18.7618 0.0000
# 4 0.0000 0.0000 0.0000 10.6782 0.0000 7.5251
# 5 15.2997 5.5166 18.7618 0.0000 29.0913 0.0000
# 6 0.0000 0.0000 0.0000 7.5251 0.0000 32.9232
#
#
#
# Elastic Compliance Matrix: (Units=1/GPa)
#
#
# Indices 1 2 3 4 5 6 
#
# 1 0.011516 -0.003564 0.001429 0.000000 -0.006302 0.000000
# 2 -0.003564 0.019923 -0.009979 0.000000 0.004532 0.000000
# 3 0.001429 -0.009979 0.017057 0.000000 -0.009860 0.000000
# 4 0.000000 0.000000 0.000000 0.111629 0.000000 -0.025515
# 5 -0.006302 0.004532 -0.009860 0.000000 0.043188 0.000000
# 6 0.000000 0.000000 0.000000 -0.025515 0.000000 0.036206
#
#
# Mechanical properties :
#
#
# Convention : Reuss Voigt Hill
#
# Bulk Modulus (GPa) = 41.20703 47.61420 44.41061
# Shear Modulus (GPa) = 18.39338 27.32102 22.85720
#
# Velocity S-wave (km/s) = 3.00325 3.66024 3.34790
# Velocity P-wave (km/s) = 5.67737 6.41962 6.05987
#
# Compressibility (1/GPa) = 0.02426771
#
# Stress axis : x y z
#
# Youngs Moduli (GPa) = 86.83309 50.19366 58.62743
#
# Poissons Ratio (x) = 0.17887 -0.08377
# Poissons Ratio (y) = 0.30944 0.58507
# Poissons Ratio (z) = -0.12408 0.50091
#
# Static dielectric constant tensor:
#      x y z
#    x 1.710430 0.000000 0.036430 
#    y 0.000000 1.736300 0.000000 
#    z 0.036430 0.000000 1.715170 
# 
# From -- ./inp_files/73690.got.cif
#   From: 2010.05.17/outbox.cif.g08.bks.cpg/sg13_37_cif.got.tgz:73690.got - 2010.06.03 16:44:36.
