data_PCOD9232800
_publ_section_title
;
Structure prediction by ZEFSAII (Michael W. Deem and Ramdas Pophale) SiO2 
 PCOD9232800
Probable space group: P 2/C
;
_chemical_formula_sum "Si O2"
_cell_formula_units_Z 26
_cell_length_a 9.735185
_cell_length_b 10.327320
_cell_length_c 22.534761
_cell_angle_alpha 90.000000
_cell_angle_beta 146.750450
_cell_angle_gamma 90.000000
_cell_volume 1242.202732
_symmetry_space_group_name_H-M "P 2/C"
_symmetry_group_IT_number 13
_symmetry_cell_setting 'monoclinic'
loop_
_space_group_symop_operation_xyz
x,y,z
-x,y,1/2-z
-x,-y,-z
x,-y,1/2+z
loop_
_atom_site_type_symbol
_atom_site_label
_atom_site_fract_x
_atom_site_fract_y
_atom_site_fract_z
Si Si1 0.582596 0.166425 0.079908
Si Si2 0.000000 0.619236 0.750000
Si Si3 0.129839 0.249332 0.973775
Si Si4 0.146113 0.371008 0.529319
Si Si5 0.757028 0.491422 0.055306
Si Si6 0.596487 0.205970 0.725749
Si Si7 0.284210 0.121293 0.857848
O O1 0.765417 0.282655 0.163447
O O2 0.723671 0.029945 0.127288
O O3 0.355404 0.152135 0.044433
O O4 0.444052 0.189447 0.967038
O O5 0.972168 0.529209 0.682217
O O6 0.232238 0.382845 0.982447
O O7 0.034146 0.262706 0.006520
O O8 0.885880 0.226493 0.845649
O O9 0.193476 0.380705 0.476425
O O10 0.418696 0.334175 0.655464
O O11 0.000000 0.500000 0.500000
O O12 0.500000 0.500000 0.000000
O O13 0.500000 0.134271 0.750000
O O14 0.586050 0.138181 0.658747
O O15 0.000000 0.171441 0.750000
#
# Coordination Sequence:
#
# PCOD9232800 Si02
#       7
#     4   2   4   4   4   4   4
#     4  11  23  40  63  95 126 164 213 272 325 380
#     4  12  24  38  58  96 134 150 210 270 316 378
#     4  10  21  39  62  86 123 164 211 251 316 394
#     4   9  21  40  58  87 127 163 207 257 319 380
#     4  11  23  36  59  90 123 164 204 257 315 380
#     4  10  21  38  62  90 119 164 211 261 316 387
#     4  11  22  40  69  91 122 167 219 270 331 380
#
# _framework density 20.930561000000001
#
# number of rings (size 3 to 8) (size 9 to 14) (size 15 to 20)
#    0.000    1.538    3.846    0.923    2.154    0.000 
#    0.000    5.385    0.000    0.000    0.000    0.000 
#    0.000    0.000    0.000    0.000    0.000    0.000 
#
# Total GULP energy -144790.558172 kJ/mol
# GULP energy per Si atom -5568.867622 kJ/mol
# Density = 2.088292 g / cm^3
# Si number density = 20.930561 Si / 1000 Ang^3
#
#
#
# Elastic Constant Matrix: (Units=GPa)
#
#
# Indices 1 2 3 4 5 6 
#
# 1 148.9983 5.4287 47.3582 0.0000 -17.6939 0.0000
# 2 5.4287 29.4692 13.0487 0.0000 1.9140 0.0000
# 3 47.3582 13.0487 111.2541 0.0000 1.0193 0.0000
# 4 0.0000 0.0000 0.0000 15.4578 0.0000 4.5229
# 5 -17.6939 1.9140 1.0193 0.0000 44.2167 0.0000
# 6 0.0000 0.0000 0.0000 4.5229 0.0000 26.8435
#
#
#
# Elastic Compliance Matrix: (Units=1/GPa)
#
#
# Indices 1 2 3 4 5 6 
#
# 1 0.008238 -0.000180 -0.003516 0.000000 0.003385 0.000000
# 2 -0.000180 0.035890 -0.004119 0.000000 -0.001531 0.000000
# 3 -0.003516 -0.004119 0.010982 0.000000 -0.001482 0.000000
# 4 0.000000 0.000000 0.000000 0.068047 0.000000 -0.011465
# 5 0.003385 -0.001531 -0.001482 0.000000 0.024071 0.000000
# 6 0.000000 0.000000 0.000000 -0.011465 0.000000 0.039185
#
#
# Mechanical properties :
#
#
# Convention : Reuss Voigt Hill
#
# Bulk Modulus (GPa) = 25.33003 46.82141 36.07572
# Shear Modulus (GPa) = 23.23391 32.22936 27.73163
#
# Velocity S-wave (km/s) = 3.33535 3.92831 3.64391
# Velocity P-wave (km/s) = 5.19239 6.55698 5.91418
#
# Compressibility (1/GPa) = 0.03947884
#
# Stress axis : x y z
#
# Youngs Moduli (GPa) = 121.39214 27.86288 91.05841
#
# Poissons Ratio (x) = 0.00502 0.32021
# Poissons Ratio (y) = 0.02189 0.37504
# Poissons Ratio (z) = 0.42687 0.11476
#
# Static dielectric constant tensor:
#      x y z
#    x 1.864200 0.000000 0.060980 
#    y 0.000000 1.820350 0.000000 
#    z 0.060980 0.000000 1.787210 
# 
# From -- ./inp_files/76514.got.cif
#   From: 2010.05.17/outbox.cif.g08.bks.cpg/sg13_39_cif.got.tgz:76514.got - 2010.06.03 16:44:36.
