data_PCOD9232663
_publ_section_title
;
Structure prediction by ZEFSAII (Michael W. Deem and Ramdas Pophale) SiO2 
 PCOD9232663
Probable space group: P 2/C
;
_chemical_formula_sum "Si O2"
_cell_formula_units_Z 28
_cell_length_a 5.527341
_cell_length_b 13.433967
_cell_length_c 18.949567
_cell_angle_alpha 90.000000
_cell_angle_beta 98.563426
_cell_angle_gamma 90.000000
_cell_volume 1391.396676
_symmetry_space_group_name_H-M "P 2/C"
_symmetry_group_IT_number 13
_symmetry_cell_setting 'monoclinic'
loop_
_space_group_symop_operation_xyz
x,y,z
-x,y,1/2-z
-x,-y,-z
x,-y,1/2+z
loop_
_atom_site_type_symbol
_atom_site_label
_atom_site_fract_x
_atom_site_fract_y
_atom_site_fract_z
Si Si1 0.832813 0.280367 0.429680
Si Si2 0.436159 0.924643 0.433127
Si Si3 0.082148 0.567102 0.834611
Si Si4 0.234927 0.451637 0.970301
Si Si5 0.259638 0.955907 0.790618
Si Si6 0.598526 0.248717 0.175807
Si Si7 0.957863 0.882441 0.479175
O O1 0.762269 0.342298 0.496180
O O2 0.611023 0.218121 0.387586
O O3 0.895522 0.363969 0.372761
O O4 0.038230 0.199242 0.458132
O O5 0.696752 0.873203 0.430297
O O6 0.204459 0.859751 0.446582
O O7 0.500000 0.000000 0.500000
O O8 0.343621 0.984557 0.362210
O O9 0.167373 0.473501 0.885528
O O10 0.304666 0.644560 0.841653
O O11 0.000000 0.548056 0.750000
O O12 0.500000 0.500000 0.000000
O O13 0.000000 0.500000 0.000000
O O14 0.500000 0.956525 0.750000
O O15 0.212497 0.841296 0.810980
O O16 0.000000 0.994114 0.750000
O O17 0.500000 0.259948 0.250000
O O18 0.000000 0.000000 0.500000
#
# Coordination Sequence:
#
# PCOD9232663 Si02
#       7
#     4   4   4   4   4   4   4
#     4  11  23  37  60  89 128 164 211 262 316 378
#     4  10  21  38  57  81 120 163 210 250 301 360
#     4  11  22  37  60  89 126 160 202 254 324 387
#     4  10  22  40  59  87 121 163 205 252 311 377
#     4  11  24  38  58  87 126 164 205 253 320 380
#     4  11  21  32  55  89 127 162 196 251 324 384
#     4  10  22  35  57  86 117 160 208 258 301 363
#
# _framework density 20.123664000000002
#
# number of rings (size 3 to 8) (size 9 to 14) (size 15 to 20)
#    0.000    1.429    2.857    3.000    8.000    0.000 
#    0.000    0.000    0.000    2.571    0.000    0.000 
#    0.000    0.000    0.000    0.000    0.000    0.000 
#
# Total GULP energy -155966.329282 kJ/mol
# GULP energy per Si atom -5570.226046 kJ/mol
# Density = 2.007786 g / cm^3
# Si number density = 20.123664 Si / 1000 Ang^3
#
#
#
# Elastic Constant Matrix: (Units=GPa)
#
#
# Indices 1 2 3 4 5 6 
#
# 1 126.1915 20.4597 39.8140 0.0000 16.7663 0.0000
# 2 20.4597 63.2916 51.9084 0.0000 1.9521 0.0000
# 3 39.8140 51.9084 149.4106 0.0000 16.5126 0.0000
# 4 0.0000 0.0000 0.0000 8.7230 0.0000 7.3046
# 5 16.7663 1.9521 16.5126 0.0000 39.9343 0.0000
# 6 0.0000 0.0000 0.0000 7.3046 0.0000 19.7992
#
#
#
# Elastic Compliance Matrix: (Units=1/GPa)
#
#
# Indices 1 2 3 4 5 6 
#
# 1 0.009075 -0.001588 -0.001523 0.000000 -0.003102 0.000000
# 2 -0.001588 0.022559 -0.007719 0.000000 0.002756 0.000000
# 3 -0.001523 -0.007719 0.010131 0.000000 -0.003172 0.000000
# 4 0.000000 0.000000 0.000000 0.165891 0.000000 -0.061203
# 5 -0.003102 0.002756 -0.003172 0.000000 0.027521 0.000000
# 6 0.000000 0.000000 0.000000 -0.061203 0.000000 0.073087
#
#
# Mechanical properties :
#
#
# Convention : Reuss Voigt Hill
#
# Bulk Modulus (GPa) = 49.74212 62.58422 56.16317
# Shear Modulus (GPa) = 14.85327 28.80539 21.82933
#
# Velocity S-wave (km/s) = 2.71975 3.78751 3.29714
# Velocity P-wave (km/s) = 5.88511 7.09185 6.51648
#
# Compressibility (1/GPa) = 0.02010369
#
# Stress axis : x y z
#
# Youngs Moduli (GPa) = 110.19446 44.32850 98.70516
#
# Poissons Ratio (x) = 0.07041 0.15038
# Poissons Ratio (y) = 0.17503 0.76188
# Poissons Ratio (z) = 0.16788 0.34216
#
# Static dielectric constant tensor:
#      x y z
#    x 1.931880 0.000000 -0.054120 
#    y 0.000000 1.736150 0.000000 
#    z -0.054120 0.000000 1.773260 
# 
# From -- ./inp_files/61415.got.cif
#   From: 2010.05.17/outbox.cif.g08.bks.cpg/sg13_31_cif.got.tgz:61415.got - 2010.06.03 16:44:36.
