data_PCOD9232377
_publ_section_title
;
Structure prediction by ZEFSAII (Michael W. Deem and Ramdas Pophale) SiO2 
 PCOD9232377
Probable space group: P 2/C
;
_chemical_formula_sum "Si O2"
_cell_formula_units_Z 32
_cell_length_a 20.554289
_cell_length_b 5.176031
_cell_length_c 17.385152
_cell_angle_alpha 90.000000
_cell_angle_beta 51.332011
_cell_angle_gamma 90.000000
_cell_volume 1444.129970
_symmetry_space_group_name_H-M "P 2/C"
_symmetry_group_IT_number 13
_symmetry_cell_setting 'monoclinic'
loop_
_space_group_symop_operation_xyz
x,y,z
-x,y,1/2-z
-x,-y,-z
x,-y,1/2+z
loop_
_atom_site_type_symbol
_atom_site_label
_atom_site_fract_x
_atom_site_fract_y
_atom_site_fract_z
Si Si1 0.091623 0.422161 0.907630
Si Si2 0.432831 0.182716 0.350795
Si Si3 0.627609 0.584751 0.370732
Si Si4 0.190607 0.426910 0.203396
Si Si5 0.288726 0.591322 0.492429
Si Si6 0.591312 0.095073 0.490619
Si Si7 0.663742 0.183532 0.693302
Si Si8 0.812299 0.084271 0.164032
O O1 0.110014 0.447056 0.802154
O O2 0.154306 0.643763 0.892437
O O3 0.122967 0.139071 0.905200
O O4 0.000000 0.500000 0.000000
O O5 0.500000 0.335612 0.250000
O O6 0.359447 0.368216 0.436247
O O7 0.466741 0.021526 0.399068
O O8 0.397389 0.980045 0.315027
O O9 0.725208 0.542028 0.319452
O O10 0.420896 0.650246 0.552186
O O11 0.622544 0.615483 0.282907
O O12 0.603449 0.857229 0.425204
O O13 0.189597 0.139543 0.242307
O O14 0.206373 0.467557 0.102040
O O15 0.330043 0.817151 0.514626
O O16 0.278620 0.677247 0.412840
O O17 0.722385 0.995613 0.699867
#
# Coordination Sequence:
#
# PCOD9232377 Si02
#       8
#     4   4   4   4   4   4   4   4
#     4  10  21  36  63 100 128 161 204 256 316 378
#     4  11  25  44  64  92 132 174 215 271 335 398
#     4  11  20  37  66  92 117 154 215 275 310 366
#     4   9  20  35  66  90 125 163 215 254 305 384
#     4  10  22  37  63  92 124 167 218 257 321 387
#     4  10  21  41  64  85 122 161 212 263 316 391
#     4  11  23  37  64  97 124 162 221 272 327 376
#     4  10  21  36  65  94 124 161 209 263 306 372
#
# _framework density 22.158670000000001
#
# number of rings (size 3 to 8) (size 9 to 14) (size 15 to 20)
#    0.750    1.000    3.750    1.875    5.250    2.000 
#    0.000    1.250    0.000    3.000    0.000    0.000 
#    0.000    0.000    0.000    0.000    0.000    0.000 
#
# Total GULP energy -178408.154364 kJ/mol
# GULP energy per Si atom -5575.254824 kJ/mol
# Density = 2.210824 g / cm^3
# Si number density = 22.158670 Si / 1000 Ang^3
#
#
#
# Elastic Constant Matrix: (Units=GPa)
#
#
# Indices 1 2 3 4 5 6 
#
# 1 38.8850 26.5781 37.5558 0.0000 13.4073 0.0000
# 2 26.5781 133.0666 47.7699 0.0000 7.0385 0.0000
# 3 37.5558 47.7699 171.1984 0.0000 13.3376 0.0000
# 4 0.0000 0.0000 0.0000 29.2202 0.0000 4.4323
# 5 13.4073 7.0385 13.3376 0.0000 31.2031 0.0000
# 6 0.0000 0.0000 0.0000 4.4323 0.0000 30.3850
#
#
#
# Elastic Compliance Matrix: (Units=1/GPa)
#
#
# Indices 1 2 3 4 5 6 
#
# 1 0.039788 -0.004982 -0.006304 0.000000 -0.013278 0.000000
# 2 -0.004982 0.009001 -0.001476 0.000000 0.000741 0.000000
# 3 -0.006304 -0.001476 0.007654 0.000000 -0.000230 0.000000
# 4 0.000000 0.000000 0.000000 0.034997 0.000000 -0.005105
# 5 -0.013278 0.000741 -0.000230 0.000000 0.037684 0.000000
# 6 0.000000 0.000000 0.000000 -0.005105 0.000000 0.033656
#
#
# Mechanical properties :
#
#
# Convention : Reuss Voigt Hill
#
# Bulk Modulus (GPa) = 32.34246 62.99527 47.66887
# Shear Modulus (GPa) = 25.17482 33.57809 29.37646
#
# Velocity S-wave (km/s) = 3.37429 3.89697 3.64501
# Velocity P-wave (km/s) = 5.45973 6.98136 6.26690
#
# Compressibility (1/GPa) = 0.03091911
#
# Stress axis : x y z
#
# Youngs Moduli (GPa) = 25.13291 111.10010 130.65158
#
# Poissons Ratio (x) = 0.55348 0.82361
# Poissons Ratio (y) = 0.12521 0.19290
# Poissons Ratio (z) = 0.15843 0.16403
#
# Static dielectric constant tensor:
#      x y z
#    x 1.814260 0.000000 -0.003060 
#    y 0.000000 1.896200 0.000000 
#    z -0.003060 0.000000 1.937060 
# 
# From -- ./inp_files/70286.got.cif
#   From: 2010.05.17/outbox.cif.g08.bks.cpg/sg13_36_cif.got.tgz:70286.got - 2010.06.03 16:44:36.
