data_PCOD9232387
_publ_section_title
;
Structure prediction by ZEFSAII (Michael W. Deem and Ramdas Pophale) SiO2 
 PCOD9232387
Probable space group: P 2/C
;
_chemical_formula_sum "Si O2"
_cell_formula_units_Z 30
_cell_length_a 8.815512
_cell_length_b 8.244403
_cell_length_c 22.163903
_cell_angle_alpha 90.000000
_cell_angle_beta 104.609041
_cell_angle_gamma 90.000000
_cell_volume 1558.762663
_symmetry_space_group_name_H-M "P 2/C"
_symmetry_group_IT_number 13
_symmetry_cell_setting 'monoclinic'
loop_
_space_group_symop_operation_xyz
x,y,z
-x,y,1/2-z
-x,-y,-z
x,-y,1/2+z
loop_
_atom_site_type_symbol
_atom_site_label
_atom_site_fract_x
_atom_site_fract_y
_atom_site_fract_z
Si Si1 0.429793 0.302076 0.178778
Si Si2 0.289720 0.774971 0.054749
Si Si3 0.239823 0.145395 0.055770
Si Si4 0.169778 0.417775 0.649954
Si Si5 0.398320 0.350067 0.964093
Si Si6 0.000000 0.434571 0.750000
Si Si7 0.062898 0.331456 0.436378
Si Si8 0.258815 0.415420 0.356553
O O1 0.500000 0.246278 0.250000
O O2 0.342777 0.174334 0.126668
O O3 0.304002 0.447259 0.176939
O O4 0.575777 0.366520 0.154139
O O5 0.250266 0.719664 0.118173
O O6 0.471035 0.758762 0.055568
O O7 0.240512 0.958514 0.038163
O O8 0.186014 0.653017 0.002999
O O9 0.066890 0.205812 0.054938
O O10 0.311104 0.255588 0.008974
O O11 0.085004 0.351597 0.701560
O O12 0.038052 0.515155 0.597649
O O13 0.286465 0.429219 0.902719
O O14 0.500000 0.500000 0.000000
O O15 0.136567 0.542388 0.792636
O O16 0.174311 0.284690 0.391279
#
# Coordination Sequence:
#
# PCOD9232387 Si02
#       8
#     4   4   4   4   4   2   4   4
#     4  11  20  40  63  87 117 162 209 254 298 366
#     4  12  22  39  60  91 127 160 197 254 317 378
#     4  11  25  38  57  93 128 163 197 249 323 372
#     4  10  21  36  64  86 117 155 213 255 302 354
#     4  12  21  38  64  92 121 154 205 257 306 366
#     4  10  22  36  58  94 112 152 198 270 298 350
#     4  10  22  37  59  88 123 158 197 253 308 363
#     4  11  21  37  64  92 117 151 211 259 303 354
#
# _framework density 19.246034999999999
#
# number of rings (size 3 to 8) (size 9 to 14) (size 15 to 20)
#    0.000    1.067    5.333    2.000    3.733    0.000 
#    0.000    2.000    2.933    0.000    0.000    0.000 
#    0.000    0.000    0.000    0.000    0.000    0.000 
#
# Total GULP energy -167345.018814 kJ/mol
# GULP energy per Si atom -5578.167294 kJ/mol
# Density = 1.920223 g / cm^3
# Si number density = 19.246035 Si / 1000 Ang^3
#
#
#
# Elastic Constant Matrix: (Units=GPa)
#
#
# Indices 1 2 3 4 5 6 
#
# 1 143.2393 24.6609 49.3929 0.0000 -14.9664 0.0000
# 2 24.6609 50.4218 18.4347 0.0000 -16.0494 0.0000
# 3 49.3929 18.4347 103.1198 0.0000 -11.9605 0.0000
# 4 0.0000 0.0000 0.0000 7.2401 0.0000 2.7570
# 5 -14.9664 -16.0494 -11.9605 0.0000 49.1948 0.0000
# 6 0.0000 0.0000 0.0000 2.7570 0.0000 12.2058
#
#
#
# Elastic Compliance Matrix: (Units=1/GPa)
#
#
# Indices 1 2 3 4 5 6 
#
# 1 0.008788 -0.002681 -0.003624 0.000000 0.000918 0.000000
# 2 -0.002681 0.024032 -0.002261 0.000000 0.006475 0.000000
# 3 -0.003624 -0.002261 0.011961 0.000000 0.001068 0.000000
# 4 0.000000 0.000000 0.000000 0.151117 0.000000 -0.034134
# 5 0.000918 0.006475 0.001068 0.000000 0.022979 0.000000
# 6 0.000000 0.000000 0.000000 -0.034134 0.000000 0.089638
#
#
# Mechanical properties :
#
#
# Convention : Reuss Voigt Hill
#
# Bulk Modulus (GPa) = 36.16700 53.52864 44.84782
# Shear Modulus (GPa) = 14.93144 27.34764 21.13954
#
# Velocity S-wave (km/s) = 2.78837 3.77364 3.31778
# Velocity P-wave (km/s) = 5.40365 6.84546 6.16684
#
# Compressibility (1/GPa) = 0.02764951
#
# Stress axis : x y z
#
# Youngs Moduli (GPa) = 113.78607 41.61189 83.60347
#
# Poissons Ratio (x) = 0.11157 0.30296
# Poissons Ratio (y) = 0.30509 0.18901
# Poissons Ratio (z) = 0.41233 0.09408
#
# Static dielectric constant tensor:
#      x y z
#    x 1.701940 0.000000 -0.014010 
#    y 0.000000 1.635100 0.000000 
#    z -0.014010 0.000000 1.714100 
# 
# From -- ./inp_files/75721.got.cif
#   From: 2010.05.17/outbox.cif.g08.bks.cpg/sg13_38_cif.got.tgz:75721.got - 2010.06.03 16:44:36.
