data_PCOD9232115
_publ_section_title
;
Structure prediction by ZEFSAII (Michael W. Deem and Ramdas Pophale) SiO2 
 PCOD9232115
Probable space group: P 2/C
;
_chemical_formula_sum "Si O2"
_cell_formula_units_Z 28
_cell_length_a 9.569968
_cell_length_b 8.779828
_cell_length_c 29.804577
_cell_angle_alpha 90.000000
_cell_angle_beta 140.606526
_cell_angle_gamma 90.000000
_cell_volume 1589.309958
_symmetry_space_group_name_H-M "P 2/C"
_symmetry_group_IT_number 13
_symmetry_cell_setting 'monoclinic'
loop_
_space_group_symop_operation_xyz
x,y,z
-x,y,1/2-z
-x,-y,-z
x,-y,1/2+z
loop_
_atom_site_type_symbol
_atom_site_label
_atom_site_fract_x
_atom_site_fract_y
_atom_site_fract_z
Si Si1 0.747438 0.973420 0.926824
Si Si2 0.118942 0.894259 0.734927
Si Si3 0.709331 0.169913 0.081066
Si Si4 0.264077 0.625217 0.316379
Si Si5 0.524200 0.699107 0.623315
Si Si6 0.532171 0.144659 0.565690
Si Si7 0.557127 0.852562 0.214105
O O1 0.689197 0.792987 0.912868
O O2 0.603772 0.053598 0.930306
O O3 0.654718 0.061491 0.860277
O O4 0.000000 0.000000 0.000000
O O5 0.285495 0.779677 0.800122
O O6 0.000000 0.965332 0.750000
O O7 0.953224 0.807517 0.660837
O O8 0.252589 0.019709 0.741103
O O9 0.556786 0.254903 0.079391
O O10 0.676180 0.986977 0.077831
O O11 0.634900 0.210805 0.012812
O O12 0.421212 0.477466 0.358530
O O13 0.319014 0.731418 0.372862
O O14 0.349309 0.719298 0.294331
O O15 0.000000 0.591931 0.250000
O O16 0.500000 0.803723 0.250000
#
# Coordination Sequence:
#
# PCOD9232115 Si02
#       7
#     4   4   4   4   4   4   4
#     4   9  19  37  56  76 106 146 181 223 277 316
#     4   9  16  32  56  76  99 135 180 228 272 313
#     4   9  16  31  52  79 105 130 182 233 266 307
#     4  11  20  36  56  77 113 149 175 220 284 330
#     4   9  19  34  55  79 105 139 177 220 268 329
#     4   9  19  30  50  80 107 136 178 228 266 320
#     4  10  21  34  53  82 107 141 189 226 262 329
#
# _framework density 17.617709999999999
#
# number of rings (size 3 to 8) (size 9 to 14) (size 15 to 20)
#    0.000    2.571    0.000    5.143    2.000    0.571 
#    2.571    5.714    3.143    0.000    0.000    0.000 
#    0.000    0.000    0.000    0.000    0.000    0.000 
#
# Total GULP energy -155871.363901 kJ/mol
# GULP energy per Si atom -5566.834425 kJ/mol
# Density = 1.757761 g / cm^3
# Si number density = 17.617710 Si / 1000 Ang^3
#
#
#
# Elastic Constant Matrix: (Units=GPa)
#
#
# Indices 1 2 3 4 5 6 
#
# 1 40.1759 21.1585 31.0982 0.0000 -11.1793 0.0000
# 2 21.1585 78.1497 12.8081 0.0000 0.2404 0.0000
# 3 31.0982 12.8081 95.2870 0.0000 -2.7169 0.0000
# 4 0.0000 0.0000 0.0000 10.7978 0.0000 5.4183
# 5 -11.1793 0.2404 -2.7169 0.0000 38.1197 0.0000
# 6 0.0000 0.0000 0.0000 5.4183 0.0000 8.6452
#
#
#
# Elastic Compliance Matrix: (Units=1/GPa)
#
#
# Indices 1 2 3 4 5 6 
#
# 1 0.042741 -0.009588 -0.012326 0.000000 0.011717 0.000000
# 2 -0.009588 0.015237 0.001000 0.000000 -0.002837 0.000000
# 3 -0.012326 0.001000 0.014309 0.000000 -0.002601 0.000000
# 4 0.000000 0.000000 0.000000 0.135102 0.000000 -0.084675
# 5 0.011717 -0.002837 -0.002601 0.000000 0.029502 0.000000
# 6 0.000000 0.000000 0.000000 -0.084675 0.000000 0.168741
#
#
# Mechanical properties :
#
#
# Convention : Reuss Voigt Hill
#
# Bulk Modulus (GPa) = 32.83116 38.19358 35.51237
# Shear Modulus (GPa) = 10.92628 21.41571 16.17099
#
# Velocity S-wave (km/s) = 2.49306 3.49030 3.03294
# Velocity P-wave (km/s) = 5.19258 6.16190 5.69789
#
# Compressibility (1/GPa) = 0.03045887
#
# Stress axis : x y z
#
# Youngs Moduli (GPa) = 23.39648 65.63141 69.88668
#
# Poissons Ratio (x) = 0.62926 0.86145
# Poissons Ratio (y) = 0.22432 -0.06990
# Poissons Ratio (z) = 0.28839 -0.06564
#
# Static dielectric constant tensor:
#      x y z
#    x 1.610650 0.000000 0.001160 
#    y 0.000000 1.624130 0.000000 
#    z 0.001160 0.000000 1.664310 
# 
# From -- ./inp_files/95978.got.cif
#   From: 2010.05.17/outbox.cif.g08.bks.cpg/sg13_48_cif.got.tgz:95978.got - 2010.06.03 16:44:36.
