data_PCOD9232452
_publ_section_title
;
Structure prediction by ZEFSAII (Michael W. Deem and Ramdas Pophale) SiO2 
 PCOD9232452
Probable space group: P 2/C
;
_chemical_formula_sum "Si O2"
_cell_formula_units_Z 16
_cell_length_a 13.799192
_cell_length_b 5.292539
_cell_length_c 9.380436
_cell_angle_alpha 90.000000
_cell_angle_beta 106.484833
_cell_angle_gamma 90.000000
_cell_volume 656.918890
_symmetry_space_group_name_H-M "P 2/C"
_symmetry_group_IT_number 13
_symmetry_cell_setting 'monoclinic'
loop_
_space_group_symop_operation_xyz
x,y,z
-x,y,1/2-z
-x,-y,-z
x,-y,1/2+z
loop_
_atom_site_type_symbol
_atom_site_label
_atom_site_fract_x
_atom_site_fract_y
_atom_site_fract_z
Si Si1 0.074213 0.888205 0.147261
Si Si2 0.120067 0.377709 0.264462
Si Si3 0.619211 0.189754 0.288053
Si Si4 0.686888 0.308529 0.988349
O O1 0.127050 0.620293 0.168685
O O2 0.000000 0.853599 0.250000
O O3 0.149094 0.117066 0.202127
O O4 0.000000 0.000000 0.000000
O O5 0.196949 0.384970 0.425479
O O6 0.000000 0.353304 0.250000
O O7 0.500000 0.136751 0.250000
O O8 0.642354 0.445613 0.389015
O O9 0.671558 0.943201 0.385348
O O10 0.642271 0.248294 0.129331
#
# Coordination Sequence:
#
# PCOD9232452 Si02
#       4
#     4   4   4   4
#     4  10  21  37  58  84 122 174 218 261 318 380
#     4  10  23  41  63  95 136 177 220 273 331 408
#     4  12  26  49  74 104 139 181 236 302 358 417
#     4  12  26  45  74 107 140 186 236 286 358 427
#
# _framework density 24.356124999999999
#
# number of rings (size 3 to 8) (size 9 to 14) (size 15 to 20)
#    0.000    1.000    0.000    6.000    0.000   12.000 
#    0.000    0.000    0.000    0.000    0.000    0.000 
#    0.000    0.000    0.000    0.000    0.000    0.000 
#
# Total GULP energy -89291.144243 kJ/mol
# GULP energy per Si atom -5580.696515 kJ/mol
# Density = 2.430069 g / cm^3
# Si number density = 24.356125 Si / 1000 Ang^3
#
#
#
# Elastic Constant Matrix: (Units=GPa)
#
#
# Indices 1 2 3 4 5 6 
#
# 1 175.5926 -85.6358 0.4653 0.0000 -25.6542 0.0000
# 2 -85.6358 494.4332 220.2600 0.0000 46.7657 0.0000
# 3 0.4653 220.2600 256.0739 0.0000 11.1176 0.0000
# 4 0.0000 0.0000 0.0000 91.7630 0.0000 -42.5984
# 5 -25.6542 46.7657 11.1176 0.0000 65.7009 0.0000
# 6 0.0000 0.0000 0.0000 -42.5984 0.0000 35.6255
#
#
#
# Elastic Compliance Matrix: (Units=1/GPa)
#
#
# Indices 1 2 3 4 5 6 
#
# 1 0.006779 0.001705 -0.001553 0.000000 0.001696 0.000000
# 2 0.001705 0.003953 -0.003335 0.000000 -0.001584 0.000000
# 3 -0.001553 -0.003335 0.006749 0.000000 0.000625 0.000000
# 4 0.000000 0.000000 0.000000 0.024494 0.000000 0.029288
# 5 0.001696 -0.001584 0.000625 0.000000 0.016904 0.000000
# 6 0.000000 0.000000 0.000000 0.029288 0.000000 0.063090
#
#
# Mechanical properties :
#
#
# Convention : Reuss Voigt Hill
#
# Bulk Modulus (GPa) = 89.95462 132.91984 111.43723
# Shear Modulus (GPa) = 37.86782 91.35190 64.60986
#
# Velocity S-wave (km/s) = 3.94732 6.13092 5.15604
# Velocity P-wave (km/s) = 7.60186 10.23765 9.01659
#
# Compressibility (1/GPa) = 0.01111672
#
# Stress axis : x y z
#
# Youngs Moduli (GPa) = 147.52342 252.95837 148.16805
#
# Poissons Ratio (x) = -0.43140 0.23008
# Poissons Ratio (y) = -0.25159 0.49409
# Poissons Ratio (z) = 0.22908 0.84353
#
# Static dielectric constant tensor:
#      x y z
#    x 2.077480 0.000000 -0.015080 
#    y 0.000000 2.004740 0.000000 
#    z -0.015080 0.000000 1.907590 
# 
# From -- ./inp_files/17634.got.cif
#   From: 2010.05.17/outbox.cif.g08.bks.cpg/sg13_9_cif.got.tgz:17634.got - 2010.06.03 16:44:36.
