data_PCOD9232740
_publ_section_title
;
Structure prediction by ZEFSAII (Michael W. Deem and Ramdas Pophale) SiO2 
 PCOD9232740
Probable space group: P 2/C
;
_chemical_formula_sum "Si O2"
_cell_formula_units_Z 24
_cell_length_a 14.987059
_cell_length_b 8.862868
_cell_length_c 9.265760
_cell_angle_alpha 90.000000
_cell_angle_beta 108.924713
_cell_angle_gamma 90.000000
_cell_volume 1164.227590
_symmetry_space_group_name_H-M "P 2/C"
_symmetry_group_IT_number 13
_symmetry_cell_setting 'monoclinic'
loop_
_space_group_symop_operation_xyz
x,y,z
-x,y,1/2-z
-x,-y,-z
x,-y,1/2+z
loop_
_atom_site_type_symbol
_atom_site_label
_atom_site_fract_x
_atom_site_fract_y
_atom_site_fract_z
Si Si1 0.430435 0.992076 0.095361
Si Si2 0.320340 0.307651 0.545901
Si Si3 0.255847 0.437170 0.205402
Si Si4 0.226373 0.850771 0.492424
Si Si5 0.158766 0.874204 0.123891
Si Si6 0.057388 0.606056 0.133842
O O1 0.500000 0.056421 0.250000
O O2 0.401699 0.816841 0.100917
O O3 0.500000 0.000000 0.000000
O O4 0.333326 0.084570 0.041162
O O5 0.301175 0.363564 0.372541
O O6 0.325326 0.447365 0.658889
O O7 0.229336 0.215742 0.554921
O O8 0.161703 0.530592 0.202274
O O9 0.228632 0.311010 0.071837
O O10 0.190911 0.861726 0.308593
O O11 0.164689 0.958671 0.564559
O O12 0.065490 0.774002 0.072792
O O13 0.000000 0.614381 0.250000
O O14 0.000000 0.500000 0.000000
#
# Coordination Sequence:
#
# PCOD9232740 Si02
#       6
#     4   4   4   4   4   4
#     4  11  22  39  61  89 120 155 203 262 309 353
#     4  10  21  38  60  87 119 162 205 243 302 378
#     4  11  21  39  63  87 119 165 205 246 306 378
#     4  11  21  39  64  89 122 165 206 248 303 379
#     4  10  21  38  60  89 119 161 204 240 299 377
#     4  11  22  39  61  89 121 154 199 257 306 353
#
# _framework density 20.614526999999999
#
# number of rings (size 3 to 8) (size 9 to 14) (size 15 to 20)
#    0.000    1.333    0.000   10.000    0.000    0.000 
#    0.000    8.333    0.000    0.000    0.000    0.000 
#    0.000    0.000    0.000    0.000    0.000    0.000 
#
# Total GULP energy -133908.772231 kJ/mol
# GULP energy per Si atom -5579.532176 kJ/mol
# Density = 2.056761 g / cm^3
# Si number density = 20.614527 Si / 1000 Ang^3
#
#
#
# Elastic Constant Matrix: (Units=GPa)
#
#
# Indices 1 2 3 4 5 6 
#
# 1 86.6380 35.0993 13.6750 0.0000 -19.9765 0.0000
# 2 35.0993 100.6380 -7.2862 0.0000 -18.9091 0.0000
# 3 13.6750 -7.2862 61.4180 0.0000 -21.0358 0.0000
# 4 0.0000 0.0000 0.0000 38.2923 0.0000 -7.8228
# 5 -19.9765 -18.9091 -21.0358 0.0000 39.2362 0.0000
# 6 0.0000 0.0000 0.0000 -7.8228 0.0000 44.4249
#
#
#
# Elastic Compliance Matrix: (Units=1/GPa)
#
#
# Indices 1 2 3 4 5 6 
#
# 1 0.014690 -0.004555 -0.002452 0.000000 0.003970 0.000000
# 2 -0.004555 0.013112 0.004826 0.000000 0.006588 0.000000
# 3 -0.002452 0.004826 0.021766 0.000000 0.012747 0.000000
# 4 0.000000 0.000000 0.000000 0.027089 0.000000 0.004770
# 5 0.003970 0.006588 0.012747 0.000000 0.037517 0.000000
# 6 0.000000 0.000000 0.000000 0.004770 0.000000 0.023350
#
#
# Mechanical properties :
#
#
# Convention : Reuss Voigt Hill
#
# Bulk Modulus (GPa) = 22.12029 36.85222 29.48625
# Shear Modulus (GPa) = 31.85634 38.20439 35.03036
#
# Velocity S-wave (km/s) = 3.93534 4.30964 4.12673
# Velocity P-wave (km/s) = 5.60383 6.53296 6.08615
#
# Compressibility (1/GPa) = 0.04520736
#
# Stress axis : x y z
#
# Youngs Moduli (GPa) = 68.07420 76.26376 45.94284
#
# Poissons Ratio (x) = 0.34738 0.11263
# Poissons Ratio (y) = 0.31008 -0.22172
# Poissons Ratio (z) = 0.16689 -0.36805
#
# Static dielectric constant tensor:
#      x y z
#    x 1.725580 0.000000 0.008960 
#    y 0.000000 1.818510 0.000000 
#    z 0.008960 0.000000 1.686260 
# 
# From -- ./inp_files/18178.got.cif
#   From: 2010.05.17/outbox.cif.g08.bks.cpg/sg13_10_cif.got.tgz:18178.got - 2010.06.03 16:44:36.
