data_PCOD9232234
_publ_section_title
;
Structure prediction by ZEFSAII (Michael W. Deem and Ramdas Pophale) SiO2 
 PCOD9232234
Probable space group: P 2/C
;
_chemical_formula_sum "Si O2"
_cell_formula_units_Z 32
_cell_length_a 22.454535
_cell_length_b 7.719869
_cell_length_c 22.137018
_cell_angle_alpha 90.000000
_cell_angle_beta 19.848607
_cell_angle_gamma 90.000000
_cell_volume 1302.923564
_symmetry_space_group_name_H-M "P 2/C"
_symmetry_group_IT_number 13
_symmetry_cell_setting 'monoclinic'
loop_
_space_group_symop_operation_xyz
x,y,z
-x,y,1/2-z
-x,-y,-z
x,-y,1/2+z
loop_
_atom_site_type_symbol
_atom_site_label
_atom_site_fract_x
_atom_site_fract_y
_atom_site_fract_z
Si Si1 0.572534 0.251703 0.268288
Si Si2 0.939734 0.484901 0.218131
Si Si3 0.574308 0.444095 0.863900
Si Si4 0.268788 0.213399 0.150856
Si Si5 0.854032 0.250835 0.651095
Si Si6 0.202458 0.889107 0.847598
Si Si7 0.298466 0.466671 0.936509
Si Si8 0.217688 0.155618 0.653225
O O1 0.555919 0.414404 0.330270
O O2 0.693206 0.122767 0.190612
O O3 0.659163 0.337786 0.127443
O O4 0.379715 0.171817 0.453123
O O5 0.855650 0.380081 0.242186
O O6 0.801559 0.445881 0.404518
O O7 0.921302 0.695233 0.232626
O O8 0.136433 0.420274 0.045605
O O9 0.774045 0.400617 0.688275
O O10 0.500000 0.500000 0.000000
O O11 0.463583 0.277048 0.947831
O O12 0.291776 0.159195 0.198839
O O13 0.187621 0.049316 0.192398
O O14 0.731588 0.214524 0.826402
O O15 0.043983 0.247197 0.499039
O O16 0.860765 0.083821 0.601579
O O17 0.500000 0.392068 0.750000
#
# Coordination Sequence:
#
# PCOD9232234 Si02
#       8
#     4   4   4   4   4   4   4   4
#     4  12  22  37  67  93 128 176 220 269 332 397
#     4  11  24  46  73  95 130 174 225 283 338 395
#     4  12  20  34  58  91 132 173 218 256 320 400
#     4  11  22  40  66  99 132 177 216 271 341 398
#     4  10  21  36  53  91 138 174 210 266 319 393
#     4  10  22  36  57  93 136 171 216 265 328 406
#     4  11  24  46  73  94 129 175 226 286 338 389
#     4  11  21  40  67  93 134 173 221 272 328 402
#
# _framework density 24.560153
#
# number of rings (size 3 to 8) (size 9 to 14) (size 15 to 20)
#    0.000    1.000    5.000    1.500    1.750    2.500 
#    0.000    2.500   11.000    0.000    0.000    0.000 
#    0.000    0.000    0.000    0.000    0.000    0.000 
#
# Total GULP energy -178421.657237 kJ/mol
# GULP energy per Si atom -5575.676789 kJ/mol
# Density = 2.450425 g / cm^3
# Si number density = 24.560153 Si / 1000 Ang^3
#
#
#
# Elastic Constant Matrix: (Units=GPa)
#
#
# Indices 1 2 3 4 5 6 
#
# 1 63.2574 -1.1774 15.0653 0.0000 -10.0289 0.0000
# 2 -1.1774 77.2290 13.3659 0.0000 -6.9363 0.0000
# 3 15.0653 13.3659 91.6584 0.0000 -10.0973 0.0000
# 4 0.0000 0.0000 0.0000 20.3837 0.0000 -2.1210
# 5 -10.0289 -6.9363 -10.0973 0.0000 42.0030 0.0000
# 6 0.0000 0.0000 0.0000 -2.1210 0.0000 22.4935
#
#
#
# Elastic Compliance Matrix: (Units=1/GPa)
#
#
# Indices 1 2 3 4 5 6 
#
# 1 0.017008 0.001025 -0.002546 0.000000 0.003618 0.000000
# 2 0.001025 0.013476 -0.001912 0.000000 0.002010 0.000000
# 3 -0.002546 -0.001912 0.011819 0.000000 0.001917 0.000000
# 4 0.000000 0.000000 0.000000 0.049545 0.000000 0.004672
# 5 0.003618 0.002010 0.001917 0.000000 0.025465 0.000000
# 6 0.000000 0.000000 0.000000 0.004672 0.000000 0.044898
#
#
# Mechanical properties :
#
#
# Convention : Reuss Voigt Hill
#
# Bulk Modulus (GPa) = 28.22073 31.85024 30.03549
# Shear Modulus (GPa) = 27.64147 30.63544 29.13845
#
# Velocity S-wave (km/s) = 3.35843 3.53563 3.44817
# Velocity P-wave (km/s) = 5.15307 5.44647 5.30180
#
# Compressibility (1/GPa) = 0.03543495
#
# Stress axis : x y z
#
# Youngs Moduli (GPa) = 58.79746 74.20814 84.61209
#
# Poissons Ratio (x) = -0.07606 0.21545
# Poissons Ratio (y) = -0.06026 0.16178
# Poissons Ratio (z) = 0.14972 0.14189
#
# Static dielectric constant tensor:
#      x y z
#    x 2.011100 0.000000 -0.016150 
#    y 0.000000 1.963610 0.000000 
#    z -0.016150 0.000000 2.065510 
# 
# From -- ./inp_files/88926.got.cif
#   From: 2010.05.17/outbox.cif.g08.bks.cpg/sg13_45_cif.got.tgz:88926.got - 2010.06.03 16:44:36.
