data_PCOD9232883
_publ_section_title
;
Structure prediction by ZEFSAII (Michael W. Deem and Ramdas Pophale) SiO2 
 PCOD9232883
Probable space group: P 2/C
;
_chemical_formula_sum "Si O2"
_cell_formula_units_Z 24
_cell_length_a 11.335945
_cell_length_b 11.015462
_cell_length_c 14.896152
_cell_angle_alpha 90.000000
_cell_angle_beta 141.562667
_cell_angle_gamma 90.000000
_cell_volume 1156.341924
_symmetry_space_group_name_H-M "P 2/C"
_symmetry_group_IT_number 13
_symmetry_cell_setting 'monoclinic'
loop_
_space_group_symop_operation_xyz
x,y,z
-x,y,1/2-z
-x,-y,-z
x,-y,1/2+z
loop_
_atom_site_type_symbol
_atom_site_label
_atom_site_fract_x
_atom_site_fract_y
_atom_site_fract_z
Si Si1 0.035627 0.207642 0.519964
Si Si2 0.597432 0.188672 0.212317
Si Si3 0.401994 0.914137 0.287969
Si Si4 0.498113 0.685801 0.469919
Si Si5 0.080418 0.604803 0.204276
Si Si6 0.874156 0.649977 0.597286
O O1 0.174700 0.102824 0.638802
O O2 0.141165 0.267266 0.498114
O O3 0.822794 0.181971 0.362729
O O4 0.022793 0.308964 0.589247
O O5 0.500000 0.218953 0.250000
O O6 0.541155 0.050863 0.152391
O O7 0.545722 0.280241 0.101178
O O8 0.500000 0.891604 0.250000
O O9 0.462810 0.812729 0.395746
O O10 0.673024 0.624412 0.522651
O O11 0.307544 0.608045 0.345932
O O12 0.987630 0.472285 0.139727
O O13 0.000000 0.655509 0.250000
O O14 0.000000 0.712624 0.750000
#
# Coordination Sequence:
#
# PCOD9232883 Si02
#       6
#     4   4   4   4   4   4
#     4  11  21  41  62  91 128 160 206 260 305 371
#     4  11  23  39  63  94 126 162 205 258 315 369
#     4  10  21  38  65  94 123 162 207 253 314 372
#     4  11  22  42  66  89 129 165 207 261 304 373
#     4  10  24  40  62  90 125 165 209 252 311 365
#     4  11  22  40  65  92 121 165 213 251 309 365
#
# _framework density 20.755106000000001
#
# number of rings (size 3 to 8) (size 9 to 14) (size 15 to 20)
#    0.000    1.333    3.333    2.500    0.000    2.667 
#    3.000    0.000    3.667    0.000    0.000    0.000 
#    0.000    0.000    0.000    0.000    0.000    0.000 
#
# Total GULP energy -134098.577074 kJ/mol
# GULP energy per Si atom -5587.440711 kJ/mol
# Density = 2.070787 g / cm^3
# Si number density = 20.755106 Si / 1000 Ang^3
#
#
#
# Elastic Constant Matrix: (Units=GPa)
#
#
# Indices 1 2 3 4 5 6 
#
# 1 97.0708 23.3328 15.4290 0.0000 10.5445 0.0000
# 2 23.3328 59.8742 19.1640 0.0000 -1.7782 0.0000
# 3 15.4290 19.1640 80.1081 0.0000 20.4850 0.0000
# 4 0.0000 0.0000 0.0000 31.2863 0.0000 6.0164
# 5 10.5445 -1.7782 20.4850 0.0000 46.1499 0.0000
# 6 0.0000 0.0000 0.0000 6.0164 0.0000 20.2004
#
#
#
# Elastic Compliance Matrix: (Units=1/GPa)
#
#
# Indices 1 2 3 4 5 6 
#
# 1 0.011749 -0.004491 -0.000516 0.000000 -0.002628 0.000000
# 2 -0.004491 0.020167 -0.004987 0.000000 0.004017 0.000000
# 3 -0.000516 -0.004987 0.015561 0.000000 -0.006981 0.000000
# 4 0.000000 0.000000 0.000000 0.033905 0.000000 -0.010098
# 5 -0.002628 0.004017 -0.006981 0.000000 0.025523 0.000000
# 6 0.000000 0.000000 0.000000 -0.010098 0.000000 0.052511
#
#
# Mechanical properties :
#
#
# Convention : Reuss Voigt Hill
#
# Bulk Modulus (GPa) = 36.37904 39.21162 37.79533
# Shear Modulus (GPa) = 26.51576 31.46915 28.99245
#
# Velocity S-wave (km/s) = 3.57817 3.89808 3.74154
# Velocity P-wave (km/s) = 5.88531 6.26048 6.07579
#
# Compressibility (1/GPa) = 0.02748836
#
# Stress axis : x y z
#
# Youngs Moduli (GPa) = 85.11433 49.58523 64.26427
#
# Poissons Ratio (x) = 0.22270 0.03318
# Poissons Ratio (y) = 0.38227 0.32046
# Poissons Ratio (z) = 0.04395 0.24726
#
# Static dielectric constant tensor:
#      x y z
#    x 1.721610 0.000000 0.018070 
#    y 0.000000 1.746150 0.000000 
#    z 0.018070 0.000000 1.756860 
# 
# From -- ./inp_files/66690.got.cif
#   From: 2010.05.17/outbox.cif.g08.bks.cpg/sg13_34_cif.got.tgz:66690.got - 2010.06.03 16:44:36.
