data_PCOD9232194
_publ_section_title
;
Structure prediction by ZEFSAII (Michael W. Deem and Ramdas Pophale) SiO2 
 PCOD9232194
Probable space group: P 2/C
;
_chemical_formula_sum "Si O2"
_cell_formula_units_Z 28
_cell_length_a 5.197565
_cell_length_b 14.186639
_cell_length_c 19.062480
_cell_angle_alpha 90.000000
_cell_angle_beta 64.050609
_cell_angle_gamma 90.000000
_cell_volume 1263.880240
_symmetry_space_group_name_H-M "P 2/C"
_symmetry_group_IT_number 13
_symmetry_cell_setting 'monoclinic'
loop_
_space_group_symop_operation_xyz
x,y,z
-x,y,1/2-z
-x,-y,-z
x,-y,1/2+z
loop_
_atom_site_type_symbol
_atom_site_label
_atom_site_fract_x
_atom_site_fract_y
_atom_site_fract_z
Si Si1 0.243765 0.191750 0.603839
Si Si2 0.839688 0.004407 0.445034
Si Si3 0.160657 0.401804 0.990609
Si Si4 0.564904 0.695906 0.547253
Si Si5 0.354815 0.707139 0.339581
Si Si6 0.826119 0.118054 0.204015
Si Si7 0.285343 0.323678 0.227289
O O1 0.122883 0.087515 0.608299
O O2 0.415406 0.220537 0.512029
O O3 0.455638 0.212495 0.643165
O O4 0.966050 0.258369 0.639011
O O5 0.500000 0.000000 0.500000
O O6 0.000000 0.000000 0.500000
O O7 0.992878 0.089289 0.385196
O O8 0.332270 0.375076 0.899861
O O9 0.378521 0.384586 0.029031
O O10 0.000000 0.500000 0.000000
O O11 0.891455 0.330392 0.026719
O O12 0.414172 0.712307 0.639192
O O13 0.500000 0.680168 0.250000
O O14 0.500000 0.082625 0.250000
O O15 0.800800 0.231294 0.216779
O O16 0.000000 0.082348 0.250000
O O17 0.500000 0.379705 0.250000
O O18 0.000000 0.381000 0.250000
#
# Coordination Sequence:
#
# PCOD9232194 Si02
#       7
#     4   4   4   4   4   4   4
#     4  10  23  38  61  90 121 163 218 267 308 386
#     4  12  26  40  62  92 127 169 224 274 334 380
#     4  10  21  40  65  97 128 163 204 258 319 388
#     4  10  21  38  62  88 125 168 210 248 317 389
#     4  10  21  41  65  92 121 169 211 261 323 370
#     4  10  23  40  58  85 119 168 211 267 337 371
#     4  10  21  35  59  84 119 165 208 260 308 382
#
# _framework density 22.153998000000001
#
# number of rings (size 3 to 8) (size 9 to 14) (size 15 to 20)
#    0.000    1.714    0.000    3.429    8.000    1.714 
#    0.000    2.143    0.000    1.714    0.000    0.000 
#    0.000    0.000    0.000    0.000    0.000    0.000 
#
# Total GULP energy -156309.657954 kJ/mol
# GULP energy per Si atom -5582.487784 kJ/mol
# Density = 2.210357 g / cm^3
# Si number density = 22.153998 Si / 1000 Ang^3
#
#
#
# Elastic Constant Matrix: (Units=GPa)
#
#
# Indices 1 2 3 4 5 6 
#
# 1 175.9419 -13.2372 45.9604 0.0000 1.2859 0.0000
# 2 -13.2372 35.7795 5.0301 0.0000 4.2443 0.0000
# 3 45.9604 5.0301 135.4217 0.0000 0.9409 0.0000
# 4 0.0000 0.0000 0.0000 10.5663 0.0000 -7.3058
# 5 1.2859 4.2443 0.9409 0.0000 34.6301 0.0000
# 6 0.0000 0.0000 0.0000 -7.3058 0.0000 17.8845
#
#
#
# Elastic Compliance Matrix: (Units=1/GPa)
#
#
# Indices 1 2 3 4 5 6 
#
# 1 0.006500 0.002791 -0.002306 0.000000 -0.000521 0.000000
# 2 0.002791 0.029704 -0.002025 0.000000 -0.003689 0.000000
# 3 -0.002306 -0.002025 0.008241 0.000000 0.000110 0.000000
# 4 0.000000 0.000000 0.000000 0.131894 0.000000 0.053879
# 5 -0.000521 -0.003689 0.000110 0.000000 0.029345 0.000000
# 6 0.000000 0.000000 0.000000 0.053879 0.000000 0.077924
#
#
# Mechanical properties :
#
#
# Convention : Reuss Voigt Hill
#
# Bulk Modulus (GPa) = 24.17516 46.96106 35.56811
# Shear Modulus (GPa) = 16.64025 33.24216 24.94121
#
# Velocity S-wave (km/s) = 2.74363 3.87784 3.35895
# Velocity P-wave (km/s) = 4.57959 6.42602 5.57971
#
# Compressibility (1/GPa) = 0.04136477
#
# Stress axis : x y z
#
# Youngs Moduli (GPa) = 153.84983 33.66581 121.33837
#
# Poissons Ratio (x) = -0.09395 0.27981
# Poissons Ratio (y) = -0.42935 0.24569
# Poissons Ratio (z) = 0.35478 0.06817
#
# Static dielectric constant tensor:
#      x y z
#    x 1.932560 0.000000 -0.024020 
#    y 0.000000 1.822390 0.000000 
#    z -0.024020 0.000000 1.813070 
# 
# From -- ./inp_files/61520.got.cif
#   From: 2010.05.17/outbox.cif.g08.bks.cpg/sg13_31_cif.got.tgz:61520.got - 2010.06.03 16:44:36.
