data_PCOD9232858
_publ_section_title
;
Structure prediction by ZEFSAII (Michael W. Deem and Ramdas Pophale) SiO2 
 PCOD9232858
Probable space group: P 2/C
;
_chemical_formula_sum "Si O2"
_cell_formula_units_Z 22
_cell_length_a 13.248467
_cell_length_b 8.102301
_cell_length_c 9.918211
_cell_angle_alpha 90.000000
_cell_angle_beta 94.792670
_cell_angle_gamma 90.000000
_cell_volume 1060.928699
_symmetry_space_group_name_H-M "P 2/C"
_symmetry_group_IT_number 13
_symmetry_cell_setting 'monoclinic'
loop_
_space_group_symop_operation_xyz
x,y,z
-x,y,1/2-z
-x,-y,-z
x,-y,1/2+z
loop_
_atom_site_type_symbol
_atom_site_label
_atom_site_fract_x
_atom_site_fract_y
_atom_site_fract_z
Si Si1 0.302880 0.206661 0.753975
Si Si2 0.568366 0.491104 0.638723
Si Si3 0.860193 0.312428 0.539329
Si Si4 0.000000 0.857079 0.250000
Si Si5 0.232320 0.656149 0.959039
Si Si6 0.814717 0.099605 0.272324
O O1 0.401729 0.303680 0.815880
O O2 0.223127 0.250082 0.862440
O O3 0.272221 0.289108 0.608934
O O4 0.287823 0.010720 0.730111
O O5 0.500000 0.564379 0.750000
O O6 0.500000 0.500000 0.500000
O O7 0.672766 0.586330 0.618125
O O8 0.846726 0.507968 0.530558
O O9 0.832616 0.227613 0.395065
O O10 0.963832 0.252558 0.619484
O O11 0.908144 0.973092 0.285997
O O12 0.186181 0.805647 0.869445
#
# Coordination Sequence:
#
# PCOD9232858 Si02
#       6
#     4   4   4   2   4   4
#     4  10  21  39  61  92 128 164 204 259 320 366
#     4  11  22  41  67  95 130 169 212 259 307 380
#     4  10  21  38  64  89 123 168 212 255 312 376
#     4  10  22  40  62  96 130 164 208 266 314 380
#     4  11  23  41  65  92 126 169 212 261 322 377
#     4  11  23  42  65  92 129 168 209 266 321 375
#
# _framework density 20.736550000000001
#
# number of rings (size 3 to 8) (size 9 to 14) (size 15 to 20)
#    0.000    1.455    1.818    4.909    2.545    2.182 
#    0.000    7.273    0.000    0.000    0.000    0.000 
#    0.000    0.000    0.000    0.000    0.000    0.000 
#
# Total GULP energy -122841.856531 kJ/mol
# GULP energy per Si atom -5583.720751 kJ/mol
# Density = 2.068935 g / cm^3
# Si number density = 20.736550 Si / 1000 Ang^3
#
#
#
# Elastic Constant Matrix: (Units=GPa)
#
#
# Indices 1 2 3 4 5 6 
#
# 1 61.8660 25.5273 23.4305 0.0000 12.5891 0.0000
# 2 25.5273 112.2018 38.5988 0.0000 25.6016 0.0000
# 3 23.4305 38.5988 144.6704 0.0000 22.6013 0.0000
# 4 0.0000 0.0000 0.0000 22.0204 0.0000 -18.4867
# 5 12.5891 25.6016 22.6013 0.0000 38.5602 0.0000
# 6 0.0000 0.0000 0.0000 -18.4867 0.0000 7.5957
#
#
#
# Elastic Compliance Matrix: (Units=1/GPa)
#
#
# Indices 1 2 3 4 5 6 
#
# 1 0.018674 -0.002933 -0.001754 0.000000 -0.003121 0.000000
# 2 -0.002933 0.011453 -0.001698 0.000000 -0.005652 0.000000
# 3 -0.001754 -0.001698 0.008128 0.000000 -0.003064 0.000000
# 4 0.000000 0.000000 0.000000 -0.043530 0.000000 -0.105943
# 5 -0.003121 -0.005652 -0.003064 0.000000 0.032501 0.000000
# 6 0.000000 0.000000 0.000000 -0.105943 0.000000 -0.126195
#
#
# Mechanical properties :
#
#
# Convention : Reuss Voigt Hill
#
# Bulk Modulus (GPa) = 39.23847 54.87237 47.05542
# Shear Modulus (GPa) = -64.34733 29.04737 -17.64998
#
# Velocity S-wave (km/s) = -5.57658 3.74676 -2.92062
# Velocity P-wave (km/s) = 4.74351 6.72583 3.37164
#
# Compressibility (1/GPa) = 0.02548519
#
# Stress axis : x y z
#
# Youngs Moduli (GPa) = 53.55143 87.31011 123.03040
#
# Poissons Ratio (x) = 0.25607 0.21583
# Poissons Ratio (y) = 0.15706 0.20889
# Poissons Ratio (z) = 0.09394 0.14824
#
# Static dielectric constant tensor:
#      x y z
#    x 1.791750 0.000000 0.001410 
#    y 0.000000 1.772370 0.000000 
#    z 0.001410 0.000000 1.694140 
# 
# From -- ./inp_files/18176.got.cif
#   From: 2010.05.17/outbox.cif.g08.bks.cpg/sg13_10_cif.got.tgz:18176.got - 2010.06.03 16:44:36.
