data_PCOD9232688
_publ_section_title
;
Structure prediction by ZEFSAII (Michael W. Deem and Ramdas Pophale) SiO2 
 PCOD9232688
Probable space group: P 2/C
;
_chemical_formula_sum "Si O2"
_cell_formula_units_Z 22
_cell_length_a 8.682516
_cell_length_b 9.801456
_cell_length_c 17.584026
_cell_angle_alpha 90.000000
_cell_angle_beta 140.010062
_cell_angle_gamma 90.000000
_cell_volume 961.681123
_symmetry_space_group_name_H-M "P 2/C"
_symmetry_group_IT_number 13
_symmetry_cell_setting 'monoclinic'
loop_
_space_group_symop_operation_xyz
x,y,z
-x,y,1/2-z
-x,-y,-z
x,-y,1/2+z
loop_
_atom_site_type_symbol
_atom_site_label
_atom_site_fract_x
_atom_site_fract_y
_atom_site_fract_z
Si Si1 0.457727 0.915596 0.822913
Si Si2 0.453534 0.369369 0.883232
Si Si3 0.981990 0.965275 0.108098
Si Si4 0.000000 0.803742 0.250000
Si Si5 0.804276 0.838246 0.457816
Si Si6 0.291291 0.659878 0.855712
O O1 0.500000 0.879209 0.750000
O O2 0.254417 0.028614 0.748260
O O3 0.398558 0.792703 0.855296
O O4 0.690141 0.008068 0.935684
O O5 0.198516 0.295990 0.789527
O O6 0.628867 0.286595 0.892837
O O7 0.395084 0.527899 0.850123
O O8 0.594498 0.351977 0.016767
O O9 0.053990 0.862858 0.065251
O O10 0.859808 0.892250 0.133084
O O11 0.979596 0.134292 0.094073
O O12 0.000000 0.657894 0.750000
#
# Coordination Sequence:
#
# PCOD9232688 Si02
#       6
#     4   4   4   2   4   4
#     4  10  21  38  58  87 121 159 203 250 306 370
#     4  11  24  40  63  91 127 165 206 261 307 372
#     4  10  22  36  65  93 124 156 207 258 315 367
#     4  12  22  38  62 102 122 162 206 266 308 372
#     4  10  21  41  61  92 125 160 205 258 307 375
#     4  11  24  42  61  89 126 167 213 254 307 369
#
# _framework density 22.876605999999999
#
# number of rings (size 3 to 8) (size 9 to 14) (size 15 to 20)
#    0.000    1.455    2.727    2.182    3.818    1.455 
#    3.273    0.000    0.000    7.636    0.000    0.000 
#    0.000    0.000    0.000    0.000    0.000    0.000 
#
# Total GULP energy -122468.024876 kJ/mol
# GULP energy per Si atom -5566.728403 kJ/mol
# Density = 2.282454 g / cm^3
# Si number density = 22.876606 Si / 1000 Ang^3
#
#
#
# Elastic Constant Matrix: (Units=GPa)
#
#
# Indices 1 2 3 4 5 6 
#
# 1 44.3877 18.9649 -1.8354 0.0000 8.2369 0.0000
# 2 18.9649 74.1916 9.7556 0.0000 9.0938 0.0000
# 3 -1.8354 9.7556 45.8571 0.0000 -1.7992 0.0000
# 4 0.0000 0.0000 0.0000 21.0671 0.0000 5.7688
# 5 8.2369 9.0938 -1.7992 0.0000 33.0278 0.0000
# 6 0.0000 0.0000 0.0000 5.7688 0.0000 33.9574
#
#
#
# Elastic Compliance Matrix: (Units=1/GPa)
#
#
# Indices 1 2 3 4 5 6 
#
# 1 0.026231 -0.006429 0.002235 0.000000 -0.004650 0.000000
# 2 -0.006429 0.015987 -0.003776 0.000000 -0.003004 0.000000
# 3 0.002235 -0.003776 0.022767 0.000000 0.001723 0.000000
# 4 0.000000 0.000000 0.000000 0.049783 0.000000 -0.008457
# 5 -0.004650 -0.003004 0.001723 0.000000 0.032358 0.000000
# 6 0.000000 0.000000 0.000000 -0.008457 0.000000 0.030885
#
#
# Mechanical properties :
#
#
# Convention : Reuss Voigt Hill
#
# Bulk Modulus (GPa) = 20.38959 24.24517 22.31738
# Shear Modulus (GPa) = 23.77553 26.78056 25.27805
#
# Velocity S-wave (km/s) = 3.22731 3.42519 3.32772
# Velocity P-wave (km/s) = 4.77698 5.12483 4.95396
#
# Compressibility (1/GPa) = 0.04904465
#
# Stress axis : x y z
#
# Youngs Moduli (GPa) = 38.12299 62.55163 43.92270
#
# Poissons Ratio (x) = 0.40215 -0.09817
# Poissons Ratio (y) = 0.24510 0.16586
# Poissons Ratio (z) = -0.08521 0.23621
#
# Static dielectric constant tensor:
#      x y z
#    x 2.149140 0.000000 0.331620 
#    y 0.000000 1.880620 0.000000 
#    z 0.331620 0.000000 2.432780 
# 
# From -- ./inp_files/63950.got.cif
#   From: 2010.05.17/outbox.cif.g08.bks.cpg/sg13_32_cif.got.tgz:63950.got - 2010.06.03 16:44:36.
