data_PCOD9232502
_publ_section_title
;
Structure prediction by ZEFSAII (Michael W. Deem and Ramdas Pophale) SiO2 
 PCOD9232502
Probable space group: P 2/C
;
_chemical_formula_sum "Si O2"
_cell_formula_units_Z 24
_cell_length_a 24.323818
_cell_length_b 9.378577
_cell_length_c 18.296149
_cell_angle_alpha 90.000000
_cell_angle_beta 161.996531
_cell_angle_gamma 90.000000
_cell_volume 1290.005804
_symmetry_space_group_name_H-M "P 2/C"
_symmetry_group_IT_number 13
_symmetry_cell_setting 'monoclinic'
loop_
_space_group_symop_operation_xyz
x,y,z
-x,y,1/2-z
-x,-y,-z
x,-y,1/2+z
loop_
_atom_site_type_symbol
_atom_site_label
_atom_site_fract_x
_atom_site_fract_y
_atom_site_fract_z
Si Si1 0.449116 0.649508 0.024394
Si Si2 0.178849 0.831053 0.779204
Si Si3 0.511379 0.683583 0.591280
Si Si4 0.301332 0.628297 0.530058
Si Si5 0.795940 0.840806 0.219980
Si Si6 0.825533 0.668305 0.578934
O O1 0.432670 0.477537 0.000003
O O2 0.648469 0.678617 0.305606
O O3 0.312792 0.726068 0.906003
O O4 0.426608 0.702373 0.912999
O O5 0.173169 0.786061 0.856370
O O6 0.984875 0.819674 0.497484
O O7 0.232892 0.995526 0.838344
O O8 0.664459 0.691996 0.846076
O O9 0.358235 0.792040 0.419957
O O10 0.500000 0.593055 0.750000
O O11 0.218974 0.739555 0.369703
O O12 0.191126 0.484245 0.400992
O O13 0.000000 0.673499 0.750000
#
# Coordination Sequence:
#
# PCOD9232502 Si02
#       6
#     4   4   4   4   4   4
#     4  10  21  37  60  85 112 144 184 229 277 330
#     4  11  23  38  55  81 115 152 187 225 276 329
#     4   9  19  37  58  86 112 141 186 230 274 328
#     4   9  19  37  60  84 109 142 185 230 277 328
#     4  10  22  38  56  81 115 150 187 226 272 329
#     4  11  22  37  59  85 111 142 185 232 278 330
#
# _framework density 18.604568
#
# number of rings (size 3 to 8) (size 9 to 14) (size 15 to 20)
#    0.000    2.000    0.000    4.500    0.000   11.333 
#    0.000    4.167    0.000    0.000    0.000    0.000 
#    0.000    0.000    0.000    0.000    0.000    0.000 
#
# Total GULP energy -134041.223148 kJ/mol
# GULP energy per Si atom -5585.050965 kJ/mol
# Density = 1.856222 g / cm^3
# Si number density = 18.604568 Si / 1000 Ang^3
#
#
#
# Elastic Constant Matrix: (Units=GPa)
#
#
# Indices 1 2 3 4 5 6 
#
# 1 115.0246 34.4534 21.5361 0.0000 -8.9483 0.0000
# 2 34.4534 47.6077 29.0702 0.0000 8.3127 0.0000
# 3 21.5361 29.0702 31.0687 0.0000 8.9726 0.0000
# 4 0.0000 0.0000 0.0000 26.2563 0.0000 0.9969
# 5 -8.9483 8.3127 8.9726 0.0000 24.4575 0.0000
# 6 0.0000 0.0000 0.0000 0.9969 0.0000 8.8723
#
#
#
# Elastic Compliance Matrix: (Units=1/GPa)
#
#
# Indices 1 2 3 4 5 6 
#
# 1 0.012558 -0.008766 -0.003009 0.000000 0.008678 0.000000
# 2 -0.008766 0.055121 -0.043803 0.000000 -0.005872 0.000000
# 3 -0.003009 -0.043803 0.079723 0.000000 -0.015461 0.000000
# 4 0.000000 0.000000 0.000000 0.038249 0.000000 -0.004298
# 5 0.008678 -0.005872 -0.015461 0.000000 0.051730 0.000000
# 6 0.000000 0.000000 0.000000 -0.004298 0.000000 0.113194
#
#
# Mechanical properties :
#
#
# Convention : Reuss Voigt Hill
#
# Bulk Modulus (GPa) = 27.58939 40.42447 34.00693
# Shear Modulus (GPa) = 10.55267 19.15998 14.85633
#
# Velocity S-wave (km/s) = 2.38420 3.21261 2.82889
# Velocity P-wave (km/s) = 4.73717 5.96126 5.38411
#
# Compressibility (1/GPa) = 0.03624581
#
# Stress axis : x y z
#
# Youngs Moduli (GPa) = 79.63099 18.14177 12.54344
#
# Poissons Ratio (x) = 0.15903 0.03774
# Poissons Ratio (y) = 0.69805 0.54944
# Poissons Ratio (z) = 0.23960 0.79467
#
# Static dielectric constant tensor:
#      x y z
#    x 1.635510 0.000000 -0.015490 
#    y 0.000000 1.628780 0.000000 
#    z -0.015490 0.000000 1.630890 
# 
# From -- ./inp_files/71172.got.cif
#   From: 2010.05.17/outbox.cif.g08.bks.cpg/sg13_36_cif.got.tgz:71172.got - 2010.06.03 16:44:36.
