data_PCOD9232855
_publ_section_title
;
Structure prediction by ZEFSAII (Michael W. Deem and Ramdas Pophale) SiO2 
 PCOD9232855
Probable space group: P 2/C
;
_chemical_formula_sum "Si O2"
_cell_formula_units_Z 20
_cell_length_a 7.185668
_cell_length_b 21.507924
_cell_length_c 5.606990
_cell_angle_alpha 90.000000
_cell_angle_beta 73.173184
_cell_angle_gamma 90.000000
_cell_volume 829.451327
_symmetry_space_group_name_H-M "P 2/C"
_symmetry_group_IT_number 13
_symmetry_cell_setting 'monoclinic'
loop_
_space_group_symop_operation_xyz
x,y,z
-x,y,1/2-z
-x,-y,-z
x,-y,1/2+z
loop_
_atom_site_type_symbol
_atom_site_label
_atom_site_fract_x
_atom_site_fract_y
_atom_site_fract_z
Si Si1 0.264177 0.468985 0.316508
Si Si2 0.500000 0.264574 0.750000
Si Si3 0.715436 0.672949 0.775906
Si Si4 0.720813 0.022046 0.710142
Si Si5 0.213359 0.166055 0.783282
Si Si6 0.000000 0.229720 0.250000
O O1 0.500000 0.472582 0.250000
O O2 0.201434 0.496073 0.596364
O O3 0.216537 0.396548 0.298382
O O4 0.661272 0.308673 0.568834
O O5 0.375721 0.215035 0.639163
O O6 0.500000 0.679699 0.750000
O O7 0.877942 0.721732 0.634463
O O8 0.500000 0.998254 0.750000
O O9 0.719366 0.095607 0.757938
O O10 0.807350 0.008598 0.416575
O O11 0.000000 0.170886 0.750000
O O12 0.162572 0.186639 0.071791
#
# Coordination Sequence:
#
# PCOD9232855 Si02
#       6
#     4   2   4   4   4   2
#     4   9  19  34  60  92 123 164 216 266 320 384
#     4  10  22  40  60  92 120 174 210 262 330 386
#     4  10  21  38  64  86 127 165 213 264 329 379
#     4  10  23  44  69  98 130 171 216 266 322 387
#     4  11  23  41  65  92 129 165 220 266 322 384
#     4  10  24  42  58  98 124 166 218 270 312 392
#
# _framework density 24.112324000000001
#
# number of rings (size 3 to 8) (size 9 to 14) (size 15 to 20)
#    0.000    2.000    1.000    1.200    9.800    0.800 
#    0.000    1.000    0.000    0.000    0.000    0.000 
#    0.000    0.000    0.000    0.000    0.000    0.000 
#
# Total GULP energy -111542.238572 kJ/mol
# GULP energy per Si atom -5577.111929 kJ/mol
# Density = 2.405744 g / cm^3
# Si number density = 24.112324 Si / 1000 Ang^3
#
#
#
# Elastic Constant Matrix: (Units=GPa)
#
#
# Indices 1 2 3 4 5 6 
#
# 1 98.7431 4.1092 22.9406 0.0000 4.5423 0.0000
# 2 4.1092 113.0322 36.4541 0.0000 23.2309 0.0000
# 3 22.9406 36.4541 91.7973 0.0000 18.1540 0.0000
# 4 0.0000 0.0000 0.0000 -30.3124 0.0000 -36.4606
# 5 4.5423 23.2309 18.1540 0.0000 44.2317 0.0000
# 6 0.0000 0.0000 0.0000 -36.4606 0.0000 -13.1627
#
#
#
# Elastic Compliance Matrix: (Units=1/GPa)
#
#
# Indices 1 2 3 4 5 6 
#
# 1 0.010783 0.000585 -0.002881 0.000000 -0.000232 0.000000
# 2 0.000585 0.010873 -0.003616 0.000000 -0.004286 0.000000
# 3 -0.002881 -0.003616 0.013730 0.000000 -0.003440 0.000000
# 4 0.000000 0.000000 0.000000 0.014148 0.000000 -0.039189
# 5 -0.000232 -0.004286 -0.003440 0.000000 0.026295 0.000000
# 6 0.000000 0.000000 0.000000 -0.039189 0.000000 0.032581
#
#
# Mechanical properties :
#
#
# Convention : Reuss Voigt Hill
#
# Bulk Modulus (GPa) = 42.44322 47.84226 45.14274
# Shear Modulus (GPa) = 39.03557 16.15590 27.59574
#
# Velocity S-wave (km/s) = 4.02793 2.59130 3.38667
# Velocity P-wave (km/s) = 6.26680 5.37006 5.83568
#
# Compressibility (1/GPa) = 0.02356089
#
# Stress axis : x y z
#
# Youngs Moduli (GPa) = 92.73873 91.97057 72.83340
#
# Poissons Ratio (x) = -0.05379 0.20984
# Poissons Ratio (y) = -0.05424 0.26339
# Poissons Ratio (z) = 0.26719 0.33260
#
# Static dielectric constant tensor:
#      x y z
#    x 1.988560 0.000000 0.024050 
#    y 0.000000 1.837120 0.000000 
#    z 0.024050 0.000000 2.104360 
# 
# From -- ./inp_files/1557.got.cif
#   From: 2010.05.17/outbox.cif.g08.bks.cpg/sg13_1_cif.got.tgz:1557.got - 2010.06.03 16:44:36.
