data_PCOD9232619
_publ_section_title
;
Structure prediction by ZEFSAII (Michael W. Deem and Ramdas Pophale) SiO2 
 PCOD9232619
Probable space group: P 2/C
;
_chemical_formula_sum "Si O2"
_cell_formula_units_Z 22
_cell_length_a 14.478259
_cell_length_b 13.502359
_cell_length_c 17.217612
_cell_angle_alpha 90.000000
_cell_angle_beta 161.513397
_cell_angle_gamma 90.000000
_cell_volume 1067.263711
_symmetry_space_group_name_H-M "P 2/C"
_symmetry_group_IT_number 13
_symmetry_cell_setting 'monoclinic'
loop_
_space_group_symop_operation_xyz
x,y,z
-x,y,1/2-z
-x,-y,-z
x,-y,1/2+z
loop_
_atom_site_type_symbol
_atom_site_label
_atom_site_fract_x
_atom_site_fract_y
_atom_site_fract_z
Si Si1 0.168110 0.129263 0.518045
Si Si2 0.000000 0.262373 0.250000
Si Si3 0.058655 0.246721 0.589011
Si Si4 0.246995 0.419849 0.214518
Si Si5 0.412833 0.395065 0.512568
Si Si6 0.145793 0.907754 0.453039
O O1 0.500000 0.137313 0.750000
O O2 0.126646 0.175894 0.569729
O O3 0.975446 0.192461 0.304441
O O4 0.084635 0.014385 0.444168
O O5 0.727826 0.336240 0.029134
O O6 0.779380 0.317439 0.351474
O O7 0.012796 0.179588 0.626904
O O8 0.313651 0.328426 0.795633
O O9 0.209596 0.393873 0.275064
O O10 0.526389 0.489380 0.424418
O O11 0.000000 0.500000 0.000000
O O12 0.000000 0.911609 0.250000
O O13 0.500000 0.894638 0.750000
#
# Coordination Sequence:
#
# PCOD9232619 Si02
#       6
#     4   2   4   4   4   4
#     4  11  22  41  63 103 132 172 221 284 337 407
#     4  12  20  36  66  98 134 166 224 284 348 390
#     4  11  22  41  70  91 133 181 223 276 352 399
#     4   9  20  39  59  88 125 169 215 275 336 404
#     4  10  21  37  65  93 129 170 220 283 341 404
#     4  11  27  46  67  99 143 182 231 282 334 414
#
# _framework density 20.613461999999998
#
# number of rings (size 3 to 8) (size 9 to 14) (size 15 to 20)
#    0.000    1.455    4.545    0.545    2.545    0.000 
#    0.000    9.091    0.000    0.000    0.000    0.000 
#    0.000    0.000    0.000    0.000    0.000    0.000 
#
# Total GULP energy -122554.082525 kJ/mol
# GULP energy per Si atom -5570.640115 kJ/mol
# Density = 2.056655 g / cm^3
# Si number density = 20.613462 Si / 1000 Ang^3
#
#
#
# Elastic Constant Matrix: (Units=GPa)
#
#
# Indices 1 2 3 4 5 6 
#
# 1 56.5410 57.1847 19.7240 0.0000 -18.9205 0.0000
# 2 57.1847 160.1095 25.7409 0.0000 -3.5935 0.0000
# 3 19.7240 25.7409 47.1833 0.0000 -12.9347 0.0000
# 4 0.0000 0.0000 0.0000 31.6665 0.0000 -5.6152
# 5 -18.9205 -3.5935 -12.9347 0.0000 30.5902 0.0000
# 6 0.0000 0.0000 0.0000 -5.6152 0.0000 22.6437
#
#
#
# Elastic Compliance Matrix: (Units=1/GPa)
#
#
# Indices 1 2 3 4 5 6 
#
# 1 0.039032 -0.012907 -0.003475 0.000000 0.021156 0.000000
# 2 -0.012907 0.011135 -0.002838 0.000000 -0.007875 0.000000
# 3 -0.003475 -0.002838 0.026597 0.000000 0.008763 0.000000
# 4 0.000000 0.000000 0.000000 0.033032 0.000000 0.008191
# 5 0.021156 -0.007875 0.008763 0.000000 0.048556 0.000000
# 6 0.000000 0.000000 0.000000 0.008191 0.000000 0.046194
#
#
# Mechanical properties :
#
#
# Convention : Reuss Voigt Hill
#
# Bulk Modulus (GPa) = 26.09364 52.12589 39.10976
# Shear Modulus (GPa) = 19.54941 27.72572 23.63756
#
# Velocity S-wave (km/s) = 3.08292 3.67144 3.38998
# Velocity P-wave (km/s) = 5.03573 6.58140 5.85975
#
# Compressibility (1/GPa) = 0.03832351
#
# Stress axis : x y z
#
# Youngs Moduli (GPa) = 25.61976 89.80537 37.59756
#
# Poissons Ratio (x) = 1.15914 0.13067
# Poissons Ratio (y) = 0.33068 0.10671
# Poissons Ratio (z) = 0.08904 0.25488
#
# Static dielectric constant tensor:
#      x y z
#    x 1.710650 0.000000 0.008650 
#    y 0.000000 1.733850 0.000000 
#    z 0.008650 0.000000 1.901390 
# 
# From -- ./inp_files/43599.got.cif
#   From: 2010.05.17/outbox.cif.g08.bks.cpg/sg13_22_cif.got.tgz:43599.got - 2010.06.03 16:44:36.
