data_PCOD9232269
_publ_section_title
;
Structure prediction by ZEFSAII (Michael W. Deem and Ramdas Pophale) SiO2 
 PCOD9232269
Probable space group: P 2/C
;
_chemical_formula_sum "Si O2"
_cell_formula_units_Z 24
_cell_length_a 11.340476
_cell_length_b 11.255606
_cell_length_c 19.582838
_cell_angle_alpha 90.000000
_cell_angle_beta 24.235191
_cell_angle_gamma 90.000000
_cell_volume 1026.056233
_symmetry_space_group_name_H-M "P 2/C"
_symmetry_group_IT_number 13
_symmetry_cell_setting 'monoclinic'
loop_
_space_group_symop_operation_xyz
x,y,z
-x,y,1/2-z
-x,-y,-z
x,-y,1/2+z
loop_
_atom_site_type_symbol
_atom_site_label
_atom_site_fract_x
_atom_site_fract_y
_atom_site_fract_z
Si Si1 0.737036 0.553893 0.682546
Si Si2 0.762634 0.213761 0.935877
Si Si3 0.540129 0.855840 0.026219
Si Si4 0.035291 0.980271 0.838356
Si Si5 0.808820 0.806656 0.624712
Si Si6 0.838455 0.686151 0.181949
O O1 0.500000 0.565351 0.750000
O O2 0.776741 0.687226 0.688378
O O3 0.695034 0.442830 0.753438
O O4 0.000000 0.500000 0.500000
O O5 0.000000 0.211429 0.750000
O O6 0.866858 0.320451 0.928669
O O7 0.828774 0.097664 0.947410
O O8 0.482988 0.201307 0.037166
O O9 0.392755 0.766278 0.157605
O O10 0.319502 0.968780 0.150950
O O11 0.845528 0.891316 0.894167
O O12 0.105617 0.918524 0.873508
O O13 0.500000 0.826677 0.750000
O O14 0.054268 0.757705 0.442510
#
# Coordination Sequence:
#
# PCOD9232269 Si02
#       6
#     4   4   4   4   4   4
#     4   9  19  35  56  78 107 144 181 222 275 333
#     4   8  18  37  55  83 106 144 184 226 271 322
#     4  10  22  37  59  83 106 152 184 228 271 329
#     4  10  21  36  56  79 115 143 184 222 275 332
#     4  10  22  36  52  85 115 144 180 228 283 323
#     4   9  19  35  58  80 108 144 184 227 272 330
#
# _framework density 23.390529000000001
#
# number of rings (size 3 to 8) (size 9 to 14) (size 15 to 20)
#    0.000    3.000    0.000    0.500    9.333    2.667 
#    0.000    0.000    0.000   10.000    0.000    0.000 
#    0.000    0.000    0.000    0.000    0.000    0.000 
#
# Total GULP energy -133696.016102 kJ/mol
# GULP energy per Si atom -5570.667338 kJ/mol
# Density = 2.333729 g / cm^3
# Si number density = 23.390529 Si / 1000 Ang^3
#
#
#
# Elastic Constant Matrix: (Units=GPa)
#
#
# Indices 1 2 3 4 5 6 
#
# 1 131.1701 59.1358 22.3438 0.0000 2.2259 0.0000
# 2 59.1358 72.6864 16.3437 0.0000 18.4584 0.0000
# 3 22.3438 16.3437 69.8894 0.0000 7.5172 0.0000
# 4 0.0000 0.0000 0.0000 18.2743 0.0000 0.1818
# 5 2.2259 18.4584 7.5172 0.0000 33.2264 0.0000
# 6 0.0000 0.0000 0.0000 0.1818 0.0000 24.8094
#
#
#
# Elastic Compliance Matrix: (Units=1/GPa)
#
#
# Indices 1 2 3 4 5 6 
#
# 1 0.013222 -0.011849 -0.002121 0.000000 0.006176 0.000000
# 2 -0.011849 0.027212 -0.001061 0.000000 -0.014084 0.000000
# 3 -0.002121 -0.001061 0.015534 0.000000 -0.002783 0.000000
# 4 0.000000 0.000000 0.000000 0.054726 0.000000 -0.000401
# 5 0.006176 -0.014084 -0.002783 0.000000 0.038136 0.000000
# 6 0.000000 0.000000 0.000000 -0.000401 0.000000 0.040310
#
#
# Mechanical properties :
#
#
# Convention : Reuss Voigt Hill
#
# Bulk Modulus (GPa) = 38.59808 52.15474 45.37641
# Shear Modulus (GPa) = 21.94559 26.99019 24.46789
#
# Velocity S-wave (km/s) = 3.06637 3.40059 3.23779
# Velocity P-wave (km/s) = 5.39205 6.14528 5.78095
#
# Compressibility (1/GPa) = 0.02590803
#
# Stress axis : x y z
#
# Youngs Moduli (GPa) = 75.63250 36.74789 64.37625
#
# Poissons Ratio (x) = 0.43541 0.13651
# Poissons Ratio (y) = 0.89614 0.06829
# Poissons Ratio (z) = 0.16038 0.03898
#
# Static dielectric constant tensor:
#      x y z
#    x 1.966080 0.000000 0.010600 
#    y 0.000000 2.121290 0.000000 
#    z 0.010600 0.000000 2.033730 
# 
# From -- ./inp_files/66569.got.cif
#   From: 2010.05.17/outbox.cif.g08.bks.cpg/sg13_34_cif.got.tgz:66569.got - 2010.06.03 16:44:36.
