data_PCOD9232371
_publ_section_title
;
Structure prediction by ZEFSAII (Michael W. Deem and Ramdas Pophale) SiO2 
 PCOD9232371
Probable space group: P 2/C
;
_chemical_formula_sum "Si O2"
_cell_formula_units_Z 20
_cell_length_a 15.688841
_cell_length_b 5.319088
_cell_length_c 10.208706
_cell_angle_alpha 90.000000
_cell_angle_beta 72.553794
_cell_angle_gamma 90.000000
_cell_volume 812.730557
_symmetry_space_group_name_H-M "P 2/C"
_symmetry_group_IT_number 13
_symmetry_cell_setting 'monoclinic'
loop_
_space_group_symop_operation_xyz
x,y,z
-x,y,1/2-z
-x,-y,-z
x,-y,1/2+z
loop_
_atom_site_type_symbol
_atom_site_label
_atom_site_fract_x
_atom_site_fract_y
_atom_site_fract_z
Si Si1 0.186235 0.995917 0.885647
Si Si2 0.561783 0.204869 0.340344
Si Si3 0.602960 0.701919 0.401977
Si Si4 0.899638 0.782474 0.333971
Si Si5 0.249666 0.503155 0.968124
O O1 0.246613 0.224442 0.913264
O O2 0.108996 0.952360 0.031378
O O3 0.234021 0.724953 0.869113
O O4 0.146729 0.076663 0.765912
O O5 0.500000 0.115439 0.250000
O O6 0.597322 0.484926 0.295909
O O7 0.495471 0.251436 0.493188
O O8 0.629017 0.981628 0.345297
O O9 0.667317 0.587465 0.481689
O O10 0.837778 0.544065 0.398778
O O11 0.000000 0.718270 0.250000
#
# Coordination Sequence:
#
# PCOD9232371 Si02
#       5
#     4   4   4   4   4
#     4  10  24  41  64  92 126 169 209 265 313 377
#     4  10  21  36  62  84 121 160 198 248 302 366
#     4  10  21  39  56  90 119 155 206 244 305 367
#     4  10  24  43  66  93 128 169 213 262 318 377
#     4  10  24  38  64  91 127 165 210 265 315 372
#
# _framework density 24.608402000000002
#
# number of rings (size 3 to 8) (size 9 to 14) (size 15 to 20)
#    1.200    0.800    0.000    2.400    2.800    4.800 
#    0.000    0.000    0.000    0.000    0.000    0.000 
#    0.000    0.000    0.000    0.000    0.000    0.000 
#
# Total GULP energy -111769.299149 kJ/mol
# GULP energy per Si atom -5588.464957 kJ/mol
# Density = 2.455239 g / cm^3
# Si number density = 24.608402 Si / 1000 Ang^3
#
#
#
# Elastic Constant Matrix: (Units=GPa)
#
#
# Indices 1 2 3 4 5 6 
#
# 1 84.8789 23.3575 8.7787 0.0000 -15.0456 0.0000
# 2 23.3575 117.3417 14.7135 0.0000 -22.7920 0.0000
# 3 8.7787 14.7135 87.7444 0.0000 -9.6520 0.0000
# 4 0.0000 0.0000 0.0000 37.5591 0.0000 2.7101
# 5 -15.0456 -22.7920 -9.6520 0.0000 43.6924 0.0000
# 6 0.0000 0.0000 0.0000 2.7101 0.0000 21.8916
#
#
#
# Elastic Compliance Matrix: (Units=1/GPa)
#
#
# Indices 1 2 3 4 5 6 
#
# 1 0.012949 -0.001848 -0.000616 0.000000 0.003359 0.000000
# 2 -0.001848 0.009846 -0.000995 0.000000 0.004280 0.000000
# 3 -0.000616 -0.000995 0.011832 0.000000 0.001882 0.000000
# 4 0.000000 0.000000 0.000000 0.026865 0.000000 -0.003326
# 5 0.003359 0.004280 0.001882 0.000000 0.026692 0.000000
# 6 0.000000 0.000000 0.000000 -0.003326 0.000000 0.046091
#
#
# Mechanical properties :
#
#
# Convention : Reuss Voigt Hill
#
# Bulk Modulus (GPa) = 36.08973 42.62937 39.35955
# Shear Modulus (GPa) = 33.23781 36.83632 35.03706
#
# Velocity S-wave (km/s) = 3.67913 3.87318 3.77740
# Velocity P-wave (km/s) = 5.72237 6.11250 5.92065
#
# Compressibility (1/GPa) = 0.02770872
#
# Stress axis : x y z
#
# Youngs Moduli (GPa) = 77.22508 101.56317 84.51391
#
# Poissons Ratio (x) = 0.18768 0.05208
# Poissons Ratio (y) = 0.14270 0.08412
# Poissons Ratio (z) = 0.04758 0.10109
#
# Static dielectric constant tensor:
#      x y z
#    x 1.954790 0.000000 -0.079860 
#    y 0.000000 1.978910 0.000000 
#    z -0.079860 0.000000 1.988900 
# 
# From -- ./inp_files/20543.got.cif
#   From: 2010.05.17/outbox.cif.g08.bks.cpg/sg13_11_cif.got.tgz:20543.got - 2010.06.03 16:44:36.
