data_PCOD9232315
_publ_section_title
;
Structure prediction by ZEFSAII (Michael W. Deem and Ramdas Pophale) SiO2 
 PCOD9232315
Probable space group: P 2/C
;
_chemical_formula_sum "Si O2"
_cell_formula_units_Z 28
_cell_length_a 10.227645
_cell_length_b 16.914942
_cell_length_c 11.470341
_cell_angle_alpha 90.000000
_cell_angle_beta 38.642918
_cell_angle_gamma 90.000000
_cell_volume 1239.168799
_symmetry_space_group_name_H-M "P 2/C"
_symmetry_group_IT_number 13
_symmetry_cell_setting 'monoclinic'
loop_
_space_group_symop_operation_xyz
x,y,z
-x,y,1/2-z
-x,-y,-z
x,-y,1/2+z
loop_
_atom_site_type_symbol
_atom_site_label
_atom_site_fract_x
_atom_site_fract_y
_atom_site_fract_z
Si Si1 0.377394 0.480699 0.460822
Si Si2 0.471745 0.762374 0.023060
Si Si3 0.942923 0.756037 0.020445
Si Si4 0.870096 0.067584 0.522927
Si Si5 0.701256 0.351260 0.521158
Si Si6 0.567844 0.930224 0.036192
Si Si7 0.204746 0.692599 0.034640
O O1 0.500000 0.477537 0.250000
O O2 0.500000 0.500000 0.500000
O O3 0.236835 0.558762 0.543573
O O4 0.263343 0.396082 0.535775
O O5 0.264798 0.758587 0.251025
O O6 0.616832 0.691526 0.965380
O O7 0.583303 0.845253 0.964943
O O8 0.389690 0.747786 0.951253
O O9 0.979619 0.847063 0.959971
O O10 0.872988 0.703115 0.961022
O O11 0.130349 0.711649 0.956628
O O12 0.642154 0.077558 0.740697
O O13 0.783504 0.050491 0.453100
O O14 0.000000 0.000000 0.500000
O O15 0.500000 0.352860 0.750000
O O16 0.500000 0.000000 0.000000
O O17 0.000000 0.715265 0.250000
#
# Coordination Sequence:
#
# PCOD9232315 Si02
#       7
#     4   4   4   4   4   4   4
#     4  11  23  40  63  89 123 164 204 250 313 375
#     4   9  16  33  57  81 110 151 200 241 285 364
#     4   9  18  33  56  85 110 151 196 250 291 353
#     4  10  21  37  57  84 118 150 196 250 301 359
#     4   9  16  32  59  80 109 149 196 237 292 354
#     4  10  21  36  58  85 113 153 199 242 301 364
#     4  10  21  36  59  90 119 146 203 255 302 356
#
# _framework density 22.595793
#
# number of rings (size 3 to 8) (size 9 to 14) (size 15 to 20)
#    0.000    2.286    2.857    0.000    4.000    1.143 
#    0.000    1.429    0.000    0.000    0.000    0.000 
#    0.000    0.000    0.000    0.000    0.000    0.000 
#
# Total GULP energy -156128.890424 kJ/mol
# GULP energy per Si atom -5576.031801 kJ/mol
# Density = 2.254436 g / cm^3
# Si number density = 22.595793 Si / 1000 Ang^3
#
#
#
# Elastic Constant Matrix: (Units=GPa)
#
#
# Indices 1 2 3 4 5 6 
#
# 1 207.3923 82.0986 23.1985 0.0000 8.2756 0.0000
# 2 82.0986 130.9101 -17.1364 0.0000 -0.5404 0.0000
# 3 23.1985 -17.1364 75.6300 0.0000 -9.2046 0.0000
# 4 0.0000 0.0000 0.0000 14.6663 0.0000 0.1578
# 5 8.2756 -0.5404 -9.2046 0.0000 25.0184 0.0000
# 6 0.0000 0.0000 0.0000 0.1578 0.0000 42.9116
#
#
#
# Elastic Compliance Matrix: (Units=1/GPa)
#
#
# Indices 1 2 3 4 5 6 
#
# 1 0.007506 -0.005246 -0.003986 0.000000 -0.004063 0.000000
# 2 -0.005246 0.011557 0.004679 0.000000 0.003706 0.000000
# 3 -0.003986 0.004679 0.016413 0.000000 0.007458 0.000000
# 4 0.000000 0.000000 0.000000 0.068186 0.000000 -0.000251
# 5 -0.004063 0.003706 0.007458 0.000000 0.044138 0.000000
# 6 0.000000 0.000000 0.000000 -0.000251 0.000000 0.023305
#
#
# Mechanical properties :
#
#
# Convention : Reuss Voigt Hill
#
# Bulk Modulus (GPa) = 37.92221 65.58377 51.75299
# Shear Modulus (GPa) = 26.45493 38.23737 32.34615
#
# Velocity S-wave (km/s) = 3.42539 4.11814 3.78764
# Velocity P-wave (km/s) = 5.69769 7.19026 6.48705
#
# Compressibility (1/GPa) = 0.02636977
#
# Stress axis : x y z
#
# Youngs Moduli (GPa) = 133.21925 86.53079 60.92886
#
# Poissons Ratio (x) = 0.45395 0.24284
# Poissons Ratio (y) = 0.69888 -0.28507
# Poissons Ratio (z) = 0.53096 -0.40486
#
# Static dielectric constant tensor:
#      x y z
#    x 1.858910 0.000000 0.048260 
#    y 0.000000 1.807850 0.000000 
#    z 0.048260 0.000000 1.941580 
# 
# From -- ./inp_files/30284.got.cif
#   From: 2010.05.17/outbox.cif.g08.bks.cpg/sg13_16_cif.got.tgz:30284.got - 2010.06.03 16:44:36.
