data_PCOD9232940
_publ_section_title
;
Structure prediction by ZEFSAII (Michael W. Deem and Ramdas Pophale) SiO2 
 PCOD9232940
Probable space group: P 2/C
;
_chemical_formula_sum "Si O2"
_cell_formula_units_Z 26
_cell_length_a 14.799281
_cell_length_b 9.110795
_cell_length_c 11.512934
_cell_angle_alpha 90.000000
_cell_angle_beta 52.326376
_cell_angle_gamma 90.000000
_cell_volume 1228.673663
_symmetry_space_group_name_H-M "P 2/C"
_symmetry_group_IT_number 13
_symmetry_cell_setting 'monoclinic'
loop_
_space_group_symop_operation_xyz
x,y,z
-x,y,1/2-z
-x,-y,-z
x,-y,1/2+z
loop_
_atom_site_type_symbol
_atom_site_label
_atom_site_fract_x
_atom_site_fract_y
_atom_site_fract_z
Si Si1 0.149337 0.538000 0.777828
Si Si2 0.094257 0.692877 0.492976
Si Si3 0.481410 0.598034 0.897785
Si Si4 0.296580 0.227517 0.247041
Si Si5 0.842130 0.955859 0.225923
Si Si6 0.773570 0.700978 0.443460
Si Si7 0.000000 0.150387 0.250000
O O1 0.250673 0.653825 0.690970
O O2 0.143771 0.426103 0.673030
O O3 0.033200 0.624153 0.900257
O O4 0.170848 0.429253 0.871440
O O5 0.114309 0.836342 0.399701
O O6 0.101896 0.751185 0.617497
O O7 0.500000 0.534022 0.750000
O O8 0.428726 0.733809 0.663925
O O9 0.500000 0.500000 0.000000
O O10 0.351730 0.652144 0.999068
O O11 0.229803 0.272625 0.417233
O O12 0.255336 0.065594 0.244684
O O13 0.801072 0.856456 0.364698
O O14 0.945657 0.052764 0.192699
#
# Coordination Sequence:
#
# PCOD9232940 Si02
#       7
#     4   4   4   4   4   4   2
#     4  10  21  39  58  87 120 158 205 255 309 369
#     4  10  23  38  54  84 122 160 208 251 301 377
#     4  10  21  42  68  97 128 164 213 269 329 384
#     4  11  22  39  67  90 125 163 209 263 322 378
#     4  11  24  40  58  89 126 168 208 255 314 380
#     4  10  23  41  63  91 125 165 207 264 322 381
#     4  12  22  36  60  82 122 166 206 252 306 368
#
# _framework density 21.16103
#
# number of rings (size 3 to 8) (size 9 to 14) (size 15 to 20)
#    0.000    1.538    3.077    1.385    4.308    0.615 
#    0.000    1.538    0.000    0.000    0.000    0.000 
#    0.000    0.000    0.000    0.000    0.000    0.000 
#
# Total GULP energy -144978.926826 kJ/mol
# GULP energy per Si atom -5576.112570 kJ/mol
# Density = 2.111287 g / cm^3
# Si number density = 21.161030 Si / 1000 Ang^3
#
#
#
# Elastic Constant Matrix: (Units=GPa)
#
#
# Indices 1 2 3 4 5 6 
#
# 1 70.1927 30.3955 12.5974 0.0000 2.3964 0.0000
# 2 30.3955 133.6558 36.2543 0.0000 3.6342 0.0000
# 3 12.5974 36.2543 78.4150 0.0000 7.9919 0.0000
# 4 0.0000 0.0000 0.0000 29.2552 0.0000 6.9719
# 5 2.3964 3.6342 7.9919 0.0000 31.6845 0.0000
# 6 0.0000 0.0000 0.0000 6.9719 0.0000 4.2675
#
#
#
# Elastic Compliance Matrix: (Units=1/GPa)
#
#
# Indices 1 2 3 4 5 6 
#
# 1 0.015882 -0.003339 -0.000949 0.000000 -0.000579 0.000000
# 2 -0.003339 0.009257 -0.003757 0.000000 0.000139 0.000000
# 3 -0.000949 -0.003757 0.014976 0.000000 -0.003275 0.000000
# 4 0.000000 0.000000 0.000000 0.055976 0.000000 -0.091450
# 5 -0.000579 0.000139 -0.003275 0.000000 0.032415 0.000000
# 6 0.000000 0.000000 0.000000 -0.091450 0.000000 0.383737
#
#
# Mechanical properties :
#
#
# Convention : Reuss Voigt Hill
#
# Bulk Modulus (GPa) = 41.62353 48.97311 45.29832
# Shear Modulus (GPa) = 9.32242 26.57584 17.94913
#
# Velocity S-wave (km/s) = 2.10120 3.54769 2.91557
# Velocity P-wave (km/s) = 5.05958 6.32256 5.72600
#
# Compressibility (1/GPa) = 0.02402487
#
# Stress axis : x y z
#
# Youngs Moduli (GPa) = 62.96300 108.03051 66.77327
#
# Poissons Ratio (x) = 0.36069 0.06336
# Poissons Ratio (y) = 0.21022 0.25090
# Poissons Ratio (z) = 0.05974 0.40592
#
# Static dielectric constant tensor:
#      x y z
#    x 1.760660 0.000000 0.025760 
#    y 0.000000 1.797650 0.000000 
#    z 0.025760 0.000000 1.824460 
# 
# From -- ./inp_files/35883.got.cif
#   From: 2010.05.17/outbox.cif.g08.bks.cpg/sg13_18_cif.got.tgz:35883.got - 2010.06.03 16:44:36.
