data_PCOD9232686
_publ_section_title
;
Structure prediction by ZEFSAII (Michael W. Deem and Ramdas Pophale) SiO2 
 PCOD9232686
Probable space group: P 2/C
;
_chemical_formula_sum "Si O2"
_cell_formula_units_Z 32
_cell_length_a 9.158934
_cell_length_b 14.359643
_cell_length_c 13.895974
_cell_angle_alpha 90.000000
_cell_angle_beta 120.181810
_cell_angle_gamma 90.000000
_cell_volume 1579.827372
_symmetry_space_group_name_H-M "P 2/C"
_symmetry_group_IT_number 13
_symmetry_cell_setting 'monoclinic'
loop_
_space_group_symop_operation_xyz
x,y,z
-x,y,1/2-z
-x,-y,-z
x,-y,1/2+z
loop_
_atom_site_type_symbol
_atom_site_label
_atom_site_fract_x
_atom_site_fract_y
_atom_site_fract_z
Si Si1 0.694997 0.350959 0.503059
Si Si2 0.317794 0.571172 0.702603
Si Si3 0.895421 0.183406 0.629474
Si Si4 0.360058 0.865008 0.975748
Si Si5 0.872451 0.080583 0.927854
Si Si6 0.686729 0.961695 0.170106
Si Si7 0.046229 0.487179 0.377247
Si Si8 0.333662 0.353409 0.423971
O O1 0.667548 0.355834 0.379643
O O2 0.741907 0.247695 0.549088
O O3 0.851939 0.418200 0.573530
O O4 0.528411 0.385315 0.504536
O O5 0.500000 0.518134 0.750000
O O6 0.305704 0.618839 0.802884
O O7 0.135825 0.520109 0.630377
O O8 0.830681 0.085822 0.651446
O O9 0.000000 0.230557 0.750000
O O10 0.019505 0.163400 0.583397
O O11 0.341785 0.757456 0.940998
O O12 0.346586 0.934383 0.879608
O O13 0.216155 0.887109 0.005124
O O14 0.526247 0.897953 0.089710
O O15 0.745636 0.046937 0.800246
O O16 0.000000 0.000000 0.000000
O O17 0.186443 0.404382 0.435963
O O18 0.000000 0.483953 0.250000
#
# Coordination Sequence:
#
# PCOD9232686 Si02
#       8
#     4   4   4   4   4   4   4   4
#     4  11  20  38  63  85 121 166 205 249 319 372
#     4   9  21  39  59  88 126 156 205 264 301 372
#     4  10  21  38  58  86 121 157 204 253 304 374
#     4  11  22  41  64  88 125 168 206 258 321 371
#     4  11  23  39  61  92 124 162 210 261 315 378
#     4  10  22  42  62  87 127 164 206 258 311 381
#     4  10  21  39  61  89 122 162 204 258 314 375
#     4  10  22  39  60  93 122 160 207 263 312 369
#
# _framework density 20.255375999999998
#
# number of rings (size 3 to 8) (size 9 to 14) (size 15 to 20)
#    0.000    1.750    2.500    1.500    1.750    1.000 
#    4.500    1.250    0.000    0.000    0.000    0.000 
#    0.000    0.000    0.000    0.000    0.000    0.000 
#
# Total GULP energy -178333.984736 kJ/mol
# GULP energy per Si atom -5572.937023 kJ/mol
# Density = 2.020927 g / cm^3
# Si number density = 20.255376 Si / 1000 Ang^3
#
#
#
# Elastic Constant Matrix: (Units=GPa)
#
#
# Indices 1 2 3 4 5 6 
#
# 1 126.0849 30.8380 21.6549 0.0000 16.4138 0.0000
# 2 30.8380 78.3741 15.5347 0.0000 8.7423 0.0000
# 3 21.6549 15.5347 50.1847 0.0000 17.9880 0.0000
# 4 0.0000 0.0000 0.0000 13.7634 0.0000 12.1946
# 5 16.4138 8.7423 17.9880 0.0000 28.1942 0.0000
# 6 0.0000 0.0000 0.0000 12.1946 0.0000 22.3573
#
#
#
# Elastic Compliance Matrix: (Units=1/GPa)
#
#
# Indices 1 2 3 4 5 6 
#
# 1 0.009421 -0.002948 -0.001964 0.000000 -0.003318 0.000000
# 2 -0.002948 0.014602 -0.002905 0.000000 -0.000958 0.000000
# 3 -0.001964 -0.002905 0.027149 0.000000 -0.015277 0.000000
# 4 0.000000 0.000000 0.000000 0.140608 0.000000 -0.076693
# 5 -0.003318 -0.000958 -0.015277 0.000000 0.047444 0.000000
# 6 0.000000 0.000000 0.000000 -0.076693 0.000000 0.086560
#
#
# Mechanical properties :
#
#
# Convention : Reuss Voigt Hill
#
# Bulk Modulus (GPa) = 28.13714 43.41099 35.77407
# Shear Modulus (GPa) = 14.15382 25.30406 19.72894
#
# Velocity S-wave (km/s) = 2.64629 3.53831 3.12430
# Velocity P-wave (km/s) = 4.82271 6.17829 5.54210
#
# Compressibility (1/GPa) = 0.03554021
#
# Stress axis : x y z
#
# Youngs Moduli (GPa) = 106.14250 68.48479 36.83421
#
# Poissons Ratio (x) = 0.20187 0.07233
# Poissons Ratio (y) = 0.31288 0.10699
# Poissons Ratio (z) = 0.20842 0.19891
#
# Static dielectric constant tensor:
#      x y z
#    x 1.794270 0.000000 0.050620 
#    y 0.000000 1.687400 0.000000 
#    z 0.050620 0.000000 1.766460 
# 
# From -- ./inp_files/47695.got.cif
#   From: 2010.05.17/outbox.cif.g08.bks.cpg/sg13_24_cif.got.tgz:47695.got - 2010.06.03 16:44:36.
