data_PCOD9232631
_publ_section_title
;
Structure prediction by ZEFSAII (Michael W. Deem and Ramdas Pophale) SiO2 
 PCOD9232631
Probable space group: P 2/C
;
_chemical_formula_sum "Si O2"
_cell_formula_units_Z 28
_cell_length_a 11.831416
_cell_length_b 7.683101
_cell_length_c 14.270791
_cell_angle_alpha 90.000000
_cell_angle_beta 61.268796
_cell_angle_gamma 90.000000
_cell_volume 1137.532216
_symmetry_space_group_name_H-M "P 2/C"
_symmetry_group_IT_number 13
_symmetry_cell_setting 'monoclinic'
loop_
_space_group_symop_operation_xyz
x,y,z
-x,y,1/2-z
-x,-y,-z
x,-y,1/2+z
loop_
_atom_site_type_symbol
_atom_site_label
_atom_site_fract_x
_atom_site_fract_y
_atom_site_fract_z
Si Si1 0.354415 0.290399 0.780949
Si Si2 0.636589 0.593379 0.422565
Si Si3 0.028382 0.047394 0.634096
Si Si4 0.672633 0.004710 0.457865
Si Si5 0.062530 0.737081 0.935349
Si Si6 0.445887 0.936555 0.677981
Si Si7 0.814978 0.533217 0.009532
O O1 0.500000 0.335653 0.750000
O O2 0.327216 0.405836 0.700548
O O3 0.354586 0.088790 0.752818
O O4 0.260311 0.323543 0.902855
O O5 0.500000 0.500000 0.500000
O O6 0.643623 0.799564 0.446379
O O7 0.744505 0.505275 0.442406
O O8 0.177481 0.983328 0.576643
O O9 0.000000 0.114138 0.750000
O O10 0.014680 0.180701 0.553643
O O11 0.935745 0.888178 0.641760
O O12 0.630916 0.123151 0.384820
O O13 0.571167 0.031552 0.581854
O O14 0.960110 0.596985 0.938769
O O15 0.187375 0.635555 0.921118
O O16 0.500000 0.839289 0.750000
#
# Coordination Sequence:
#
# PCOD9232631 Si02
#       7
#     4   4   4   4   4   4   4
#     4  10  21  37  66  97 123 171 218 263 341 405
#     4  11  22  40  63  95 137 172 213 279 343 404
#     4  11  25  44  68  97 134 180 238 284 339 392
#     4  10  22  41  63  97 135 172 226 280 329 410
#     4  10  26  44  67  97 130 185 227 285 335 398
#     4   9  21  38  64  97 127 169 214 267 347 397
#     4  11  23  44  68  96 138 173 230 277 338 412
#
# _framework density 24.614687
#
# number of rings (size 3 to 8) (size 9 to 14) (size 15 to 20)
#    0.000    1.714    2.857    0.000    8.000    3.429 
#    2.571    2.857    0.000    0.000    0.000    0.000 
#    0.000    0.000    0.000    0.000    0.000    0.000 
#
# Total GULP energy -156424.214198 kJ/mol
# GULP energy per Si atom -5586.579079 kJ/mol
# Density = 2.455866 g / cm^3
# Si number density = 24.614687 Si / 1000 Ang^3
#
#
#
# Elastic Constant Matrix: (Units=GPa)
#
#
# Indices 1 2 3 4 5 6 
#
# 1 137.7883 7.4927 12.8231 0.0000 32.1944 0.0000
# 2 7.4927 52.5927 3.7814 0.0000 9.0617 0.0000
# 3 12.8231 3.7814 51.2336 0.0000 26.3554 0.0000
# 4 0.0000 0.0000 0.0000 21.1856 0.0000 -1.6436
# 5 32.1944 9.0617 26.3554 0.0000 42.9604 0.0000
# 6 0.0000 0.0000 0.0000 -1.6436 0.0000 32.6527
#
#
#
# Elastic Compliance Matrix: (Units=1/GPa)
#
#
# Indices 1 2 3 4 5 6 
#
# 1 0.008905 -0.000062 0.001756 0.000000 -0.007738 0.000000
# 2 -0.000062 0.019767 0.000990 0.000000 -0.004731 0.000000
# 3 0.001756 0.000990 0.028916 0.000000 -0.019264 0.000000
# 4 0.000000 0.000000 0.000000 0.047387 0.000000 0.002385
# 5 -0.007738 -0.004731 -0.019264 0.000000 0.041892 0.000000
# 6 0.000000 0.000000 0.000000 0.002385 0.000000 0.030745
#
#
# Mechanical properties :
#
#
# Convention : Reuss Voigt Hill
#
# Bulk Modulus (GPa) = 15.88390 32.20098 24.04244
# Shear Modulus (GPa) = 25.87604 33.86088 29.86846
#
# Velocity S-wave (km/s) = 3.24581 3.71298 3.48723
# Velocity P-wave (km/s) = 4.52924 5.61178 5.09932
#
# Compressibility (1/GPa) = 0.06295683
#
# Stress axis : x y z
#
# Youngs Moduli (GPa) = 112.29087 50.59002 34.58343
#
# Poissons Ratio (x) = 0.00312 -0.06074
# Poissons Ratio (y) = 0.00693 -0.03424
# Poissons Ratio (z) = -0.19721 -0.05008
#
# Static dielectric constant tensor:
#      x y z
#    x 2.024140 0.000000 -0.027330 
#    y 0.000000 2.034950 0.000000 
#    z -0.027330 0.000000 2.018430 
# 
# From -- ./inp_files/49964.got.cif
#   From: 2010.05.17/outbox.cif.g08.bks.cpg/sg13_25_cif.got.tgz:49964.got - 2010.06.03 16:44:36.
