data_PCOD9232923
_publ_section_title
;
Structure prediction by ZEFSAII (Michael W. Deem and Ramdas Pophale) SiO2 
 PCOD9232923
Probable space group: P 2/C
;
_chemical_formula_sum "Si O2"
_cell_formula_units_Z 22
_cell_length_a 12.571685
_cell_length_b 17.311769
_cell_length_c 5.467025
_cell_angle_alpha 90.000000
_cell_angle_beta 67.943724
_cell_angle_gamma 90.000000
_cell_volume 1102.755601
_symmetry_space_group_name_H-M "P 2/C"
_symmetry_group_IT_number 13
_symmetry_cell_setting 'monoclinic'
loop_
_space_group_symop_operation_xyz
x,y,z
-x,y,1/2-z
-x,-y,-z
x,-y,1/2+z
loop_
_atom_site_type_symbol
_atom_site_label
_atom_site_fract_x
_atom_site_fract_y
_atom_site_fract_z
Si Si1 0.313713 0.160947 0.584678
Si Si2 0.000000 0.654662 0.250000
Si Si3 0.817393 0.548364 0.625385
Si Si4 0.882201 0.226423 0.491845
Si Si5 0.500000 0.766191 0.250000
Si Si6 0.306037 0.298810 0.216877
Si Si7 0.500000 0.048448 0.250000
O O1 0.188654 0.156071 0.819790
O O2 0.406333 0.178503 0.712502
O O3 0.303533 0.239811 0.442074
O O4 0.381170 0.098491 0.362973
O O5 0.932609 0.598931 0.492271
O O6 0.919237 0.710587 0.162329
O O7 0.812885 0.493699 0.390612
O O8 0.719375 0.613422 0.696086
O O9 0.792841 0.268219 0.384721
O O10 0.000000 0.204523 0.250000
O O11 0.430552 0.712849 0.493917
O O12 0.500000 0.000000 0.500000
#
# Coordination Sequence:
#
# PCOD9232923 Si02
#       7
#     4   2   4   4   2   4   2
#     4  11  22  42  70 101 136 177 219 282 330 404
#     4  12  22  40  58  98 128 184 226 302 332 408
#     4  12  26  40  59  91 136 183 229 295 357 393
#     4  11  21  37  67 100 133 174 240 280 329 395
#     4  10  21  38  70  93 122 172 234 282 333 386
#     4  11  22  39  66  90 132 177 241 278 336 411
#     4  12  27  46  76 115 144 168 216 272 349 412
#
# _framework density 19.950023999999999
#
# number of rings (size 3 to 8) (size 9 to 14) (size 15 to 20)
#    0.000    0.727    5.455    2.182    5.091    0.000 
#    0.000    0.909    0.000    1.091    0.000    0.000 
#    0.000    0.000    0.000    0.000    0.000    0.000 
#
# Total GULP energy -122792.368218 kJ/mol
# GULP energy per Si atom -5581.471283 kJ/mol
# Density = 1.990462 g / cm^3
# Si number density = 19.950024 Si / 1000 Ang^3
#
#
#
# Elastic Constant Matrix: (Units=GPa)
#
#
# Indices 1 2 3 4 5 6 
#
# 1 55.6616 22.2580 33.9001 0.0000 -10.0134 0.0000
# 2 22.2580 71.1513 40.8985 0.0000 -14.2866 0.0000
# 3 33.9001 40.8985 117.0903 0.0000 -32.6935 0.0000
# 4 0.0000 0.0000 0.0000 214.3291 0.0000 -204.6579
# 5 -10.0134 -14.2866 -32.6935 0.0000 60.4359 0.0000
# 6 0.0000 0.0000 0.0000 -204.6579 0.0000 257.2253
#
#
#
# Elastic Compliance Matrix: (Units=1/GPa)
#
#
# Indices 1 2 3 4 5 6 
#
# 1 0.022759 -0.004169 -0.005130 0.000000 0.000010 0.000000
# 2 -0.004169 0.018398 -0.004945 0.000000 0.000984 0.000000
# 3 -0.005130 -0.004945 0.013180 0.000000 0.005111 0.000000
# 4 0.000000 0.000000 0.000000 0.019419 0.000000 0.015451
# 5 0.000010 0.000984 0.005111 0.000000 0.019545 0.000000
# 6 0.000000 0.000000 0.000000 0.015451 0.000000 0.016181
#
#
# Mechanical properties :
#
#
# Convention : Reuss Voigt Hill
#
# Bulk Modulus (GPa) = 38.68493 48.66848 43.67671
# Shear Modulus (GPa) = 34.10944 116.18783 75.14863
#
# Velocity S-wave (km/s) = 4.13939 7.63976 6.14412
# Velocity P-wave (km/s) = 6.50224 10.11283 8.50142
#
# Compressibility (1/GPa) = 0.02584986
#
# Stress axis : x y z
#
# Youngs Moduli (GPa) = 43.93858 54.35237 75.87258
#
# Poissons Ratio (x) = 0.22657 0.38925
# Poissons Ratio (y) = 0.18316 0.37518
# Poissons Ratio (z) = 0.22542 0.26876
#
# Static dielectric constant tensor:
#      x y z
#    x 1.699450 0.000000 -0.073150 
#    y 0.000000 1.720100 0.000000 
#    z -0.073150 0.000000 1.772830 
# 
# From -- ./inp_files/3613.got.cif
#   From: 2010.05.17/outbox.cif.g08.bks.cpg/sg13_2_cif.got.tgz:3613.got - 2010.06.03 16:44:36.
