data_PCOD9232453
_publ_section_title
;
Structure prediction by ZEFSAII (Michael W. Deem and Ramdas Pophale) SiO2 
 PCOD9232453
Probable space group: P 2/C
;
_chemical_formula_sum "Si O2"
_cell_formula_units_Z 16
_cell_length_a 17.397986
_cell_length_b 5.231942
_cell_length_c 9.107111
_cell_angle_alpha 90.000000
_cell_angle_beta 129.403484
_cell_angle_gamma 90.000000
_cell_volume 640.546432
_symmetry_space_group_name_H-M "P 2/C"
_symmetry_group_IT_number 13
_symmetry_cell_setting 'monoclinic'
loop_
_space_group_symop_operation_xyz
x,y,z
-x,y,1/2-z
-x,-y,-z
x,-y,1/2+z
loop_
_atom_site_type_symbol
_atom_site_label
_atom_site_fract_x
_atom_site_fract_y
_atom_site_fract_z
Si Si1 0.115071 0.307048 0.346627
Si Si2 0.614732 0.188525 0.334394
Si Si3 0.814141 0.817172 0.239731
Si Si4 0.434278 0.323125 0.815179
O O1 0.149543 0.566425 0.306260
O O2 0.168538 0.233682 0.566572
O O3 0.000000 0.336913 0.250000
O O4 0.129901 0.069086 0.252785
O O5 0.500000 0.219900 0.250000
O O6 0.698968 0.129204 0.554218
O O7 0.648178 0.466629 0.318744
O O8 0.604794 0.960301 0.205648
O O9 0.500000 0.278324 0.750000
O O10 0.500000 0.500000 0.000000
#
# Coordination Sequence:
#
# PCOD9232453 Si02
#       4
#     4   4   4   4
#     4  12  26  49  75 106 143 188 246 314 375 439
#     4  10  23  41  64  96 138 181 227 283 344 423
#     4  12  26  45  74 108 143 191 244 300 373 444
#     4  10  21  37  58  84 122 174 220 265 325 392
#
# _framework density 24.978674999999999
#
# number of rings (size 3 to 8) (size 9 to 14) (size 15 to 20)
#    0.000    1.000    0.000    6.000    0.000   12.000 
#    0.000    0.000    0.000    0.000    0.000    0.000 
#    0.000    0.000    0.000    0.000    0.000    0.000 
#
# Total GULP energy -89277.289956 kJ/mol
# GULP energy per Si atom -5579.830622 kJ/mol
# Density = 2.492182 g / cm^3
# Si number density = 24.978675 Si / 1000 Ang^3
#
#
#
# Elastic Constant Matrix: (Units=GPa)
#
#
# Indices 1 2 3 4 5 6 
#
# 1 116.6609 62.4055 41.5461 0.0000 -8.6787 0.0000
# 2 62.4055 225.3836 -6.0429 0.0000 -13.3311 0.0000
# 3 41.5461 -6.0429 79.6215 0.0000 0.2001 0.0000
# 4 0.0000 0.0000 0.0000 -20.3578 0.0000 48.1032
# 5 -8.6787 -13.3311 0.2001 0.0000 47.0838 0.0000
# 6 0.0000 0.0000 0.0000 48.1032 0.0000 -20.8562
#
#
#
# Elastic Compliance Matrix: (Units=1/GPa)
#
#
# Indices 1 2 3 4 5 6 
#
# 1 0.013271 -0.003785 -0.007215 0.000000 0.001405 0.000000
# 2 -0.003785 0.005601 0.002398 0.000000 0.000878 0.000000
# 3 -0.007215 0.002398 0.016508 0.000000 -0.000721 0.000000
# 4 0.000000 0.000000 0.000000 0.011039 0.000000 0.025460
# 5 0.001405 0.000878 -0.000721 0.000000 0.021749 0.000000
# 6 0.000000 0.000000 0.000000 0.025460 0.000000 0.010775
#
#
# Mechanical properties :
#
#
# Convention : Reuss Voigt Hill
#
# Bulk Modulus (GPa) = 55.02025 68.60927 61.81476
# Shear Modulus (GPa) = 48.92077 22.75777 35.83927
#
# Velocity S-wave (km/s) = 4.43030 3.02170 3.79198
# Velocity P-wave (km/s) = 6.94584 6.30087 6.63120
#
# Compressibility (1/GPa) = 0.01817513
#
# Stress axis : x y z
#
# Youngs Moduli (GPa) = 75.35500 178.53794 60.57636
#
# Poissons Ratio (x) = 0.67572 0.43707
# Poissons Ratio (y) = 0.28520 -0.14525
# Poissons Ratio (z) = 0.54371 -0.42809
#
# Static dielectric constant tensor:
#      x y z
#    x 2.032440 0.000000 -0.034830 
#    y 0.000000 1.881350 0.000000 
#    z -0.034830 0.000000 2.032440 
# 
# From -- ./inp_files/17628.got.cif
#   From: 2010.05.17/outbox.cif.g08.bks.cpg/sg13_9_cif.got.tgz:17628.got - 2010.06.03 16:44:36.
