data_PCOD9232880
_publ_section_title
;
Structure prediction by ZEFSAII (Michael W. Deem and Ramdas Pophale) SiO2 
 PCOD9232880
Probable space group: P 2/C
;
_chemical_formula_sum "Si O2"
_cell_formula_units_Z 32
_cell_length_a 9.475981
_cell_length_b 14.716427
_cell_length_c 24.593731
_cell_angle_alpha 90.000000
_cell_angle_beta 28.670346
_cell_angle_gamma 90.000000
_cell_volume 1645.445784
_symmetry_space_group_name_H-M "P 2/C"
_symmetry_group_IT_number 13
_symmetry_cell_setting 'monoclinic'
loop_
_space_group_symop_operation_xyz
x,y,z
-x,y,1/2-z
-x,-y,-z
x,-y,1/2+z
loop_
_atom_site_type_symbol
_atom_site_label
_atom_site_fract_x
_atom_site_fract_y
_atom_site_fract_z
Si Si1 0.616547 0.300693 0.483330
Si Si2 0.633293 0.862477 0.261771
Si Si3 0.126904 0.384205 0.264218
Si Si4 0.138247 0.428532 0.612808
Si Si5 0.412996 0.681630 0.168859
Si Si6 0.663668 0.134076 0.971722
Si Si7 0.277785 0.484444 0.444228
Si Si8 0.653194 0.978265 0.364063
O O1 0.456025 0.395362 0.523567
O O2 0.478596 0.275339 0.587907
O O3 0.509468 0.228411 0.475186
O O4 0.964117 0.321312 0.363893
O O5 0.500000 0.896364 0.250000
O O6 0.503515 0.761560 0.317818
O O7 0.987891 0.853992 0.138549
O O8 0.582601 0.927340 0.331384
O O9 0.471839 0.407941 0.153489
O O10 0.000000 0.347155 0.250000
O O11 0.984221 0.484080 0.315861
O O12 0.152932 0.454437 0.544827
O O13 0.918911 0.347028 0.703871
O O14 0.572487 0.584131 0.110682
O O15 0.606255 0.085613 0.932729
O O16 0.535538 0.068262 0.061174
O O17 0.000000 0.500000 0.500000
O O18 0.000000 0.001081 0.250000
#
# Coordination Sequence:
#
# PCOD9232880 Si02
#       8
#     4   4   4   4   4   4   4   4
#     4  12  20  37  63  92 119 159 211 279 319 361
#     4  11  23  39  65  98 127 163 209 263 322 399
#     4  11  22  37  57  88 118 157 218 266 315 367
#     4  11  21  36  59  85 120 164 209 268 313 362
#     4  11  23  37  61  92 125 164 223 265 312 379
#     4  10  21  38  65  93 122 162 205 265 318 386
#     4  11  25  41  58  84 128 180 217 261 320 385
#     4   9  20  41  64  94 126 155 205 253 326 392
#
# _framework density 19.447616
#
# number of rings (size 3 to 8) (size 9 to 14) (size 15 to 20)
#    0.000    1.250    5.000    2.250    1.750    2.500 
#    0.000    0.000    0.000    0.000    0.000    0.000 
#    0.000    0.000    0.000    0.000    0.000    0.000 
#
# Total GULP energy -178332.056069 kJ/mol
# GULP energy per Si atom -5572.876752 kJ/mol
# Density = 1.940335 g / cm^3
# Si number density = 19.447616 Si / 1000 Ang^3
#
#
#
# Elastic Constant Matrix: (Units=GPa)
#
#
# Indices 1 2 3 4 5 6 
#
# 1 105.9663 18.2039 48.3931 0.0000 5.1520 0.0000
# 2 18.2039 61.8236 40.6252 0.0000 1.7832 0.0000
# 3 48.3931 40.6252 110.2983 0.0000 8.1381 0.0000
# 4 0.0000 0.0000 0.0000 20.9242 0.0000 3.4294
# 5 5.1520 1.7832 8.1381 0.0000 25.3187 0.0000
# 6 0.0000 0.0000 0.0000 3.4294 0.0000 20.9398
#
#
#
# Elastic Compliance Matrix: (Units=1/GPa)
#
#
# Indices 1 2 3 4 5 6 
#
# 1 0.011816 -0.000115 -0.005086 0.000000 -0.000762 0.000000
# 2 -0.000115 0.021368 -0.007898 0.000000 0.001057 0.000000
# 3 -0.005086 -0.007898 0.014431 0.000000 -0.003048 0.000000
# 4 0.000000 0.000000 0.000000 0.049110 0.000000 -0.008043
# 5 -0.000762 0.001057 -0.003048 0.000000 0.040557 0.000000
# 6 0.000000 0.000000 0.000000 -0.008043 0.000000 0.049073
#
#
# Mechanical properties :
#
#
# Convention : Reuss Voigt Hill
#
# Bulk Modulus (GPa) = 46.68903 54.72585 50.70744
# Shear Modulus (GPa) = 22.75906 24.82761 23.79334
#
# Velocity S-wave (km/s) = 3.42464 3.57689 3.50159
# Velocity P-wave (km/s) = 6.30057 6.72756 6.51756
#
# Compressibility (1/GPa) = 0.02141831
#
# Stress axis : x y z
#
# Youngs Moduli (GPa) = 84.62838 46.79835 69.29335
#
# Poissons Ratio (x) = 0.00540 0.35240
# Poissons Ratio (y) = 0.00977 0.54726
# Poissons Ratio (z) = 0.43039 0.36960
#
# Static dielectric constant tensor:
#      x y z
#    x 1.795750 0.000000 0.006450 
#    y 0.000000 1.725550 0.000000 
#    z 0.006450 0.000000 1.753470 
# 
# From -- ./inp_files/80348.got.cif
#   From: 2010.05.17/outbox.cif.g08.bks.cpg/sg13_41_cif.got.tgz:80348.got - 2010.06.03 16:44:36.
