data_PCOD9232987
_publ_section_title
;
Structure prediction by ZEFSAII (Michael W. Deem and Ramdas Pophale) SiO2 
 PCOD9232987
Probable space group: P 2/C
;
_chemical_formula_sum "Si O2"
_cell_formula_units_Z 20
_cell_length_a 9.241676
_cell_length_b 22.105588
_cell_length_c 9.873527
_cell_angle_alpha 90.000000
_cell_angle_beta 149.466276
_cell_angle_gamma 90.000000
_cell_volume 1024.772998
_symmetry_space_group_name_H-M "P 2/C"
_symmetry_group_IT_number 13
_symmetry_cell_setting 'monoclinic'
loop_
_space_group_symop_operation_xyz
x,y,z
-x,y,1/2-z
-x,-y,-z
x,-y,1/2+z
loop_
_atom_site_type_symbol
_atom_site_label
_atom_site_fract_x
_atom_site_fract_y
_atom_site_fract_z
Si Si1 0.693787 0.162109 0.542269
Si Si2 0.692660 0.531656 0.769188
Si Si3 0.359207 0.739016 0.277559
Si Si4 0.186748 0.975010 0.272465
Si Si5 0.849172 0.657113 0.770370
O O1 0.595301 0.207169 0.579400
O O2 0.761146 0.096466 0.661254
O O3 0.000000 0.188322 0.750000
O O4 0.500000 0.156770 0.250000
O O5 0.500000 0.526363 0.750000
O O6 0.500000 0.500000 0.500000
O O7 0.776020 0.601322 0.807240
O O8 0.000000 0.500000 0.000000
O O9 0.500000 0.759073 0.250000
O O10 0.549086 0.684474 0.485018
O O11 0.049127 0.709869 0.996472
O O12 0.000000 0.995768 0.250000
O O13 0.500000 0.000000 0.500000
O O14 0.000000 0.000000 0.000000
O O15 0.000000 0.637448 0.750000
#
# Coordination Sequence:
#
# PCOD9232987 Si02
#       5
#     4   4   4   4   4
#     4  11  23  41  62  89 125 162 203 257 312 368
#     4  12  25  42  65  93 125 166 211 258 313 374
#     4  10  22  39  62  90 121 160 205 252 308 368
#     4  11  23  41  63  91 125 165 209 259 314 371
#     4  10  21  39  61  89 124 159 202 258 309 365
#
# _framework density 19.516518000000001
#
# number of rings (size 3 to 8) (size 9 to 14) (size 15 to 20)
#    0.000    1.200    0.000    7.200    0.000    5.600 
#    0.000    2.000    0.000    0.000    0.000    0.000 
#    0.000    0.000    0.000    0.000    0.000    0.000 
#
# Total GULP energy -111471.923260 kJ/mol
# GULP energy per Si atom -5573.596163 kJ/mol
# Density = 1.947210 g / cm^3
# Si number density = 19.516518 Si / 1000 Ang^3
#
#
#
# Elastic Constant Matrix: (Units=GPa)
#
#
# Indices 1 2 3 4 5 6 
#
# 1 157.3691 72.2252 63.2957 0.0000 -14.2187 0.0000
# 2 72.2252 64.5117 26.4971 0.0000 -18.9947 0.0000
# 3 63.2957 26.4971 145.2914 0.0000 -5.1238 0.0000
# 4 0.0000 0.0000 0.0000 8.3006 0.0000 -8.3301
# 5 -14.2187 -18.9947 -5.1238 0.0000 40.2369 0.0000
# 6 0.0000 0.0000 0.0000 -8.3301 0.0000 29.2952
#
#
#
# Elastic Compliance Matrix: (Units=1/GPa)
#
#
# Indices 1 2 3 4 5 6 
#
# 1 0.014944 -0.016029 -0.003684 0.000000 -0.002755 0.000000
# 2 -0.016029 0.036596 0.000721 0.000000 0.011704 0.000000
# 3 -0.003684 0.000721 0.008360 0.000000 0.000103 0.000000
# 4 0.000000 0.000000 0.000000 0.168579 0.000000 0.047936
# 5 -0.002755 0.011704 0.000103 0.000000 0.029417 0.000000
# 6 0.000000 0.000000 0.000000 0.047936 0.000000 0.047766
#
#
# Mechanical properties :
#
#
# Convention : Reuss Voigt Hill
#
# Bulk Modulus (GPa) = 45.62710 76.80089 61.21399
# Shear Modulus (GPa) = 14.24705 29.24348 21.74526
#
# Velocity S-wave (km/s) = 2.70478 3.87511 3.34158
# Velocity P-wave (km/s) = 5.76055 7.71098 6.80599
#
# Compressibility (1/GPa) = 0.02191680
#
# Stress axis : x y z
#
# Youngs Moduli (GPa) = 66.91765 27.32559 119.62015
#
# Poissons Ratio (x) = 0.43799 0.44070
# Poissons Ratio (y) = 1.07259 -0.08630
# Poissons Ratio (z) = 0.24654 -0.01971
#
# Static dielectric constant tensor:
#      x y z
#    x 1.801160 0.000000 0.018480 
#    y 0.000000 1.687830 0.000000 
#    z 0.018480 0.000000 1.693990 
# 
# From -- ./inp_files/13758.got.cif
#   From: 2010.05.17/outbox.cif.g08.bks.cpg/sg13_7_cif.got.tgz:13758.got - 2010.06.03 16:44:36.
