data_PCOD9232652
_publ_section_title
;
Structure prediction by ZEFSAII (Michael W. Deem and Ramdas Pophale) SiO2 
 PCOD9232652
Probable space group: P 2/C
;
_chemical_formula_sum "Si O2"
_cell_formula_units_Z 20
_cell_length_a 13.148834
_cell_length_b 14.507571
_cell_length_c 5.189316
_cell_angle_alpha 90.000000
_cell_angle_beta 102.913496
_cell_angle_gamma 90.000000
_cell_volume 964.865669
_symmetry_space_group_name_H-M "P 2/C"
_symmetry_group_IT_number 13
_symmetry_cell_setting 'monoclinic'
loop_
_space_group_symop_operation_xyz
x,y,z
-x,y,1/2-z
-x,-y,-z
x,-y,1/2+z
loop_
_atom_site_type_symbol
_atom_site_label
_atom_site_fract_x
_atom_site_fract_y
_atom_site_fract_z
Si Si1 0.125778 0.556319 0.821323
Si Si2 0.728973 0.059031 0.325089
Si Si3 0.369002 0.274671 0.856503
Si Si4 0.500000 0.142785 0.250000
Si Si5 0.760059 0.745235 0.705601
Si Si6 0.500000 0.562295 0.250000
O O1 0.161687 0.491750 0.605548
O O2 0.163186 0.661062 0.808594
O O3 0.000000 0.556265 0.750000
O O4 0.604640 0.085986 0.247889
O O5 0.792436 0.154301 0.327953
O O6 0.749776 0.010577 0.606335
O O7 0.296491 0.230906 0.597174
O O8 0.404511 0.368496 0.741959
O O9 0.464821 0.209679 0.997030
O O10 0.312912 0.290345 0.099679
O O11 0.500000 0.500000 0.500000
#
# Coordination Sequence:
#
# PCOD9232652 Si02
#       6
#     4   4   4   2   4   2
#     4  10  22  41  67  95 117 143 186 239 299 363
#     4  11  22  35  55  83 114 154 201 241 285 336
#     4  11  23  37  53  77 111 157 199 235 289 343
#     4  10  21  38  55  76 112 154 202 250 284 318
#     4  11  23  39  59  84 118 150 186 245 297 343
#     4  12  23  34  47  70 106 148 194 234 266 324
#
# _framework density 20.728273000000002
#
# number of rings (size 3 to 8) (size 9 to 14) (size 15 to 20)
#    0.000    1.200    0.000    8.400    0.000    8.000 
#    0.000    0.000    0.000    1.200    0.000    0.000 
#    0.000    0.000    0.000    0.000    0.000    0.000 
#
# Total GULP energy -111705.111882 kJ/mol
# GULP energy per Si atom -5585.255594 kJ/mol
# Density = 2.068109 g / cm^3
# Si number density = 20.728273 Si / 1000 Ang^3
#
#
#
# Elastic Constant Matrix: (Units=GPa)
#
#
# Indices 1 2 3 4 5 6 
#
# 1 19.9803 21.1944 21.8772 0.0000 -11.5212 0.0000
# 2 21.1944 134.9329 36.5030 0.0000 -19.2813 0.0000
# 3 21.8772 36.5030 145.9397 0.0000 -33.6713 0.0000
# 4 0.0000 0.0000 0.0000 42.1110 0.0000 -7.1954
# 5 -11.5212 -19.2813 -33.6713 0.0000 17.2103 0.0000
# 6 0.0000 0.0000 0.0000 -7.1954 0.0000 38.0056
#
#
#
# Elastic Compliance Matrix: (Units=1/GPa)
#
#
# Indices 1 2 3 4 5 6 
#
# 1 0.085781 -0.006266 0.000615 0.000000 0.051609 0.000000
# 2 -0.006266 0.009283 0.000090 0.000000 0.006381 0.000000
# 3 0.000615 0.000090 0.012497 0.000000 0.024961 0.000000
# 4 0.000000 0.000000 0.000000 0.024541 0.000000 0.004646
# 5 0.051609 0.006381 0.024961 0.000000 0.148639 0.000000
# 6 0.000000 0.000000 0.000000 0.004646 0.000000 0.027192
#
#
# Mechanical properties :
#
#
# Convention : Reuss Voigt Hill
#
# Bulk Modulus (GPa) = 10.36924 51.11134 30.74029
# Shear Modulus (GPa) = 14.23694 34.21727 24.22710
#
# Velocity S-wave (km/s) = 2.62360 4.06735 3.42247
# Velocity P-wave (km/s) = 3.76710 6.83880 5.52088
#
# Compressibility (1/GPa) = 0.09643909
#
# Stress axis : x y z
#
# Youngs Moduli (GPa) = 11.65758 107.72614 80.02172
#
# Poissons Ratio (x) = 0.67498 -0.04925
# Poissons Ratio (y) = 0.07304 -0.00717
# Poissons Ratio (z) = -0.00717 -0.00965
#
# Static dielectric constant tensor:
#      x y z
#    x 1.770640 0.000000 0.005050 
#    y 0.000000 1.789140 0.000000 
#    z 0.005050 0.000000 1.781260 
# 
# From -- ./inp_files/4788.got.cif
#   From: 2010.05.17/outbox.cif.g08.bks.cpg/sg13_3_cif.got.tgz:4788.got - 2010.06.03 16:44:36.
