data_PCOD9232830
_publ_section_title
;
Structure prediction by ZEFSAII (Michael W. Deem and Ramdas Pophale) SiO2 
 PCOD9232830
Probable space group: P 2/C
;
_chemical_formula_sum "Si O2"
_cell_formula_units_Z 26
_cell_length_a 8.676455
_cell_length_b 20.322498
_cell_length_c 9.243500
_cell_angle_alpha 90.000000
_cell_angle_beta 135.634190
_cell_angle_gamma 90.000000
_cell_volume 1139.672775
_symmetry_space_group_name_H-M "P 2/C"
_symmetry_group_IT_number 13
_symmetry_cell_setting 'monoclinic'
loop_
_space_group_symop_operation_xyz
x,y,z
-x,y,1/2-z
-x,-y,-z
x,-y,1/2+z
loop_
_atom_site_type_symbol
_atom_site_label
_atom_site_fract_x
_atom_site_fract_y
_atom_site_fract_z
Si Si1 0.572495 0.565674 0.628680
Si Si2 0.000000 0.789779 0.250000
Si Si3 0.000000 0.149120 0.250000
Si Si4 0.565080 0.708598 0.961535
Si Si5 0.722653 0.735928 0.485058
Si Si6 0.359497 0.975357 0.271437
Si Si7 0.000000 0.617242 0.750000
Si Si8 0.095453 0.905335 0.522676
O O1 0.500000 0.557854 0.750000
O O2 0.500000 0.500000 0.500000
O O3 0.441692 0.631998 0.496189
O O4 0.825598 0.579754 0.739350
O O5 0.107585 0.838554 0.440969
O O6 0.205727 0.743369 0.345178
O O7 0.141367 0.198367 0.444751
O O8 0.880039 0.105827 0.288424
O O9 0.500000 0.710368 0.750000
O O10 0.359069 0.740828 0.904420
O O11 0.500000 0.732931 0.250000
O O12 0.859031 0.668994 0.559225
O O13 0.500000 0.933798 0.250000
O O14 0.145564 0.934555 0.173159
O O15 0.500000 0.000000 0.500000
O O16 0.267021 0.036346 0.113178
#
# Coordination Sequence:
#
# PCOD9232830 Si02
#       8
#     4   2   2   4   4   4   2   4
#     4  10  23  43  68  99 133 178 230 277 337 410
#     4  12  24  40  66  96 130 168 214 280 340 396
#     4  11  22  37  58  89 124 151 198 266 320 385
#     4  10  23  41  61  92 132 169 214 269 336 407
#     4  10  21  38  63  91 123 168 210 253 324 400
#     4  11  24  43  63  84 121 168 214 267 324 392
#     4   9  22  43  64  93 138 171 212 280 326 385
#     4  11  25  40  60  93 122 160 218 267 327 400
#
# _framework density 22.813565000000001
#
# number of rings (size 3 to 8) (size 9 to 14) (size 15 to 20)
#    0.000    1.538    0.000    3.692    0.000   18.462 
#    0.000    0.000    0.000    0.000    0.000    0.000 
#    0.000    0.000    0.000    0.000    0.000    0.000 
#
# Total GULP energy -145119.894121 kJ/mol
# GULP energy per Si atom -5581.534389 kJ/mol
# Density = 2.276164 g / cm^3
# Si number density = 22.813565 Si / 1000 Ang^3
#
#
#
# Elastic Constant Matrix: (Units=GPa)
#
#
# Indices 1 2 3 4 5 6 
#
# 1 131.2191 43.5094 20.6590 0.0000 9.3231 0.0000
# 2 43.5094 100.8905 28.6700 0.0000 14.6265 0.0000
# 3 20.6590 28.6700 87.3882 0.0000 14.2884 0.0000
# 4 0.0000 0.0000 0.0000 18.6101 0.0000 -11.2552
# 5 9.3231 14.6265 14.2884 0.0000 44.2038 0.0000
# 6 0.0000 0.0000 0.0000 -11.2552 0.0000 19.2515
#
#
#
# Elastic Compliance Matrix: (Units=1/GPa)
#
#
# Indices 1 2 3 4 5 6 
#
# 1 0.008969 -0.003554 -0.000884 0.000000 -0.000430 0.000000
# 2 -0.003554 0.012629 -0.002895 0.000000 -0.002493 0.000000
# 3 -0.000884 -0.002895 0.013108 0.000000 -0.003092 0.000000
# 4 0.000000 0.000000 0.000000 0.083126 0.000000 0.048599
# 5 -0.000430 -0.002493 -0.003092 0.000000 0.024538 0.000000
# 6 0.000000 0.000000 0.000000 0.048599 0.000000 0.080357
#
#
# Mechanical properties :
#
#
# Convention : Reuss Voigt Hill
#
# Bulk Modulus (GPa) = 49.90451 56.13051 53.01751
# Shear Modulus (GPa) = 20.48571 31.52371 26.00471
#
# Velocity S-wave (km/s) = 2.99985 3.72129 3.37987
# Velocity P-wave (km/s) = 5.82419 6.56669 6.20655
#
# Compressibility (1/GPa) = 0.02003827
#
# Stress axis : x y z
#
# Youngs Moduli (GPa) = 111.49350 79.18397 76.29123
#
# Poissons Ratio (x) = 0.28146 0.06744
# Poissons Ratio (y) = 0.39630 0.22088
# Poissons Ratio (z) = 0.09855 0.22926
#
# Static dielectric constant tensor:
#      x y z
#    x 1.972110 0.000000 -0.032940 
#    y 0.000000 1.818150 0.000000 
#    z -0.032940 0.000000 1.863010 
# 
# From -- ./inp_files/13708.got.cif
#   From: 2010.05.17/outbox.cif.g08.bks.cpg/sg13_7_cif.got.tgz:13708.got - 2010.06.03 16:44:36.
