data_PCOD9232729
_publ_section_title
;
Structure prediction by ZEFSAII (Michael W. Deem and Ramdas Pophale) SiO2 
 PCOD9232729
Probable space group: P 2/C
;
_chemical_formula_sum "Si O2"
_cell_formula_units_Z 20
_cell_length_a 23.251437
_cell_length_b 5.009072
_cell_length_c 16.251011
_cell_angle_alpha 90.000000
_cell_angle_beta 148.833496
_cell_angle_gamma 90.000000
_cell_volume 979.535891
_symmetry_space_group_name_H-M "P 2/C"
_symmetry_group_IT_number 13
_symmetry_cell_setting 'monoclinic'
loop_
_space_group_symop_operation_xyz
x,y,z
-x,y,1/2-z
-x,-y,-z
x,-y,1/2+z
loop_
_atom_site_type_symbol
_atom_site_label
_atom_site_fract_x
_atom_site_fract_y
_atom_site_fract_z
Si Si1 0.751730 0.943214 0.510365
Si Si2 0.627176 0.435253 0.417528
Si Si3 0.819316 0.858720 0.914135
Si Si4 0.234766 0.379105 0.755687
Si Si5 0.944725 0.827489 0.360523
O O1 0.652277 0.144383 0.411685
O O2 0.791224 0.021234 0.467988
O O3 0.851517 0.014126 0.695169
O O4 0.708063 0.645655 0.471108
O O5 0.500000 0.511100 0.250000
O O6 0.664081 0.418431 0.558034
O O7 0.759893 0.590612 0.810876
O O8 0.781747 0.086621 0.803052
O O9 0.949828 0.777813 0.068638
O O10 0.123919 0.408588 0.678077
O O11 0.000000 0.000000 0.500000
#
# Coordination Sequence:
#
# PCOD9232729 Si02
#       5
#     4   4   4   4   4
#     4  11  23  38  60  90 116 147 195 242 287 339
#     4  11  23  43  62  80 110 156 201 242 285 340
#     4  11  21  37  58  91 124 148 182 240 290 339
#     4  10  21  38  60  85 117 158 195 226 280 354
#     4   9  19  36  60  86 119 157 185 220 280 352
#
# _framework density 20.417831
#
# number of rings (size 3 to 8) (size 9 to 14) (size 15 to 20)
#    0.000    1.600    0.000    6.600    0.000    4.800 
#    0.000   14.000    0.000    0.000    0.000    0.000 
#    0.000    0.000    0.000    0.000    0.000    0.000 
#
# Total GULP energy -111638.094107 kJ/mol
# GULP energy per Si atom -5581.904705 kJ/mol
# Density = 2.037136 g / cm^3
# Si number density = 20.417831 Si / 1000 Ang^3
#
#
#
# Elastic Constant Matrix: (Units=GPa)
#
#
# Indices 1 2 3 4 5 6 
#
# 1 63.2238 -11.4999 40.5496 0.0000 -22.1174 0.0000
# 2 -11.4999 64.5973 1.0496 0.0000 -11.5079 0.0000
# 3 40.5496 1.0496 117.5216 0.0000 -9.6026 0.0000
# 4 0.0000 0.0000 0.0000 21.6958 0.0000 -2.7012
# 5 -22.1174 -11.5079 -9.6026 0.0000 20.6122 0.0000
# 6 0.0000 0.0000 0.0000 -2.7012 0.0000 30.3207
#
#
#
# Elastic Compliance Matrix: (Units=1/GPa)
#
#
# Indices 1 2 3 4 5 6 
#
# 1 0.044404 0.017373 -0.011218 0.000000 0.052120 0.000000
# 2 0.017373 0.024036 -0.003731 0.000000 0.030322 0.000000
# 3 -0.011218 -0.003731 0.011705 0.000000 -0.008667 0.000000
# 4 0.000000 0.000000 0.000000 0.046609 0.000000 0.004152
# 5 0.052120 0.030322 -0.008667 0.000000 0.117333 0.000000
# 6 0.000000 0.000000 0.000000 0.004152 0.000000 0.033351
#
#
# Mechanical properties :
#
#
# Convention : Reuss Voigt Hill
#
# Bulk Modulus (GPa) = 11.76581 33.94903 22.85742
# Shear Modulus (GPa) = 16.61568 28.87531 22.74549
#
# Velocity S-wave (km/s) = 2.85578 3.76469 3.34129
# Velocity P-wave (km/s) = 4.08032 5.96326 5.10928
#
# Compressibility (1/GPa) = 0.08499205
#
# Stress axis : x y z
#
# Youngs Moduli (GPa) = 22.52026 41.60473 85.43534
#
# Poissons Ratio (x) = -0.72278 0.95839
# Poissons Ratio (y) = -0.39123 0.31878
# Poissons Ratio (z) = 0.25263 0.15524
#
# Static dielectric constant tensor:
#      x y z
#    x 1.770280 0.000000 0.017800 
#    y 0.000000 1.734510 0.000000 
#    z 0.017800 0.000000 1.709970 
# 
# From -- ./inp_files/48821.got.cif
#   From: 2010.05.17/outbox.cif.g08.bks.cpg/sg13_25_cif.got.tgz:48821.got - 2010.06.03 16:44:36.
