data_PCOD9232432
_publ_section_title
;
Structure prediction by ZEFSAII (Michael W. Deem and Ramdas Pophale) SiO2 
 PCOD9232432
Probable space group: P 2/C
;
_chemical_formula_sum "Si O2"
_cell_formula_units_Z 28
_cell_length_a 22.720501
_cell_length_b 8.637349
_cell_length_c 8.152197
_cell_angle_alpha 90.000000
_cell_angle_beta 48.543186
_cell_angle_gamma 90.000000
_cell_volume 1198.998307
_symmetry_space_group_name_H-M "P 2/C"
_symmetry_group_IT_number 13
_symmetry_cell_setting 'monoclinic'
loop_
_space_group_symop_operation_xyz
x,y,z
-x,y,1/2-z
-x,-y,-z
x,-y,1/2+z
loop_
_atom_site_type_symbol
_atom_site_label
_atom_site_fract_x
_atom_site_fract_y
_atom_site_fract_z
Si Si1 0.600520 0.110439 0.455001
Si Si2 0.315969 0.397459 0.706152
Si Si3 0.974260 0.834913 0.482492
Si Si4 0.446344 0.788988 0.095607
Si Si5 0.836637 0.315826 0.359524
Si Si6 0.112006 0.650636 0.361429
Si Si7 0.267822 0.281074 0.433911
O O1 0.589644 0.166970 0.660225
O O2 0.539170 0.210182 0.457575
O O3 0.574415 0.933119 0.483843
O O4 0.686059 0.136735 0.223529
O O5 0.403907 0.360942 0.601414
O O6 0.299982 0.334114 0.553580
O O7 0.256295 0.311003 0.942108
O O8 0.289073 0.575012 0.775062
O O9 0.024357 0.702709 0.483655
O O10 0.000000 0.818235 0.250000
O O11 0.881660 0.816007 0.679571
O O12 0.000000 0.000000 0.500000
O O13 0.864602 0.474096 0.220771
O O14 0.869707 0.317579 0.483535
O O15 0.175237 0.741089 0.131203
#
# Coordination Sequence:
#
# PCOD9232432 Si02
#       7
#     4   4   4   4   4   4   4
#     4  10  21  37  57  81 111 148 188 230 278 332
#     4  10  21  37  59  85 113 146 185 230 277 327
#     4  12  25  40  59  84 114 148 186 230 277 326
#     4  10  21  37  57  81 111 148 188 230 278 332
#     4  10  21  39  61  85 113 147 186 227 275 330
#     4  10  21  39  61  85 113 147 186 227 275 330
#     4  10  21  37  59  85 113 146 185 230 277 327
#
# _framework density 23.352827000000001
#
# number of rings (size 3 to 8) (size 9 to 14) (size 15 to 20)
#    0.000    1.714    0.000    4.286    0.000    6.857 
#    0.000    0.000    0.000    0.000    0.000    0.000 
#    0.000    0.000    0.000    0.000    0.000    0.000 
#
# Total GULP energy -156647.779437 kJ/mol
# GULP energy per Si atom -5594.563551 kJ/mol
# Density = 2.329968 g / cm^3
# Si number density = 23.352827 Si / 1000 Ang^3
#
#
#
# Elastic Constant Matrix: (Units=GPa)
#
#
# Indices 1 2 3 4 5 6 
#
# 1 53.6457 -9.0902 -0.0618 0.0000 5.3576 0.0000
# 2 -9.0902 22.2312 5.3037 0.0000 -3.8136 0.0000
# 3 -0.0618 5.3037 88.8375 0.0000 -2.7826 0.0000
# 4 0.0000 0.0000 0.0000 26.1116 0.0000 -5.5666
# 5 5.3576 -3.8136 -2.7826 0.0000 37.5529 0.0000
# 6 0.0000 0.0000 0.0000 -5.5666 0.0000 27.3560
#
#
#
# Elastic Compliance Matrix: (Units=1/GPa)
#
#
# Indices 1 2 3 4 5 6 
#
# 1 0.020211 0.008030 -0.000531 0.000000 -0.002107 0.000000
# 2 0.008030 0.049573 -0.002839 0.000000 0.003678 0.000000
# 3 -0.000531 -0.002839 0.011446 0.000000 0.000636 0.000000
# 4 0.000000 0.000000 0.000000 0.040034 0.000000 0.008146
# 5 -0.002107 0.003678 0.000636 0.000000 0.027350 0.000000
# 6 0.000000 0.000000 0.000000 0.008146 0.000000 0.038213
#
#
# Mechanical properties :
#
#
# Convention : Reuss Voigt Hill
#
# Bulk Modulus (GPa) = 11.04376 17.44641 14.24508
# Shear Modulus (GPa) = 24.07420 29.44161 26.75791
#
# Velocity S-wave (km/s) = 3.21423 3.55453 3.38865
# Velocity P-wave (km/s) = 4.30284 4.93287 4.62859
#
# Compressibility (1/GPa) = 0.09054889
#
# Stress axis : x y z
#
# Youngs Moduli (GPa) = 49.47728 20.17218 87.37035
#
# Poissons Ratio (x) = -0.16197 0.04642
# Poissons Ratio (y) = -0.39728 0.24802
# Poissons Ratio (z) = 0.02629 0.05726
#
# Static dielectric constant tensor:
#      x y z
#    x 1.867410 0.000000 -0.003420 
#    y 0.000000 1.860210 0.000000 
#    z -0.003420 0.000000 1.853100 
# 
# From -- ./inp_files/24542.got.cif
#   From: 2010.05.17/outbox.cif.g08.bks.cpg/sg13_13_cif.got.tgz:24542.got - 2010.06.03 16:44:36.
