data_PCOD9232417
_publ_section_title
;
Structure prediction by ZEFSAII (Michael W. Deem and Ramdas Pophale) SiO2 
 PCOD9232417
Probable space group: P 2/C
;
_chemical_formula_sum "Si O2"
_cell_formula_units_Z 28
_cell_length_a 26.734352
_cell_length_b 11.606805
_cell_length_c 13.916587
_cell_angle_alpha 90.000000
_cell_angle_beta 159.846981
_cell_angle_gamma 90.000000
_cell_volume 1487.785418
_symmetry_space_group_name_H-M "P 2/C"
_symmetry_group_IT_number 13
_symmetry_cell_setting 'monoclinic'
loop_
_space_group_symop_operation_xyz
x,y,z
-x,y,1/2-z
-x,-y,-z
x,-y,1/2+z
loop_
_atom_site_type_symbol
_atom_site_label
_atom_site_fract_x
_atom_site_fract_y
_atom_site_fract_z
Si Si1 0.000000 0.955466 0.250000
Si Si2 0.977270 0.127115 0.500878
Si Si3 0.660197 0.801832 0.363588
Si Si4 0.211674 0.428730 0.453759
Si Si5 0.109925 0.645262 0.184081
Si Si6 0.700588 0.088401 0.737010
Si Si7 0.164072 0.320217 0.568523
Si Si8 0.500000 0.078783 0.750000
O O1 0.038598 0.881240 0.413180
O O2 0.139724 0.029847 0.468948
O O3 0.100707 0.219927 0.695235
O O4 0.827717 0.168088 0.185294
O O5 0.000000 0.000000 0.500000
O O6 0.665314 0.663085 0.356715
O O7 0.629076 0.876649 0.210739
O O8 0.572252 0.843574 0.297262
O O9 0.210811 0.564505 0.431177
O O10 0.196516 0.405481 0.539738
O O11 0.060443 0.392234 0.127349
O O12 0.163708 0.627625 0.172759
O O13 0.729929 0.212164 0.742579
O O14 0.609111 0.004635 0.504582
O O15 0.000000 0.277674 0.250000
#
# Coordination Sequence:
#
# PCOD9232417 Si02
#       8
#     2   4   4   4   4   4   4   2
#     4  12  20  34  56  86 118 150 182 242 316 344
#     4  11  20  33  56  88 121 147 186 243 302 352
#     4  10  21  37  56  77 116 157 198 236 292 360
#     4   8  17  33  50  78 109 148 191 230 282 349
#     4   9  17  31  51  83 114 144 183 239 291 343
#     4  11  21  35  57  83 117 153 195 237 301 366
#     4   9  16  30  56  80 107 151 185 232 293 351
#     4  12  24  36  54  86 116 158 198 250 294 352
#
# _framework density 18.819918000000001
#
# number of rings (size 3 to 8) (size 9 to 14) (size 15 to 20)
#    0.000    2.000    3.571    2.143    0.000    0.000 
#    9.000    0.000    0.000    0.857    0.000    5.000 
#    0.000    0.000    0.000    0.000    0.000    0.000 
#
# Total GULP energy -155895.178778 kJ/mol
# GULP energy per Si atom -5567.684956 kJ/mol
# Density = 1.877708 g / cm^3
# Si number density = 18.819918 Si / 1000 Ang^3
#
#
#
# Elastic Constant Matrix: (Units=GPa)
#
#
# Indices 1 2 3 4 5 6 
#
# 1 115.1199 53.5425 20.9311 0.0000 5.3002 0.0000
# 2 53.5425 115.3320 23.1172 0.0000 3.1544 0.0000
# 3 20.9311 23.1172 26.7397 0.0000 3.7946 0.0000
# 4 0.0000 0.0000 0.0000 13.5110 0.0000 -1.7058
# 5 5.3002 3.1544 3.7946 0.0000 19.3274 0.0000
# 6 0.0000 0.0000 0.0000 -1.7058 0.0000 -1.1647
#
#
#
# Elastic Compliance Matrix: (Units=1/GPa)
#
#
# Indices 1 2 3 4 5 6 
#
# 1 0.011729 -0.004363 -0.005199 0.000000 -0.001484 0.000000
# 2 -0.004363 0.012111 -0.007144 0.000000 0.000622 0.000000
# 3 -0.005199 -0.007144 0.048630 0.000000 -0.006956 0.000000
# 4 0.000000 0.000000 0.000000 0.062464 0.000000 -0.091485
# 5 -0.001484 0.000622 -0.006956 0.000000 0.053411 0.000000
# 6 0.000000 0.000000 0.000000 -0.091485 0.000000 -0.724627
#
#
# Mechanical properties :
#
#
# Convention : Reuss Voigt Hill
#
# Bulk Modulus (GPa) = 25.60187 50.26369 37.93278
# Shear Modulus (GPa) = -10.20718 16.97479 3.38380
#
# Velocity S-wave (km/s) = -2.33139 3.00652 1.34235
# Velocity P-wave (km/s) = 2.52705 6.23040 4.75415
#
# Compressibility (1/GPa) = 0.03905965
#
# Stress axis : x y z
#
# Youngs Moduli (GPa) = 85.25679 82.57124 20.56336
#
# Poissons Ratio (x) = 0.36022 0.10691
# Poissons Ratio (y) = 0.37194 0.14689
# Poissons Ratio (z) = 0.44327 0.58985
#
# Static dielectric constant tensor:
#      x y z
#    x 1.014250 0.000000 0.364540 
#    y 0.000000 1.713870 0.000000 
#    z 0.364540 0.000000 1.457110 
# 
# From -- ./inp_files/59606.got.cif
#   From: 2010.05.17/outbox.cif.g08.bks.cpg/sg13_30_cif.got.tgz:59606.got - 2010.06.03 16:44:36.
