data_PCOD9232448
_publ_section_title
;
Structure prediction by ZEFSAII (Michael W. Deem and Ramdas Pophale) SiO2 
 PCOD9232448
Probable space group: P 2/C
;
_chemical_formula_sum "Si O2"
_cell_formula_units_Z 30
_cell_length_a 30.295361
_cell_length_b 11.653944
_cell_length_c 24.311560
_cell_angle_alpha 90.000000
_cell_angle_beta 10.004477
_cell_angle_gamma 90.000000
_cell_volume 1491.160968
_symmetry_space_group_name_H-M "P 2/C"
_symmetry_group_IT_number 13
_symmetry_cell_setting 'monoclinic'
loop_
_space_group_symop_operation_xyz
x,y,z
-x,y,1/2-z
-x,-y,-z
x,-y,1/2+z
loop_
_atom_site_type_symbol
_atom_site_label
_atom_site_fract_x
_atom_site_fract_y
_atom_site_fract_z
Si Si1 0.414726 0.087643 0.151952
Si Si2 0.345095 0.263368 0.712112
Si Si3 0.500000 0.639216 0.250000
Si Si4 0.861937 0.145377 0.794422
Si Si5 0.984733 0.421275 0.093561
Si Si6 0.127280 0.818087 0.650696
Si Si7 0.118767 0.677557 0.894861
Si Si8 0.450562 0.953608 0.734786
O O1 0.473165 0.054280 0.142136
O O2 0.118814 0.104707 0.506667
O O3 0.539356 0.209234 0.984535
O O4 0.500000 0.000000 0.000000
O O5 0.587706 0.282419 0.454486
O O6 0.184676 0.374946 0.893098
O O7 0.123687 0.177118 0.003730
O O8 0.297555 0.569205 0.534379
O O9 0.323903 0.723077 0.429942
O O10 0.941498 0.245338 0.653273
O O11 0.678975 0.154004 0.073211
O O12 0.726708 0.047227 0.923627
O O13 0.956878 0.329961 0.076970
O O14 0.085226 0.544848 0.952493
O O15 0.000000 0.782089 0.750000
O O16 0.281325 0.935426 0.455024
#
# Coordination Sequence:
#
# PCOD9232448 Si02
#       8
#     4   4   2   4   4   4   4   4
#     4  11  22  36  56  84 115 152 193 234 286 349
#     4  10  21  37  58  84 113 147 191 237 284 341
#     4  10  22  36  56  86 114 144 186 234 288 344
#     4  10  22  37  55  81 112 150 192 236 287 345
#     4  10  21  38  60  85 113 147 189 241 294 346
#     4  11  21  36  57  81 113 150 187 231 281 336
#     4  10  21  39  61  83 111 149 192 239 292 346
#     4  11  22  37  56  81 117 154 190 236 288 345
#
# _framework density 20.118551
#
# number of rings (size 3 to 8) (size 9 to 14) (size 15 to 20)
#    0.000    1.600    0.000    5.600    0.000    3.733 
#    0.000    0.000    0.000   12.800    0.000    0.000 
#    0.000    0.000    0.000    0.000    0.000    0.000 
#
# Total GULP energy -167161.607430 kJ/mol
# GULP energy per Si atom -5572.053581 kJ/mol
# Density = 2.007276 g / cm^3
# Si number density = 20.118551 Si / 1000 Ang^3
#
#
#
# Elastic Constant Matrix: (Units=GPa)
#
#
# Indices 1 2 3 4 5 6 
#
# 1 95.8624 -5.4139 7.4702 0.0000 -13.9320 0.0000
# 2 -5.4139 21.4049 0.6992 0.0000 -7.5780 0.0000
# 3 7.4702 0.6992 77.4729 0.0000 -15.7638 0.0000
# 4 0.0000 0.0000 0.0000 13.5448 0.0000 12.9983
# 5 -13.9320 -7.5780 -15.7638 0.0000 34.0823 0.0000
# 6 0.0000 0.0000 0.0000 12.9983 0.0000 16.9608
#
#
#
# Elastic Compliance Matrix: (Units=1/GPa)
#
#
# Indices 1 2 3 4 5 6 
#
# 1 0.011562 0.004995 0.000031 0.000000 0.005851 0.000000
# 2 0.004995 0.053158 0.002052 0.000000 0.014810 0.000000
# 3 0.000031 0.002052 0.014330 0.000000 0.007097 0.000000
# 4 0.000000 0.000000 0.000000 0.279072 0.000000 -0.213873
# 5 0.005851 0.014810 0.007097 0.000000 0.038308 0.000000
# 6 0.000000 0.000000 0.000000 -0.213873 0.000000 0.222866
#
#
# Mechanical properties :
#
#
# Convention : Reuss Voigt Hill
#
# Bulk Modulus (GPa) = 10.72911 22.25013 16.48962
# Shear Modulus (GPa) = 7.85905 25.71657 16.78781
#
# Velocity S-wave (km/s) = 1.97860 3.57914 2.89181
# Velocity P-wave (km/s) = 3.25028 5.30696 4.40047
#
# Compressibility (1/GPa) = 0.09320434
#
# Stress axis : x y z
#
# Youngs Moduli (GPa) = 86.49308 18.81195 69.78221
#
# Poissons Ratio (x) = -0.09396 -0.00214
# Poissons Ratio (y) = -0.43200 -0.14320
# Poissons Ratio (z) = -0.00265 -0.03860
#
# Static dielectric constant tensor:
#      x y z
#    x 1.767020 0.000000 0.088800 
#    y 0.000000 1.729780 0.000000 
#    z 0.088800 0.000000 1.853530 
# 
# From -- ./inp_files/89715.got.cif
#   From: 2010.05.17/outbox.cif.g08.bks.cpg/sg13_45_cif.got.tgz:89715.got - 2010.06.03 16:44:36.
