data_PCOD9232060
_publ_section_title
;
Structure prediction by ZEFSAII (Michael W. Deem and Ramdas Pophale) SiO2 
 PCOD9232060
Probable space group: P 2/C
;
_chemical_formula_sum "Si O2"
_cell_formula_units_Z 24
_cell_length_a 11.831045
_cell_length_b 11.770766
_cell_length_c 8.770332
_cell_angle_alpha 90.000000
_cell_angle_beta 90.840795
_cell_angle_gamma 90.000000
_cell_volume 1221.228984
_symmetry_space_group_name_H-M "P 2/C"
_symmetry_group_IT_number 13
_symmetry_cell_setting 'monoclinic'
loop_
_space_group_symop_operation_xyz
x,y,z
-x,y,1/2-z
-x,-y,-z
x,-y,1/2+z
loop_
_atom_site_type_symbol
_atom_site_label
_atom_site_fract_x
_atom_site_fract_y
_atom_site_fract_z
Si Si1 0.919942 0.061066 0.622239
Si Si2 0.362555 0.660050 0.280179
Si Si3 0.385644 0.257715 0.338365
Si Si4 0.608324 0.115808 0.856330
Si Si5 0.772067 0.907095 0.847248
Si Si6 0.635977 0.486362 0.996526
O O1 0.836244 0.125062 0.504407
O O2 0.000000 0.121702 0.750000
O O3 0.852328 0.967406 0.721597
O O4 0.000000 0.000000 0.500000
O O5 0.500000 0.667401 0.250000
O O6 0.324206 0.785422 0.234550
O O7 0.328634 0.609386 0.441769
O O8 0.325762 0.560349 0.164643
O O9 0.500000 0.279782 0.250000
O O10 0.417715 0.177570 0.484001
O O11 0.295143 0.193120 0.234650
O O12 0.339732 0.377294 0.397775
O O13 0.500000 0.086111 0.750000
O O14 0.681950 0.005480 0.886971
O O15 0.500000 0.500000 0.000000
#
# Coordination Sequence:
#
# PCOD9232060 Si02
#       6
#     4   4   4   4   4   4
#     4   9  20  38  58  72  95 132 168 228 276 314
#     4   8  15  28  43  61  90 136 179 206 231 271
#     4  11  22  31  47  75 111 149 174 206 245 294
#     4  10  21  32  45  70 111 149 169 199 248 301
#     4  11  20  35  52  78 106 130 174 207 259 330
#     4   9  16  30  46  63  94 144 185 208 230 273
#
# _framework density 19.652335000000001
#
# number of rings (size 3 to 8) (size 9 to 14) (size 15 to 20)
#    0.000    2.333    1.667    3.000    2.333    1.333 
#    0.000    0.000    0.000    0.000    0.000    0.000 
#    0.000   26.667    0.000    0.000    0.000    0.000 
#
# Total GULP energy -133736.510382 kJ/mol
# GULP energy per Si atom -5572.354599 kJ/mol
# Density = 1.960761 g / cm^3
# Si number density = 19.652335 Si / 1000 Ang^3
#
#
#
# Elastic Constant Matrix: (Units=GPa)
#
#
# Indices 1 2 3 4 5 6 
#
# 1 31.5829 -3.3254 29.5123 0.0000 17.3013 0.0000
# 2 -3.3254 49.4875 8.9851 0.0000 17.6140 0.0000
# 3 29.5123 8.9851 97.0555 0.0000 28.4238 0.0000
# 4 0.0000 0.0000 0.0000 39.5807 0.0000 5.5892
# 5 17.3013 17.6140 28.4238 0.0000 44.4077 0.0000
# 6 0.0000 0.0000 0.0000 5.5892 0.0000 -2.2642
#
#
#
# Elastic Compliance Matrix: (Units=1/GPa)
#
#
# Indices 1 2 3 4 5 6 
#
# 1 0.054539 0.012406 -0.012391 0.000000 -0.018238 0.000000
# 2 0.012406 0.026388 -0.002135 0.000000 -0.013934 0.000000
# 3 -0.012391 -0.002135 0.015515 0.000000 -0.004257 0.000000
# 4 0.000000 0.000000 0.000000 0.018734 0.000000 0.046247
# 5 -0.018238 -0.013934 -0.004257 0.000000 0.037875 0.000000
# 6 0.000000 0.000000 0.000000 0.046247 0.000000 -0.327502
#
#
# Mechanical properties :
#
#
# Convention : Reuss Voigt Hill
#
# Bulk Modulus (GPa) = 10.84576 27.60775 19.22676
# Shear Modulus (GPa) = -35.84826 25.87511 -4.98658
#
# Velocity S-wave (km/s) = -4.27561 3.63249 -1.59465
# Velocity P-wave (km/s) = 4.34093 5.62778 2.53262
#
# Compressibility (1/GPa) = 0.09220193
#
# Stress axis : x y z
#
# Youngs Moduli (GPa) = 18.33564 37.89645 64.45179
#
# Poissons Ratio (x) = -0.47014 0.79864
# Poissons Ratio (y) = -0.22747 0.13758
# Poissons Ratio (z) = 0.22720 0.08090
#
# Static dielectric constant tensor:
#      x y z
#    x 1.723900 0.000000 0.036480 
#    y 0.000000 1.693330 0.000000 
#    z 0.036480 0.000000 1.748120 
# 
# From -- ./inp_files/15877.got.cif
#   From: 2010.05.17/outbox.cif.g08.bks.cpg/sg13_8_cif.got.tgz:15877.got - 2010.06.03 16:44:36.
