data_PCOD9232599
_publ_section_title
;
Structure prediction by ZEFSAII (Michael W. Deem and Ramdas Pophale) SiO2 
 PCOD9232599
Probable space group: P 2/C
;
_chemical_formula_sum "Si O2"
_cell_formula_units_Z 32
_cell_length_a 14.127793
_cell_length_b 8.478627
_cell_length_c 23.373282
_cell_angle_alpha 90.000000
_cell_angle_beta 31.712121
_cell_angle_gamma 90.000000
_cell_volume 1471.694161
_symmetry_space_group_name_H-M "P 2/C"
_symmetry_group_IT_number 13
_symmetry_cell_setting 'monoclinic'
loop_
_space_group_symop_operation_xyz
x,y,z
-x,y,1/2-z
-x,-y,-z
x,-y,1/2+z
loop_
_atom_site_type_symbol
_atom_site_label
_atom_site_fract_x
_atom_site_fract_y
_atom_site_fract_z
Si Si1 0.690906 0.128394 0.285315
Si Si2 0.961701 0.412060 0.605648
Si Si3 0.986676 0.961767 0.440005
Si Si4 0.477752 0.867688 0.060458
Si Si5 0.159287 0.627505 0.203641
Si Si6 0.204102 0.281365 0.149321
Si Si7 0.292532 0.545358 0.861345
Si Si8 0.607245 0.120159 0.145918
O O1 0.881141 0.083375 0.159581
O O2 0.601291 0.959077 0.345506
O O3 0.720516 0.226928 0.327594
O O4 0.533375 0.195516 0.326327
O O5 0.959840 0.221629 0.597466
O O6 0.913521 0.428105 0.697012
O O7 0.813518 0.491740 0.640705
O O8 0.152953 0.487240 0.486071
O O9 0.775500 0.968989 0.532033
O O10 0.000000 0.000000 0.500000
O O11 0.330420 0.738486 0.119881
O O12 0.671036 0.788494 0.964037
O O13 0.500000 0.000000 0.000000
O O14 0.207253 0.469149 0.145248
O O15 0.000000 0.710743 0.250000
O O16 0.000000 0.224839 0.250000
O O17 0.500000 0.486351 0.750000
O O18 0.309494 0.733981 0.861188
O O19 0.500000 0.023828 0.250000
#
# Coordination Sequence:
#
# PCOD9232599 Si02
#       8
#     4   4   4   4   4   4   4   4
#     4  11  23  41  68  98 132 180 225 281 343 411
#     4  10  22  42  66  99 135 178 229 275 343 403
#     4  11  22  40  63  94 138 173 218 283 330 414
#     4  10  23  44  66  96 130 176 227 283 340 404
#     4  11  24  45  70 101 138 180 234 285 343 414
#     4  10  25  44  66  96 133 176 229 285 340 405
#     4   9  21  41  66  96 132 175 224 275 335 405
#     4  10  21  37  63  96 127 173 223 261 341 401
#
# _framework density 21.743648
#
# number of rings (size 3 to 8) (size 9 to 14) (size 15 to 20)
#    0.000    1.750    2.500    0.375    5.250    7.000 
#    6.750    0.000    0.000    0.000    0.000    0.000 
#    0.000    0.000    0.000    0.000    0.000    0.000 
#
# Total GULP energy -178464.078602 kJ/mol
# GULP energy per Si atom -5577.002456 kJ/mol
# Density = 2.169416 g / cm^3
# Si number density = 21.743648 Si / 1000 Ang^3
#
#
#
# Elastic Constant Matrix: (Units=GPa)
#
#
# Indices 1 2 3 4 5 6 
#
# 1 66.3410 0.2545 25.6093 0.0000 -18.6737 0.0000
# 2 0.2545 36.4637 11.7170 0.0000 -10.6082 0.0000
# 3 25.6093 11.7170 134.8189 0.0000 -24.3433 0.0000
# 4 0.0000 0.0000 0.0000 8.7122 0.0000 -58.8257
# 5 -18.6737 -10.6082 -24.3433 0.0000 37.6375 0.0000
# 6 0.0000 0.0000 0.0000 -58.8257 0.0000 -194.2612
#
#
#
# Elastic Compliance Matrix: (Units=1/GPa)
#
#
# Indices 1 2 3 4 5 6 
#
# 1 0.018312 0.003060 -0.002206 0.000000 0.008521 0.000000
# 2 0.003060 0.030563 -0.001594 0.000000 0.009101 0.000000
# 3 -0.002206 -0.001594 0.008714 0.000000 0.004092 0.000000
# 4 0.000000 0.000000 0.000000 0.037699 0.000000 -0.011416
# 5 0.008521 0.009101 0.004092 0.000000 0.036009 0.000000
# 6 0.000000 0.000000 0.000000 -0.011416 0.000000 -0.001691
#
#
# Mechanical properties :
#
#
# Convention : Reuss Voigt Hill
#
# Bulk Modulus (GPa) = 17.82239 34.75392 26.28816
# Shear Modulus (GPa) = 33.38022 -16.24610 8.56706
#
# Velocity S-wave (km/s) = 3.92238 -2.73640 1.98710
# Velocity P-wave (km/s) = 5.35983 2.45649 4.16906
#
# Compressibility (1/GPa) = 0.05610918
#
# Stress axis : x y z
#
# Youngs Moduli (GPa) = 54.60932 32.71907 114.76048
#
# Poissons Ratio (x) = -0.10012 0.25313
# Poissons Ratio (y) = -0.16710 0.18294
# Poissons Ratio (z) = 0.12045 0.05216
#
# Static dielectric constant tensor:
#      x y z
#    x 1.825410 0.000000 0.000020 
#    y 0.000000 1.797740 0.000000 
#    z 0.000020 0.000000 1.758170 
# 
# From -- ./inp_files/87405.got.cif
#   From: 2010.05.17/outbox.cif.g08.bks.cpg/sg13_44_cif.got.tgz:87405.got - 2010.06.03 16:44:36.
