data_PCOD9232461
_publ_section_title
;
Structure prediction by ZEFSAII (Michael W. Deem and Ramdas Pophale) SiO2 
 PCOD9232461
Probable space group: P 2/C
;
_chemical_formula_sum "Si O2"
_cell_formula_units_Z 30
_cell_length_a 13.896422
_cell_length_b 12.967439
_cell_length_c 25.853402
_cell_angle_alpha 90.000000
_cell_angle_beta 20.813150
_cell_angle_gamma 90.000000
_cell_volume 1655.375033
_symmetry_space_group_name_H-M "P 2/C"
_symmetry_group_IT_number 13
_symmetry_cell_setting 'monoclinic'
loop_
_space_group_symop_operation_xyz
x,y,z
-x,y,1/2-z
-x,-y,-z
x,-y,1/2+z
loop_
_atom_site_type_symbol
_atom_site_label
_atom_site_fract_x
_atom_site_fract_y
_atom_site_fract_z
Si Si1 0.786562 0.297116 0.235127
Si Si2 0.312867 0.600465 0.603915
Si Si3 0.762072 0.086212 0.186372
Si Si4 0.603827 0.345283 0.546430
Si Si5 0.367615 0.546484 0.909864
Si Si6 0.116803 0.692571 0.359591
Si Si7 0.500000 0.401375 0.750000
Si Si8 0.858420 0.099622 0.018346
O O1 0.682515 0.335779 0.344423
O O2 0.773474 0.179234 0.221922
O O3 0.602942 0.367644 0.289717
O O4 0.104909 0.321673 0.075425
O O5 0.500000 0.500000 0.500000
O O6 0.388567 0.674694 0.518054
O O7 0.000000 0.569081 0.750000
O O8 0.873975 0.116169 0.072801
O O9 0.445032 0.062473 0.339664
O O10 0.934065 0.983323 0.109255
O O11 0.566526 0.467129 0.577225
O O12 0.358009 0.290014 0.698131
O O13 0.371786 0.475688 0.857243
O O14 0.075939 0.599094 0.061239
O O15 0.271473 0.664361 0.335222
O O16 0.925816 0.790288 0.460704
#
# Coordination Sequence:
#
# PCOD9232461 Si02
#       8
#     4   4   4   4   4   4   2   4
#     4  11  22  37  61  84 120 158 199 250 302 350
#     4  10  21  37  58  86 120 161 201 243 289 348
#     4  10  23  41  62  88 114 152 201 253 307 348
#     4  10  22  36  55  87 122 159 194 239 289 362
#     4  11  21  36  54  83 122 162 202 233 291 355
#     4  11  23  36  56  86 115 159 200 239 297 357
#     4  10  24  32  52  82 128 162 194 234 288 362
#     4  10  23  40  63  86 116 151 199 254 298 361
#
# _framework density 18.122781
#
# number of rings (size 3 to 8) (size 9 to 14) (size 15 to 20)
#    0.000    1.600    2.667    2.000    9.333    1.067 
#    0.000    0.000    0.000    0.800    0.000    0.000 
#    0.000    0.000    0.000    0.000    0.000    0.000 
#
# Total GULP energy -167195.878041 kJ/mol
# GULP energy per Si atom -5573.195935 kJ/mol
# Density = 1.808153 g / cm^3
# Si number density = 18.122781 Si / 1000 Ang^3
#
#
#
# Elastic Constant Matrix: (Units=GPa)
#
#
# Indices 1 2 3 4 5 6 
#
# 1 51.4860 24.8332 27.3049 0.0000 12.5393 0.0000
# 2 24.8332 64.0683 25.0705 0.0000 6.9631 0.0000
# 3 27.3049 25.0705 88.1802 0.0000 5.1618 0.0000
# 4 0.0000 0.0000 0.0000 31.5872 0.0000 -2.6406
# 5 12.5393 6.9631 5.1618 0.0000 24.0984 0.0000
# 6 0.0000 0.0000 0.0000 -2.6406 0.0000 17.5981
#
#
#
# Elastic Compliance Matrix: (Units=1/GPa)
#
#
# Indices 1 2 3 4 5 6 
#
# 1 0.029239 -0.007638 -0.006198 0.000000 -0.011679 0.000000
# 2 -0.007638 0.019958 -0.003245 0.000000 -0.001097 0.000000
# 3 -0.006198 -0.003245 0.014116 0.000000 0.001139 0.000000
# 4 0.000000 0.000000 0.000000 0.032061 0.000000 0.004811
# 5 -0.011679 -0.001097 0.001139 0.000000 0.047647 0.000000
# 6 0.000000 0.000000 0.000000 0.004811 0.000000 0.057546
#
#
# Mechanical properties :
#
#
# Convention : Reuss Voigt Hill
#
# Bulk Modulus (GPa) = 34.30628 39.79464 37.05046
# Shear Modulus (GPa) = 20.45451 23.09179 21.77315
#
# Velocity S-wave (km/s) = 3.36320 3.57345 3.46992
# Velocity P-wave (km/s) = 5.83545 6.24756 6.04502
#
# Compressibility (1/GPa) = 0.02914919
#
# Stress axis : x y z
#
# Youngs Moduli (GPa) = 34.20134 50.10539 70.84361
#
# Poissons Ratio (x) = 0.38272 0.43912
# Poissons Ratio (y) = 0.26124 0.22988
# Poissons Ratio (z) = 0.21199 0.16258
#
# Static dielectric constant tensor:
#      x y z
#    x 1.699620 0.000000 0.011380 
#    y 0.000000 1.610840 0.000000 
#    z 0.011380 0.000000 1.626800 
# 
# From -- ./inp_files/92924.got.cif
#   From: 2010.05.17/outbox.cif.g08.bks.cpg/sg13_47_cif.got.tgz:92924.got - 2010.06.03 16:44:36.
