data_PCOD9232664
_publ_section_title
;
Structure prediction by ZEFSAII (Michael W. Deem and Ramdas Pophale) SiO2 
 PCOD9232664
Probable space group: P 2/C
;
_chemical_formula_sum "Si O2"
_cell_formula_units_Z 28
_cell_length_a 17.318829
_cell_length_b 13.531953
_cell_length_c 8.656298
_cell_angle_alpha 90.000000
_cell_angle_beta 138.281120
_cell_angle_gamma 90.000000
_cell_volume 1350.031274
_symmetry_space_group_name_H-M "P 2/C"
_symmetry_group_IT_number 13
_symmetry_cell_setting 'monoclinic'
loop_
_space_group_symop_operation_xyz
x,y,z
-x,y,1/2-z
-x,-y,-z
x,-y,1/2+z
loop_
_atom_site_type_symbol
_atom_site_label
_atom_site_fract_x
_atom_site_fract_y
_atom_site_fract_z
Si Si1 0.242107 0.871341 0.161348
Si Si2 0.000000 0.061126 0.750000
Si Si3 0.113938 0.629872 0.644362
Si Si4 0.495018 0.116054 0.054935
Si Si5 0.812008 0.957239 0.744021
Si Si6 0.717794 0.237296 0.269567
Si Si7 0.109101 0.230081 0.711229
Si Si8 0.000000 0.471956 0.250000
O O1 0.371668 0.840307 0.311673
O O2 0.158685 0.791958 0.115830
O O3 0.269240 0.951002 0.339038
O O4 0.187145 0.924401 0.930194
O O5 0.923905 0.008188 0.507998
O O6 0.922610 0.130196 0.744872
O O7 0.238200 0.677631 0.785694
O O8 0.078005 0.540562 0.477449
O O9 0.009969 0.709644 0.463999
O O10 0.088489 0.591305 0.778125
O O11 0.500000 0.118130 0.250000
O O12 0.593992 0.190907 0.135866
O O13 0.500000 0.000000 0.000000
O O14 0.772373 0.859721 0.772335
O O15 0.787207 0.271156 0.527805
#
# Coordination Sequence:
#
# PCOD9232664 Si02
#       8
#     4   2   4   4   4   4   4   2
#     4  12  25  37  58  88 119 178 230 270 311 366
#     4  10  21  38  57  82 122 176 202 265 334 379
#     4  11  21  42  65 102 129 165 201 268 346 420
#     4  12  24  40  61  85 125 182 237 278 315 357
#     4  11  23  39  56  87 125 174 222 270 316 376
#     4  11  21  40  61  87 132 171 214 273 320 387
#     4  11  20  37  60  87 130 162 211 257 325 403
#     4  10  23  38  71 100 132 158 204 269 354 437
#
# _framework density 20.740259999999999
#
# number of rings (size 3 to 8) (size 9 to 14) (size 15 to 20)
#    0.000    0.857    7.143    2.571    2.000    2.857 
#    0.000    0.000    0.000    0.000    0.000   11.000 
#    0.000    0.000    0.000    0.000    0.000    0.000 
#
# Total GULP energy -155952.980097 kJ/mol
# GULP energy per Si atom -5569.749289 kJ/mol
# Density = 2.069305 g / cm^3
# Si number density = 20.740260 Si / 1000 Ang^3
#
#
#
# Elastic Constant Matrix: (Units=GPa)
#
#
# Indices 1 2 3 4 5 6 
#
# 1 167.0166 50.4776 67.9201 0.0000 -6.8412 0.0000
# 2 50.4776 55.0306 16.3384 0.0000 -2.3905 0.0000
# 3 67.9201 16.3384 85.8709 0.0000 -1.4226 0.0000
# 4 0.0000 0.0000 0.0000 21.2025 0.0000 -4.5272
# 5 -6.8412 -2.3905 -1.4226 0.0000 29.3231 0.0000
# 6 0.0000 0.0000 0.0000 -4.5272 0.0000 45.8835
#
#
#
# Elastic Compliance Matrix: (Units=1/GPa)
#
#
# Indices 1 2 3 4 5 6 
#
# 1 0.011691 -0.008388 -0.007624 0.000000 0.001674 0.000000
# 2 -0.008388 0.025335 0.001817 0.000000 0.000197 0.000000
# 3 -0.007624 0.001817 0.017317 0.000000 -0.000790 0.000000
# 4 0.000000 0.000000 0.000000 0.048179 0.000000 0.004754
# 5 0.001674 0.000197 -0.000790 0.000000 0.034471 0.000000
# 6 0.000000 0.000000 0.000000 0.004754 0.000000 0.022263
#
#
# Mechanical properties :
#
#
# Convention : Reuss Voigt Hill
#
# Bulk Modulus (GPa) = 38.52957 64.15445 51.34201
# Shear Modulus (GPa) = 25.47173 30.82728 28.14950
#
# Velocity S-wave (km/s) = 3.50827 3.85950 3.68807
# Velocity P-wave (km/s) = 5.91846 7.13165 6.55319
#
# Compressibility (1/GPa) = 0.02595409
#
# Stress axis : x y z
#
# Youngs Moduli (GPa) = 85.53301 39.47166 57.74833
#
# Poissons Ratio (x) = 0.33109 0.44026
# Poissons Ratio (y) = 0.71745 -0.10495
# Poissons Ratio (z) = 0.65208 -0.07174
#
# Static dielectric constant tensor:
#      x y z
#    x 1.893890 0.000000 0.034110 
#    y 0.000000 1.779660 0.000000 
#    z 0.034110 0.000000 1.815500 
# 
# From -- ./inp_files/21999.got.cif
#   From: 2010.05.17/outbox.cif.g08.bks.cpg/sg13_11_cif.got.tgz:21999.got - 2010.06.03 16:44:36.
