data_PCOD9232821
_publ_section_title
;
Structure prediction by ZEFSAII (Michael W. Deem and Ramdas Pophale) SiO2 
 PCOD9232821
Probable space group: P 2/C
;
_chemical_formula_sum "Si O2"
_cell_formula_units_Z 28
_cell_length_a 26.051034
_cell_length_b 5.225216
_cell_length_c 14.758203
_cell_angle_alpha 90.000000
_cell_angle_beta 37.704967
_cell_angle_gamma 90.000000
_cell_volume 1228.646836
_symmetry_space_group_name_H-M "P 2/C"
_symmetry_group_IT_number 13
_symmetry_cell_setting 'monoclinic'
loop_
_space_group_symop_operation_xyz
x,y,z
-x,y,1/2-z
-x,-y,-z
x,-y,1/2+z
loop_
_atom_site_type_symbol
_atom_site_label
_atom_site_fract_x
_atom_site_fract_y
_atom_site_fract_z
Si Si1 0.595361 0.304191 0.318346
Si Si2 0.881240 0.425948 0.972326
Si Si3 0.420233 0.803567 0.038674
Si Si4 0.244354 0.235794 0.767501
Si Si5 0.939067 0.540703 0.701727
Si Si6 0.138919 0.020221 0.764372
Si Si7 0.764479 0.945339 0.541423
O O1 0.586933 0.585076 0.372848
O O2 0.513884 0.243875 0.370418
O O3 0.686759 0.253625 0.148054
O O4 0.585432 0.090896 0.412814
O O5 0.898429 0.597072 0.857779
O O6 0.967490 0.445471 0.905922
O O7 0.807156 0.507594 0.143052
O O8 0.849423 0.174348 0.965980
O O9 0.336720 0.754113 0.095894
O O10 0.181580 0.050497 0.801805
O O11 0.260397 0.144788 0.847477
O O12 0.893809 0.303052 0.716413
O O13 0.929217 0.798561 0.657029
O O14 0.212898 0.959552 0.589220
#
# Coordination Sequence:
#
# PCOD9232821 Si02
#       7
#     4   4   4   4   4   4   4
#     4   9  17  32  58  81 116 145 189 229 288 341
#     4  10  21  38  63  80 115 158 192 242 293 353
#     4   9  18  32  54  89 109 148 188 234 278 350
#     4  11  22  37  62  84 119 152 201 233 298 344
#     4  10  24  41  57  84 118 150 199 241 297 340
#     4  11  25  39  58  87 117 154 196 249 282 354
#     4  10  21  40  60  87 117 158 194 240 301 348
#
# _framework density 22.789300000000001
#
# number of rings (size 3 to 8) (size 9 to 14) (size 15 to 20)
#    0.000    2.000    2.857    0.000    4.000    2.286 
#    0.000    0.714    0.000    0.000    0.000    8.000 
#    0.000    0.000    0.000    0.000    0.000    0.000 
#
# Total GULP energy -156056.819224 kJ/mol
# GULP energy per Si atom -5573.457829 kJ/mol
# Density = 2.273743 g / cm^3
# Si number density = 22.789300 Si / 1000 Ang^3
#
#
#
# Elastic Constant Matrix: (Units=GPa)
#
#
# Indices 1 2 3 4 5 6 
#
# 1 71.8788 13.1273 31.7281 0.0000 -19.3204 0.0000
# 2 13.1273 87.6618 7.8610 0.0000 -2.8140 0.0000
# 3 31.7281 7.8610 47.5806 0.0000 -8.9905 0.0000
# 4 0.0000 0.0000 0.0000 21.2132 0.0000 -10.3055
# 5 -19.3204 -2.8140 -8.9905 0.0000 41.7613 0.0000
# 6 0.0000 0.0000 0.0000 -10.3055 0.0000 25.2325
#
#
#
# Elastic Compliance Matrix: (Units=1/GPa)
#
#
# Indices 1 2 3 4 5 6 
#
# 1 0.021907 -0.001889 -0.012931 0.000000 0.007224 0.000000
# 2 -0.001889 0.011748 -0.000726 0.000000 -0.000239 0.000000
# 3 -0.012931 -0.000726 0.029834 0.000000 0.000391 0.000000
# 4 0.000000 0.000000 0.000000 0.058809 0.000000 0.024019
# 5 0.007224 -0.000239 0.000391 0.000000 0.027356 0.000000
# 6 0.000000 0.000000 0.000000 0.024019 0.000000 0.049441
#
#
# Mechanical properties :
#
#
# Convention : Reuss Voigt Hill
#
# Bulk Modulus (GPa) = 30.86849 34.72822 32.79835
# Shear Modulus (GPa) = 20.74806 27.93505 24.34156
#
# Velocity S-wave (km/s) = 3.02061 3.50494 3.27175
# Velocity P-wave (km/s) = 5.07346 5.62595 5.35683
#
# Compressibility (1/GPa) = 0.03239550
#
# Stress axis : x y z
#
# Youngs Moduli (GPa) = 45.64754 85.12212 33.51906
#
# Poissons Ratio (x) = 0.16080 0.43344
# Poissons Ratio (y) = 0.08623 0.02435
# Poissons Ratio (z) = 0.59027 0.06183
#
# Static dielectric constant tensor:
#      x y z
#    x 1.886750 0.000000 -0.072410 
#    y 0.000000 1.886270 0.000000 
#    z -0.072410 0.000000 1.997750 
# 
# From -- ./inp_files/59193.got.cif
#   From: 2010.05.17/outbox.cif.g08.bks.cpg/sg13_30_cif.got.tgz:59193.got - 2010.06.03 16:44:36.
