data_PCOD9232039
_publ_section_title
;
Structure prediction by ZEFSAII (Michael W. Deem and Ramdas Pophale) SiO2 
 PCOD9232039
Probable space group: P 2/C
;
_chemical_formula_sum "Si O2"
_cell_formula_units_Z 22
_cell_length_a 6.798672
_cell_length_b 6.848265
_cell_length_c 21.299823
_cell_angle_alpha 90.000000
_cell_angle_beta 119.617984
_cell_angle_gamma 90.000000
_cell_volume 862.124978
_symmetry_space_group_name_H-M "P 2/C"
_symmetry_group_IT_number 13
_symmetry_cell_setting 'monoclinic'
loop_
_space_group_symop_operation_xyz
x,y,z
-x,y,1/2-z
-x,-y,-z
x,-y,1/2+z
loop_
_atom_site_type_symbol
_atom_site_label
_atom_site_fract_x
_atom_site_fract_y
_atom_site_fract_z
Si Si1 0.379819 0.927499 0.315335
Si Si2 0.705453 0.865617 0.053477
Si Si3 0.157587 0.735903 0.082713
Si Si4 0.193665 0.566602 0.949688
Si Si5 0.000000 0.692800 0.250000
Si Si6 0.222756 0.302261 0.319567
O O1 0.278851 0.889868 0.369502
O O2 0.615890 0.818575 0.352054
O O3 0.179149 0.833753 0.242438
O O4 0.411107 0.162190 0.319260
O O5 0.661834 0.635831 0.030357
O O6 0.500000 0.000000 0.000000
O O7 0.949313 0.887388 0.058685
O O8 0.057191 0.535492 0.096448
O O9 0.200871 0.675942 0.017116
O O10 0.225114 0.703408 0.894916
O O11 0.812030 0.532512 0.197093
O O12 0.000000 0.221062 0.250000
#
# Coordination Sequence:
#
# PCOD9232039 Si02
#       6
#     4   4   4   4   2   4
#     4  12  23  42  75 102 140 190 241 298 360 431
#     4  10  22  42  69 101 145 184 227 291 357 426
#     4   9  23  44  71 109 144 184 243 296 356 437
#     4   9  20  48  68 105 145 187 240 294 361 426
#     4  10  20  46  68  94 144 188 236 284 364 428
#     4  10  22  42  75 101 140 192 243 290 361 427
#
# _framework density 25.518342000000001
#
# number of rings (size 3 to 8) (size 9 to 14) (size 15 to 20)
#    1.636    0.364    2.727    0.000    2.545    2.909 
#    0.000    3.636    4.000    3.273    0.000    0.000 
#    0.000    0.000    0.000    0.000    0.000    0.000 
#
# Total GULP energy -122551.736557 kJ/mol
# GULP energy per Si atom -5570.533480 kJ/mol
# Density = 2.546026 g / cm^3
# Si number density = 25.518342 Si / 1000 Ang^3
#
#
#
# Elastic Constant Matrix: (Units=GPa)
#
#
# Indices 1 2 3 4 5 6 
#
# 1 129.9521 59.3725 55.6721 0.0000 19.0288 0.0000
# 2 59.3725 138.9316 34.2049 0.0000 17.7905 0.0000
# 3 55.6721 34.2049 80.9809 0.0000 15.7561 0.0000
# 4 0.0000 0.0000 0.0000 24.6209 0.0000 8.2104
# 5 19.0288 17.7905 15.7561 0.0000 50.3281 0.0000
# 6 0.0000 0.0000 0.0000 8.2104 0.0000 45.1357
#
#
#
# Elastic Compliance Matrix: (Units=1/GPa)
#
#
# Indices 1 2 3 4 5 6 
#
# 1 0.012374 -0.003445 -0.006792 0.000000 -0.001334 0.000000
# 2 -0.003445 0.009165 -0.001199 0.000000 -0.001562 0.000000
# 3 -0.006792 -0.001199 0.018041 0.000000 -0.002656 0.000000
# 4 0.000000 0.000000 0.000000 0.043239 0.000000 -0.007865
# 5 -0.001334 -0.001562 -0.002656 0.000000 0.021758 0.000000
# 6 0.000000 0.000000 0.000000 -0.007865 0.000000 0.023586
#
#
# Mechanical properties :
#
#
# Convention : Reuss Voigt Hill
#
# Bulk Modulus (GPa) = 59.85033 72.04042 65.94538
# Shear Modulus (GPa) = 31.92731 37.39127 34.65929
#
# Velocity S-wave (km/s) = 3.54100 3.83204 3.68939
# Velocity P-wave (km/s) = 6.34216 6.91892 6.63681
#
# Compressibility (1/GPa) = 0.01670834
#
# Stress axis : x y z
#
# Youngs Moduli (GPa) = 80.81223 109.10809 55.42834
#
# Poissons Ratio (x) = 0.37588 0.37648
# Poissons Ratio (y) = 0.27840 0.06646
# Poissons Ratio (z) = 0.54890 0.13082
#
# Static dielectric constant tensor:
#      x y z
#    x 2.094430 0.000000 0.131510 
#    y 0.000000 2.096460 0.000000 
#    z 0.131510 0.000000 2.350270 
# 
# From -- ./inp_files/90710.got.cif
#   From: 2010.05.17/outbox.cif.g08.bks.cpg/sg13_46_cif.got.tgz:90710.got - 2010.06.03 16:44:36.
