data_PCOD9232796
_publ_section_title
;
Structure prediction by ZEFSAII (Michael W. Deem and Ramdas Pophale) SiO2 
 PCOD9232796
Probable space group: P 2/C
;
_chemical_formula_sum "Si O2"
_cell_formula_units_Z 18
_cell_length_a 5.353996
_cell_length_b 20.678252
_cell_length_c 7.828898
_cell_angle_alpha 90.000000
_cell_angle_beta 116.335035
_cell_angle_gamma 90.000000
_cell_volume 776.792228
_symmetry_space_group_name_H-M "P 2/C"
_symmetry_group_IT_number 13
_symmetry_cell_setting 'monoclinic'
loop_
_space_group_symop_operation_xyz
x,y,z
-x,y,1/2-z
-x,-y,-z
x,-y,1/2+z
loop_
_atom_site_type_symbol
_atom_site_label
_atom_site_fract_x
_atom_site_fract_y
_atom_site_fract_z
Si Si1 0.822516 0.557773 0.865107
Si Si2 0.734798 0.081757 0.967748
Si Si3 0.161417 0.301144 0.978726
Si Si4 0.336170 0.228288 0.517410
Si Si5 0.000000 0.977931 0.250000
O O1 0.500000 0.536127 0.750000
O O2 0.000000 0.573976 0.750000
O O3 0.806599 0.623914 0.966422
O O4 0.000000 0.500000 0.000000
O O5 0.500000 0.074124 0.750000
O O6 0.714060 0.153143 0.035982
O O7 0.991152 0.067084 0.915475
O O8 0.760804 0.029751 0.125822
O O9 0.456805 0.266128 0.044478
O O10 0.000000 0.297571 0.750000
O O11 0.955369 0.264342 0.044338
O O12 0.500000 0.228295 0.750000
#
# Coordination Sequence:
#
# PCOD9232796 Si02
#       5
#     4   4   4   4   2
#     4  12  26  45  71 104 143 181 226 279 338 402
#     4  10  21  38  62  87 131 169 228 281 351 402
#     4  10  21  42  66  96 130 177 222 272 333 405
#     4   9  20  36  66  90 127 175 222 269 340 406
#     4  10  22  38  60  94 122 172 228 288 342 412
#
# _framework density 23.172218000000001
#
# number of rings (size 3 to 8) (size 9 to 14) (size 15 to 20)
#    0.000    1.778    0.000    3.333    7.778    2.667 
#    6.000    0.000    0.000    0.000    0.000    0.000 
#    0.000    0.000    0.000    0.000    0.000    0.000 
#
# Total GULP energy -100536.675901 kJ/mol
# GULP energy per Si atom -5585.370883 kJ/mol
# Density = 2.311948 g / cm^3
# Si number density = 23.172218 Si / 1000 Ang^3
#
#
#
# Elastic Constant Matrix: (Units=GPa)
#
#
# Indices 1 2 3 4 5 6 
#
# 1 172.4672 98.4218 46.4875 0.0000 17.3185 0.0000
# 2 98.4218 201.8956 38.2134 0.0000 7.9262 0.0000
# 3 46.4875 38.2134 81.1468 0.0000 3.2113 0.0000
# 4 0.0000 0.0000 0.0000 328.3546 0.0000 -113.3647
# 5 17.3185 7.9262 3.2113 0.0000 43.4619 0.0000
# 6 0.0000 0.0000 0.0000 -113.3647 0.0000 72.9205
#
#
#
# Elastic Compliance Matrix: (Units=1/GPa)
#
#
# Indices 1 2 3 4 5 6 
#
# 1 0.009076 -0.003683 -0.003358 0.000000 -0.002697 0.000000
# 2 -0.003683 0.006960 -0.001179 0.000000 0.000285 0.000000
# 3 -0.003358 -0.001179 0.014784 0.000000 0.000461 0.000000
# 4 0.000000 0.000000 0.000000 0.006574 0.000000 0.010220
# 5 -0.002697 0.000285 0.000461 0.000000 0.023997 0.000000
# 6 0.000000 0.000000 0.000000 0.010220 0.000000 0.029602
#
#
# Mechanical properties :
#
#
# Convention : Reuss Voigt Hill
#
# Bulk Modulus (GPa) = 69.54218 91.30611 80.42414
# Shear Modulus (GPa) = 44.55200 107.10651 75.82926
#
# Velocity S-wave (km/s) = 4.38956 6.80605 5.72671
# Velocity P-wave (km/s) = 7.46774 10.06240 8.86056
#
# Compressibility (1/GPa) = 0.01437976
#
# Stress axis : x y z
#
# Youngs Moduli (GPa) = 110.18135 143.66958 67.63897
#
# Poissons Ratio (x) = 0.52912 0.22716
# Poissons Ratio (y) = 0.40579 0.07976
# Poissons Ratio (z) = 0.37003 0.16942
#
# Static dielectric constant tensor:
#      x y z
#    x 2.145050 0.000000 -0.046200 
#    y 0.000000 1.819080 0.000000 
#    z -0.046200 0.000000 1.938370 
# 
# From -- ./inp_files/9632.got.cif
#   From: 2010.05.17/outbox.cif.g08.bks.cpg/sg13_5_cif.got.tgz:9632.got - 2010.06.03 16:44:36.
