data_PCOD9232044
_publ_section_title
;
Structure prediction by ZEFSAII (Michael W. Deem and Ramdas Pophale) SiO2 
 PCOD9232044
Probable space group: P 2/C
;
_chemical_formula_sum "Si O2"
_cell_formula_units_Z 24
_cell_length_a 12.479538
_cell_length_b 9.393671
_cell_length_c 14.833431
_cell_angle_alpha 90.000000
_cell_angle_beta 34.882524
_cell_angle_gamma 90.000000
_cell_volume 994.471387
_symmetry_space_group_name_H-M "P 2/C"
_symmetry_group_IT_number 13
_symmetry_cell_setting 'monoclinic'
loop_
_space_group_symop_operation_xyz
x,y,z
-x,y,1/2-z
-x,-y,-z
x,-y,1/2+z
loop_
_atom_site_type_symbol
_atom_site_label
_atom_site_fract_x
_atom_site_fract_y
_atom_site_fract_z
Si Si1 0.457282 0.816587 0.427641
Si Si2 0.000000 0.337734 0.750000
Si Si3 0.996083 0.650439 0.956404
Si Si4 0.500000 0.029799 0.250000
Si Si5 0.879722 0.139994 0.675209
Si Si6 0.674374 0.537733 0.065357
Si Si7 0.734691 0.848131 0.754924
O O1 0.679210 0.833666 0.269865
O O2 0.415208 0.650496 0.441106
O O3 0.402456 0.865931 0.564822
O O4 0.386771 0.923890 0.396724
O O5 0.100971 0.230580 0.748638
O O6 0.169826 0.429783 0.585833
O O7 0.185622 0.690003 0.776202
O O8 0.016988 0.777562 0.013598
O O9 0.809371 0.642541 0.029236
O O10 0.000000 0.500000 0.000000
O O11 0.378046 0.122008 0.261475
O O12 0.890548 0.971125 0.670554
O O13 0.500000 0.483106 0.250000
#
# Coordination Sequence:
#
# PCOD9232044 Si02
#       7
#     4   2   4   2   4   4   4
#     4  11  23  45  76 104 148 201 254 310 397 471
#     4  12  28  42  74 114 150 200 274 318 382 470
#     4  12  25  47  69 107 147 195 255 313 381 458
#     4  10  20  46  72 114 144 196 260 314 394 474
#     4  11  24  46  68 106 151 187 254 327 373 458
#     4  12  24  48  74 105 157 213 253 320 394 456
#     4  11  26  45  79 108 151 202 251 322 393 462
#
# _framework density 24.133426
#
# number of rings (size 3 to 8) (size 9 to 14) (size 15 to 20)
#    0.000    0.667    4.167    4.500    0.000    6.000 
#    1.500    0.000    0.000    0.000    0.000    0.000 
#    0.000    0.000    0.000    0.000    0.000    0.000 
#
# Total GULP energy -133666.767270 kJ/mol
# GULP energy per Si atom -5569.448636 kJ/mol
# Density = 2.407850 g / cm^3
# Si number density = 24.133426 Si / 1000 Ang^3
#
#
#
# Elastic Constant Matrix: (Units=GPa)
#
#
# Indices 1 2 3 4 5 6 
#
# 1 98.8350 33.4001 32.2138 0.0000 5.8738 0.0000
# 2 33.4001 139.3428 50.0695 0.0000 -1.3057 0.0000
# 3 32.2138 50.0695 82.9880 0.0000 -3.4196 0.0000
# 4 0.0000 0.0000 0.0000 67.2899 0.0000 -49.4440
# 5 5.8738 -1.3057 -3.4196 0.0000 24.2939 0.0000
# 6 0.0000 0.0000 0.0000 -49.4440 0.0000 76.6177
#
#
#
# Elastic Compliance Matrix: (Units=1/GPa)
#
#
# Indices 1 2 3 4 5 6 
#
# 1 0.012128 -0.001527 -0.003933 0.000000 -0.003568 0.000000
# 2 -0.001527 0.009357 -0.005046 0.000000 0.000162 0.000000
# 3 -0.003933 -0.005046 0.016746 0.000000 0.003037 0.000000
# 4 0.000000 0.000000 0.000000 0.028263 0.000000 0.018239
# 5 -0.003568 0.000162 0.003037 0.000000 0.042462 0.000000
# 6 0.000000 0.000000 0.000000 0.018239 0.000000 0.024822
#
#
# Mechanical properties :
#
#
# Convention : Reuss Voigt Hill
#
# Bulk Modulus (GPa) = 58.07740 61.39253 59.73497
# Shear Modulus (GPa) = 31.14654 47.33911 39.24282
#
# Velocity S-wave (km/s) = 3.59639 4.43375 4.03684
# Velocity P-wave (km/s) = 6.43138 7.19061 6.82157
#
# Compressibility (1/GPa) = 0.01721840
#
# Stress axis : x y z
#
# Youngs Moduli (GPa) = 82.45347 106.86822 59.71405
#
# Poissons Ratio (x) = 0.16320 0.23488
# Poissons Ratio (y) = 0.12591 0.30133
# Poissons Ratio (z) = 0.32433 0.53927
#
# Static dielectric constant tensor:
#      x y z
#    x 2.073730 0.000000 0.080060 
#    y 0.000000 3.139850 0.000000 
#    z 0.080060 0.000000 3.588960 
# 
# From -- ./inp_files/68119.got.cif
#   From: 2010.05.17/outbox.cif.g08.bks.cpg/sg13_35_cif.got.tgz:68119.got - 2010.06.03 16:44:36.
