data_PCOD9232049
_publ_section_title
;
Structure prediction by ZEFSAII (Michael W. Deem and Ramdas Pophale) SiO2 
 PCOD9232049
Probable space group: P 2/C
;
_chemical_formula_sum "Si O2"
_cell_formula_units_Z 18
_cell_length_a 16.722315
_cell_length_b 4.863939
_cell_length_c 9.250097
_cell_angle_alpha 90.000000
_cell_angle_beta 61.760498
_cell_angle_gamma 90.000000
_cell_volume 662.819989
_symmetry_space_group_name_H-M "P 2/C"
_symmetry_group_IT_number 13
_symmetry_cell_setting 'monoclinic'
loop_
_space_group_symop_operation_xyz
x,y,z
-x,y,1/2-z
-x,-y,-z
x,-y,1/2+z
loop_
_atom_site_type_symbol
_atom_site_label
_atom_site_fract_x
_atom_site_fract_y
_atom_site_fract_z
Si Si1 0.111242 0.766433 0.383795
Si Si2 0.567396 0.245966 0.904953
Si Si3 0.000000 0.138491 0.250000
Si Si4 0.719592 0.021795 0.094859
Si Si5 0.741767 0.475524 0.402347
O O1 0.194793 0.930444 0.384501
O O2 0.162442 0.526378 0.254680
O O3 0.059921 0.939731 0.303583
O O4 0.051990 0.694819 0.577572
O O5 0.621087 0.088709 0.727454
O O6 0.657212 0.382420 0.897211
O O7 0.500000 0.500000 0.000000
O O8 0.500000 0.000000 0.000000
O O9 0.729550 0.844401 0.939727
O O10 0.733682 0.345102 0.057183
#
# Coordination Sequence:
#
# PCOD9232049 Si02
#       5
#     4   4   2   4   4
#     4  10  22  43  76 107 147 191 240 307 369 433
#     4  11  24  41  65 105 143 189 247 296 358 429
#     4  10  20  46  78 110 148 186 258 298 374 458
#     4  11  24  44  70 101 147 189 240 298 367 430
#     4  11  24  44  70 101 147 189 240 298 367 430
#
# _framework density 27.156696
#
# number of rings (size 3 to 8) (size 9 to 14) (size 15 to 20)
#    0.000    1.333    2.222    2.667    0.000   10.667 
#    0.000    3.333    0.000    0.000    0.000    0.000 
#    0.000    0.000    0.000    0.000    0.000    0.000 
#
# Total GULP energy -100399.326852 kJ/mol
# GULP energy per Si atom -5577.740381 kJ/mol
# Density = 2.709489 g / cm^3
# Si number density = 27.156696 Si / 1000 Ang^3
#
#
#
# Elastic Constant Matrix: (Units=GPa)
#
#
# Indices 1 2 3 4 5 6 
#
# 1 103.3845 35.3174 73.7538 0.0000 -19.9385 0.0000
# 2 35.3174 150.9979 46.5640 0.0000 -10.3956 0.0000
# 3 73.7538 46.5640 203.9108 0.0000 -44.0284 0.0000
# 4 0.0000 0.0000 0.0000 50.5971 0.0000 2.6109
# 5 -19.9385 -10.3956 -44.0284 0.0000 47.1317 0.0000
# 6 0.0000 0.0000 0.0000 2.6109 0.0000 36.9259
#
#
#
# Elastic Compliance Matrix: (Units=1/GPa)
#
#
# Indices 1 2 3 4 5 6 
#
# 1 0.013540 -0.001779 -0.004183 0.000000 0.001428 0.000000
# 2 -0.001779 0.007358 -0.001063 0.000000 -0.000123 0.000000
# 3 -0.004183 -0.001063 0.007800 0.000000 0.005283 0.000000
# 4 0.000000 0.000000 0.000000 0.019836 0.000000 -0.001403
# 5 0.001428 -0.000123 0.005283 0.000000 0.026729 0.000000
# 6 0.000000 0.000000 0.000000 -0.001403 0.000000 0.027180
#
#
# Mechanical properties :
#
#
# Convention : Reuss Voigt Hill
#
# Bulk Modulus (GPa) = 68.26615 85.50706 76.88661
# Shear Modulus (GPa) = 41.19408 47.10813 44.15111
#
# Velocity S-wave (km/s) = 3.89897 4.16947 4.03648
# Velocity P-wave (km/s) = 6.74253 7.39825 7.07799
#
# Compressibility (1/GPa) = 0.01464855
#
# Stress axis : x y z
#
# Youngs Moduli (GPa) = 73.85760 135.90451 128.19705
#
# Poissons Ratio (x) = 0.24173 0.53621
# Poissons Ratio (y) = 0.13137 0.13633
# Poissons Ratio (z) = 0.30892 0.14453
#
# Static dielectric constant tensor:
#      x y z
#    x 2.168330 0.000000 0.011280 
#    y 0.000000 2.057580 0.000000 
#    z 0.011280 0.000000 2.269150 
# 
# From -- ./inp_files/20432.got.cif
#   From: 2010.05.17/outbox.cif.g08.bks.cpg/sg13_11_cif.got.tgz:20432.got - 2010.06.03 16:44:36.
