data_PCOD9232288
_publ_section_title
;
Structure prediction by ZEFSAII (Michael W. Deem and Ramdas Pophale) SiO2 
 PCOD9232288
Probable space group: P 2/C
;
_chemical_formula_sum "Si O2"
_cell_formula_units_Z 18
_cell_length_a 8.145177
_cell_length_b 18.504332
_cell_length_c 5.329287
_cell_angle_alpha 90.000000
_cell_angle_beta 91.995453
_cell_angle_gamma 90.000000
_cell_volume 802.748695
_symmetry_space_group_name_H-M "P 2/C"
_symmetry_group_IT_number 13
_symmetry_cell_setting 'monoclinic'
loop_
_space_group_symop_operation_xyz
x,y,z
-x,y,1/2-z
-x,-y,-z
x,-y,1/2+z
loop_
_atom_site_type_symbol
_atom_site_label
_atom_site_fract_x
_atom_site_fract_y
_atom_site_fract_z
Si Si1 0.164693 0.683087 0.418631
Si Si2 0.813907 0.529429 0.937050
Si Si3 0.500000 0.173914 0.250000
Si Si4 0.000000 0.049110 0.750000
Si Si5 0.500000 0.728467 0.250000
Si Si6 0.842320 0.848631 0.914223
O O1 0.179742 0.615180 0.603975
O O2 0.330875 0.684862 0.264187
O O3 0.154566 0.762560 0.538412
O O4 0.000000 0.671785 0.250000
O O5 0.734680 0.489071 0.699869
O O6 0.000000 0.500000 0.000000
O O7 0.488950 0.222780 0.499332
O O8 0.329731 0.131362 0.220674
O O9 0.856744 0.106627 0.673758
O O10 0.000000 0.000000 0.500000
O O11 0.000000 0.863562 0.750000
#
# Coordination Sequence:
#
# PCOD9232288 Si02
#       6
#     4   4   2   2   2   4
#     4  11  21  39  69  93 129 170 229 271 338 394
#     4  10  21  36  56  88 126 168 214 274 324 390
#     4  10  24  42  68 102 144 156 234 280 334 394
#     4  12  26  46  70 104 146 176 222 274 328 406
#     4  10  24  40  58 104 130 168 216 302 322 394
#     4  11  24  43  75 103 130 184 223 280 334 394
#
# _framework density 22.422958999999999
#
# number of rings (size 3 to 8) (size 9 to 14) (size 15 to 20)
#    0.000    1.333    4.444    1.333    6.222    3.556 
#    0.000    2.222    0.000    0.000    0.000    0.000 
#    0.000    0.000    0.000    0.000    0.000    0.000 
#
# Total GULP energy -100426.574085 kJ/mol
# GULP energy per Si atom -5579.254116 kJ/mol
# Density = 2.237192 g / cm^3
# Si number density = 22.422959 Si / 1000 Ang^3
#
#
#
# Elastic Constant Matrix: (Units=GPa)
#
#
# Indices 1 2 3 4 5 6 
#
# 1 158.8135 8.0418 28.7941 0.0000 7.6662 0.0000
# 2 8.0418 132.4267 41.6850 0.0000 1.7356 0.0000
# 3 28.7941 41.6850 143.6137 0.0000 5.6759 0.0000
# 4 0.0000 0.0000 0.0000 34.7506 0.0000 -0.0170
# 5 7.6662 1.7356 5.6759 0.0000 34.2998 0.0000
# 6 0.0000 0.0000 0.0000 -0.0170 0.0000 -14.7244
#
#
#
# Elastic Compliance Matrix: (Units=1/GPa)
#
#
# Indices 1 2 3 4 5 6 
#
# 1 0.006588 0.000018 -0.001276 0.000000 -0.001262 0.000000
# 2 0.000018 0.008311 -0.002415 0.000000 -0.000025 0.000000
# 3 -0.001276 -0.002415 0.007956 0.000000 -0.000909 0.000000
# 4 0.000000 0.000000 0.000000 0.028777 0.000000 -0.000033
# 5 -0.001262 -0.000025 -0.000909 0.000000 0.029588 0.000000
# 6 0.000000 0.000000 0.000000 -0.000033 0.000000 -0.067914
#
#
# Mechanical properties :
#
#
# Convention : Reuss Voigt Hill
#
# Bulk Modulus (GPa) = 64.47981 65.76621 65.12301
# Shear Modulus (GPa) = 193.64189 34.62073 114.13131
#
# Velocity S-wave (km/s) = 9.30302 3.93362 7.14211
# Velocity P-wave (km/s) = 12.00890 7.07281 9.85490
#
# Compressibility (1/GPa) = 0.01550873
#
# Stress axis : x y z
#
# Youngs Moduli (GPa) = 151.78878 120.32637 125.69291
#
# Poissons Ratio (x) = -0.00219 0.16042
# Poissons Ratio (y) = -0.00277 0.30354
# Poissons Ratio (z) = 0.19373 0.29058
#
# Static dielectric constant tensor:
#      x y z
#    x 1.876060 0.000000 -0.103300 
#    y 0.000000 1.866100 0.000000 
#    z -0.103300 0.000000 2.093890 
# 
# From -- ./inp_files/1659.got.cif
#   From: 2010.05.17/outbox.cif.g08.bks.cpg/sg13_1_cif.got.tgz:1659.got - 2010.06.03 16:44:36.
