data_PCOD9232541
_publ_section_title
;
Structure prediction by ZEFSAII (Michael W. Deem and Ramdas Pophale) SiO2 
 PCOD9232541
Probable space group: P 2/C
;
_chemical_formula_sum "Si O2"
_cell_formula_units_Z 20
_cell_length_a 5.127302
_cell_length_b 7.397831
_cell_length_c 23.444321
_cell_angle_alpha 90.000000
_cell_angle_beta 77.367256
_cell_angle_gamma 90.000000
_cell_volume 867.737144
_symmetry_space_group_name_H-M "P 2/C"
_symmetry_group_IT_number 13
_symmetry_cell_setting 'monoclinic'
loop_
_space_group_symop_operation_xyz
x,y,z
-x,y,1/2-z
-x,-y,-z
x,-y,1/2+z
loop_
_atom_site_type_symbol
_atom_site_label
_atom_site_fract_x
_atom_site_fract_y
_atom_site_fract_z
Si Si1 0.551913 0.779286 0.933979
Si Si2 0.000000 0.613130 0.750000
Si Si3 0.580129 0.220713 0.933978
Si Si4 0.500000 0.386868 0.750000
Si Si5 0.117699 0.217023 0.366102
Si Si6 0.150097 0.782978 0.366101
O O1 0.378767 0.720834 0.887791
O O2 0.857043 0.721132 0.913192
O O3 0.566276 1.000000 0.933724
O O4 0.422732 0.723975 0.000000
O O5 0.272110 0.499999 0.727890
O O6 0.074686 0.722604 0.803359
O O7 0.316571 0.278867 0.913192
O O8 0.845650 0.279165 0.887791
O O9 0.681404 0.277394 0.696641
O O10 0.134384 0.000001 0.365616
#
# Coordination Sequence:
#
# PCOD9232541 Si02
#       6
#     4   2   4   2   4   4
#     4   9  17  32  58  91 119 144 186 247 302 347
#     4  12  26  42  60  84 124 166 202 250 304 354
#     4   9  17  32  58  91 119 144 186 247 302 347
#     4  12  26  42  60  84 124 166 202 250 304 354
#     4  10  21  37  61  88 115 153 201 245 289 353
#     4  10  21  37  61  88 115 153 201 245 289 353
#
# _framework density 23.048452999999999
#
# number of rings (size 3 to 8) (size 9 to 14) (size 15 to 20)
#    0.000    2.000    0.000    3.600    0.000   11.200 
#    0.000    0.000    0.000   24.000    0.000    0.000 
#    0.000    0.000    0.000    0.000    0.000    0.000 
#
# Total GULP energy -111797.608374 kJ/mol
# GULP energy per Si atom -5589.880419 kJ/mol
# Density = 2.299599 g / cm^3
# Si number density = 23.048453 Si / 1000 Ang^3
#
#
#
# Elastic Constant Matrix: (Units=GPa)
#
#
# Indices 1 2 3 4 5 6 
#
# 1 173.7681 30.5392 63.2973 0.0000 1.3088 0.0000
# 2 30.5392 59.5239 20.7717 0.0000 0.4855 0.0000
# 3 63.2973 20.7717 156.8693 0.0000 -0.4689 0.0000
# 4 0.0000 0.0000 0.0000 123.3603 0.0000 -5.3923
# 5 1.3088 0.4855 -0.4689 0.0000 42.1610 0.0000
# 6 0.0000 0.0000 0.0000 -5.3923 0.0000 14.8995
#
#
#
# Elastic Compliance Matrix: (Units=1/GPa)
#
#
# Indices 1 2 3 4 5 6 
#
# 1 0.007166 -0.002795 -0.002522 0.000000 -0.000218 0.000000
# 2 -0.002795 0.018706 -0.001350 0.000000 -0.000144 0.000000
# 3 -0.002522 -0.001350 0.007572 0.000000 0.000178 0.000000
# 4 0.000000 0.000000 0.000000 0.008237 0.000000 0.002981
# 5 -0.000218 -0.000144 0.000178 0.000000 0.023729 0.000000
# 6 0.000000 0.000000 0.000000 0.002981 0.000000 0.068195
#
#
# Mechanical properties :
#
#
# Convention : Reuss Voigt Hill
#
# Bulk Modulus (GPa) = 49.72478 68.81974 59.27226
# Shear Modulus (GPa) = 32.54317 54.45437 43.49877
#
# Velocity S-wave (km/s) = 3.76166 4.86594 4.34899
# Velocity P-wave (km/s) = 6.36299 7.84177 7.14076
#
# Compressibility (1/GPa) = 0.02011070
#
# Stress axis : x y z
#
# Youngs Moduli (GPa) = 139.54044 53.45875 132.07051
#
# Poissons Ratio (x) = 0.14941 0.33311
# Poissons Ratio (y) = 0.38999 0.17825
# Poissons Ratio (z) = 0.35195 0.07215
#
# Static dielectric constant tensor:
#      x y z
#    x 1.803800 0.000000 -0.001340 
#    y 0.000000 1.915470 0.000000 
#    z -0.001340 0.000000 1.830840 
# 
# From -- ./inp_files/73038.got.cif
#   From: 2010.05.17/outbox.cif.g08.bks.cpg/sg13_37_cif.got.tgz:73038.got - 2010.06.03 16:44:36.
