data_PCOD9232723
_publ_section_title
;
Structure prediction by ZEFSAII (Michael W. Deem and Ramdas Pophale) SiO2 
 PCOD9232723
Probable space group: P 2/C
;
_chemical_formula_sum "Si O2"
_cell_formula_units_Z 30
_cell_length_a 11.240981
_cell_length_b 9.150942
_cell_length_c 16.842461
_cell_angle_alpha 90.000000
_cell_angle_beta 63.002549
_cell_angle_gamma 90.000000
_cell_volume 1543.712053
_symmetry_space_group_name_H-M "P 2/C"
_symmetry_group_IT_number 13
_symmetry_cell_setting 'monoclinic'
loop_
_space_group_symop_operation_xyz
x,y,z
-x,y,1/2-z
-x,-y,-z
x,-y,1/2+z
loop_
_atom_site_type_symbol
_atom_site_label
_atom_site_fract_x
_atom_site_fract_y
_atom_site_fract_z
Si Si1 0.137762 0.074504 0.490611
Si Si2 0.346751 0.991680 0.787897
Si Si3 0.303504 0.733476 0.701987
Si Si4 0.696619 0.301583 0.642961
Si Si5 0.500000 0.442696 0.250000
Si Si6 0.024166 0.363504 0.331670
Si Si7 0.997815 0.625327 0.432724
Si Si8 0.222918 0.801982 0.549213
O O1 0.249708 0.061096 0.388248
O O2 0.102226 0.241082 0.523422
O O3 0.196635 0.974885 0.544653
O O4 0.000000 0.000000 0.500000
O O5 0.500000 0.946918 0.750000
O O6 0.297848 0.904330 0.726446
O O7 0.347102 0.166274 0.789066
O O8 0.433510 0.654095 0.699629
O O9 0.182041 0.658383 0.788571
O O10 0.282213 0.737200 0.613281
O O11 0.613032 0.447249 0.682369
O O12 0.852018 0.318209 0.615475
O O13 0.692193 0.251797 0.552149
O O14 0.976294 0.528372 0.360680
O O15 0.000000 0.313352 0.250000
O O16 0.926993 0.264271 0.413178
O O17 0.000000 0.500000 0.500000
#
# Coordination Sequence:
#
# PCOD9232723 Si02
#       8
#     4   4   4   4   2   4   4   4
#     4  11  21  38  64  92 119 168 216 256 325 390
#     4  11  22  40  62  87 124 167 211 261 317 388
#     4  11  23  40  65  89 128 170 216 263 327 392
#     4  11  23  39  65  89 125 166 216 263 323 383
#     4  12  24  40  66  92 120 182 220 254 332 402
#     4  10  21  38  59  91 126 156 203 273 331 372
#     4  12  20  36  65  92 124 158 213 263 317 386
#     4  10  22  42  61  94 126 160 213 274 323 377
#
# _framework density 19.433675999999998
#
# number of rings (size 3 to 8) (size 9 to 14) (size 15 to 20)
#    0.000    1.067    6.667    1.600    0.000    0.533 
#    2.400    2.667    0.000    0.000    0.000    0.000 
#    0.000    0.000    0.000    0.000    0.000    0.000 
#
# Total GULP energy -167072.331058 kJ/mol
# GULP energy per Si atom -5569.077702 kJ/mol
# Density = 1.938944 g / cm^3
# Si number density = 19.433676 Si / 1000 Ang^3
#
#
#
# Elastic Constant Matrix: (Units=GPa)
#
#
# Indices 1 2 3 4 5 6 
#
# 1 55.6846 24.5416 16.3878 0.0000 -8.6568 0.0000
# 2 24.5416 114.9402 21.9628 0.0000 8.2057 0.0000
# 3 16.3878 21.9628 45.7901 0.0000 -0.5504 0.0000
# 4 0.0000 0.0000 0.0000 33.3734 0.0000 -1.8827
# 5 -8.6568 8.2057 -0.5504 0.0000 29.1753 0.0000
# 6 0.0000 0.0000 0.0000 -1.8827 0.0000 22.6204
#
#
#
# Elastic Compliance Matrix: (Units=1/GPa)
#
#
# Indices 1 2 3 4 5 6 
#
# 1 0.022845 -0.004289 -0.006024 0.000000 0.007871 0.000000
# 2 -0.004289 0.010614 -0.003608 0.000000 -0.004326 0.000000
# 3 -0.006024 -0.003608 0.025722 0.000000 -0.000287 0.000000
# 4 0.000000 0.000000 0.000000 0.030105 0.000000 0.002506
# 5 0.007871 -0.004326 -0.000287 0.000000 0.037822 0.000000
# 6 0.000000 0.000000 0.000000 0.002506 0.000000 0.044416
#
#
# Mechanical properties :
#
#
# Convention : Reuss Voigt Hill
#
# Bulk Modulus (GPa) = 31.90924 38.02217 34.96570
# Shear Modulus (GPa) = 23.83067 27.26867 25.54967
#
# Velocity S-wave (km/s) = 3.50559 3.74995 3.62983
# Velocity P-wave (km/s) = 5.73069 6.19331 5.96648
#
# Compressibility (1/GPa) = 0.03133889
#
# Stress axis : x y z
#
# Youngs Moduli (GPa) = 43.77328 94.21415 38.87726
#
# Poissons Ratio (x) = 0.40404 0.23421
# Poissons Ratio (y) = 0.18772 0.14027
# Poissons Ratio (z) = 0.26371 0.33994
#
# Static dielectric constant tensor:
#      x y z
#    x 1.701490 0.000000 -0.010600 
#    y 0.000000 1.722440 0.000000 
#    z -0.010600 0.000000 1.735510 
# 
# From -- ./inp_files/66293.got.cif
#   From: 2010.05.17/outbox.cif.g08.bks.cpg/sg13_34_cif.got.tgz:66293.got - 2010.06.03 16:44:36.
