data_PCOD9232561
_publ_section_title
;
Structure prediction by ZEFSAII (Michael W. Deem and Ramdas Pophale) SiO2 
 PCOD9232561
Probable space group: P 2/C
;
_chemical_formula_sum "Si O2"
_cell_formula_units_Z 12
_cell_length_a 13.367703
_cell_length_b 5.224002
_cell_length_c 9.573119
_cell_angle_alpha 90.000000
_cell_angle_beta 139.202160
_cell_angle_gamma 90.000000
_cell_volume 436.804834
_symmetry_space_group_name_H-M "P 2/C"
_symmetry_group_IT_number 13
_symmetry_cell_setting 'monoclinic'
loop_
_space_group_symop_operation_xyz
x,y,z
-x,y,1/2-z
-x,-y,-z
x,-y,1/2+z
loop_
_atom_site_type_symbol
_atom_site_label
_atom_site_fract_x
_atom_site_fract_y
_atom_site_fract_z
Si Si1 0.881381 0.493865 0.250590
Si Si2 0.182176 0.024922 0.918862
Si Si3 0.553216 0.245844 0.142722
O O1 0.795162 0.762038 0.176508
O O2 0.000000 0.522257 0.250000
O O3 0.000000 0.500000 0.500000
O O4 0.773949 0.256571 0.091276
O O5 0.000000 0.988459 0.750000
O O6 0.267162 0.165287 0.137138
O O7 0.500000 0.256859 0.250000
O O8 0.500000 0.500000 0.000000
O O9 0.500000 0.000000 0.000000
#
# Coordination Sequence:
#
# PCOD9232561 Si02
#       3
#     4   4   4
#     4  10  21  37  61  97 132 167 220 288 349 409
#     4  10  23  43  70 100 135 183 238 295 355 432
#     4  12  28  50  74 107 151 198 246 307 380 449
#
# _framework density 27.472225000000002
#
# number of rings (size 3 to 8) (size 9 to 14) (size 15 to 20)
#    0.000    1.333    0.000    4.000    0.000   16.000 
#    0.000    0.000    0.000    0.000    0.000    0.000 
#    0.000    0.000    0.000    0.000    0.000    0.000 
#
# Total GULP energy -66876.343523 kJ/mol
# GULP energy per Si atom -5573.028627 kJ/mol
# Density = 2.740970 g / cm^3
# Si number density = 27.472225 Si / 1000 Ang^3
#
#
#
# Elastic Constant Matrix: (Units=GPa)
#
#
# Indices 1 2 3 4 5 6 
#
# 1 123.7971 33.3171 59.5064 0.0000 -17.7360 0.0000
# 2 33.3171 282.7805 34.8391 0.0000 -9.9654 0.0000
# 3 59.5064 34.8391 177.7009 0.0000 -7.7516 0.0000
# 4 0.0000 0.0000 0.0000 65.9763 0.0000 -5.3713
# 5 -17.7360 -9.9654 -7.7516 0.0000 62.2248 0.0000
# 6 0.0000 0.0000 0.0000 -5.3713 0.0000 28.8529
#
#
#
# Elastic Compliance Matrix: (Units=1/GPa)
#
#
# Indices 1 2 3 4 5 6 
#
# 1 0.010124 -0.000722 -0.003145 0.000000 0.002378 0.000000
# 2 -0.000722 0.003690 -0.000468 0.000000 0.000327 0.000000
# 3 -0.003145 -0.000468 0.006767 0.000000 -0.000128 0.000000
# 4 0.000000 0.000000 0.000000 0.015390 0.000000 0.002865
# 5 0.002378 0.000327 -0.000128 0.000000 0.016785 0.000000
# 6 0.000000 0.000000 0.000000 0.002865 0.000000 0.035192
#
#
# Mechanical properties :
#
#
# Convention : Reuss Voigt Hill
#
# Bulk Modulus (GPa) = 83.94206 93.28930 88.61568
# Shear Modulus (GPa) = 49.70743 61.85187 55.77965
#
# Velocity S-wave (km/s) = 4.25828 4.75007 4.51089
# Velocity P-wave (km/s) = 7.40263 8.00723 7.71085
#
# Compressibility (1/GPa) = 0.01191298
#
# Stress axis : x y z
#
# Youngs Moduli (GPa) = 98.77057 270.96847 147.78194
#
# Poissons Ratio (x) = 0.19552 0.46480
# Poissons Ratio (y) = 0.07127 0.06911
# Poissons Ratio (z) = 0.31065 0.12672
#
# Static dielectric constant tensor:
#      x y z
#    x 2.528060 0.000000 0.344220 
#    y 0.000000 2.411600 0.000000 
#    z 0.344220 0.000000 2.405260 
# 
# From -- ./inp_files/14003.got.cif
#   From: 2010.05.17/outbox.cif.g08.bks.cpg/sg13_8_cif.got.tgz:14003.got - 2010.06.03 16:44:36.
