data_PCOD9232585
_publ_section_title
;
Structure prediction by ZEFSAII (Michael W. Deem and Ramdas Pophale) SiO2 
 PCOD9232585
Probable space group: P 2/C
;
_chemical_formula_sum "Si O2"
_cell_formula_units_Z 16
_cell_length_a 10.076331
_cell_length_b 4.929773
_cell_length_c 11.631806
_cell_angle_alpha 90.000000
_cell_angle_beta 66.158517
_cell_angle_gamma 90.000000
_cell_volume 528.493474
_symmetry_space_group_name_H-M "P 2/C"
_symmetry_group_IT_number 13
_symmetry_cell_setting 'monoclinic'
loop_
_space_group_symop_operation_xyz
x,y,z
-x,y,1/2-z
-x,-y,-z
x,-y,1/2+z
loop_
_atom_site_type_symbol
_atom_site_label
_atom_site_fract_x
_atom_site_fract_y
_atom_site_fract_z
Si Si1 0.221905 0.089245 0.103036
Si Si2 0.958291 0.622671 0.389664
Si Si3 0.518487 0.284206 0.626662
Si Si4 0.270018 0.405127 0.295030
O O1 0.120778 0.346363 0.113681
O O2 0.237791 0.128165 0.237335
O O3 0.152991 0.861352 0.041929
O O4 0.383737 0.137248 0.999109
O O5 0.000000 0.750255 0.250000
O O6 0.114766 0.537131 0.385069
O O7 0.500000 0.109968 0.750000
O O8 0.620909 0.531414 0.638609
O O9 0.359167 0.412683 0.665256
#
# Coordination Sequence:
#
# PCOD9232585 Si02
#       4
#     4   4   4   4
#     4  11  20  40  64  89 122 165 200 253 309 356
#     4  10  21  37  63  90 121 159 205 251 303 364
#     4   8  20  39  64  91 128 163 204 252 306 368
#     4   8  19  39  62  93 127 156 210 250 307 367
#
# _framework density 30.274733999999999
#
# number of rings (size 3 to 8) (size 9 to 14) (size 15 to 20)
#    1.500    1.000    0.000    3.000    0.000    2.000 
#    0.000   20.000    0.000    4.500    0.000    0.000 
#    0.000    0.000    0.000    0.000    0.000    0.000 
#
# Total GULP energy -89230.641183 kJ/mol
# GULP energy per Si atom -5576.915074 kJ/mol
# Density = 3.020583 g / cm^3
# Si number density = 30.274734 Si / 1000 Ang^3
#
#
#
# Elastic Constant Matrix: (Units=GPa)
#
#
# Indices 1 2 3 4 5 6 
#
# 1 239.2200 88.6534 16.4970 0.0000 -38.5005 0.0000
# 2 88.6534 158.0708 6.5776 0.0000 -14.6421 0.0000
# 3 16.4970 6.5776 58.0110 0.0000 -28.2740 0.0000
# 4 0.0000 0.0000 0.0000 -4.2049 0.0000 -2.8719
# 5 -38.5005 -14.6421 -28.2740 0.0000 72.8318 0.0000
# 6 0.0000 0.0000 0.0000 -2.8719 0.0000 84.0116
#
#
#
# Elastic Compliance Matrix: (Units=1/GPa)
#
#
# Indices 1 2 3 4 5 6 
#
# 1 0.005661 -0.002952 -0.000131 0.000000 0.002348 0.000000
# 2 -0.002952 0.007986 -0.000054 0.000000 0.000024 0.000000
# 3 -0.000131 -0.000054 0.021266 0.000000 0.008176 0.000000
# 4 0.000000 0.000000 0.000000 -0.232395 0.000000 -0.007944
# 5 0.002348 0.000024 0.008176 0.000000 0.018150 0.000000
# 6 0.000000 0.000000 0.000000 -0.007944 0.000000 0.011632
#
#
# Mechanical properties :
#
#
# Convention : Reuss Voigt Hill
#
# Bulk Modulus (GPa) = 34.91646 75.41754 55.16700
# Shear Modulus (GPa) = -32.92119 53.43263 10.25572
#
# Velocity S-wave (km/s) = -3.30117 4.20566 1.84253
# Velocity P-wave (km/s) = 1.72398 6.96768 4.77370
#
# Compressibility (1/GPa) = 0.02863979
#
# Stress axis : x y z
#
# Youngs Moduli (GPa) = 176.63896 125.21215 47.02292
#
# Poissons Ratio (x) = 0.36964 0.00614
# Poissons Ratio (y) = 0.52146 0.00256
# Poissons Ratio (z) = 0.02307 0.00681
#
# Static dielectric constant tensor:
#      x y z
#    x -0.594360 0.000000 1.699660 
#    y 0.000000 2.371670 0.000000 
#    z 1.699660 0.000000 2.097480 
# 
# From -- ./inp_files/48407.got.cif
#   From: 2010.05.17/outbox.cif.g08.bks.cpg/sg13_25_cif.got.tgz:48407.got - 2010.06.03 16:44:36.
