data_PCOD9232525
_publ_section_title
;
Structure prediction by ZEFSAII (Michael W. Deem and Ramdas Pophale) SiO2 
 PCOD9232525
Probable space group: P 2/C
;
_chemical_formula_sum "Si O2"
_cell_formula_units_Z 20
_cell_length_a 26.909164
_cell_length_b 9.090728
_cell_length_c 9.790485
_cell_angle_alpha 90.000000
_cell_angle_beta 155.433656
_cell_angle_gamma 90.000000
_cell_volume 995.707574
_symmetry_space_group_name_H-M "P 2/C"
_symmetry_group_IT_number 13
_symmetry_cell_setting 'monoclinic'
loop_
_space_group_symop_operation_xyz
x,y,z
-x,y,1/2-z
-x,-y,-z
x,-y,1/2+z
loop_
_atom_site_type_symbol
_atom_site_label
_atom_site_fract_x
_atom_site_fract_y
_atom_site_fract_z
Si Si1 0.500000 0.499884 0.250000
Si Si2 0.669596 0.246777 0.572730
Si Si3 0.500000 0.999914 0.250000
Si Si4 0.136710 0.351186 0.931817
Si Si5 0.330652 0.752959 0.725282
Si Si6 0.136515 0.649085 0.751455
O O1 0.586126 0.391163 0.381371
O O2 0.585805 0.608611 0.548843
O O3 0.583748 0.107297 0.372318
O O4 0.728211 0.250218 0.570493
O O5 0.765591 0.247676 0.934099
O O6 0.583599 0.892517 0.546162
O O7 0.142557 0.500203 0.856591
O O8 0.000139 0.296147 0.580593
O O9 0.234773 0.248216 0.107154
O O10 0.162367 0.378072 0.156049
#
# Coordination Sequence:
#
# PCOD9232525 Si02
#       6
#     2   4   2   4   4   4
#     4  10  22  34  58  92 122 150 202 252 302 358
#     4  11  22  39  62  89 122 161 202 251 302 357
#     4  10  26  42  58  88 126 162 208 246 302 358
#     4  10  21  37  60  91 124 156 197 250 303 357
#     4  11  22  39  62  89 122 161 202 251 302 357
#     4  10  21  37  60  91 124 156 197 250 303 357
#
# _framework density 20.086219
#
# number of rings (size 3 to 8) (size 9 to 14) (size 15 to 20)
#    0.000    1.600    2.000    2.400    0.000   10.400 
#    0.000    1.000    0.000    0.000    0.000    0.000 
#    0.000    0.000    0.000    0.000    0.000    0.000 
#
# Total GULP energy -111677.134852 kJ/mol
# GULP energy per Si atom -5583.856743 kJ/mol
# Density = 2.004050 g / cm^3
# Si number density = 20.086219 Si / 1000 Ang^3
#
#
#
# Elastic Constant Matrix: (Units=GPa)
#
#
# Indices 1 2 3 4 5 6 
#
# 1 148.9709 31.5965 84.3839 0.0000 -25.1499 0.0000
# 2 31.5965 92.1380 34.9584 0.0000 1.8309 0.0000
# 3 84.3839 34.9584 109.6948 0.0000 -0.7568 0.0000
# 4 0.0000 0.0000 0.0000 20.8474 0.0000 9.6509
# 5 -25.1499 1.8309 -0.7568 0.0000 28.2437 0.0000
# 6 0.0000 0.0000 0.0000 9.6509 0.0000 5.2641
#
#
#
# Elastic Compliance Matrix: (Units=1/GPa)
#
#
# Indices 1 2 3 4 5 6 
#
# 1 0.016088 -0.001295 -0.011866 0.000000 0.014091 0.000000
# 2 -0.001295 0.012474 -0.002993 0.000000 -0.002042 0.000000
# 3 -0.011866 -0.002993 0.019130 0.000000 -0.009859 0.000000
# 4 0.000000 0.000000 0.000000 0.317046 0.000000 -0.581253
# 5 0.014091 -0.002042 -0.009859 0.000000 0.047822 0.000000
# 6 0.000000 0.000000 0.000000 -0.581253 0.000000 1.255601
#
#
# Mechanical properties :
#
#
# Convention : Reuss Voigt Hill
#
# Bulk Modulus (GPa) = 65.00435 72.52016 68.76225
# Shear Modulus (GPa) = 2.93153 24.19537 13.56345
#
# Velocity S-wave (km/s) = 1.20940 3.47447 2.60140
# Velocity P-wave (km/s) = 5.86371 7.23040 6.58262
#
# Compressibility (1/GPa) = 0.01538359
#
# Stress axis : x y z
#
# Youngs Moduli (GPa) = 62.15991 80.16961 52.27441
#
# Poissons Ratio (x) = 0.10381 0.62027
# Poissons Ratio (y) = 0.08049 0.15647
# Poissons Ratio (z) = 0.73757 0.23996
#
# Static dielectric constant tensor:
#      x y z
#    x 1.709630 0.000000 0.006330 
#    y 0.000000 1.698950 0.000000 
#    z 0.006330 0.000000 1.720020 
# 
# From -- ./inp_files/23980.got.cif
#   From: 2010.05.17/outbox.cif.g08.bks.cpg/sg13_12_cif.got.tgz:23980.got - 2010.06.03 16:44:36.
