data_PCOD9232261
_publ_section_title
;
Structure prediction by ZEFSAII (Michael W. Deem and Ramdas Pophale) SiO2 
 PCOD9232261
Probable space group: P 2/C
;
_chemical_formula_sum "Si O2"
_cell_formula_units_Z 20
_cell_length_a 7.348838
_cell_length_b 21.240109
_cell_length_c 8.332751
_cell_angle_alpha 90.000000
_cell_angle_beta 37.785042
_cell_angle_gamma 90.000000
_cell_volume 796.915422
_symmetry_space_group_name_H-M "P 2/C"
_symmetry_group_IT_number 13
_symmetry_cell_setting 'monoclinic'
loop_
_space_group_symop_operation_xyz
x,y,z
-x,y,1/2-z
-x,-y,-z
x,-y,1/2+z
loop_
_atom_site_type_symbol
_atom_site_label
_atom_site_fract_x
_atom_site_fract_y
_atom_site_fract_z
Si Si1 0.343121 0.749038 0.183725
Si Si2 0.720570 0.042728 0.237618
Si Si3 0.158231 0.184885 0.303957
Si Si4 0.116775 0.434146 0.852173
Si Si5 0.607794 0.621488 0.856193
O O1 0.498575 0.800895 0.963241
O O2 0.444149 0.684754 0.027911
O O3 0.500000 0.747954 0.250000
O O4 0.007825 0.772446 0.448102
O O5 0.500000 0.059991 0.250000
O O6 0.867341 0.109876 0.176161
O O7 0.500000 0.000000 0.500000
O O8 0.000000 0.000000 0.000000
O O9 0.000000 0.205922 0.250000
O O10 0.470030 0.427684 0.579891
O O11 0.000000 0.426343 0.750000
O O12 0.000000 0.500000 0.000000
O O13 0.961852 0.382942 0.080044
O O14 0.500000 0.607998 0.750000
#
# Coordination Sequence:
#
# PCOD9232261 Si02
#       5
#     4   4   4   4   4
#     4  10  21  37  60  86 115 155 200 246 301 366
#     4  12  25  43  67  96 129 169 214 263 321 385
#     4  10  21  39  61  89 123 158 202 256 308 367
#     4  10  21  36  55  80 111 149 193 244 302 363
#     4  10  21  37  55  81 116 151 191 245 306 365
#
# _framework density 25.096765999999999
#
# number of rings (size 3 to 8) (size 9 to 14) (size 15 to 20)
#    0.000    1.600    0.000    4.800    0.000    4.000 
#    0.000    2.000    0.000    0.000    0.000    0.000 
#    0.000    0.000    0.000    0.000    0.000    0.000 
#
# Total GULP energy -111586.801530 kJ/mol
# GULP energy per Si atom -5579.340077 kJ/mol
# Density = 2.503964 g / cm^3
# Si number density = 25.096766 Si / 1000 Ang^3
#
#
#
# Elastic Constant Matrix: (Units=GPa)
#
#
# Indices 1 2 3 4 5 6 
#
# 1 58.7152 -22.6932 25.9818 0.0000 -0.8690 0.0000
# 2 -22.6932 141.1790 80.5413 0.0000 16.2364 0.0000
# 3 25.9818 80.5413 248.8230 0.0000 2.4598 0.0000
# 4 0.0000 0.0000 0.0000 52.1572 0.0000 3.6333
# 5 -0.8690 16.2364 2.4598 0.0000 27.8111 0.0000
# 6 0.0000 0.0000 0.0000 3.6333 0.0000 23.3418
#
#
#
# Elastic Compliance Matrix: (Units=1/GPa)
#
#
# Indices 1 2 3 4 5 6 
#
# 1 0.021170 0.006057 -0.004146 0.000000 -0.002508 0.000000
# 2 0.006057 0.011120 -0.004173 0.000000 -0.005934 0.000000
# 3 -0.004146 -0.004173 0.005785 0.000000 0.001795 0.000000
# 4 0.000000 0.000000 0.000000 0.019383 0.000000 -0.003017
# 5 -0.002508 -0.005934 0.001795 0.000000 0.039184 0.000000
# 6 0.000000 0.000000 0.000000 -0.003017 0.000000 0.043311
#
#
# Mechanical properties :
#
#
# Convention : Reuss Voigt Hill
#
# Bulk Modulus (GPa) = 29.80700 68.48635 49.14667
# Shear Modulus (GPa) = 32.12101 44.98781 38.55441
#
# Velocity S-wave (km/s) = 3.58143 4.23847 3.92373
# Velocity P-wave (km/s) = 5.38561 7.16247 6.33663
#
# Compressibility (1/GPa) = 0.03354917
#
# Stress axis : x y z
#
# Youngs Moduli (GPa) = 47.23701 89.92898 172.86316
#
# Poissons Ratio (x) = -0.54467 0.71673
# Poissons Ratio (y) = -0.28610 0.72138
# Poissons Ratio (z) = 0.19585 0.37529
#
# Static dielectric constant tensor:
#      x y z
#    x 2.028520 0.000000 -0.032100 
#    y 0.000000 2.066610 0.000000 
#    z -0.032100 0.000000 2.010040 
# 
# From -- ./inp_files/13751.got.cif
#   From: 2010.05.17/outbox.cif.g08.bks.cpg/sg13_7_cif.got.tgz:13751.got - 2010.06.03 16:44:36.
