data_PCOD9232868
_publ_section_title
;
Structure prediction by ZEFSAII (Michael W. Deem and Ramdas Pophale) SiO2 
 PCOD9232868
Probable space group: P 2/C
;
_chemical_formula_sum "Si O2"
_cell_formula_units_Z 28
_cell_length_a 30.402540
_cell_length_b 8.653976
_cell_length_c 30.792872
_cell_angle_alpha 90.000000
_cell_angle_beta 170.084525
_cell_angle_gamma 90.000000
_cell_volume 1395.072239
_symmetry_space_group_name_H-M "P 2/C"
_symmetry_group_IT_number 13
_symmetry_cell_setting 'monoclinic'
loop_
_space_group_symop_operation_xyz
x,y,z
-x,y,1/2-z
-x,-y,-z
x,-y,1/2+z
loop_
_atom_site_type_symbol
_atom_site_label
_atom_site_fract_x
_atom_site_fract_y
_atom_site_fract_z
Si Si1 0.613170 0.220761 0.720580
Si Si2 0.768174 0.578766 0.249053
Si Si3 0.661201 0.852061 0.362315
Si Si4 0.930663 0.483110 0.131869
Si Si5 0.130975 0.421988 0.238421
Si Si6 0.777290 0.815148 0.997558
Si Si7 0.734206 0.921158 0.251957
O O1 0.533658 0.159849 0.690890
O O2 0.368409 0.307520 0.463150
O O3 0.690625 0.091481 0.761253
O O4 0.860345 0.334462 0.966446
O O5 0.830265 0.556865 0.258655
O O6 0.751962 0.750734 0.249952
O O7 0.000000 0.500000 0.500000
O O8 0.500000 0.500000 0.000000
O O9 0.500000 0.858156 0.250000
O O10 0.800189 0.685739 0.501262
O O11 0.806018 0.017950 0.501949
O O12 0.000000 0.491021 0.250000
O O13 0.139768 0.475782 0.297125
O O14 0.791668 0.647976 0.987695
O O15 0.500000 0.815468 0.750000
O O16 0.000000 0.815448 0.250000
O O17 0.000000 0.000000 0.500000
O O18 0.500000 0.000000 0.000000
#
# Coordination Sequence:
#
# PCOD9232868 Si02
#       7
#     4   4   4   4   4   4   4
#     4  11  23  41  65  95 131 167 217 268 326 395
#     4  12  22  43  69  89 125 172 221 266 326 401
#     4  10  21  39  66  94 129 178 217 262 330 391
#     4  10  21  38  64  95 133 168 220 269 324 387
#     4  11  22  40  67  96 120 173 221 264 323 394
#     4  10  22  39  60  89 128 171 215 267 321 379
#     4  12  25  42  65  98 134 169 213 281 344 390
#
# _framework density 20.070646
#
# number of rings (size 3 to 8) (size 9 to 14) (size 15 to 20)
#    0.000    1.143    2.857    3.429    0.000    8.000 
#    0.000    7.143    0.000    0.000    0.000    0.000 
#    0.000    0.000    0.000    0.000    0.000    0.000 
#
# Total GULP energy -156051.679173 kJ/mol
# GULP energy per Si atom -5573.274256 kJ/mol
# Density = 2.002496 g / cm^3
# Si number density = 20.070646 Si / 1000 Ang^3
#
#
#
# Elastic Constant Matrix: (Units=GPa)
#
#
# Indices 1 2 3 4 5 6 
#
# 1 151.5083 18.9399 9.0243 0.0000 2.7247 0.0000
# 2 18.9399 159.7537 33.3951 0.0000 3.7487 0.0000
# 3 9.0243 33.3951 104.1378 0.0000 12.5155 0.0000
# 4 0.0000 0.0000 0.0000 34.6247 0.0000 1.8558
# 5 2.7247 3.7487 12.5155 0.0000 23.7328 0.0000
# 6 0.0000 0.0000 0.0000 1.8558 0.0000 -0.6554
#
#
#
# Elastic Compliance Matrix: (Units=1/GPa)
#
#
# Indices 1 2 3 4 5 6 
#
# 1 0.006717 -0.000724 -0.000289 0.000000 -0.000504 0.000000
# 2 -0.000724 0.006788 -0.002130 0.000000 0.000134 0.000000
# 3 -0.000289 -0.002130 0.010961 0.000000 -0.005411 0.000000
# 4 0.000000 0.000000 0.000000 0.025075 0.000000 0.071004
# 5 -0.000504 0.000134 -0.005411 0.000000 0.045026 0.000000
# 6 0.000000 0.000000 0.000000 0.071004 0.000000 -1.324736
#
#
# Mechanical properties :
#
#
# Convention : Reuss Voigt Hill
#
# Bulk Modulus (GPa) = 55.00860 59.79093 57.39976
# Shear Modulus (GPa) = -4.10569 35.14313 15.51872
#
# Velocity S-wave (km/s) = -1.43180 4.18900 2.78367
# Velocity P-wave (km/s) = 4.97329 7.29739 6.24442
#
# Compressibility (1/GPa) = 0.01817898
#
# Stress axis : x y z
#
# Youngs Moduli (GPa) = 148.87353 147.32763 91.23202
#
# Poissons Ratio (x) = 0.10667 0.02639
# Poissons Ratio (y) = 0.10779 0.19433
# Poissons Ratio (z) = 0.04307 0.31382
#
# Static dielectric constant tensor:
#      x y z
#    x 1.672060 0.000000 0.048050 
#    y 0.000000 1.740210 0.000000 
#    z 0.048050 0.000000 1.636000 
# 
# From -- ./inp_files/98110.got.cif
#   From: 2010.05.17/outbox.cif.g08.bks.cpg/sg13_50_cif.got.tgz:98110.got - 2010.06.03 16:44:36.
