data_PCOD9232206
_publ_section_title
;
Structure prediction by ZEFSAII (Michael W. Deem and Ramdas Pophale) SiO2 
 PCOD9232206
Probable space group: P 2/C
;
_chemical_formula_sum "Si O2"
_cell_formula_units_Z 32
_cell_length_a 7.412727
_cell_length_b 12.764853
_cell_length_c 23.799993
_cell_angle_alpha 90.000000
_cell_angle_beta 145.243570
_cell_angle_gamma 90.000000
_cell_volume 1283.847058
_symmetry_space_group_name_H-M "P 2/C"
_symmetry_group_IT_number 13
_symmetry_cell_setting 'monoclinic'
loop_
_space_group_symop_operation_xyz
x,y,z
-x,y,1/2-z
-x,-y,-z
x,-y,1/2+z
loop_
_atom_site_type_symbol
_atom_site_label
_atom_site_fract_x
_atom_site_fract_y
_atom_site_fract_z
Si Si1 0.150366 0.157150 0.135030
Si Si2 0.433108 0.310188 0.065611
Si Si3 0.627255 0.481853 0.910298
Si Si4 0.723717 0.097525 0.134256
Si Si5 0.218920 0.871177 0.362202
Si Si6 0.296730 0.287976 0.641721
Si Si7 0.672355 0.681675 0.507969
Si Si8 0.193793 0.933137 0.133664
O O1 0.500000 0.175958 0.250000
O O2 0.903611 0.127640 0.122525
O O3 0.002474 0.264421 0.072588
O O4 0.139029 0.049668 0.096084
O O5 0.512974 0.402234 0.129755
O O6 0.493876 0.189347 0.095853
O O7 0.662205 0.328739 0.071725
O O8 0.073163 0.319388 0.951043
O O9 0.538524 0.383720 0.848727
O O10 0.591605 0.430111 0.961933
O O11 0.000000 0.500000 0.000000
O O12 0.000000 0.090931 0.250000
O O13 0.590964 0.980403 0.096158
O O14 0.415429 0.766659 0.421911
O O15 0.000000 0.860255 0.250000
O O16 0.046589 0.891859 0.378856
O O17 0.500000 0.279652 0.750000
O O18 0.278137 0.166574 0.616495
O O19 0.500000 0.954518 0.250000
#
# Coordination Sequence:
#
# PCOD9232206 Si02
#       8
#     4   4   4   4   4   4   4   4
#     4   9  20  36  58  88 122 159 198 245 299 378
#     4  10  21  41  65  87 120 161 207 253 296 361
#     4  10  24  43  59  84 123 158 210 262 298 353
#     4   9  20  38  63  89 125 162 200 246 308 361
#     4  10  21  35  60  96 129 155 197 250 301 377
#     4  10  21  38  62  88 120 161 197 250 311 363
#     4  11  22  37  64  89 119 160 205 249 315 355
#     4   9  18  34  58  85 127 156 190 237 309 362
#
# _framework density 24.925087999999999
#
# number of rings (size 3 to 8) (size 9 to 14) (size 15 to 20)
#    0.000    2.250    1.250    0.375    5.250    3.500 
#    0.000   10.000    0.000    0.000    0.000    0.000 
#    0.000    0.000    0.000    0.000    0.000    0.000 
#
# Total GULP energy -178564.097834 kJ/mol
# GULP energy per Si atom -5580.128057 kJ/mol
# Density = 2.486836 g / cm^3
# Si number density = 24.925088 Si / 1000 Ang^3
#
#
#
# Elastic Constant Matrix: (Units=GPa)
#
#
# Indices 1 2 3 4 5 6 
#
# 1 45.6029 42.4331 -2.0686 0.0000 -0.7092 0.0000
# 2 42.4331 178.8794 19.5260 0.0000 4.7445 0.0000
# 3 -2.0686 19.5260 71.4787 0.0000 10.3591 0.0000
# 4 0.0000 0.0000 0.0000 -25.4667 0.0000 11.7643
# 5 -0.7092 4.7445 10.3591 0.0000 28.6896 0.0000
# 6 0.0000 0.0000 0.0000 11.7643 0.0000 39.5211
#
#
#
# Elastic Compliance Matrix: (Units=1/GPa)
#
#
# Indices 1 2 3 4 5 6 
#
# 1 0.028685 -0.007117 0.002639 0.000000 0.000933 0.000000
# 2 -0.007117 0.007533 -0.002171 0.000000 -0.000638 0.000000
# 3 0.002639 -0.002171 0.015404 0.000000 -0.005138 0.000000
# 4 0.000000 0.000000 0.000000 -0.034520 0.000000 0.010276
# 5 0.000933 -0.000638 -0.005138 0.000000 0.036839 0.000000
# 6 0.000000 0.000000 0.000000 0.010276 0.000000 0.022244
#
#
# Mechanical properties :
#
#
# Convention : Reuss Voigt Hill
#
# Bulk Modulus (GPa) = 26.09381 46.19355 36.14368
# Shear Modulus (GPa) = 48.89528 24.28686 36.59107
#
# Velocity S-wave (km/s) = 4.43390 3.12491 3.83566
# Velocity P-wave (km/s) = 6.05840 5.62079 5.84370
#
# Compressibility (1/GPa) = 0.03832327
#
# Stress axis : x y z
#
# Youngs Moduli (GPa) = 34.86093 132.75509 64.91695
#
# Poissons Ratio (x) = 0.94488 -0.17133
# Poissons Ratio (y) = 0.24812 0.14095
# Poissons Ratio (z) = -0.09201 0.28825
#
# Static dielectric constant tensor:
#      x y z
#    x 3.719870 0.000000 0.181460 
#    y 0.000000 2.019050 0.000000 
#    z 0.181460 0.000000 1.992820 
# 
# From -- ./inp_files/96156.got.cif
#   From: 2010.05.17/outbox.cif.g08.bks.cpg/sg13_49_cif.got.tgz:96156.got - 2010.06.03 16:44:36.
