data_PCOD9232751
_publ_section_title
;
Structure prediction by ZEFSAII (Michael W. Deem and Ramdas Pophale) SiO2 
 PCOD9232751
Probable space group: P 2/C
;
_chemical_formula_sum "Si O2"
_cell_formula_units_Z 28
_cell_length_a 7.448096
_cell_length_b 6.990408
_cell_length_c 30.161157
_cell_angle_alpha 90.000000
_cell_angle_beta 123.273775
_cell_angle_gamma 90.000000
_cell_volume 1312.902543
_symmetry_space_group_name_H-M "P 2/C"
_symmetry_group_IT_number 13
_symmetry_cell_setting 'monoclinic'
loop_
_space_group_symop_operation_xyz
x,y,z
-x,y,1/2-z
-x,-y,-z
x,-y,1/2+z
loop_
_atom_site_type_symbol
_atom_site_label
_atom_site_fract_x
_atom_site_fract_y
_atom_site_fract_z
Si Si1 0.296356 0.404987 0.574849
Si Si2 0.991228 0.688480 0.296929
Si Si3 0.931306 0.279952 0.043755
Si Si4 0.759797 0.406723 0.114839
Si Si5 0.265703 0.925323 0.818982
Si Si6 0.235733 0.974438 0.118186
Si Si7 0.258686 0.018992 0.221207
O O1 0.128251 0.572070 0.563541
O O2 0.531155 0.493809 0.596239
O O3 0.218416 0.300117 0.519336
O O4 0.272505 0.246366 0.610196
O O5 0.058127 0.557424 0.346128
O O6 0.000000 0.591274 0.250000
O O7 0.154230 0.871648 0.316378
O O8 0.763823 0.792929 0.270859
O O9 0.049245 0.075794 0.064651
O O10 0.797255 0.339461 0.069559
O O11 0.789493 0.230128 0.152080
O O12 0.524556 0.941869 0.855431
O O13 0.196295 0.881979 0.758831
O O14 0.168195 0.025179 0.159485
O O15 0.500000 0.082365 0.250000
#
# Coordination Sequence:
#
# PCOD9232751 Si02
#       7
#     4   4   4   4   4   4   4
#     4  11  24  44  65  93 132 167 225 273 317 386
#     4  10  21  38  60  90 124 167 208 255 323 386
#     4  11  25  41  65  97 126 171 220 273 326 381
#     4  12  23  41  67  93 130 173 213 272 332 386
#     4  10  21  39  63  92 130 164 209 265 318 391
#     4  11  20  42  66  89 128 174 206 268 329 378
#     4   9  20  37  65  90 124 164 206 259 317 382
#
# _framework density 21.326794
#
# number of rings (size 3 to 8) (size 9 to 14) (size 15 to 20)
#    0.000    1.429    2.857    2.571    0.000    2.857 
#    0.000    0.714    0.000    0.000    0.000    0.000 
#    0.000    0.000    0.000    0.000    0.000    0.000 
#
# Total GULP energy -156092.270537 kJ/mol
# GULP energy per Si atom -5574.723948 kJ/mol
# Density = 2.127825 g / cm^3
# Si number density = 21.326794 Si / 1000 Ang^3
#
#
#
# Elastic Constant Matrix: (Units=GPa)
#
#
# Indices 1 2 3 4 5 6 
#
# 1 101.1506 14.5559 16.4999 0.0000 -17.5155 0.0000
# 2 14.5559 43.7759 9.7104 0.0000 -5.7771 0.0000
# 3 16.4999 9.7104 78.9919 0.0000 -15.6067 0.0000
# 4 0.0000 0.0000 0.0000 26.4656 0.0000 -2.2291
# 5 -17.5155 -5.7771 -15.6067 0.0000 28.1217 0.0000
# 6 0.0000 0.0000 0.0000 -2.2291 0.0000 22.8869
#
#
#
# Elastic Compliance Matrix: (Units=1/GPa)
#
#
# Indices 1 2 3 4 5 6 
#
# 1 0.011488 -0.002827 -0.000846 0.000000 0.006105 0.000000
# 2 -0.002827 0.024512 -0.001994 0.000000 0.002168 0.000000
# 3 -0.000846 -0.001994 0.014485 0.000000 0.007102 0.000000
# 4 0.000000 0.000000 0.000000 0.038097 0.000000 0.003711
# 5 0.006105 0.002168 0.007102 0.000000 0.043749 0.000000
# 6 0.000000 0.000000 0.000000 0.003711 0.000000 0.044054
#
#
# Mechanical properties :
#
#
# Convention : Reuss Voigt Hill
#
# Bulk Modulus (GPa) = 25.54226 33.93898 29.74062
# Shear Modulus (GPa) = 24.90412 27.70499 26.30456
#
# Velocity S-wave (km/s) = 3.42093 3.60817 3.51580
# Velocity P-wave (km/s) = 5.25417 5.77121 5.51875
#
# Compressibility (1/GPa) = 0.03915080
#
# Stress axis : x y z
#
# Youngs Moduli (GPa) = 87.04588 40.79634 69.03913
#
# Poissons Ratio (x) = 0.11531 0.05840
# Poissons Ratio (y) = 0.24604 0.13769
# Poissons Ratio (z) = 0.07364 0.08137
#
# Static dielectric constant tensor:
#      x y z
#    x 1.868580 0.000000 -0.009080 
#    y 0.000000 1.766960 0.000000 
#    z -0.009080 0.000000 1.791270 
# 
# From -- ./inp_files/95714.got.cif
#   From: 2010.05.17/outbox.cif.g08.bks.cpg/sg13_48_cif.got.tgz:95714.got - 2010.06.03 16:44:36.
