data_PCOD9232161
_publ_section_title
;
Structure prediction by ZEFSAII (Michael W. Deem and Ramdas Pophale) SiO2 
 PCOD9232161
Probable space group: P 2/C
;
_chemical_formula_sum "Si O2"
_cell_formula_units_Z 16
_cell_length_a 5.506190
_cell_length_b 13.160852
_cell_length_c 16.126096
_cell_angle_alpha 90.000000
_cell_angle_beta 146.690184
_cell_angle_gamma 90.000000
_cell_volume 641.753258
_symmetry_space_group_name_H-M "P 2/C"
_symmetry_group_IT_number 13
_symmetry_cell_setting 'monoclinic'
loop_
_space_group_symop_operation_xyz
x,y,z
-x,y,1/2-z
-x,-y,-z
x,-y,1/2+z
loop_
_atom_site_type_symbol
_atom_site_label
_atom_site_fract_x
_atom_site_fract_y
_atom_site_fract_z
Si Si1 0.114752 0.417244 0.895440
Si Si2 0.420698 0.400898 0.318018
Si Si3 0.386970 0.804783 0.418688
Si Si4 0.077804 0.892291 0.065762
O O1 0.254544 0.311970 0.895319
O O2 0.722395 0.481293 0.742416
O O3 0.500000 0.500000 0.000000
O O4 0.144927 0.393665 0.002110
O O5 0.500000 0.356125 0.250000
O O6 0.000000 0.357867 0.250000
O O7 0.809737 0.820131 0.480862
O O8 0.000000 0.850454 0.250000
O O9 0.331747 0.857952 0.492570
O O10 0.500000 0.891578 0.250000
O O11 0.000000 0.000000 0.000000
#
# Coordination Sequence:
#
# PCOD9232161 Si02
#       4
#     4   4   4   4
#     4  10  21  38  58  85 122 160 197 236 277 338
#     4  10  21  35  54  78 114 159 198 236 277 322
#     4  10  21  37  62  89 116 156 196 230 288 357
#     4  10  22  42  65  88 114 147 192 246 298 349
#
# _framework density 24.931699999999999
#
# number of rings (size 3 to 8) (size 9 to 14) (size 15 to 20)
#    0.000    2.000    0.000    3.750    0.000   11.000 
#    0.000    8.750    0.000    0.000    0.000    0.000 
#    0.000    0.000    0.000    0.000    0.000    0.000 
#
# Total GULP energy -89205.786852 kJ/mol
# GULP energy per Si atom -5575.361678 kJ/mol
# Density = 2.487495 g / cm^3
# Si number density = 24.931700 Si / 1000 Ang^3
#
#
#
# Elastic Constant Matrix: (Units=GPa)
#
#
# Indices 1 2 3 4 5 6 
#
# 1 229.0615 58.1944 43.7212 0.0000 -41.2147 0.0000
# 2 58.1944 109.4471 14.7862 0.0000 -20.6214 0.0000
# 3 43.7212 14.7862 79.6729 0.0000 -19.8470 0.0000
# 4 0.0000 0.0000 0.0000 27.0544 0.0000 -11.7224
# 5 -41.2147 -20.6214 -19.8470 0.0000 39.8407 0.0000
# 6 0.0000 0.0000 0.0000 -11.7224 0.0000 32.1398
#
#
#
# Elastic Compliance Matrix: (Units=1/GPa)
#
#
# Indices 1 2 3 4 5 6 
#
# 1 0.006023 -0.002163 -0.001862 0.000000 0.004184 0.000000
# 2 -0.002163 0.010931 0.000012 0.000000 0.003426 0.000000
# 3 -0.001862 0.000012 0.014947 0.000000 0.005526 0.000000
# 4 0.000000 0.000000 0.000000 0.043900 0.000000 0.016012
# 5 0.004184 0.003426 0.005526 0.000000 0.033955 0.000000
# 6 0.000000 0.000000 0.000000 0.016012 0.000000 0.036954
#
#
# Mechanical properties :
#
#
# Convention : Reuss Voigt Hill
#
# Bulk Modulus (GPa) = 41.88303 72.39835 57.14069
# Shear Modulus (GPa) = 30.73236 39.90563 35.31900
#
# Velocity S-wave (km/s) = 3.51474 4.00509 3.76790
# Velocity P-wave (km/s) = 5.77120 7.10559 6.47287
#
# Compressibility (1/GPa) = 0.02387602
#
# Stress axis : x y z
#
# Youngs Moduli (GPa) = 166.02204 91.48484 66.90131
#
# Poissons Ratio (x) = 0.19786 0.12455
# Poissons Ratio (y) = 0.35907 -0.00078
# Poissons Ratio (z) = 0.30907 -0.00107
#
# Static dielectric constant tensor:
#      x y z
#    x 2.232860 0.000000 -0.017980 
#    y 0.000000 1.962870 0.000000 
#    z -0.017980 0.000000 2.094710 
# 
# From -- ./inp_files/43400.got.cif
#   From: 2010.05.17/outbox.cif.g08.bks.cpg/sg13_22_cif.got.tgz:43400.got - 2010.06.03 16:44:36.
