data_PCOD9232728
_publ_section_title
;
Structure prediction by ZEFSAII (Michael W. Deem and Ramdas Pophale) SiO2 
 PCOD9232728
Probable space group: P 2/C
;
_chemical_formula_sum "Si O2"
_cell_formula_units_Z 24
_cell_length_a 15.698922
_cell_length_b 8.914645
_cell_length_c 17.776729
_cell_angle_alpha 90.000000
_cell_angle_beta 149.262323
_cell_angle_gamma 90.000000
_cell_volume 1271.565148
_symmetry_space_group_name_H-M "P 2/C"
_symmetry_group_IT_number 13
_symmetry_cell_setting 'monoclinic'
loop_
_space_group_symop_operation_xyz
x,y,z
-x,y,1/2-z
-x,-y,-z
x,-y,1/2+z
loop_
_atom_site_type_symbol
_atom_site_label
_atom_site_fract_x
_atom_site_fract_y
_atom_site_fract_z
Si Si1 0.490072 0.047059 0.079992
Si Si2 0.150893 0.579829 0.573089
Si Si3 0.160114 0.061265 0.078431
Si Si4 0.825774 0.085888 0.073459
Si Si5 0.832491 0.562224 0.575580
Si Si6 0.513106 0.622834 0.852315
O O1 0.667981 0.007871 0.252646
O O2 0.469222 0.223029 0.087535
O O3 0.500000 0.000000 0.000000
O O4 0.331877 0.966141 0.997351
O O5 0.146654 0.759291 0.573325
O O6 0.138559 0.525050 0.479067
O O7 0.339227 0.543785 0.742446
O O8 0.000000 0.500000 0.500000
O O9 0.164634 0.007655 0.995968
O O10 0.000000 0.000000 0.000000
O O11 0.804383 0.261992 0.039786
O O12 0.000000 0.066931 0.250000
O O13 0.668997 0.484484 0.485682
O O14 0.000000 0.547641 0.750000
O O15 0.500000 0.652770 0.750000
#
# Coordination Sequence:
#
# PCOD9232728 Si02
#       6
#     4   4   4   4   4   4
#     4  11  23  39  60  88 119 154 197 245 294 351
#     4  10  21  38  60  85 116 150 191 240 289 348
#     4  11  23  39  62  90 119 156 197 241 295 353
#     4  11  23  40  60  88 122 155 197 246 290 348
#     4  10  22  38  59  85 115 152 194 240 292 346
#     4   9  20  40  60  82 115 155 194 240 293 350
#
# _framework density 18.874376999999999
#
# number of rings (size 3 to 8) (size 9 to 14) (size 15 to 20)
#    0.000    1.667    0.000    5.500    0.000   13.333 
#    0.000    1.667    0.000    0.000    0.000    0.000 
#    0.000    0.000    0.000    0.000    0.000    0.000 
#
# Total GULP energy -133966.379809 kJ/mol
# GULP energy per Si atom -5581.932492 kJ/mol
# Density = 1.883142 g / cm^3
# Si number density = 18.874377 Si / 1000 Ang^3
#
#
#
# Elastic Constant Matrix: (Units=GPa)
#
#
# Indices 1 2 3 4 5 6 
#
# 1 126.7921 37.1188 56.8867 0.0000 27.9717 0.0000
# 2 37.1188 66.0458 57.8956 0.0000 13.2870 0.0000
# 3 56.8867 57.8956 103.7896 0.0000 26.4648 0.0000
# 4 0.0000 0.0000 0.0000 33.3716 0.0000 8.3178
# 5 27.9717 13.2870 26.4648 0.0000 41.8270 0.0000
# 6 0.0000 0.0000 0.0000 8.3178 0.0000 36.9309
#
#
#
# Elastic Compliance Matrix: (Units=1/GPa)
#
#
# Indices 1 2 3 4 5 6 
#
# 1 0.011187 -0.001977 -0.003913 0.000000 -0.004378 0.000000
# 2 -0.001977 0.030033 -0.016185 0.000000 0.002022 0.000000
# 3 -0.003913 -0.016185 0.022452 0.000000 -0.006448 0.000000
# 4 0.000000 0.000000 0.000000 0.031748 0.000000 -0.007150
# 5 -0.004378 0.002022 -0.006448 0.000000 0.030273 0.000000
# 6 0.000000 0.000000 0.000000 -0.007150 0.000000 0.028688
#
#
# Mechanical properties :
#
#
# Convention : Reuss Voigt Hill
#
# Bulk Modulus (GPa) = 51.22229 66.71441 58.96835
# Shear Modulus (GPa) = 24.38589 32.07431 28.23010
#
# Velocity S-wave (km/s) = 3.59835 4.12680 3.87160
# Velocity P-wave (km/s) = 6.66796 7.62434 7.16213
#
# Compressibility (1/GPa) = 0.01952275
#
# Stress axis : x y z
#
# Youngs Moduli (GPa) = 89.39118 33.29675 44.53999
#
# Poissons Ratio (x) = 0.06582 0.17426
# Poissons Ratio (y) = 0.17670 0.72088
# Poissons Ratio (z) = 0.34975 0.53891
#
# Static dielectric constant tensor:
#      x y z
#    x 1.641540 0.000000 0.012470 
#    y 0.000000 1.644510 0.000000 
#    z 0.012470 0.000000 1.666480 
# 
# From -- ./inp_files/68103.got.cif
#   From: 2010.05.17/outbox.cif.g08.bks.cpg/sg13_35_cif.got.tgz:68103.got - 2010.06.03 16:44:36.
