data_PCOD9232974
_publ_section_title
;
Structure prediction by ZEFSAII (Michael W. Deem and Ramdas Pophale) SiO2 
 PCOD9232974
Probable space group: P 2/C
;
_chemical_formula_sum "Si O2"
_cell_formula_units_Z 22
_cell_length_a 11.988600
_cell_length_b 6.608381
_cell_length_c 11.527728
_cell_angle_alpha 90.000000
_cell_angle_beta 71.484505
_cell_angle_gamma 90.000000
_cell_volume 866.013242
_symmetry_space_group_name_H-M "P 2/C"
_symmetry_group_IT_number 13
_symmetry_cell_setting 'monoclinic'
loop_
_space_group_symop_operation_xyz
x,y,z
-x,y,1/2-z
-x,-y,-z
x,-y,1/2+z
loop_
_atom_site_type_symbol
_atom_site_label
_atom_site_fract_x
_atom_site_fract_y
_atom_site_fract_z
Si Si1 0.500000 0.466304 0.250000
Si Si2 0.268888 0.211615 0.632684
Si Si3 0.868015 0.516040 0.139252
Si Si4 0.038259 0.874152 0.101784
Si Si5 0.331687 0.426994 0.981105
Si Si6 0.711965 0.198977 0.274918
O O1 0.555863 0.609295 0.134833
O O2 0.608946 0.321425 0.245216
O O3 0.194848 0.372311 0.731691
O O4 0.178284 0.120627 0.569018
O O5 0.355738 0.353611 0.532767
O O6 0.302253 0.040622 0.713780
O O7 0.786634 0.560975 0.055805
O O8 0.837584 0.283321 0.184918
O O9 0.989198 0.643945 0.094985
O O10 0.000000 0.928938 0.250000
O O11 0.000000 0.000000 0.000000
O O12 0.308036 0.265072 0.086349
#
# Coordination Sequence:
#
# PCOD9232974 Si02
#       6
#     2   4   4   4   4   4
#     4  10  22  38  60  90 122 164 214 262 330 390
#     4  10  22  40  62  92 127 165 214 267 328 393
#     4   9  21  40  61  90 128 168 209 261 327 392
#     4  10  21  39  64  96 131 173 218 264 324 392
#     4  10  21  39  61  86 121 163 211 268 323 384
#     4  10  21  40  62  87 126 168 209 265 320 386
#
# _framework density 25.403769
#
# number of rings (size 3 to 8) (size 9 to 14) (size 15 to 20)
#    0.000    2.182    0.000    1.636    0.000   10.182 
#    0.000   26.364    0.000    0.000    0.000    0.000 
#    0.000    0.000    0.000    0.000    0.000    0.000 
#
# Total GULP energy -122783.999301 kJ/mol
# GULP energy per Si atom -5581.090877 kJ/mol
# Density = 2.534595 g / cm^3
# Si number density = 25.403769 Si / 1000 Ang^3
#
#
#
# Elastic Constant Matrix: (Units=GPa)
#
#
# Indices 1 2 3 4 5 6 
#
# 1 98.3344 18.0505 25.2237 0.0000 11.5233 0.0000
# 2 18.0505 75.6298 24.6676 0.0000 -4.2154 0.0000
# 3 25.2237 24.6676 73.8450 0.0000 14.0032 0.0000
# 4 0.0000 0.0000 0.0000 28.5567 0.0000 19.2431
# 5 11.5233 -4.2154 14.0032 0.0000 49.2771 0.0000
# 6 0.0000 0.0000 0.0000 19.2431 0.0000 21.5456
#
#
#
# Elastic Compliance Matrix: (Units=1/GPa)
#
#
# Indices 1 2 3 4 5 6 
#
# 1 0.011503 -0.001910 -0.002907 0.000000 -0.002027 0.000000
# 2 -0.001910 0.015540 -0.005153 0.000000 0.003240 0.000000
# 3 -0.002907 -0.005153 0.017134 0.000000 -0.004630 0.000000
# 4 0.000000 0.000000 0.000000 0.087951 0.000000 -0.078552
# 5 -0.002027 0.003240 -0.004630 0.000000 0.022360 0.000000
# 6 0.000000 0.000000 0.000000 -0.078552 0.000000 0.116570
#
#
# Mechanical properties :
#
#
# Convention : Reuss Voigt Hill
#
# Bulk Modulus (GPa) = 41.25920 42.63254 41.94587
# Shear Modulus (GPa) = 16.71810 31.86702 24.29256
#
# Velocity S-wave (km/s) = 2.56812 3.54562 3.09570
# Velocity P-wave (km/s) = 5.00702 5.79485 5.41528
#
# Compressibility (1/GPa) = 0.02423702
#
# Stress axis : x y z
#
# Youngs Moduli (GPa) = 86.93213 64.35199 58.36350
#
# Poissons Ratio (x) = 0.12294 0.16964
# Poissons Ratio (y) = 0.16608 0.30074
# Poissons Ratio (z) = 0.25268 0.33159
#
# Static dielectric constant tensor:
#      x y z
#    x 2.027710 0.000000 -0.014290 
#    y 0.000000 2.061300 0.000000 
#    z -0.014290 0.000000 2.115410 
# 
# From -- ./inp_files/35353.got.cif
#   From: 2010.05.17/outbox.cif.g08.bks.cpg/sg13_18_cif.got.tgz:35353.got - 2010.06.03 16:44:36.
