data_PCOD9232416
_publ_section_title
;
Structure prediction by ZEFSAII (Michael W. Deem and Ramdas Pophale) SiO2 
 PCOD9232416
Probable space group: P 2/C
;
_chemical_formula_sum "Si O2"
_cell_formula_units_Z 22
_cell_length_a 4.992189
_cell_length_b 10.609253
_cell_length_c 17.131014
_cell_angle_alpha 90.000000
_cell_angle_beta 64.706697
_cell_angle_gamma 90.000000
_cell_volume 820.334494
_symmetry_space_group_name_H-M "P 2/C"
_symmetry_group_IT_number 13
_symmetry_cell_setting 'monoclinic'
loop_
_space_group_symop_operation_xyz
x,y,z
-x,y,1/2-z
-x,-y,-z
x,-y,1/2+z
loop_
_atom_site_type_symbol
_atom_site_label
_atom_site_fract_x
_atom_site_fract_y
_atom_site_fract_z
Si Si1 0.977376 0.041966 0.089817
Si Si2 0.401887 0.327821 0.566700
Si Si3 0.000000 0.691320 0.250000
Si Si4 0.179299 0.545434 0.367749
Si Si5 0.329853 0.965709 0.681893
Si Si6 0.382224 0.726202 0.888591
O O1 0.274665 0.012115 0.097482
O O2 0.659522 0.987073 0.162688
O O3 0.906332 0.190123 0.095365
O O4 0.000000 0.000000 0.000000
O O5 0.180668 0.448879 0.581150
O O6 0.690124 0.365271 0.580113
O O7 0.429012 0.275051 0.476582
O O8 0.205278 0.249234 0.656480
O O9 0.206768 0.603168 0.277547
O O10 0.326013 0.411427 0.362681
O O11 0.632667 0.812969 0.816851
O O12 0.000000 0.999577 0.750000
#
# Coordination Sequence:
#
# PCOD9232416 Si02
#       6
#     4   4   2   4   4   4
#     4  10  23  43  67  93 126 170 209 273 337 403
#     4  10  21  37  56  87 128 177 216 262 309 379
#     4   8  22  34  58  78 138 166 226 258 316 358
#     4  10  21  37  55  89 126 178 215 266 311 378
#     4  10  23  41  65  99 131 162 208 272 335 395
#     4  10  24  36  68  88 134 166 222 262 333 391
#
# _framework density 26.81833
#
# number of rings (size 3 to 8) (size 9 to 14) (size 15 to 20)
#    2.182    0.000    0.000    2.727    5.091    0.000 
#    9.818    0.000    2.000    0.000    0.000    0.000 
#    0.000    1.455    0.000    0.000    0.000    0.000 
#
# Total GULP energy -122600.828840 kJ/mol
# GULP energy per Si atom -5572.764947 kJ/mol
# Density = 2.675729 g / cm^3
# Si number density = 26.818330 Si / 1000 Ang^3
#
#
#
# Elastic Constant Matrix: (Units=GPa)
#
#
# Indices 1 2 3 4 5 6 
#
# 1 165.8015 12.0605 38.3150 0.0000 39.6680 0.0000
# 2 12.0605 71.7048 18.8488 0.0000 6.6080 0.0000
# 3 38.3150 18.8488 115.6771 0.0000 15.8644 0.0000
# 4 0.0000 0.0000 0.0000 19.2395 0.0000 -10.6838
# 5 39.6680 6.6080 15.8644 0.0000 61.8329 0.0000
# 6 0.0000 0.0000 0.0000 -10.6838 0.0000 17.1597
#
#
#
# Elastic Compliance Matrix: (Units=1/GPa)
#
#
# Indices 1 2 3 4 5 6 
#
# 1 0.007514 -0.000384 -0.001835 0.000000 -0.004309 0.000000
# 2 -0.000384 0.014648 -0.002154 0.000000 -0.000766 0.000000
# 3 -0.001835 -0.002154 0.009754 0.000000 -0.001095 0.000000
# 4 0.000000 0.000000 0.000000 0.079443 0.000000 0.049462
# 5 -0.004309 -0.000766 -0.001095 0.000000 0.019300 0.000000
# 6 0.000000 0.000000 0.000000 0.049462 0.000000 0.089071
#
#
# Mechanical properties :
#
#
# Convention : Reuss Voigt Hill
#
# Bulk Modulus (GPa) = 43.16376 54.62577 48.89476
# Shear Modulus (GPa) = 21.16849 38.57703 29.87276
#
# Velocity S-wave (km/s) = 2.81255 3.79681 3.34112
# Velocity P-wave (km/s) = 5.16498 6.29556 5.75809
#
# Compressibility (1/GPa) = 0.02316758
#
# Stress axis : x y z
#
# Youngs Moduli (GPa) = 133.08047 68.27042 102.52347
#
# Poissons Ratio (x) = 0.02624 0.18817
# Poissons Ratio (y) = 0.05115 0.22087
# Poissons Ratio (z) = 0.24425 0.14708
#
# Static dielectric constant tensor:
#      x y z
#    x 2.065730 0.000000 -0.097880 
#    y 0.000000 2.165990 0.000000 
#    z -0.097880 0.000000 2.278070 
# 
# From -- ./inp_files/43875.got.cif
#   From: 2010.05.17/outbox.cif.g08.bks.cpg/sg13_22_cif.got.tgz:43875.got - 2010.06.03 16:44:36.
