data_PCOD9232892
_publ_section_title
;
Structure prediction by ZEFSAII (Michael W. Deem and Ramdas Pophale) SiO2 
 PCOD9232892
Probable space group: P 2/C
;
_chemical_formula_sum "Si O2"
_cell_formula_units_Z 32
_cell_length_a 8.894790
_cell_length_b 13.772738
_cell_length_c 24.673103
_cell_angle_alpha 90.000000
_cell_angle_beta 30.494653
_cell_angle_gamma 90.000000
_cell_volume 1533.839150
_symmetry_space_group_name_H-M "P 2/C"
_symmetry_group_IT_number 13
_symmetry_cell_setting 'monoclinic'
loop_
_space_group_symop_operation_xyz
x,y,z
-x,y,1/2-z
-x,-y,-z
x,-y,1/2+z
loop_
_atom_site_type_symbol
_atom_site_label
_atom_site_fract_x
_atom_site_fract_y
_atom_site_fract_z
Si Si1 0.661205 0.681530 0.328489
Si Si2 0.641345 0.009790 0.860356
Si Si3 0.856606 0.447571 0.467117
Si Si4 0.080722 0.506517 0.784938
Si Si5 0.359157 0.851667 0.236550
Si Si6 0.326973 0.176724 0.573713
Si Si7 0.678734 0.383894 0.096639
Si Si8 0.356829 0.784366 0.630707
O O1 0.442146 0.604764 0.423130
O O2 0.900411 0.609937 0.226385
O O3 0.531721 0.748554 0.321273
O O4 0.721068 0.758025 0.357873
O O5 0.553037 0.065276 0.833278
O O6 0.543454 0.076305 0.941659
O O7 0.000000 0.012938 0.750000
O O8 0.558788 0.897401 0.885737
O O9 0.855746 0.553402 0.496144
O O10 0.874781 0.460617 0.397507
O O11 0.111398 0.382064 0.416026
O O12 0.399116 0.550354 0.700262
O O13 0.000000 0.543421 0.750000
O O14 0.500000 0.871053 0.250000
O O15 0.000103 0.842836 0.349017
O O16 0.539275 0.227579 0.464090
O O17 0.542001 0.287464 0.112139
O O18 0.000000 0.773452 0.750000
#
# Coordination Sequence:
#
# PCOD9232892 Si02
#       8
#     4   4   4   4   4   4   4   4
#     4  10  23  38  63  92 119 160 212 261 312 376
#     4   8  18  41  63  95 129 161 206 259 320 378
#     4  10  24  42  59  87 130 167 204 265 320 374
#     4  11  23  39  60  85 120 161 211 262 314 374
#     4  10  21  38  66  95 126 159 211 263 312 377
#     4  10  21  39  66  92 127 163 207 269 315 371
#     4  10  24  40  60  90 125 167 208 251 320 383
#     4  11  23  38  68  96 127 168 215 253 318 388
#
# _framework density 20.862684000000002
#
# number of rings (size 3 to 8) (size 9 to 14) (size 15 to 20)
#    0.000    2.000    0.000    3.000    8.750    3.000 
#    0.000    1.875    2.750    0.000    0.000    0.000 
#    0.000    0.000    0.000    0.000    0.000    0.000 
#
# Total GULP energy -178559.199125 kJ/mol
# GULP energy per Si atom -5579.974973 kJ/mol
# Density = 2.081520 g / cm^3
# Si number density = 20.862684 Si / 1000 Ang^3
#
#
#
# Elastic Constant Matrix: (Units=GPa)
#
#
# Indices 1 2 3 4 5 6 
#
# 1 119.2491 41.5295 25.1613 0.0000 16.3570 0.0000
# 2 41.5295 133.8467 17.4054 0.0000 10.4486 0.0000
# 3 25.1613 17.4054 73.7566 0.0000 18.2268 0.0000
# 4 0.0000 0.0000 0.0000 20.2100 0.0000 -0.4701
# 5 16.3570 10.4486 18.2268 0.0000 31.8652 0.0000
# 6 0.0000 0.0000 0.0000 -0.4701 0.0000 15.1789
#
#
#
# Elastic Compliance Matrix: (Units=1/GPa)
#
#
# Indices 1 2 3 4 5 6 
#
# 1 0.010177 -0.002641 -0.002063 0.000000 -0.003178 0.000000
# 2 -0.002641 0.008476 -0.000870 0.000000 -0.000926 0.000000
# 3 -0.002063 -0.000870 0.016462 0.000000 -0.008072 0.000000
# 4 0.000000 0.000000 0.000000 0.049516 0.000000 0.001534
# 5 -0.003178 -0.000926 -0.008072 0.000000 0.037934 0.000000
# 6 0.000000 0.000000 0.000000 0.001534 0.000000 0.065929
#
#
# Mechanical properties :
#
#
# Convention : Reuss Voigt Hill
#
# Bulk Modulus (GPa) = 41.72689 55.00497 48.36593
# Shear Modulus (GPa) = 24.08106 29.63454 26.85780
#
# Velocity S-wave (km/s) = 3.40113 3.77298 3.59187
# Velocity P-wave (km/s) = 5.95548 6.73818 6.35888
#
# Compressibility (1/GPa) = 0.02396536
#
# Stress axis : x y z
#
# Youngs Moduli (GPa) = 98.26212 117.97716 60.74578
#
# Poissons Ratio (x) = 0.31161 0.12533
# Poissons Ratio (y) = 0.25954 0.05288
# Poissons Ratio (z) = 0.20273 0.10270
#
# Static dielectric constant tensor:
#      x y z
#    x 1.772930 0.000000 -0.024830 
#    y 0.000000 1.768370 0.000000 
#    z -0.024830 0.000000 1.786650 
# 
# From -- ./inp_files/85323.got.cif
#   From: 2010.05.17/outbox.cif.g08.bks.cpg/sg13_43_cif.got.tgz:85323.got - 2010.06.03 16:44:36.
