data_PCOD9232210
_publ_section_title
;
Structure prediction by ZEFSAII (Michael W. Deem and Ramdas Pophale) SiO2 
 PCOD9232210
Probable space group: P 2/C
;
_chemical_formula_sum "Si O2"
_cell_formula_units_Z 32
_cell_length_a 8.921030
_cell_length_b 11.995212
_cell_length_c 18.039070
_cell_angle_alpha 90.000000
_cell_angle_beta 132.563203
_cell_angle_gamma 90.000000
_cell_volume 1421.767172
_symmetry_space_group_name_H-M "P 2/C"
_symmetry_group_IT_number 13
_symmetry_cell_setting 'monoclinic'
loop_
_space_group_symop_operation_xyz
x,y,z
-x,y,1/2-z
-x,-y,-z
x,-y,1/2+z
loop_
_atom_site_type_symbol
_atom_site_label
_atom_site_fract_x
_atom_site_fract_y
_atom_site_fract_z
Si Si1 0.816855 0.551870 0.837958
Si Si2 0.293728 0.958652 0.231529
Si Si3 0.518588 0.104330 0.950728
Si Si4 0.770770 0.493291 0.170711
Si Si5 0.118246 0.828759 0.040353
Si Si6 0.468383 0.655961 0.483870
Si Si7 0.246898 0.584577 0.054017
Si Si8 0.738395 0.804166 0.813464
O O1 0.753243 0.472444 0.750217
O O2 0.698722 0.513415 0.871609
O O3 0.788820 0.679812 0.804804
O O4 0.050262 0.545556 0.941906
O O5 0.500000 0.961458 0.250000
O O6 0.353484 0.903105 0.328957
O O7 0.142320 0.895735 0.124861
O O8 0.228014 0.086152 0.224801
O O9 0.732063 0.121985 0.975361
O O10 0.474319 0.212702 0.985809
O O11 0.500000 0.000000 0.000000
O O12 0.743596 0.594103 0.103169
O O13 0.000000 0.446502 0.250000
O O14 0.602725 0.401969 0.091885
O O15 0.185808 0.700015 0.074071
O O16 0.887904 0.826351 0.933225
O O17 0.585814 0.619366 0.448419
O O18 0.500000 0.801576 0.750000
#
# Coordination Sequence:
#
# PCOD9232210 Si02
#       8
#     4   4   4   4   4   4   4   4
#     4  10  21  35  61  89 126 158 208 260 310 372
#     4   9  19  37  60  86 121 160 204 256 317 364
#     4  10  22  41  65  91 125 166 217 269 314 387
#     4  11  23  41  62  86 128 170 204 260 324 390
#     4   9  19  39  64  90 124 163 206 258 317 377
#     4  10  23  41  62  91 122 167 215 255 325 381
#     4   9  19  38  60  93 119 156 210 259 305 371
#     4  10  21  36  58  96 126 161 206 262 318 370
#
# _framework density 22.507200999999998
#
# number of rings (size 3 to 8) (size 9 to 14) (size 15 to 20)
#    0.000    2.250    1.250    0.375    5.250    0.000 
#    0.000    1.875    0.000    0.000    0.000    0.000 
#    0.000    0.000    0.000    0.000    0.000    0.000 
#
# Total GULP energy -178460.342219 kJ/mol
# GULP energy per Si atom -5576.885694 kJ/mol
# Density = 2.245597 g / cm^3
# Si number density = 22.507201 Si / 1000 Ang^3
#
#
#
# Elastic Constant Matrix: (Units=GPa)
#
#
# Indices 1 2 3 4 5 6 
#
# 1 40.6038 23.1929 25.7747 0.0000 3.8541 0.0000
# 2 23.1929 124.6601 46.2525 0.0000 -8.3362 0.0000
# 3 25.7747 46.2525 129.5415 0.0000 6.5497 0.0000
# 4 0.0000 0.0000 0.0000 20.9401 0.0000 4.7985
# 5 3.8541 -8.3362 6.5497 0.0000 25.7759 0.0000
# 6 0.0000 0.0000 0.0000 4.7985 0.0000 15.3895
#
#
#
# Elastic Compliance Matrix: (Units=1/GPa)
#
#
# Indices 1 2 3 4 5 6 
#
# 1 0.030274 -0.004398 -0.004206 0.000000 -0.004880 0.000000
# 2 -0.004398 0.010285 -0.003038 0.000000 0.004756 0.000000
# 3 -0.004206 -0.003038 0.009785 0.000000 -0.002840 0.000000
# 4 0.000000 0.000000 0.000000 0.051430 0.000000 -0.016036
# 5 -0.004880 0.004756 -0.002840 0.000000 0.041785 0.000000
# 6 0.000000 0.000000 0.000000 -0.016036 0.000000 0.069980
#
#
# Mechanical properties :
#
#
# Convention : Reuss Voigt Hill
#
# Bulk Modulus (GPa) = 36.95596 53.91619 45.43607
# Shear Modulus (GPa) = 20.33819 25.72678 23.03248
#
# Velocity S-wave (km/s) = 3.00931 3.38456 3.20244
# Velocity P-wave (km/s) = 5.34133 6.26744 5.82283
#
# Compressibility (1/GPa) = 0.02705923
#
# Stress axis : x y z
#
# Youngs Moduli (GPa) = 33.03184 97.22737 102.20066
#
# Poissons Ratio (x) = 0.42761 0.42991
# Poissons Ratio (y) = 0.14528 0.31045
# Poissons Ratio (z) = 0.13895 0.29535
#
# Static dielectric constant tensor:
#      x y z
#    x 1.966620 0.000000 0.075320 
#    y 0.000000 1.887380 0.000000 
#    z 0.075320 0.000000 1.848380 
# 
# From -- ./inp_files/78492.got.cif
#   From: 2010.05.17/outbox.cif.g08.bks.cpg/sg13_40_cif.got.tgz:78492.got - 2010.06.03 16:44:36.
