data_PCOD9232191
_publ_section_title
;
Structure prediction by ZEFSAII (Michael W. Deem and Ramdas Pophale) SiO2 
 PCOD9232191
Probable space group: P 2/C
;
_chemical_formula_sum "Si O2"
_cell_formula_units_Z 20
_cell_length_a 5.212654
_cell_length_b 7.140668
_cell_length_c 27.221279
_cell_angle_alpha 90.000000
_cell_angle_beta 111.049439
_cell_angle_gamma 90.000000
_cell_volume 945.614165
_symmetry_space_group_name_H-M "P 2/C"
_symmetry_group_IT_number 13
_symmetry_cell_setting 'monoclinic'
loop_
_space_group_symop_operation_xyz
x,y,z
-x,y,1/2-z
-x,-y,-z
x,-y,1/2+z
loop_
_atom_site_type_symbol
_atom_site_label
_atom_site_fract_x
_atom_site_fract_y
_atom_site_fract_z
Si Si1 0.676022 0.179668 0.577895
Si Si2 0.099048 0.763456 0.908446
Si Si3 0.229631 0.468098 0.841090
Si Si4 0.324945 0.347563 0.194247
Si Si5 0.045832 0.219648 0.513471
O O1 0.781223 0.263282 0.636435
O O2 0.358332 0.233449 0.552498
O O3 0.837150 0.266918 0.542493
O O4 0.732560 0.957029 0.578504
O O5 0.268874 0.606829 0.890877
O O6 0.823522 0.785147 0.856115
O O7 0.019007 0.695313 0.957362
O O8 0.471832 0.513104 0.820545
O O9 0.931690 0.535043 0.802110
O O10 0.500000 0.256746 0.250000
O O11 0.000000 0.000000 0.500000
#
# Coordination Sequence:
#
# PCOD9232191 Si02
#       5
#     4   4   4   4   4
#     4  11  22  38  59  88 124 154 194 231 291 358
#     4   9  23  36  63  83 122 152 197 232 293 345
#     4  10  23  38  61  87 114 155 196 243 292 346
#     4  10  22  42  63  81 117 153 197 255 304 336
#     4  10  21  35  58  89 124 159 184 236 289 348
#
# _framework density 21.150275000000001
#
# number of rings (size 3 to 8) (size 9 to 14) (size 15 to 20)
#    1.200    0.800    0.000    4.200    8.400    1.600 
#    0.000    1.000    4.400    0.000    0.000    0.000 
#    0.000    0.000    0.000    0.000    0.000    0.000 
#
# Total GULP energy -111483.754025 kJ/mol
# GULP energy per Si atom -5574.187701 kJ/mol
# Density = 2.110214 g / cm^3
# Si number density = 21.150275 Si / 1000 Ang^3
#
#
#
# Elastic Constant Matrix: (Units=GPa)
#
#
# Indices 1 2 3 4 5 6 
#
# 1 94.2093 -5.0882 1.3476 0.0000 -8.4039 0.0000
# 2 -5.0882 37.8540 -18.6168 0.0000 -7.4936 0.0000
# 3 1.3476 -18.6168 56.4488 0.0000 11.8573 0.0000
# 4 0.0000 0.0000 0.0000 12.7103 0.0000 2.6709
# 5 -8.4039 -7.4936 11.8573 0.0000 39.1663 0.0000
# 6 0.0000 0.0000 0.0000 2.6709 0.0000 -5.0749
#
#
#
# Elastic Compliance Matrix: (Units=1/GPa)
#
#
# Indices 1 2 3 4 5 6 
#
# 1 0.010970 0.001921 -0.000214 0.000000 0.002786 0.000000
# 2 0.001921 0.032220 0.009824 0.000000 0.003603 0.000000
# 3 -0.000214 0.009824 0.021972 0.000000 -0.004818 0.000000
# 4 0.000000 0.000000 0.000000 0.070842 0.000000 0.037283
# 5 0.002786 0.003603 -0.004818 0.000000 0.028278 0.000000
# 6 0.000000 0.000000 0.000000 0.037283 0.000000 -0.177425
#
#
# Mechanical properties :
#
#
# Convention : Reuss Voigt Hill
#
# Bulk Modulus (GPa) = 11.33475 15.97746 13.65610
# Shear Modulus (GPa) = -735.58671 23.41830 -356.08421
#
# Velocity S-wave (km/s) = -18.66938 3.33112 -12.98940
# Velocity P-wave (km/s) = 21.43261 4.72925 14.78159
#
# Compressibility (1/GPa) = 0.08822429
#
# Stress axis : x y z
#
# Youngs Moduli (GPa) = 91.15767 31.03662 45.51215
#
# Poissons Ratio (x) = -0.05962 0.00972
# Poissons Ratio (y) = -0.17512 -0.44709
# Poissons Ratio (z) = 0.01947 -0.30489
#
# Static dielectric constant tensor:
#      x y z
#    x 1.755990 0.000000 0.015160 
#    y 0.000000 1.770810 0.000000 
#    z 0.015160 0.000000 1.840640 
# 
# From -- ./inp_files/83123.got.cif
#   From: 2010.05.17/outbox.cif.g08.bks.cpg/sg13_42_cif.got.tgz:83123.got - 2010.06.03 16:44:36.
