data_PCOD9232719
_publ_section_title
;
Structure prediction by ZEFSAII (Michael W. Deem and Ramdas Pophale) SiO2 
 PCOD9232719
Probable space group: P 2/C
;
_chemical_formula_sum "Si O2"
_cell_formula_units_Z 30
_cell_length_a 30.659635
_cell_length_b 9.743740
_cell_length_c 12.038092
_cell_angle_alpha 90.000000
_cell_angle_beta 26.227898
_cell_angle_gamma 90.000000
_cell_volume 1589.338033
_symmetry_space_group_name_H-M "P 2/C"
_symmetry_group_IT_number 13
_symmetry_cell_setting 'monoclinic'
loop_
_space_group_symop_operation_xyz
x,y,z
-x,y,1/2-z
-x,-y,-z
x,-y,1/2+z
loop_
_atom_site_type_symbol
_atom_site_label
_atom_site_fract_x
_atom_site_fract_y
_atom_site_fract_z
Si Si1 0.666072 0.389860 0.731767
Si Si2 0.788500 0.853084 0.019760
Si Si3 0.352264 0.302880 0.176201
Si Si4 0.792787 0.879531 0.378582
Si Si5 0.500000 0.265045 0.250000
Si Si6 0.427273 0.759181 0.265799
Si Si7 0.363734 0.927719 0.948024
Si Si8 0.995141 0.923245 0.633660
O O1 0.761486 0.298579 0.541329
O O2 0.677217 0.552068 0.703235
O O3 0.616636 0.323989 0.736335
O O4 0.588564 0.358420 0.006957
O O5 0.695092 0.913914 0.301244
O O6 0.886994 0.857036 0.868842
O O7 0.800454 0.958948 0.890721
O O8 0.259825 0.201878 0.402382
O O9 0.453949 0.249060 0.999461
O O10 0.382259 0.310092 0.979155
O O11 0.714573 0.866827 0.458913
O O12 0.904427 0.834214 0.099401
O O13 0.539606 0.164697 0.255952
O O14 0.394238 0.918503 0.346284
O O15 0.000000 0.987492 0.750000
O O16 0.000000 0.000000 0.500000
#
# Coordination Sequence:
#
# PCOD9232719 Si02
#       8
#     4   4   4   4   2   4   4   4
#     4  11  23  39  57  83 124 161 200 249 307 363
#     4  10  21  38  59  90 115 153 201 253 309 359
#     4  11  24  37  57  89 117 165 205 248 296 370
#     4  11  21  37  62  87 119 154 204 251 307 359
#     4  10  22  34  54  88 120 156 200 246 294 362
#     4  11  22  37  59  81 127 160 206 244 302 362
#     4  11  20  34  60  88 119 156 200 247 300 357
#     4  10  21  39  65  96 124 157 203 265 319 374
#
# _framework density 18.875783999999999
#
# number of rings (size 3 to 8) (size 9 to 14) (size 15 to 20)
#    0.000    1.333    4.000    2.800    1.867    3.200 
#    0.000    0.667    0.000    0.000    0.000    0.000 
#    0.000    0.000    0.000    0.000    0.000    0.000 
#
# Total GULP energy -167142.401265 kJ/mol
# GULP energy per Si atom -5571.413375 kJ/mol
# Density = 1.883282 g / cm^3
# Si number density = 18.875784 Si / 1000 Ang^3
#
#
#
# Elastic Constant Matrix: (Units=GPa)
#
#
# Indices 1 2 3 4 5 6 
#
# 1 84.2395 6.0163 13.3598 0.0000 -8.2089 0.0000
# 2 6.0163 62.8403 29.3161 0.0000 -12.9377 0.0000
# 3 13.3598 29.3161 73.4789 0.0000 -12.7360 0.0000
# 4 0.0000 0.0000 0.0000 9.5201 0.0000 4.0777
# 5 -8.2089 -12.9377 -12.7360 0.0000 35.3463 0.0000
# 6 0.0000 0.0000 0.0000 4.0777 0.0000 6.0279
#
#
#
# Elastic Compliance Matrix: (Units=1/GPa)
#
#
# Indices 1 2 3 4 5 6 
#
# 1 0.012384 0.000179 -0.001934 0.000000 0.002245 0.000000
# 2 0.000179 0.020294 -0.007290 0.000000 0.004843 0.000000
# 3 -0.001934 -0.007290 0.017417 0.000000 0.003158 0.000000
# 4 0.000000 0.000000 0.000000 0.147893 0.000000 -0.100045
# 5 0.002245 0.004843 0.003158 0.000000 0.031723 0.000000
# 6 0.000000 0.000000 0.000000 -0.100045 0.000000 0.233572
#
#
# Mechanical properties :
#
#
# Convention : Reuss Voigt Hill
#
# Bulk Modulus (GPa) = 31.24550 35.32698 33.28624
# Shear Modulus (GPa) = 10.16176 21.63663 15.89919
#
# Velocity S-wave (km/s) = 2.32275 3.38932 2.90540
# Velocity P-wave (km/s) = 4.87675 5.83719 5.37845
#
# Compressibility (1/GPa) = 0.03200461
#
# Stress axis : x y z
#
# Youngs Moduli (GPa) = 80.75213 49.27509 57.41570
#
# Poissons Ratio (x) = -0.00880 0.11103
# Poissons Ratio (y) = -0.01443 0.41856
# Poissons Ratio (z) = 0.15616 0.35921
#
# Static dielectric constant tensor:
#      x y z
#    x 1.693790 0.000000 0.036640 
#    y 0.000000 1.652020 0.000000 
#    z 0.036640 0.000000 1.701260 
# 
# From -- ./inp_files/42691.got.cif
#   From: 2010.05.17/outbox.cif.g08.bks.cpg/sg13_22_cif.got.tgz:42691.got - 2010.06.03 16:44:36.
