data_PCOD9232351
_publ_section_title
;
Structure prediction by ZEFSAII (Michael W. Deem and Ramdas Pophale) SiO2 
 PCOD9232351
Probable space group: P 2/C
;
_chemical_formula_sum "Si O2"
_cell_formula_units_Z 32
_cell_length_a 14.609654
_cell_length_b 8.876999
_cell_length_c 22.012455
_cell_angle_alpha 90.000000
_cell_angle_beta 30.809970
_cell_angle_gamma 90.000000
_cell_volume 1462.202926
_symmetry_space_group_name_H-M "P 2/C"
_symmetry_group_IT_number 13
_symmetry_cell_setting 'monoclinic'
loop_
_space_group_symop_operation_xyz
x,y,z
-x,y,1/2-z
-x,-y,-z
x,-y,1/2+z
loop_
_atom_site_type_symbol
_atom_site_label
_atom_site_fract_x
_atom_site_fract_y
_atom_site_fract_z
Si Si1 0.298340 0.453716 0.598060
Si Si2 0.873947 0.194284 0.733129
Si Si3 0.182464 0.636899 0.777166
Si Si4 0.366071 0.946445 0.692236
Si Si5 0.127639 0.391322 0.887312
Si Si6 0.872787 0.315913 0.381046
Si Si7 0.774283 0.001802 0.972731
Si Si8 0.291598 0.897191 0.357204
O O1 0.500000 0.500000 0.500000
O O2 0.217462 0.290232 0.660073
O O3 0.199819 0.549194 0.705194
O O4 0.236898 0.531639 0.570660
O O5 0.717328 0.081555 0.799838
O O6 0.926176 0.303580 0.645396
O O7 0.051268 0.096404 0.646105
O O8 0.252462 0.523542 0.788421
O O9 0.972449 0.672759 0.889439
O O10 0.285389 0.790679 0.716952
O O11 0.293899 0.983623 0.800873
O O12 0.579422 0.929868 0.571688
O O13 0.202327 0.256343 0.884943
O O14 0.000000 0.500000 0.000000
O O15 0.000000 0.284696 0.250000
O O16 0.761433 0.162867 0.449438
O O17 0.790013 0.971078 0.036193
O O18 0.500000 0.862618 0.250000
#
# Coordination Sequence:
#
# PCOD9232351 Si02
#       8
#     4   4   4   4   4   4   4   4
#     4  10  22  44  66  93 124 168 213 271 328 381
#     4  10  22  40  66  96 126 163 224 264 320 402
#     4  10  21  41  60  92 128 170 209 260 329 394
#     4  10  21  40  66  94 133 165 215 270 326 392
#     4  10  21  36  60  92 126 171 210 258 327 386
#     4  10  21  41  65  84 127 171 206 263 331 384
#     4  11  21  40  66  99 125 172 220 271 327 385
#     4   9  21  39  63  90 127 173 214 264 323 392
#
# _framework density 21.884788
#
# number of rings (size 3 to 8) (size 9 to 14) (size 15 to 20)
#    0.000    2.000    1.250    1.500    1.750    2.000 
#   13.500    1.875    0.000    0.000    0.000    0.000 
#    0.000    0.000    0.000    0.000    0.000    0.000 
#
# Total GULP energy -178171.573364 kJ/mol
# GULP energy per Si atom -5567.861668 kJ/mol
# Density = 2.183498 g / cm^3
# Si number density = 21.884788 Si / 1000 Ang^3
#
#
#
# Elastic Constant Matrix: (Units=GPa)
#
#
# Indices 1 2 3 4 5 6 
#
# 1 63.4208 27.5669 12.4576 0.0000 -16.4698 0.0000
# 2 27.5669 89.0297 7.8648 0.0000 -11.5704 0.0000
# 3 12.4576 7.8648 37.3310 0.0000 -13.3836 0.0000
# 4 0.0000 0.0000 0.0000 9.0753 0.0000 -4.0355
# 5 -16.4698 -11.5704 -13.3836 0.0000 27.7830 0.0000
# 6 0.0000 0.0000 0.0000 -4.0355 0.0000 23.2945
#
#
#
# Elastic Compliance Matrix: (Units=1/GPa)
#
#
# Indices 1 2 3 4 5 6 
#
# 1 0.020809 -0.005044 -0.002674 0.000000 0.008947 0.000000
# 2 -0.005044 0.013122 -0.000235 0.000000 0.002361 0.000000
# 3 -0.002674 -0.000235 0.032788 0.000000 0.014112 0.000000
# 4 0.000000 0.000000 0.000000 0.119386 0.000000 0.020682
# 5 0.008947 0.002361 0.014112 0.000000 0.049078 0.000000
# 6 0.000000 0.000000 0.000000 0.020682 0.000000 0.046512
#
#
# Mechanical properties :
#
#
# Convention : Reuss Voigt Hill
#
# Bulk Modulus (GPa) = 19.67973 31.72892 25.70432
# Shear Modulus (GPa) = 15.89630 21.49004 18.69317
#
# Velocity S-wave (km/s) = 2.69804 3.13703 2.92578
# Velocity P-wave (km/s) = 4.32641 5.25841 4.81501
#
# Compressibility (1/GPa) = 0.05081371
#
# Stress axis : x y z
#
# Youngs Moduli (GPa) = 48.05642 76.20960 30.49857
#
# Poissons Ratio (x) = 0.38442 0.08155
# Poissons Ratio (y) = 0.24241 0.00715
# Poissons Ratio (z) = 0.12849 0.01788
#
# Static dielectric constant tensor:
#      x y z
#    x 1.934760 0.000000 0.065380 
#    y 0.000000 1.795460 0.000000 
#    z 0.065380 0.000000 1.711160 
# 
# From -- ./inp_files/87411.got.cif
#   From: 2010.05.17/outbox.cif.g08.bks.cpg/sg13_44_cif.got.tgz:87411.got - 2010.06.03 16:44:36.
