data_PCOD9232866
_publ_section_title
;
Structure prediction by ZEFSAII (Michael W. Deem and Ramdas Pophale) SiO2 
 PCOD9232866
Probable space group: P 2/C
;
_chemical_formula_sum "Si O2"
_cell_formula_units_Z 24
_cell_length_a 12.377963
_cell_length_b 13.189939
_cell_length_c 13.723251
_cell_angle_alpha 90.000000
_cell_angle_beta 149.544921
_cell_angle_gamma 90.000000
_cell_volume 1135.636346
_symmetry_space_group_name_H-M "P 2/C"
_symmetry_group_IT_number 13
_symmetry_cell_setting 'monoclinic'
loop_
_space_group_symop_operation_xyz
x,y,z
-x,y,1/2-z
-x,-y,-z
x,-y,1/2+z
loop_
_atom_site_type_symbol
_atom_site_label
_atom_site_fract_x
_atom_site_fract_y
_atom_site_fract_z
Si Si1 0.606310 0.901844 0.933915
Si Si2 0.216479 0.683243 0.731122
Si Si3 0.883853 0.419658 0.534133
Si Si4 0.000000 0.603936 0.750000
Si Si5 0.000000 0.956458 0.750000
Si Si6 0.703229 0.690776 0.067621
Si Si7 0.150614 0.909685 0.659474
O O1 0.500000 0.866720 0.750000
O O2 0.398753 0.937595 0.833222
O O3 0.791145 0.980884 0.054587
O O4 0.729639 0.811528 0.084267
O O5 0.155101 0.592696 0.609897
O O6 0.131949 0.667709 0.774345
O O7 0.139447 0.789858 0.621645
O O8 0.470803 0.679196 0.930587
O O9 0.724977 0.349612 0.474030
O O10 0.870639 0.528012 0.577242
O O11 0.116693 0.371787 0.736650
O O12 0.087629 0.901767 0.723352
O O13 0.000000 0.000000 0.500000
#
# Coordination Sequence:
#
# PCOD9232866 Si02
#       7
#     4   4   4   2   2   4   4
#     4  11  21  37  61  89 125 164 213 257 311 362
#     4  11  22  42  63  86 133 161 206 255 313 369
#     4  10  21  38  64  95 119 158 212 254 318 364
#     4  10  23  41  64  94 124 164 203 257 320 374
#     4  12  23  39  60  86 130 164 207 267 304 364
#     4   9  20  35  61  95 120 157 208 257 301 367
#     4  11  24  40  62  93 122 175 210 253 313 371
#
# _framework density 21.133527000000001
#
# number of rings (size 3 to 8) (size 9 to 14) (size 15 to 20)
#    0.000    1.667    1.667    5.000    2.333    2.667 
#    0.000    4.167    0.000    0.000    0.000    0.000 
#    0.000    0.000    0.000    0.000    0.000    0.000 
#
# Total GULP energy -133740.497675 kJ/mol
# GULP energy per Si atom -5572.520736 kJ/mol
# Density = 2.108543 g / cm^3
# Si number density = 21.133527 Si / 1000 Ang^3
#
#
#
# Elastic Constant Matrix: (Units=GPa)
#
#
# Indices 1 2 3 4 5 6 
#
# 1 162.1025 26.0818 28.4445 0.0000 22.9406 0.0000
# 2 26.0818 82.0703 27.6078 0.0000 16.6906 0.0000
# 3 28.4445 27.6078 48.3239 0.0000 17.0765 0.0000
# 4 0.0000 0.0000 0.0000 12.1430 0.0000 9.7894
# 5 22.9406 16.6906 17.0765 0.0000 39.8849 0.0000
# 6 0.0000 0.0000 0.0000 9.7894 0.0000 22.3389
#
#
#
# Elastic Compliance Matrix: (Units=1/GPa)
#
#
# Indices 1 2 3 4 5 6 
#
# 1 0.007161 -0.000794 -0.002855 0.000000 -0.002564 0.000000
# 2 -0.000794 0.015502 -0.007374 0.000000 -0.002874 0.000000
# 3 -0.002855 -0.007374 0.029358 0.000000 -0.007841 0.000000
# 4 0.000000 0.000000 0.000000 0.127338 0.000000 -0.055802
# 5 -0.002564 -0.002874 -0.007841 0.000000 0.031107 0.000000
# 6 0.000000 0.000000 0.000000 -0.055802 0.000000 0.069219
#
#
# Mechanical properties :
#
#
# Convention : Reuss Voigt Hill
#
# Bulk Modulus (GPa) = 33.36127 50.75164 42.05645
# Shear Modulus (GPa) = 16.04000 28.89755 22.46877
#
# Velocity S-wave (km/s) = 2.75795 3.70182 3.26418
# Velocity P-wave (km/s) = 5.09529 6.50678 5.84381
#
# Compressibility (1/GPa) = 0.02997488
#
# Stress axis : x y z
#
# Youngs Moduli (GPa) = 139.65481 64.50896 34.06221
#
# Poissons Ratio (x) = 0.05120 0.09726
# Poissons Ratio (y) = 0.11084 0.25116
# Poissons Ratio (z) = 0.39877 0.47567
#
# Static dielectric constant tensor:
#      x y z
#    x 1.788650 0.000000 -0.024330 
#    y 0.000000 1.842650 0.000000 
#    z -0.024330 0.000000 1.745300 
# 
# From -- ./inp_files/51364.got.cif
#   From: 2010.05.17/outbox.cif.g08.bks.cpg/sg13_26_cif.got.tgz:51364.got - 2010.06.03 16:44:36.
