data_PCOD9232349
_publ_section_title
;
Structure prediction by ZEFSAII (Michael W. Deem and Ramdas Pophale) SiO2 
 PCOD9232349
Probable space group: P 2/C
;
_chemical_formula_sum "Si O2"
_cell_formula_units_Z 28
_cell_length_a 26.253932
_cell_length_b 10.924726
_cell_length_c 26.755627
_cell_angle_alpha 90.000000
_cell_angle_beta 10.877418
_cell_angle_gamma 90.000000
_cell_volume 1448.142484
_symmetry_space_group_name_H-M "P 2/C"
_symmetry_group_IT_number 13
_symmetry_cell_setting 'monoclinic'
loop_
_space_group_symop_operation_xyz
x,y,z
-x,y,1/2-z
-x,-y,-z
x,-y,1/2+z
loop_
_atom_site_type_symbol
_atom_site_label
_atom_site_fract_x
_atom_site_fract_y
_atom_site_fract_z
Si Si1 0.707815 0.958452 0.507441
Si Si2 0.170274 0.186982 0.378149
Si Si3 0.713979 0.466692 0.251386
Si Si4 0.060420 0.172133 0.370233
Si Si5 0.706243 0.750760 0.009511
Si Si6 0.726700 0.084518 0.875229
Si Si7 0.481721 0.315994 0.622674
O O1 0.701298 0.898322 0.459162
O O2 0.000000 0.945923 0.250000
O O3 0.657748 0.103983 0.547328
O O4 0.500000 0.914680 0.750000
O O5 0.278110 0.325405 0.271534
O O6 0.048302 0.154204 0.441459
O O7 0.938059 0.172705 0.643422
O O8 0.427211 0.100969 0.141606
O O9 0.500000 0.500000 0.500000
O O10 0.642003 0.555489 0.274844
O O11 0.000000 0.500000 0.000000
O O12 0.773272 0.223400 0.628618
O O13 0.150533 0.049160 0.255323
O O14 0.301764 0.267442 0.126387
O O15 0.000000 0.736519 0.750000
O O16 0.500000 0.707400 0.250000
O O17 0.644712 0.684113 0.017179
#
# Coordination Sequence:
#
# PCOD9232349 Si02
#       7
#     4   4   4   4   4   4   4
#     4  10  21  37  60  87 122 158 203 257 313 377
#     4  12  24  40  60  90 133 175 213 248 305 384
#     4  12  23  43  64  88 124 172 222 258 299 373
#     4  12  23  38  61  94 132 169 201 251 327 375
#     4  10  21  36  60  91 124 153 201 259 323 375
#     4  12  24  39  61  93 132 165 204 262 321 385
#     4  12  22  39  66  91 128 165 207 267 314 367
#
# _framework density 19.335114000000001
#
# number of rings (size 3 to 8) (size 9 to 14) (size 15 to 20)
#    0.000    0.571    4.286    5.143    4.000    0.000 
#    0.000    0.000    0.000    3.429    0.000    0.000 
#    0.000    0.000    0.000    0.000    0.000    0.000 
#
# Total GULP energy -156587.277822 kJ/mol
# GULP energy per Si atom -5592.402779 kJ/mol
# Density = 1.929111 g / cm^3
# Si number density = 19.335114 Si / 1000 Ang^3
#
#
#
# Elastic Constant Matrix: (Units=GPa)
#
#
# Indices 1 2 3 4 5 6 
#
# 1 127.5850 24.2955 36.2794 0.0000 20.1349 0.0000
# 2 24.2955 38.6829 8.9705 0.0000 8.6276 0.0000
# 3 36.2794 8.9705 115.0567 0.0000 17.2468 0.0000
# 4 0.0000 0.0000 0.0000 82.2248 0.0000 -138.4377
# 5 20.1349 8.6276 17.2468 0.0000 33.7329 0.0000
# 6 0.0000 0.0000 0.0000 -138.4377 0.0000 351.4367
#
#
#
# Elastic Compliance Matrix: (Units=1/GPa)
#
#
# Indices 1 2 3 4 5 6 
#
# 1 0.009975 -0.004957 -0.002227 0.000000 -0.003547 0.000000
# 2 -0.004957 0.030027 -0.000076 0.000000 -0.004682 0.000000
# 3 -0.002227 -0.000076 0.009961 0.000000 -0.003744 0.000000
# 4 0.000000 0.000000 0.000000 0.036112 0.000000 0.014225
# 5 -0.003547 -0.004682 -0.003744 0.000000 0.034874 0.000000
# 6 0.000000 0.000000 0.000000 0.014225 0.000000 0.008449
#
#
# Mechanical properties :
#
#
# Convention : Reuss Voigt Hill
#
# Bulk Modulus (GPa) = 28.21563 46.71282 37.46423
# Shear Modulus (GPa) = 32.10643 107.59750 69.85196
#
# Velocity S-wave (km/s) = 4.07937 7.46790 6.01709
# Velocity P-wave (km/s) = 6.06737 9.92832 8.22753
#
# Compressibility (1/GPa) = 0.03544135
#
# Stress axis : x y z
#
# Youngs Moduli (GPa) = 100.25035 33.30383 100.39421
#
# Poissons Ratio (x) = 0.16510 0.22358
# Poissons Ratio (y) = 0.49697 0.00764
# Poissons Ratio (z) = 0.22326 0.00254
#
# Static dielectric constant tensor:
#      x y z
#    x 1.571990 0.000000 -0.014920 
#    y 0.000000 1.696680 0.000000 
#    z -0.014920 0.000000 1.652770 
# 
# From -- ./inp_files/94140.got.cif
#   From: 2010.05.17/outbox.cif.g08.bks.cpg/sg13_48_cif.got.tgz:94140.got - 2010.06.03 16:44:36.
