data_PCOD9232388
_publ_section_title
;
Structure prediction by ZEFSAII (Michael W. Deem and Ramdas Pophale) SiO2 
 PCOD9232388
Probable space group: P 2/C
;
_chemical_formula_sum "Si O2"
_cell_formula_units_Z 24
_cell_length_a 8.795789
_cell_length_b 10.742514
_cell_length_c 13.796593
_cell_angle_alpha 90.000000
_cell_angle_beta 54.570338
_cell_angle_gamma 90.000000
_cell_volume 1062.229645
_symmetry_space_group_name_H-M "P 2/C"
_symmetry_group_IT_number 13
_symmetry_cell_setting 'monoclinic'
loop_
_space_group_symop_operation_xyz
x,y,z
-x,y,1/2-z
-x,-y,-z
x,-y,1/2+z
loop_
_atom_site_type_symbol
_atom_site_label
_atom_site_fract_x
_atom_site_fract_y
_atom_site_fract_z
Si Si1 0.739801 0.814030 0.996696
Si Si2 0.121543 0.610695 0.410109
Si Si3 0.032917 0.043855 0.631668
Si Si4 0.375444 0.396390 0.095979
Si Si5 0.500000 0.540619 0.750000
Si Si6 0.000000 0.445819 0.750000
Si Si7 0.317871 0.035098 0.367731
O O1 0.876190 0.906270 0.889020
O O2 0.630200 0.725965 0.965513
O O3 0.857767 0.728032 0.027083
O O4 0.611431 0.909810 0.103550
O O5 0.326003 0.550841 0.327917
O O6 0.000000 0.500000 0.500000
O O7 0.041470 0.632048 0.332017
O O8 0.187729 0.101812 0.498912
O O9 0.000000 0.099029 0.750000
O O10 0.838082 0.016706 0.649376
O O11 0.454674 0.378087 0.173420
O O12 0.173344 0.460523 0.173798
O O13 0.500000 0.500000 0.000000
O O14 0.500000 0.092892 0.250000
#
# Coordination Sequence:
#
# PCOD9232388 Si02
#       7
#     4   4   4   4   2   2   4
#     4  10  21  36  64  86 125 166 212 255 315 382
#     4  11  20  36  53  83 126 165 207 250 303 359
#     4   9  21  41  68  92 123 160 209 269 331 380
#     4  11  20  36  56  85 124 166 208 251 304 364
#     4  10  22  32  58  82 124 170 206 256 294 370
#     4  10  22  32  56  80 122 182 198 254 306 352
#     4   9  21  41  68  93 120 160 212 265 331 379
#
# _framework density 22.593983999999999
#
# number of rings (size 3 to 8) (size 9 to 14) (size 15 to 20)
#    1.000    1.000    3.333    0.000    2.333    0.667 
#    1.500    0.000   11.000    0.000    0.000    0.000 
#    0.000    0.000    0.000    0.000    0.000    0.000 
#
# Total GULP energy -133908.510457 kJ/mol
# GULP energy per Si atom -5579.521269 kJ/mol
# Density = 2.254256 g / cm^3
# Si number density = 22.593984 Si / 1000 Ang^3
#
#
#
# Elastic Constant Matrix: (Units=GPa)
#
#
# Indices 1 2 3 4 5 6 
#
# 1 116.2558 15.0297 65.0831 0.0000 9.6627 0.0000
# 2 15.0297 64.2799 13.6937 0.0000 6.0662 0.0000
# 3 65.0831 13.6937 147.5301 0.0000 -9.9502 0.0000
# 4 0.0000 0.0000 0.0000 8.7387 0.0000 7.5552
# 5 9.6627 6.0662 -9.9502 0.0000 49.1343 0.0000
# 6 0.0000 0.0000 0.0000 7.5552 0.0000 32.9426
#
#
#
# Elastic Compliance Matrix: (Units=1/GPa)
#
#
# Indices 1 2 3 4 5 6 
#
# 1 0.012094 -0.001358 -0.005432 0.000000 -0.003311 0.000000
# 2 -0.001358 0.016281 -0.001044 0.000000 -0.001954 0.000000
# 3 -0.005432 -0.001044 0.009482 0.000000 0.003117 0.000000
# 4 0.000000 0.000000 0.000000 0.142734 0.000000 -0.032735
# 5 -0.003311 -0.001954 0.003117 0.000000 0.021876 0.000000
# 6 0.000000 0.000000 0.000000 -0.032735 0.000000 0.037863
#
#
# Mechanical properties :
#
#
# Convention : Reuss Voigt Hill
#
# Bulk Modulus (GPa) = 45.06889 57.29765 51.18327
# Shear Modulus (GPa) = 18.98285 33.78041 26.38163
#
# Velocity S-wave (km/s) = 2.90172 3.87086 3.42078
# Velocity P-wave (km/s) = 5.58724 6.73742 6.18910
#
# Compressibility (1/GPa) = 0.02218826
#
# Stress axis : x y z
#
# Youngs Moduli (GPa) = 82.68801 61.42001 105.46373
#
# Poissons Ratio (x) = 0.08341 0.57292
# Poissons Ratio (y) = 0.11229 0.11010
# Poissons Ratio (z) = 0.44919 0.06412
#
# Static dielectric constant tensor:
#      x y z
#    x 1.810960 0.000000 0.052080 
#    y 0.000000 1.827450 0.000000 
#    z 0.052080 0.000000 1.905560 
# 
# From -- ./inp_files/47424.got.cif
#   From: 2010.05.17/outbox.cif.g08.bks.cpg/sg13_24_cif.got.tgz:47424.got - 2010.06.03 16:44:36.
