data_PCOD9232415
_publ_section_title
;
Structure prediction by ZEFSAII (Michael W. Deem and Ramdas Pophale) SiO2 
 PCOD9232415
Probable space group: P 2/C
;
_chemical_formula_sum "Si O2"
_cell_formula_units_Z 20
_cell_length_a 8.480944
_cell_length_b 24.513805
_cell_length_c 5.356912
_cell_angle_alpha 90.000000
_cell_angle_beta 122.787612
_cell_angle_gamma 90.000000
_cell_volume 936.272064
_symmetry_space_group_name_H-M "P 2/C"
_symmetry_group_IT_number 13
_symmetry_cell_setting 'monoclinic'
loop_
_space_group_symop_operation_xyz
x,y,z
-x,y,1/2-z
-x,-y,-z
x,-y,1/2+z
loop_
_atom_site_type_symbol
_atom_site_label
_atom_site_fract_x
_atom_site_fract_y
_atom_site_fract_z
Si Si1 0.788049 0.023024 0.801551
Si Si2 0.125481 0.364111 0.605883
Si Si3 0.124894 0.240776 0.606443
Si Si4 0.377639 0.863830 0.392137
Si Si5 0.288186 0.476917 0.811126
O O1 0.772116 0.086817 0.729921
O O2 0.701505 0.990983 0.494878
O O3 0.000000 0.000000 0.000000
O O4 0.202993 0.302516 0.654311
O O5 0.274669 0.412634 0.753309
O O6 0.000000 0.366649 0.750000
O O7 0.000000 0.372882 0.250000
O O8 0.277846 0.194091 0.769771
O O9 0.000000 0.238957 0.750000
O O10 0.000000 0.231236 0.250000
O O11 0.500000 0.873210 0.250000
O O12 0.500000 0.864991 0.750000
O O13 0.200435 0.507720 0.500729
O O14 0.500000 0.500000 0.000000
#
# Coordination Sequence:
#
# PCOD9232415 Si02
#       5
#     4   4   4   4   4
#     4  10  23  40  65  95 124 176 213 251 318 384
#     4  10  21  39  62  92 121 161 216 261 299 368
#     4  10  23  43  70  92 127 178 218 259 317 388
#     4  12  26  43  66 103 136 163 214 275 322 373
#     4  10  21  37  55  88 122 163 198 253 319 374
#
# _framework density 21.361312000000002
#
# number of rings (size 3 to 8) (size 9 to 14) (size 15 to 20)
#    0.000    1.600    0.000    3.600    5.600    4.800 
#    7.200    0.000    0.000    0.000    0.000    0.000 
#    0.000    0.000    0.000    0.000    0.000    0.000 
#
# Total GULP energy -111709.556511 kJ/mol
# GULP energy per Si atom -5585.477826 kJ/mol
# Density = 2.131269 g / cm^3
# Si number density = 21.361312 Si / 1000 Ang^3
#
#
#
# Elastic Constant Matrix: (Units=GPa)
#
#
# Indices 1 2 3 4 5 6 
#
# 1 48.9700 43.6829 66.1156 0.0000 -1.3609 0.0000
# 2 43.6829 213.8772 80.1107 0.0000 24.9325 0.0000
# 3 66.1156 80.1107 183.5389 0.0000 -32.8979 0.0000
# 4 0.0000 0.0000 0.0000 38.5545 0.0000 7.9098
# 5 -1.3609 24.9325 -32.8979 0.0000 50.4388 0.0000
# 6 0.0000 0.0000 0.0000 7.9098 0.0000 14.6215
#
#
#
# Elastic Compliance Matrix: (Units=1/GPa)
#
#
# Indices 1 2 3 4 5 6 
#
# 1 0.044508 -0.001719 -0.016890 0.000000 -0.008965 0.000000
# 2 -0.001719 0.006999 -0.003470 0.000000 -0.005769 0.000000
# 3 -0.016890 -0.003470 0.015030 0.000000 0.011062 0.000000
# 4 0.000000 0.000000 0.000000 0.029175 0.000000 -0.015783
# 5 -0.008965 -0.005769 0.011062 0.000000 0.029651 0.000000
# 6 0.000000 0.000000 0.000000 -0.015783 0.000000 0.076931
#
#
# Mechanical properties :
#
#
# Convention : Reuss Voigt Hill
#
# Bulk Modulus (GPa) = 44.68269 91.80050 68.24160
# Shear Modulus (GPa) = 19.69199 37.82143 28.75671
#
# Velocity S-wave (km/s) = 3.03950 4.21236 3.67305
# Velocity P-wave (km/s) = 5.76897 8.16867 7.07136
#
# Compressibility (1/GPa) = 0.02238003
#
# Stress axis : x y z
#
# Youngs Moduli (GPa) = 22.46780 142.88206 66.53464
#
# Poissons Ratio (x) = 0.24563 1.12375
# Poissons Ratio (y) = 0.03862 0.23085
# Poissons Ratio (z) = 0.37947 0.49574
#
# Static dielectric constant tensor:
#      x y z
#    x 1.768500 0.000000 -0.057390 
#    y 0.000000 1.759420 0.000000 
#    z -0.057390 0.000000 1.772950 
# 
# From -- ./inp_files/2220.got.cif
#   From: 2010.05.17/outbox.cif.g08.bks.cpg/sg13_2_cif.got.tgz:2220.got - 2010.06.03 16:44:36.
