data_PCOD9232221
_publ_section_title
;
Structure prediction by ZEFSAII (Michael W. Deem and Ramdas Pophale) SiO2 
 PCOD9232221
Probable space group: P 2/C
;
_chemical_formula_sum "Si O2"
_cell_formula_units_Z 20
_cell_length_a 5.237903
_cell_length_b 11.555873
_cell_length_c 16.591505
_cell_angle_alpha 90.000000
_cell_angle_beta 104.557925
_cell_angle_gamma 90.000000
_cell_volume 972.016862
_symmetry_space_group_name_H-M "P 2/C"
_symmetry_group_IT_number 13
_symmetry_cell_setting 'monoclinic'
loop_
_space_group_symop_operation_xyz
x,y,z
-x,y,1/2-z
-x,-y,-z
x,-y,1/2+z
loop_
_atom_site_type_symbol
_atom_site_label
_atom_site_fract_x
_atom_site_fract_y
_atom_site_fract_z
Si Si1 0.000000 0.784035 0.250000
Si Si2 0.000927 0.609841 0.561588
Si Si3 0.853249 0.924846 0.086856
Si Si4 0.280791 0.848971 0.995880
Si Si5 0.466100 0.533517 0.901189
Si Si6 0.500000 0.368291 0.750000
O O1 0.876658 0.866157 0.173791
O O2 0.766093 0.706434 0.267331
O O3 0.311225 0.630369 0.597039
O O4 0.000000 0.500000 0.500000
O O5 0.836141 0.720726 0.520154
O O6 0.838730 0.569723 0.626733
O O7 0.801443 0.061946 0.081051
O O8 0.595376 0.862272 0.027643
O O9 0.123789 0.901201 0.060082
O O10 0.511622 0.439797 0.834996
O O11 0.500000 0.500000 0.000000
#
# Coordination Sequence:
#
# PCOD9232221 Si02
#       6
#     2   4   4   4   4   2
#     4  12  26  38  66  94 132 164 222 286 328 386
#     4  10  21  35  64  93 124 170 213 262 317 406
#     4  10  23  39  62  94 124 171 212 275 332 381
#     4  10  21  41  65  90 129 166 223 262 324 404
#     4  10  23  39  59  92 128 174 211 262 334 399
#     4  12  26  42  62  96 138 170 220 286 330 396
#
# _framework density 20.575776000000001
#
# number of rings (size 3 to 8) (size 9 to 14) (size 15 to 20)
#    0.000    1.600    0.000    3.600   16.800    0.000 
#    0.000    2.000    0.000    0.000    0.000    0.000 
#    0.000    0.000    0.000    0.000    0.000    0.000 
#
# Total GULP energy -111428.896627 kJ/mol
# GULP energy per Si atom -5571.444831 kJ/mol
# Density = 2.052894 g / cm^3
# Si number density = 20.575776 Si / 1000 Ang^3
#
#
#
# Elastic Constant Matrix: (Units=GPa)
#
#
# Indices 1 2 3 4 5 6 
#
# 1 137.7451 13.2912 5.9504 0.0000 -17.2953 0.0000
# 2 13.2912 114.3511 38.4714 0.0000 1.5528 0.0000
# 3 5.9504 38.4714 81.4298 0.0000 -8.8527 0.0000
# 4 0.0000 0.0000 0.0000 12.8383 0.0000 -1.5351
# 5 -17.2953 1.5528 -8.8527 0.0000 20.8498 0.0000
# 6 0.0000 0.0000 0.0000 -1.5351 0.0000 32.2647
#
#
#
# Elastic Compliance Matrix: (Units=1/GPa)
#
#
# Indices 1 2 3 4 5 6 
#
# 1 0.008271 -0.001337 0.000822 0.000000 0.007310 0.000000
# 2 -0.001337 0.010796 -0.005463 0.000000 -0.004233 0.000000
# 3 0.000822 -0.005463 0.015642 0.000000 0.007730 0.000000
# 4 0.000000 0.000000 0.000000 0.078337 0.000000 0.003727
# 5 0.007310 -0.004233 0.007730 0.000000 0.057623 0.000000
# 6 0.000000 0.000000 0.000000 0.003727 0.000000 0.031171
#
#
# Mechanical properties :
#
#
# Convention : Reuss Voigt Hill
#
# Bulk Modulus (GPa) = 43.95118 49.88356 46.91737
# Shear Modulus (GPa) = 22.58559 31.57811 27.08185
#
# Velocity S-wave (km/s) = 3.31672 3.92180 3.63188
# Velocity P-wave (km/s) = 6.00621 6.69357 6.35918
#
# Compressibility (1/GPa) = 0.02275252
#
# Stress axis : x y z
#
# Youngs Moduli (GPa) = 120.90289 92.62865 63.93137
#
# Poissons Ratio (x) = 0.12386 -0.05255
# Poissons Ratio (y) = 0.16167 0.34925
# Poissons Ratio (z) = -0.09938 0.50602
#
# Static dielectric constant tensor:
#      x y z
#    x 1.946770 0.000000 0.103520 
#    y 0.000000 1.817370 0.000000 
#    z 0.103520 0.000000 1.798620 
# 
# From -- ./inp_files/43743.got.cif
#   From: 2010.05.17/outbox.cif.g08.bks.cpg/sg13_22_cif.got.tgz:43743.got - 2010.06.03 16:44:36.
