data_PCOD9232539
_publ_section_title
;
Structure prediction by ZEFSAII (Michael W. Deem and Ramdas Pophale) SiO2 
 PCOD9232539
Probable space group: P 2/C
;
_chemical_formula_sum "Si O2"
_cell_formula_units_Z 24
_cell_length_a 21.721843
_cell_length_b 8.277355
_cell_length_c 9.963470
_cell_angle_alpha 90.000000
_cell_angle_beta 32.209416
_cell_angle_gamma 90.000000
_cell_volume 954.857517
_symmetry_space_group_name_H-M "P 2/C"
_symmetry_group_IT_number 13
_symmetry_cell_setting 'monoclinic'
loop_
_space_group_symop_operation_xyz
x,y,z
-x,y,1/2-z
-x,-y,-z
x,-y,1/2+z
loop_
_atom_site_type_symbol
_atom_site_label
_atom_site_fract_x
_atom_site_fract_y
_atom_site_fract_z
Si Si1 0.617020 0.920931 0.836265
Si Si2 0.165979 0.993079 0.422941
Si Si3 0.877612 0.503733 0.908397
Si Si4 0.215954 0.318697 0.169862
Si Si5 0.852075 0.175409 0.792499
Si Si6 0.477263 0.380881 0.659848
O O1 0.300205 0.028683 0.722064
O O2 0.570953 0.761171 0.993669
O O3 0.712732 0.855126 0.555187
O O4 0.500000 0.000000 0.000000
O O5 0.170264 0.153602 0.320483
O O6 0.104912 0.045884 0.674385
O O7 0.118474 0.853839 0.415842
O O8 0.799428 0.451840 0.181722
O O9 0.881491 0.345526 0.803990
O O10 0.842651 0.638504 0.864359
O O11 0.000000 0.530415 0.750000
O O12 0.350113 0.309226 0.886328
O O13 0.500000 0.483236 0.750000
O O14 0.500000 0.500000 0.500000
#
# Coordination Sequence:
#
# PCOD9232539 Si02
#       6
#     4   4   4   4   4   4
#     4  10  21  37  61  86 128 166 196 232 299 370
#     4   9  20  38  59  86 126 161 194 246 295 356
#     4  11  24  45  66  87 116 161 210 269 314 351
#     4  11  22  41  64  90 124 158 208 253 304 373
#     4   9  20  39  59  91 122 156 203 249 294 370
#     4  12  22  39  58  92 131 166 195 243 303 367
#
# _framework density 25.134639
#
# number of rings (size 3 to 8) (size 9 to 14) (size 15 to 20)
#    1.000    0.667    1.667    3.500    0.000    1.333 
#    6.000    4.167    0.000    0.000    0.000    0.000 
#    0.000    0.000    0.000    0.000    0.000    0.000 
#
# Total GULP energy -134104.127527 kJ/mol
# GULP energy per Si atom -5587.671980 kJ/mol
# Density = 2.507743 g / cm^3
# Si number density = 25.134639 Si / 1000 Ang^3
#
#
#
# Elastic Constant Matrix: (Units=GPa)
#
#
# Indices 1 2 3 4 5 6 
#
# 1 188.8347 47.2901 27.8795 0.0000 3.9307 0.0000
# 2 47.2901 48.8837 13.8404 0.0000 -8.3547 0.0000
# 3 27.8795 13.8404 81.8747 0.0000 -15.0615 0.0000
# 4 0.0000 0.0000 0.0000 29.0962 0.0000 4.7147
# 5 3.9307 -8.3547 -15.0615 0.0000 39.6389 0.0000
# 6 0.0000 0.0000 0.0000 4.7147 0.0000 56.2019
#
#
#
# Elastic Compliance Matrix: (Units=1/GPa)
#
#
# Indices 1 2 3 4 5 6 
#
# 1 0.007425 -0.007161 -0.001861 0.000000 -0.002953 0.000000
# 2 -0.007161 0.028822 -0.001275 0.000000 0.006301 0.000000
# 3 -0.001861 -0.001275 0.014028 0.000000 0.005246 0.000000
# 4 0.000000 0.000000 0.000000 0.034842 0.000000 -0.002923
# 5 -0.002953 0.006301 0.005246 0.000000 0.028842 0.000000
# 6 0.000000 0.000000 0.000000 -0.002923 0.000000 0.018038
#
#
# Mechanical properties :
#
#
# Convention : Reuss Voigt Hill
#
# Bulk Modulus (GPa) = 33.69072 55.29036 44.49054
# Shear Modulus (GPa) = 30.77212 40.35960 35.56586
#
# Velocity S-wave (km/s) = 3.50278 4.01151 3.76575
# Velocity P-wave (km/s) = 5.45825 6.59558 6.05369
#
# Compressibility (1/GPa) = 0.02968177
#
# Stress axis : x y z
#
# Youngs Moduli (GPa) = 134.67707 34.69587 71.28575
#
# Poissons Ratio (x) = 0.24845 0.13267
# Poissons Ratio (y) = 0.96440 0.09087
# Poissons Ratio (z) = 0.25064 0.04423
#
# Static dielectric constant tensor:
#      x y z
#    x 2.022570 0.000000 0.046760 
#    y 0.000000 1.960260 0.000000 
#    z 0.046760 0.000000 2.036190 
# 
# From -- ./inp_files/41539.got.cif
#   From: 2010.05.17/outbox.cif.g08.bks.cpg/sg13_21_cif.got.tgz:41539.got - 2010.06.03 16:44:36.
