data_PCOD9232303
_publ_section_title
;
Structure prediction by ZEFSAII (Michael W. Deem and Ramdas Pophale) SiO2 
 PCOD9232303
Probable space group: P 2/C
;
_chemical_formula_sum "Si O2"
_cell_formula_units_Z 20
_cell_length_a 14.229134
_cell_length_b 6.543115
_cell_length_c 22.200653
_cell_angle_alpha 90.000000
_cell_angle_beta 23.414653
_cell_angle_gamma 90.000000
_cell_volume 821.367670
_symmetry_space_group_name_H-M "P 2/C"
_symmetry_group_IT_number 13
_symmetry_cell_setting 'monoclinic'
loop_
_space_group_symop_operation_xyz
x,y,z
-x,y,1/2-z
-x,-y,-z
x,-y,1/2+z
loop_
_atom_site_type_symbol
_atom_site_label
_atom_site_fract_x
_atom_site_fract_y
_atom_site_fract_z
Si Si1 0.745885 0.055725 0.076509
Si Si2 0.839966 0.302394 0.602284
Si Si3 0.669471 0.805216 0.889737
Si Si4 0.416688 0.579837 0.134520
Si Si5 0.999846 0.845901 0.180590
O O1 0.500000 0.128610 0.250000
O O2 0.769325 0.819336 0.083662
O O3 0.762599 0.131923 0.997940
O O4 0.982910 0.153415 0.965311
O O5 0.620141 0.365870 0.774265
O O6 0.000000 0.500000 0.500000
O O7 0.598665 0.653781 0.877653
O O8 0.641000 0.676221 0.967959
O O9 0.908309 0.919697 0.733331
O O10 0.500000 0.000000 0.000000
O O11 0.187770 0.690788 0.238661
O O12 0.000000 0.787531 0.250000
#
# Coordination Sequence:
#
# PCOD9232303 Si02
#       5
#     4   4   4   4   4
#     4  10  23  41  61  92 125 161 214 256 313 380
#     4  10  21  40  64  86 123 169 205 263 314 372
#     4   9  18  35  58  83 115 151 197 248 297 364
#     4   9  19  36  57  88 113 156 208 246 305 374
#     4  10  21  36  57  86 122 157 194 255 311 365
#
# _framework density 24.349630000000001
#
# number of rings (size 3 to 8) (size 9 to 14) (size 15 to 20)
#    0.000    2.400    0.000    1.200    2.800    3.200 
#   10.800    0.000    0.000    0.000    0.000    0.000 
#    0.000    0.000    0.000    0.000    0.000    0.000 
#
# Total GULP energy -111596.439940 kJ/mol
# GULP energy per Si atom -5579.821997 kJ/mol
# Density = 2.429421 g / cm^3
# Si number density = 24.349630 Si / 1000 Ang^3
#
#
#
# Elastic Constant Matrix: (Units=GPa)
#
#
# Indices 1 2 3 4 5 6 
#
# 1 89.7298 34.8824 30.7929 0.0000 22.1621 0.0000
# 2 34.8824 114.3477 22.3264 0.0000 7.9398 0.0000
# 3 30.7929 22.3264 136.8297 0.0000 36.4910 0.0000
# 4 0.0000 0.0000 0.0000 22.0309 0.0000 1.6798
# 5 22.1621 7.9398 36.4910 0.0000 36.2687 0.0000
# 6 0.0000 0.0000 0.0000 1.6798 0.0000 5.5021
#
#
#
# Elastic Compliance Matrix: (Units=1/GPa)
#
#
# Indices 1 2 3 4 5 6 
#
# 1 0.014715 -0.003835 -0.000699 0.000000 -0.007449 0.000000
# 2 -0.003835 0.010045 -0.001113 0.000000 0.001264 0.000000
# 3 -0.000699 -0.001113 0.010207 0.000000 -0.009599 0.000000
# 4 0.000000 0.000000 0.000000 0.046473 0.000000 -0.014188
# 5 -0.007449 0.001264 -0.009599 0.000000 0.041504 0.000000
# 6 0.000000 0.000000 0.000000 -0.014188 0.000000 0.186081
#
#
# Mechanical properties :
#
#
# Convention : Reuss Voigt Hill
#
# Bulk Modulus (GPa) = 42.24432 57.43449 49.83940
# Shear Modulus (GPa) = 15.23410 29.62070 22.42740
#
# Velocity S-wave (km/s) = 2.50399 3.49158 3.03818
# Velocity P-wave (km/s) = 5.07412 6.31613 5.72888
#
# Compressibility (1/GPa) = 0.02367182
#
# Stress axis : x y z
#
# Youngs Moduli (GPa) = 67.95698 99.55453 97.96935
#
# Poissons Ratio (x) = 0.38181 0.06852
# Poissons Ratio (y) = 0.26063 0.10905
# Poissons Ratio (z) = 0.04753 0.11082
#
# Static dielectric constant tensor:
#      x y z
#    x 2.413360 0.000000 -0.202790 
#    y 0.000000 1.929130 0.000000 
#    z -0.202790 0.000000 2.120770 
# 
# From -- ./inp_files/93117.got.cif
#   From: 2010.05.17/outbox.cif.g08.bks.cpg/sg13_47_cif.got.tgz:93117.got - 2010.06.03 16:44:36.
