data_PCOD9232976
_publ_section_title
;
Structure prediction by ZEFSAII (Michael W. Deem and Ramdas Pophale) SiO2 
 PCOD9232976
Probable space group: P 2/C
;
_chemical_formula_sum "Si O2"
_cell_formula_units_Z 28
_cell_length_a 10.618993
_cell_length_b 6.491775
_cell_length_c 18.806250
_cell_angle_alpha 90.000000
_cell_angle_beta 68.216088
_cell_angle_gamma 90.000000
_cell_volume 1203.851816
_symmetry_space_group_name_H-M "P 2/C"
_symmetry_group_IT_number 13
_symmetry_cell_setting 'monoclinic'
loop_
_space_group_symop_operation_xyz
x,y,z
-x,y,1/2-z
-x,-y,-z
x,-y,1/2+z
loop_
_atom_site_type_symbol
_atom_site_label
_atom_site_fract_x
_atom_site_fract_y
_atom_site_fract_z
Si Si1 0.509743 0.065794 0.889087
Si Si2 0.867315 0.942018 0.874890
Si Si3 0.602486 0.684935 0.499225
Si Si4 0.914611 0.200176 0.604016
Si Si5 0.081944 0.582585 0.799018
Si Si6 0.255575 0.307339 0.984792
Si Si7 0.747889 0.948208 0.750529
O O1 0.382346 0.220494 0.912739
O O2 0.453490 0.849642 0.932322
O O3 0.596771 0.016200 0.801462
O O4 0.608531 0.181058 0.925843
O O5 0.937244 0.113798 0.908577
O O6 0.833525 0.016220 0.802705
O O7 0.980068 0.764052 0.842473
O O8 0.748544 0.820618 0.940864
O O9 0.500000 0.500000 0.500000
O O10 0.727046 0.548773 0.502680
O O11 0.897828 0.418077 0.645248
O O12 0.876787 0.237839 0.530625
O O13 0.808525 0.049403 0.667143
O O14 0.222243 0.702698 0.754287
O O15 0.000000 0.485479 0.750000
#
# Coordination Sequence:
#
# PCOD9232976 Si02
#       7
#     4   4   4   4   4   4   4
#     4  10  21  39  62  86 121 160 197 250 303 360
#     4  10  21  39  61  87 117 157 208 252 299 367
#     4   9  19  36  58  88 115 150 202 246 294 353
#     4  11  23  39  59  88 125 161 197 250 316 367
#     4   9  20  37  59  86 115 153 203 254 300 359
#     4  11  24  38  59  92 125 159 204 252 306 370
#     4  10  21  39  63  88 115 156 207 249 301 372
#
# _framework density 23.258676000000001
#
# number of rings (size 3 to 8) (size 9 to 14) (size 15 to 20)
#    0.000    2.000    0.000    5.143    0.000   10.286 
#    0.000    0.000    0.000    0.000    0.000    0.000 
#    0.000    0.000    0.000    0.000    0.000    0.000 
#
# Total GULP energy -156290.232958 kJ/mol
# GULP energy per Si atom -5581.794034 kJ/mol
# Density = 2.320574 g / cm^3
# Si number density = 23.258676 Si / 1000 Ang^3
#
#
#
# Elastic Constant Matrix: (Units=GPa)
#
#
# Indices 1 2 3 4 5 6 
#
# 1 31.9855 17.6460 7.3235 0.0000 13.7558 0.0000
# 2 17.6460 94.8307 14.5752 0.0000 6.3758 0.0000
# 3 7.3235 14.5752 54.3057 0.0000 -1.2533 0.0000
# 4 0.0000 0.0000 0.0000 82.6101 0.0000 231.9343
# 5 13.7558 6.3758 -1.2533 0.0000 44.8665 0.0000
# 6 0.0000 0.0000 0.0000 231.9343 0.0000 966.4754
#
#
#
# Elastic Compliance Matrix: (Units=1/GPa)
#
#
# Indices 1 2 3 4 5 6 
#
# 1 0.040621 -0.006142 -0.004099 0.000000 -0.011696 0.000000
# 2 -0.006142 0.012051 -0.002404 0.000000 0.000104 0.000000
# 3 -0.004099 -0.002404 0.019662 0.000000 0.002148 0.000000
# 4 0.000000 0.000000 0.000000 0.037105 0.000000 -0.008904
# 5 -0.011696 0.000104 0.002148 0.000000 0.025919 0.000000
# 6 0.000000 0.000000 0.000000 -0.008904 0.000000 0.003172
#
#
# Mechanical properties :
#
#
# Convention : Reuss Voigt Hill
#
# Bulk Modulus (GPa) = 21.25715 28.91238 25.08477
# Shear Modulus (GPa) = 27.85491 228.22885 128.04188
#
# Velocity S-wave (km/s) = 3.46441 9.91662 7.42770
# Velocity P-wave (km/s) = 5.01619 11.98236 9.18529
#
# Compressibility (1/GPa) = 0.04704300
#
# Stress axis : x y z
#
# Youngs Moduli (GPa) = 24.61753 82.98390 50.86008
#
# Poissons Ratio (x) = 0.50972 0.20850
# Poissons Ratio (y) = 0.15121 0.12224
# Poissons Ratio (z) = 0.10092 0.19945
#
# Static dielectric constant tensor:
#      x y z
#    x 2.042880 0.000000 0.008590 
#    y 0.000000 1.840610 0.000000 
#    z 0.008590 0.000000 1.894530 
# 
# From -- ./inp_files/77458.got.cif
#   From: 2010.05.17/outbox.cif.g08.bks.cpg/sg13_39_cif.got.tgz:77458.got - 2010.06.03 16:44:36.
