data_PCOD9232947
_publ_section_title
;
Structure prediction by ZEFSAII (Michael W. Deem and Ramdas Pophale) SiO2 
 PCOD9232947
Probable space group: P 2/C
;
_chemical_formula_sum "Si O2"
_cell_formula_units_Z 32
_cell_length_a 12.607446
_cell_length_b 21.855895
_cell_length_c 13.108211
_cell_angle_alpha 90.000000
_cell_angle_beta 157.103894
_cell_angle_gamma 90.000000
_cell_volume 1405.261723
_symmetry_space_group_name_H-M "P 2/C"
_symmetry_group_IT_number 13
_symmetry_cell_setting 'monoclinic'
loop_
_space_group_symop_operation_xyz
x,y,z
-x,y,1/2-z
-x,-y,-z
x,-y,1/2+z
loop_
_atom_site_type_symbol
_atom_site_label
_atom_site_fract_x
_atom_site_fract_y
_atom_site_fract_z
Si Si1 0.807947 0.399811 0.481554
Si Si2 0.898664 0.216158 0.340408
Si Si3 0.380028 0.857554 0.312844
Si Si4 0.432899 0.000457 0.808983
Si Si5 0.926754 0.925329 0.302925
Si Si6 0.189382 0.663449 0.015316
Si Si7 0.805989 0.737993 0.979292
Si Si8 0.193503 0.530794 0.021426
O O1 0.500000 0.399297 0.250000
O O2 0.854565 0.331757 0.481041
O O3 0.847111 0.465026 0.459509
O O4 0.000000 0.402334 0.750000
O O5 0.037446 0.280745 0.435225
O O6 0.632188 0.188786 0.048369
O O7 0.833293 0.220413 0.403253
O O8 0.144586 0.170223 0.534902
O O9 0.418709 0.926825 0.310642
O O10 0.234634 0.868325 0.293605
O O11 0.500000 0.991893 0.750000
O O12 0.178711 0.952451 0.591877
O O13 0.699706 0.978426 0.104550
O O14 0.000000 0.914159 0.250000
O O15 0.000000 0.654565 0.750000
O O16 0.500000 0.675378 0.250000
O O17 0.176155 0.597211 0.059842
O O18 0.500000 0.742665 0.750000
O O19 0.000000 0.748363 0.250000
O O20 0.500000 0.530252 0.250000
O O21 0.000000 0.530078 0.750000
#
# Coordination Sequence:
#
# PCOD9232947 Si02
#       8
#     4   4   4   4   4   4   4   4
#     4   8  14  27  51  79 104 139 188 241 300 351
#     4  12  26  39  57  88 118 160 207 230 275 352
#     4  12  24  39  60  86 121 154 189 238 277 332
#     4  10  21  39  63  89 115 146 186 234 289 340
#     4  10  21  39  63  89 115 146 186 234 289 340
#     4  10  21  39  59  80 116 158 196 248 298 342
#     4  10  21  39  59  80 116 158 196 248 298 342
#     4   8  14  27  51  79 104 139 188 241 300 351
#
# _framework density 22.771560000000001
#
# number of rings (size 3 to 8) (size 9 to 14) (size 15 to 20)
#    0.000    2.000    0.000    3.750    0.000    3.000 
#    0.000    0.625    0.000    0.000    0.000   19.250 
#    0.000    0.000    0.000    0.000    0.000    0.000 
#
# Total GULP energy -178250.502631 kJ/mol
# GULP energy per Si atom -5570.328207 kJ/mol
# Density = 2.271973 g / cm^3
# Si number density = 22.771560 Si / 1000 Ang^3
#
#
#
# Elastic Constant Matrix: (Units=GPa)
#
#
# Indices 1 2 3 4 5 6 
#
# 1 26.7930 1.8842 22.1204 0.0000 13.4534 0.0000
# 2 1.8842 75.9887 18.9301 0.0000 20.2745 0.0000
# 3 22.1204 18.9301 155.0324 0.0000 27.1161 0.0000
# 4 0.0000 0.0000 0.0000 22.6378 0.0000 -15.4908
# 5 13.4534 20.2745 27.1161 0.0000 17.2540 0.0000
# 6 0.0000 0.0000 0.0000 -15.4908 0.0000 19.7788
#
#
#
# Elastic Compliance Matrix: (Units=1/GPa)
#
#
# Indices 1 2 3 4 5 6 
#
# 1 0.079807 0.021751 0.001809 0.000000 -0.090629 0.000000
# 2 0.021751 0.025661 0.002763 0.000000 -0.051456 0.000000
# 3 0.001809 0.002763 0.009198 0.000000 -0.019112 0.000000
# 4 0.000000 0.000000 0.000000 0.095189 0.000000 0.074552
# 5 -0.090629 -0.051456 -0.019112 0.000000 0.219122 0.000000
# 6 0.000000 0.000000 0.000000 0.074552 0.000000 0.108949
#
#
# Mechanical properties :
#
#
# Convention : Reuss Voigt Hill
#
# Bulk Modulus (GPa) = 5.97686 38.18704 22.08195
# Shear Modulus (GPa) = 9.24128 26.25942 17.75035
#
# Velocity S-wave (km/s) = 2.01670 3.39952 2.79498
# Velocity P-wave (km/s) = 2.83781 5.67582 4.48710
#
# Compressibility (1/GPa) = 0.16731186
#
# Stress axis : x y z
#
# Youngs Moduli (GPa) = 12.53017 38.96949 108.72435
#
# Poissons Ratio (x) = -0.84764 -0.19663
# Poissons Ratio (y) = -0.27255 -0.30041
# Poissons Ratio (z) = -0.02266 -0.10767
#
# Static dielectric constant tensor:
#      x y z
#    x 1.904150 0.000000 -0.033650 
#    y 0.000000 1.982730 0.000000 
#    z -0.033650 0.000000 1.835060 
# 
# From -- ./inp_files/54004.got.cif
#   From: 2010.05.17/outbox.cif.g08.bks.cpg/sg13_28_cif.got.tgz:54004.got - 2010.06.03 16:44:36.
