data_PCOD9232824
_publ_section_title
;
Structure prediction by ZEFSAII (Michael W. Deem and Ramdas Pophale) SiO2 
 PCOD9232824
Probable space group: P 2/C
;
_chemical_formula_sum "Si O2"
_cell_formula_units_Z 32
_cell_length_a 5.877979
_cell_length_b 14.443039
_cell_length_c 16.019888
_cell_angle_alpha 90.000000
_cell_angle_beta 96.595325
_cell_angle_gamma 90.000000
_cell_volume 1351.022051
_symmetry_space_group_name_H-M "P 2/C"
_symmetry_group_IT_number 13
_symmetry_cell_setting 'monoclinic'
loop_
_space_group_symop_operation_xyz
x,y,z
-x,y,1/2-z
-x,-y,-z
x,-y,1/2+z
loop_
_atom_site_type_symbol
_atom_site_label
_atom_site_fract_x
_atom_site_fract_y
_atom_site_fract_z
Si Si1 0.901836 0.172501 0.837216
Si Si2 0.887029 0.809760 0.872932
Si Si3 0.681282 0.198267 0.536224
Si Si4 0.031833 0.609289 0.844454
Si Si5 0.537070 0.546785 0.850452
Si Si6 0.720526 0.066038 0.037908
Si Si7 0.557714 0.673199 0.349124
Si Si8 0.654944 0.010950 0.364553
O O1 0.786720 0.265580 0.868783
O O2 0.000000 0.190603 0.750000
O O3 0.107130 0.149364 0.908640
O O4 0.731519 0.083776 0.824256
O O5 0.995403 0.719801 0.836424
O O6 0.091463 0.866591 0.921177
O O7 0.739953 0.893626 0.825148
O O8 0.738665 0.773772 0.944677
O O9 0.463592 0.132762 0.515731
O O10 0.618785 0.282176 0.594008
O O11 0.295850 0.584071 0.881539
O O12 0.000000 0.566943 0.750000
O O13 0.798848 0.578128 0.883214
O O14 0.500000 0.571379 0.750000
O O15 0.552956 0.436170 0.860274
O O16 0.605438 0.023150 0.116456
O O17 0.768455 0.997336 0.962791
O O18 0.500000 0.692059 0.250000
#
# Coordination Sequence:
#
# PCOD9232824 Si02
#       8
#     4   4   4   4   4   4   4   4
#     4  12  24  38  61  93 137 165 212 267 326 385
#     4  11  23  39  69  89 127 172 218 268 327 387
#     4  11  22  38  61  94 128 166 215 264 320 393
#     4  10  23  45  70  98 128 167 223 284 334 394
#     4   9  22  42  70  96 127 170 223 271 335 407
#     4  10  21  38  63  87 123 171 222 258 307 391
#     4  11  22  39  65  93 126 172 210 266 328 396
#     4  10  22  36  59  91 120 169 215 257 310 387
#
# _framework density 23.685770999999999
#
# number of rings (size 3 to 8) (size 9 to 14) (size 15 to 20)
#    0.000    1.500    3.750    0.375    8.750    1.000 
#    0.000    1.250    2.750    0.000    0.000    0.000 
#    0.000    0.000    0.000    0.000    0.000    0.000 
#
# Total GULP energy -178356.496815 kJ/mol
# GULP energy per Si atom -5573.640525 kJ/mol
# Density = 2.363186 g / cm^3
# Si number density = 23.685771 Si / 1000 Ang^3
#
#
#
# Elastic Constant Matrix: (Units=GPa)
#
#
# Indices 1 2 3 4 5 6 
#
# 1 126.8774 54.8621 14.5605 0.0000 -8.9523 0.0000
# 2 54.8621 109.4133 8.3819 0.0000 -16.5610 0.0000
# 3 14.5605 8.3819 29.6129 0.0000 -7.4720 0.0000
# 4 0.0000 0.0000 0.0000 11.1812 0.0000 -11.8444
# 5 -8.9523 -16.5610 -7.4720 0.0000 25.4694 0.0000
# 6 0.0000 0.0000 0.0000 -11.8444 0.0000 40.1546
#
#
#
# Elastic Compliance Matrix: (Units=1/GPa)
#
#
# Indices 1 2 3 4 5 6 
#
# 1 0.010466 -0.005063 -0.003904 0.000000 -0.000759 0.000000
# 2 -0.005063 0.012634 0.000580 0.000000 0.006606 0.000000
# 3 -0.003904 0.000580 0.038093 0.000000 0.010181 0.000000
# 4 0.000000 0.000000 0.000000 0.130083 0.000000 0.038371
# 5 -0.000759 0.006606 0.010181 0.000000 0.046278 0.000000
# 6 0.000000 0.000000 0.000000 0.038371 0.000000 0.036222
#
#
# Mechanical properties :
#
#
# Convention : Reuss Voigt Hill
#
# Bulk Modulus (GPa) = 22.51334 46.83475 34.67404
# Shear Modulus (GPa) = 16.37433 27.90098 22.13765
#
# Velocity S-wave (km/s) = 2.63214 3.43587 3.06050
# Velocity P-wave (km/s) = 4.33165 5.96293 5.21151
#
# Compressibility (1/GPa) = 0.04441811
#
# Stress axis : x y z
#
# Youngs Moduli (GPa) = 95.55155 79.15186 26.25135
#
# Poissons Ratio (x) = 0.40078 0.10249
# Poissons Ratio (y) = 0.48382 -0.01524
# Poissons Ratio (z) = 0.37306 -0.04594
#
# Static dielectric constant tensor:
#      x y z
#    x 2.047780 0.000000 -0.037430 
#    y 0.000000 1.928530 0.000000 
#    z -0.037430 0.000000 1.929030 
# 
# From -- ./inp_files/61604.got.cif
#   From: 2010.05.17/outbox.cif.g08.bks.cpg/sg13_31_cif.got.tgz:61604.got - 2010.06.03 16:44:36.
