data_PCOD9232881
_publ_section_title
;
Structure prediction by ZEFSAII (Michael W. Deem and Ramdas Pophale) SiO2 
 PCOD9232881
Probable space group: P 2/C
;
_chemical_formula_sum "Si O2"
_cell_formula_units_Z 26
_cell_length_a 14.893205
_cell_length_b 8.505756
_cell_length_c 21.834174
_cell_angle_alpha 90.000000
_cell_angle_beta 157.658437
_cell_angle_gamma 90.000000
_cell_volume 1051.397211
_symmetry_space_group_name_H-M "P 2/C"
_symmetry_group_IT_number 13
_symmetry_cell_setting 'monoclinic'
loop_
_space_group_symop_operation_xyz
x,y,z
-x,y,1/2-z
-x,-y,-z
x,-y,1/2+z
loop_
_atom_site_type_symbol
_atom_site_label
_atom_site_fract_x
_atom_site_fract_y
_atom_site_fract_z
Si Si1 0.540975 0.313538 0.527553
Si Si2 0.587302 0.285775 0.926424
Si Si3 0.946895 0.167528 0.317796
Si Si4 0.500000 0.881204 0.250000
Si Si5 0.095861 0.667299 0.583993
Si Si6 0.655479 0.348324 0.467636
Si Si7 0.078810 0.873979 0.457485
O O1 0.500000 0.500000 0.500000
O O2 0.597303 0.279028 0.633858
O O3 0.288076 0.233032 0.359913
O O4 0.682369 0.282332 0.554127
O O5 0.469342 0.230424 0.789248
O O6 0.686778 0.463745 0.987473
O O7 0.821097 0.177056 0.077800
O O8 0.997330 0.280731 0.408379
O O9 0.897390 0.992945 0.311125
O O10 0.711798 0.000466 0.397303
O O11 0.381890 0.670231 0.773235
O O12 0.032448 0.794366 0.492799
O O13 0.000000 0.500000 0.500000
O O14 0.825638 0.257847 0.528860
#
# Coordination Sequence:
#
# PCOD9232881 Si02
#       7
#     4   4   4   2   4   4   4
#     4   9  20  42  67  91 124 171 220 271 320 389
#     4  10  21  38  67  93 128 168 225 262 326 392
#     4  10  22  37  61  95 128 170 213 269 334 386
#     4  10  22  34  62  92 126 172 202 266 334 382
#     4  11  22  36  60  94 133 172 219 268 325 388
#     4  10  21  38  65  93 124 174 223 264 322 394
#     4  11  21  39  60  93 136 168 212 274 333 391
#
# _framework density 24.728999000000002
#
# number of rings (size 3 to 8) (size 9 to 14) (size 15 to 20)
#    0.000    1.846    1.538    1.846    6.462    0.000 
#    0.000    3.077    3.385   27.692    0.000    0.000 
#    0.000    0.000    0.000    0.000    0.000    0.000 
#
# Total GULP energy -145469.052559 kJ/mol
# GULP energy per Si atom -5594.963560 kJ/mol
# Density = 2.467271 g / cm^3
# Si number density = 24.728999 Si / 1000 Ang^3
#
#
#
# Elastic Constant Matrix: (Units=GPa)
#
#
# Indices 1 2 3 4 5 6 
#
# 1 158.9568 32.1571 16.7401 0.0000 -38.5761 0.0000
# 2 32.1571 120.0074 15.3561 0.0000 -14.2092 0.0000
# 3 16.7401 15.3561 36.7601 0.0000 -17.4577 0.0000
# 4 0.0000 0.0000 0.0000 38.2074 0.0000 4.2045
# 5 -38.5761 -14.2092 -17.4577 0.0000 42.3444 0.0000
# 6 0.0000 0.0000 0.0000 4.2045 0.0000 40.4421
#
#
#
# Elastic Compliance Matrix: (Units=1/GPa)
#
#
# Indices 1 2 3 4 5 6 
#
# 1 0.008292 -0.001400 0.000215 0.000000 0.007173 0.000000
# 2 -0.001400 0.009150 -0.002900 0.000000 0.000599 0.000000
# 3 0.000215 -0.002900 0.034752 0.000000 0.013551 0.000000
# 4 0.000000 0.000000 0.000000 0.026476 0.000000 -0.002753
# 5 0.007173 0.000599 0.013551 0.000000 0.035939 0.000000
# 6 0.000000 0.000000 0.000000 -0.002753 0.000000 0.025013
#
#
# Mechanical properties :
#
#
# Convention : Reuss Voigt Hill
#
# Bulk Modulus (GPa) = 22.71455 49.35900 36.03677
# Shear Modulus (GPa) = 30.77548 40.96352 35.86950
#
# Velocity S-wave (km/s) = 3.53159 4.07442 3.81268
# Velocity P-wave (km/s) = 5.08280 6.49137 5.82978
#
# Compressibility (1/GPa) = 0.04402465
#
# Stress axis : x y z
#
# Youngs Moduli (GPa) = 120.59115 109.28885 28.77518
#
# Poissons Ratio (x) = 0.15303 -0.00620
# Poissons Ratio (y) = 0.16886 0.08345
# Poissons Ratio (z) = -0.02597 0.31695
#
# Static dielectric constant tensor:
#      x y z
#    x 1.991070 0.000000 -0.005600 
#    y 0.000000 1.902570 0.000000 
#    z -0.005600 0.000000 2.087300 
# 
# From -- ./inp_files/79865.got.cif
#   From: 2010.05.17/outbox.cif.g08.bks.cpg/sg13_40_cif.got.tgz:79865.got - 2010.06.03 16:44:36.
