data_PCOD9232133
_publ_section_title
;
Structure prediction by ZEFSAII (Michael W. Deem and Ramdas Pophale) SiO2 
 PCOD9232133
Probable space group: P 2/C
;
_chemical_formula_sum "Si O2"
_cell_formula_units_Z 28
_cell_length_a 14.245300
_cell_length_b 10.425469
_cell_length_c 9.058612
_cell_angle_alpha 90.000000
_cell_angle_beta 65.393045
_cell_angle_gamma 90.000000
_cell_volume 1223.154716
_symmetry_space_group_name_H-M "P 2/C"
_symmetry_group_IT_number 13
_symmetry_cell_setting 'monoclinic'
loop_
_space_group_symop_operation_xyz
x,y,z
-x,y,1/2-z
-x,-y,-z
x,-y,1/2+z
loop_
_atom_site_type_symbol
_atom_site_label
_atom_site_fract_x
_atom_site_fract_y
_atom_site_fract_z
Si Si1 0.872178 0.561701 0.753939
Si Si2 0.500000 0.297233 0.250000
Si Si3 0.053968 0.334649 0.979464
Si Si4 0.500000 0.713043 0.250000
Si Si5 0.414662 0.112203 0.551459
Si Si6 0.892992 0.944940 0.011973
Si Si7 0.350030 0.355211 0.100772
Si Si8 0.766201 0.080703 0.313152
O O1 0.920931 0.428011 0.671049
O O2 0.749494 0.555889 0.822368
O O3 0.932189 0.662104 0.604885
O O4 0.896625 0.604406 0.904128
O O5 0.436163 0.205330 0.401106
O O6 0.422641 0.371946 0.194560
O O7 0.104755 0.197680 0.921519
O O8 0.569116 0.804085 0.311263
O O9 0.422463 0.637552 0.409233
O O10 0.500000 0.000000 0.500000
O O11 0.308610 0.037962 0.604270
O O12 0.809113 0.044796 0.125723
O O13 0.863246 0.920285 0.861585
O O14 0.000000 0.000000 0.000000
O O15 0.299092 0.211503 0.134115
#
# Coordination Sequence:
#
# PCOD9232133 Si02
#       8
#     4   2   4   2   4   4   4   4
#     4  10  22  46  75  95 126 180 236 282 336 401
#     4  10  21  34  56  95 134 176 221 289 326 402
#     4  10  23  47  72  99 131 175 235 289 333 412
#     4  10  21  34  58  93 134 178 219 283 338 400
#     4  11  20  32  54  87 133 173 227 263 329 420
#     4  12  26  43  62 102 143 174 213 283 355 416
#     4  11  21  39  66  98 137 178 229 282 345 408
#     4  12  23  37  63  96 135 187 214 269 356 417
#
# _framework density 22.891625999999999
#
# number of rings (size 3 to 8) (size 9 to 14) (size 15 to 20)
#    0.000    1.143    4.286    3.429    2.000    0.000 
#   15.429    0.000    0.000    2.571    3.714    0.000 
#    0.000    0.000    0.000    0.000    0.000    0.000 
#
# Total GULP energy -156518.291732 kJ/mol
# GULP energy per Si atom -5589.938990 kJ/mol
# Density = 2.283952 g / cm^3
# Si number density = 22.891626 Si / 1000 Ang^3
#
#
#
# Elastic Constant Matrix: (Units=GPa)
#
#
# Indices 1 2 3 4 5 6 
#
# 1 133.7509 14.5509 47.7639 0.0000 0.8426 0.0000
# 2 14.5509 60.7989 31.3546 0.0000 3.6477 0.0000
# 3 47.7639 31.3546 102.6200 0.0000 3.8368 0.0000
# 4 0.0000 0.0000 0.0000 19.9586 0.0000 -2.2275
# 5 0.8426 3.6477 3.8368 0.0000 31.0118 0.0000
# 6 0.0000 0.0000 0.0000 -2.2275 0.0000 28.2880
#
#
#
# Elastic Compliance Matrix: (Units=1/GPa)
#
#
# Indices 1 2 3 4 5 6 
#
# 1 0.008969 -0.000006 -0.004183 0.000000 0.000275 0.000000
# 2 -0.000006 0.019600 -0.005927 0.000000 -0.001572 0.000000
# 3 -0.004183 -0.005927 0.013535 0.000000 -0.000864 0.000000
# 4 0.000000 0.000000 0.000000 0.050548 0.000000 0.003980
# 5 0.000275 -0.001572 -0.000864 0.000000 0.032530 0.000000
# 6 0.000000 0.000000 0.000000 0.003980 0.000000 0.035664
#
#
# Mechanical properties :
#
#
# Convention : Reuss Voigt Hill
#
# Bulk Modulus (GPa) = 45.72028 53.83430 49.77729
# Shear Modulus (GPa) = 26.54354 29.41836 27.98095
#
# Velocity S-wave (km/s) = 3.40888 3.58874 3.49997
# Velocity P-wave (km/s) = 5.95901 6.38280 6.17454
#
# Compressibility (1/GPa) = 0.02187213
#
# Stress axis : x y z
#
# Youngs Moduli (GPa) = 111.49054 51.02022 73.88223
#
# Poissons Ratio (x) = 0.00029 0.30907
# Poissons Ratio (y) = 0.00064 0.43791
# Poissons Ratio (z) = 0.46639 0.30241
#
# Static dielectric constant tensor:
#      x y z
#    x 1.863890 0.000000 -0.021300 
#    y 0.000000 1.857270 0.000000 
#    z -0.021300 0.000000 1.845370 
# 
# From -- ./inp_files/18766.got.cif
#   From: 2010.05.17/outbox.cif.g08.bks.cpg/sg13_10_cif.got.tgz:18766.got - 2010.06.03 16:44:36.
