data_PCOD9232121
_publ_section_title
;
Structure prediction by ZEFSAII (Michael W. Deem and Ramdas Pophale) SiO2 
 PCOD9232121
Probable space group: P 2/C
;
_chemical_formula_sum "Si O2"
_cell_formula_units_Z 22
_cell_length_a 20.392097
_cell_length_b 6.686529
_cell_length_c 10.764563
_cell_angle_alpha 90.000000
_cell_angle_beta 136.246964
_cell_angle_gamma 90.000000
_cell_volume 1015.040677
_symmetry_space_group_name_H-M "P 2/C"
_symmetry_group_IT_number 13
_symmetry_cell_setting 'monoclinic'
loop_
_space_group_symop_operation_xyz
x,y,z
-x,y,1/2-z
-x,-y,-z
x,-y,1/2+z
loop_
_atom_site_type_symbol
_atom_site_label
_atom_site_fract_x
_atom_site_fract_y
_atom_site_fract_z
Si Si1 0.629336 0.191253 0.870355
Si Si2 0.183784 0.849265 0.163982
Si Si3 0.500000 0.441979 0.250000
Si Si4 0.017338 0.409307 0.393847
Si Si5 0.151982 0.912200 0.860254
Si Si6 0.401766 0.121514 0.953622
O O1 0.584364 0.410183 0.823164
O O2 0.592725 0.093724 0.688779
O O3 0.744520 0.191575 0.022703
O O4 0.597317 0.065082 0.948513
O O5 0.293644 0.805351 0.324175
O O6 0.144877 0.929728 0.240062
O O7 0.125547 0.657411 0.044459
O O8 0.163571 0.992728 0.017280
O O9 0.530665 0.295594 0.403578
O O10 0.000000 0.543962 0.250000
O O11 0.000000 0.500000 0.500000
O O12 0.940412 0.228950 0.275169
#
# Coordination Sequence:
#
# PCOD9232121 Si02
#       6
#     4   4   2   4   4   4
#     4  10  23  42  62  88 121 156 199 248 298 354
#     4   9  19  37  58  82 112 148 188 232 282 339
#     4  12  24  36  64  90 118 156 202 246 306 352
#     4  10  21  34  54  84 118 148 183 228 276 338
#     4   9  19  37  58  82 112 148 188 232 282 339
#     4  10  23  42  62  88 121 156 199 248 298 354
#
# _framework density 21.674009000000002
#
# number of rings (size 3 to 8) (size 9 to 14) (size 15 to 20)
#    0.000    2.182    0.000    1.636    2.545    5.818 
#    0.000    0.000    0.000    0.000    0.000    0.000 
#    0.000    0.000    0.000    0.000    0.000    0.000 
#
# Total GULP energy -122613.025793 kJ/mol
# GULP energy per Si atom -5573.319354 kJ/mol
# Density = 2.162468 g / cm^3
# Si number density = 21.674009 Si / 1000 Ang^3
#
#
#
# Elastic Constant Matrix: (Units=GPa)
#
#
# Indices 1 2 3 4 5 6 
#
# 1 91.2149 13.3706 30.4606 0.0000 -13.0885 0.0000
# 2 13.3706 48.2638 33.6495 0.0000 -1.0170 0.0000
# 3 30.4606 33.6495 122.5357 0.0000 -11.5412 0.0000
# 4 0.0000 0.0000 0.0000 17.1114 0.0000 -7.0604
# 5 -13.0885 -1.0170 -11.5412 0.0000 46.4228 0.0000
# 6 0.0000 0.0000 0.0000 -7.0604 0.0000 27.2566
#
#
#
# Elastic Compliance Matrix: (Units=1/GPa)
#
#
# Indices 1 2 3 4 5 6 
#
# 1 0.012412 -0.001751 -0.002333 0.000000 0.002881 0.000000
# 2 -0.001751 0.025940 -0.006841 0.000000 -0.001626 0.000000
# 3 -0.002333 -0.006841 0.010796 0.000000 0.001876 0.000000
# 4 0.000000 0.000000 0.000000 0.065434 0.000000 0.016950
# 5 0.002881 -0.001626 0.001876 0.000000 0.022784 0.000000
# 6 0.000000 0.000000 0.000000 0.016950 0.000000 0.041079
#
#
# Mechanical properties :
#
#
# Convention : Reuss Voigt Hill
#
# Bulk Modulus (GPa) = 36.63357 46.33064 41.48211
# Shear Modulus (GPa) = 23.87813 30.46043 27.16928
#
# Velocity S-wave (km/s) = 3.32278 3.75292 3.54438
# Velocity P-wave (km/s) = 5.62671 6.34048 5.99423
#
# Compressibility (1/GPa) = 0.02729737
#
# Stress axis : x y z
#
# Youngs Moduli (GPa) = 80.56458 38.55045 92.62422
#
# Poissons Ratio (x) = 0.06751 0.21612
# Poissons Ratio (y) = 0.14108 0.63367
# Poissons Ratio (z) = 0.18798 0.26373
#
# Static dielectric constant tensor:
#      x y z
#    x 1.934540 0.000000 -0.080780 
#    y 0.000000 1.812000 0.000000 
#    z -0.080780 0.000000 1.832580 
# 
# From -- ./inp_files/41339.got.cif
#   From: 2010.05.17/outbox.cif.g08.bks.cpg/sg13_21_cif.got.tgz:41339.got - 2010.06.03 16:44:36.
