data_PCOD9232963
_publ_section_title
;
Structure prediction by ZEFSAII (Michael W. Deem and Ramdas Pophale) SiO2 
 PCOD9232963
Probable space group: P 2/C
;
_chemical_formula_sum "Si O2"
_cell_formula_units_Z 24
_cell_length_a 13.636936
_cell_length_b 6.284653
_cell_length_c 13.311194
_cell_angle_alpha 90.000000
_cell_angle_beta 106.718342
_cell_angle_gamma 90.000000
_cell_volume 1092.593006
_symmetry_space_group_name_H-M "P 2/C"
_symmetry_group_IT_number 13
_symmetry_cell_setting 'monoclinic'
loop_
_space_group_symop_operation_xyz
x,y,z
-x,y,1/2-z
-x,-y,-z
x,-y,1/2+z
loop_
_atom_site_type_symbol
_atom_site_label
_atom_site_fract_x
_atom_site_fract_y
_atom_site_fract_z
Si Si1 0.764201 0.617470 0.539332
Si Si2 0.612828 0.748481 0.979356
Si Si3 0.772749 0.920108 0.735717
Si Si4 0.820106 0.975401 0.961187
Si Si5 0.097775 0.246326 0.845798
Si Si6 0.450702 0.952679 0.331011
O O1 0.656924 0.492584 0.489537
O O2 0.763976 0.753357 0.642506
O O3 0.852965 0.448568 0.586849
O O4 0.796303 0.773677 0.458638
O O5 0.715396 0.879530 0.979578
O O6 0.573990 0.807635 0.079818
O O7 0.522936 0.848784 0.884848
O O8 0.821755 0.133236 0.704829
O O9 0.657916 0.960532 0.736049
O O10 0.833388 0.873397 0.855875
O O11 0.911540 0.920626 0.064972
O O12 0.000000 0.290818 0.750000
O O13 0.500000 0.838121 0.250000
#
# Coordination Sequence:
#
# PCOD9232963 Si02
#       6
#     4   4   4   4   4   4
#     4  10  21  41  63  88 125 164 209 253 317 366
#     4  10  21  39  60  90 130 170 209 251 294 365
#     4  11  22  41  63  91 128 163 204 259 310 368
#     4  10  21  41  64  90 125 162 204 263 310 369
#     4  10  23  43  64  89 121 160 209 263 320 374
#     4  11  20  38  63  92 135 169 203 251 296 361
#
# _framework density 21.966090999999999
#
# number of rings (size 3 to 8) (size 9 to 14) (size 15 to 20)
#    0.000    1.667    6.667    0.000    0.000    6.667 
#    0.000    2.500    0.000    0.000    0.000    0.000 
#    0.000    0.000    0.000    0.000    0.000    0.000 
#
# Total GULP energy -133798.586976 kJ/mol
# GULP energy per Si atom -5574.941124 kJ/mol
# Density = 2.191610 g / cm^3
# Si number density = 21.966091 Si / 1000 Ang^3
#
#
#
# Elastic Constant Matrix: (Units=GPa)
#
#
# Indices 1 2 3 4 5 6 
#
# 1 17.3568 6.0837 5.6488 0.0000 10.5416 0.0000
# 2 6.0837 69.4362 -11.2644 0.0000 1.0908 0.0000
# 3 5.6488 -11.2644 82.9262 0.0000 -3.1839 0.0000
# 4 0.0000 0.0000 0.0000 18.0059 0.0000 4.4492
# 5 10.5416 1.0908 -3.1839 0.0000 39.3932 0.0000
# 6 0.0000 0.0000 0.0000 4.4492 0.0000 7.2897
#
#
#
# Elastic Compliance Matrix: (Units=1/GPa)
#
#
# Indices 1 2 3 4 5 6 
#
# 1 0.074798 -0.007349 -0.006875 0.000000 -0.020368 0.000000
# 2 -0.007349 0.015451 0.002667 0.000000 0.001754 0.000000
# 3 -0.006875 0.002667 0.012998 0.000000 0.002817 0.000000
# 4 0.000000 0.000000 0.000000 0.065401 0.000000 -0.039917
# 5 -0.020368 0.001754 0.002817 0.000000 0.031015 0.000000
# 6 0.000000 0.000000 0.000000 -0.039917 0.000000 0.161544
#
#
# Mechanical properties :
#
#
# Convention : Reuss Voigt Hill
#
# Bulk Modulus (GPa) = 12.47952 18.96173 15.72063
# Shear Modulus (GPa) = 12.16451 24.22115 18.19283
#
# Velocity S-wave (km/s) = 2.35582 3.32424 2.88101
# Velocity P-wave (km/s) = 3.61849 4.83581 4.27074
#
# Compressibility (1/GPa) = 0.08013127
#
# Stress axis : x y z
#
# Youngs Moduli (GPa) = 13.36930 64.72225 76.93718
#
# Poissons Ratio (x) = 0.47564 0.52897
# Poissons Ratio (y) = 0.09825 -0.20517
# Poissons Ratio (z) = 0.09192 -0.17259
#
# Static dielectric constant tensor:
#      x y z
#    x 1.814070 0.000000 0.002520 
#    y 0.000000 1.859710 0.000000 
#    z 0.002520 0.000000 1.857770 
# 
# From -- ./inp_files/52358.got.cif
#   From: 2010.05.17/outbox.cif.g08.bks.cpg/sg13_27_cif.got.tgz:52358.got - 2010.06.03 16:44:36.
