data_PCOD9232895
_publ_section_title
;
Structure prediction by ZEFSAII (Michael W. Deem and Ramdas Pophale) SiO2 
 PCOD9232895
Probable space group: P 2/C
;
_chemical_formula_sum "Si O2"
_cell_formula_units_Z 24
_cell_length_a 12.162303
_cell_length_b 5.122326
_cell_length_c 20.352711
_cell_angle_alpha 90.000000
_cell_angle_beta 45.252545
_cell_angle_gamma 90.000000
_cell_volume 900.525773
_symmetry_space_group_name_H-M "P 2/C"
_symmetry_group_IT_number 13
_symmetry_cell_setting 'monoclinic'
loop_
_space_group_symop_operation_xyz
x,y,z
-x,y,1/2-z
-x,-y,-z
x,-y,1/2+z
loop_
_atom_site_type_symbol
_atom_site_label
_atom_site_fract_x
_atom_site_fract_y
_atom_site_fract_z
Si Si1 0.850229 0.006172 0.270490
Si Si2 0.026634 0.663064 0.094576
Si Si3 0.060488 0.787863 0.504183
Si Si4 0.412843 0.835440 0.381980
Si Si5 0.418547 0.666334 0.664536
Si Si6 0.340077 0.158839 0.527095
O O1 0.751963 0.230605 0.276198
O O2 0.000000 0.091853 0.250000
O O3 0.274252 0.877225 0.126731
O O4 0.909883 0.780824 0.196773
O O5 0.201540 0.718313 0.042930
O O6 0.007260 0.899221 0.044418
O O7 0.974762 0.652108 0.909236
O O8 0.248204 0.791445 0.416738
O O9 0.000000 0.500000 0.500000
O O10 0.536905 0.607204 0.322685
O O11 0.371306 0.883701 0.476587
O O12 0.492690 0.109203 0.331108
O O13 0.507144 0.684067 0.556963
#
# Coordination Sequence:
#
# PCOD9232895 Si02
#       6
#     4   4   4   4   4   4
#     4  10  22  43  64 100 146 189 242 315 380 435
#     4  10  21  38  66  99 143 181 249 309 372 429
#     4  11  19  38  66  99 135 188 247 308 361 446
#     4  10  21  38  70  97 133 184 251 292 354 450
#     4  10  21  42  66  98 135 191 241 294 367 448
#     4   9  19  39  66  97 136 187 240 294 365 449
#
# _framework density 26.651098000000001
#
# number of rings (size 3 to 8) (size 9 to 14) (size 15 to 20)
#    1.000    1.000    3.333    0.500    2.333    0.667 
#    3.000    1.667    0.000    2.000    0.000    0.000 
#    0.000    0.000    0.000    0.000    0.000    2.667 
#
# Total GULP energy -133905.129751 kJ/mol
# GULP energy per Si atom -5579.380406 kJ/mol
# Density = 2.659044 g / cm^3
# Si number density = 26.651098 Si / 1000 Ang^3
#
#
#
# Elastic Constant Matrix: (Units=GPa)
#
#
# Indices 1 2 3 4 5 6 
#
# 1 101.6121 65.8054 39.8119 0.0000 -24.8012 0.0000
# 2 65.8054 239.7715 34.5400 0.0000 -13.2719 0.0000
# 3 39.8119 34.5400 106.8371 0.0000 -24.3839 0.0000
# 4 0.0000 0.0000 0.0000 32.6498 0.0000 -11.0443
# 5 -24.8012 -13.2719 -24.3839 0.0000 38.6556 0.0000
# 6 0.0000 0.0000 0.0000 -11.0443 0.0000 30.6723
#
#
#
# Elastic Compliance Matrix: (Units=1/GPa)
#
#
# Indices 1 2 3 4 5 6 
#
# 1 0.014669 -0.003245 -0.002948 0.000000 0.006438 0.000000
# 2 -0.003245 0.005109 -0.000604 0.000000 -0.000709 0.000000
# 3 -0.002948 -0.000604 0.011886 0.000000 0.005399 0.000000
# 4 0.000000 0.000000 0.000000 0.034876 0.000000 0.012558
# 5 0.006438 -0.000709 0.005399 0.000000 0.033162 0.000000
# 6 0.000000 0.000000 0.000000 0.012558 0.000000 0.037125
#
#
# Mechanical properties :
#
#
# Convention : Reuss Voigt Hill
#
# Bulk Modulus (GPa) = 55.34038 80.94837 68.14437
# Shear Modulus (GPa) = 31.96013 40.93308 36.44660
#
# Velocity S-wave (km/s) = 3.46671 3.92329 3.70205
# Velocity P-wave (km/s) = 6.06910 7.13879 6.62556
#
# Compressibility (1/GPa) = 0.01806999
#
# Stress axis : x y z
#
# Youngs Moduli (GPa) = 68.17010 195.73191 84.13152
#
# Poissons Ratio (x) = 0.63514 0.24801
# Poissons Ratio (y) = 0.22121 0.05085
# Poissons Ratio (z) = 0.20096 0.11829
#
# Static dielectric constant tensor:
#      x y z
#    x 2.113180 0.000000 0.132000 
#    y 0.000000 2.042420 0.000000 
#    z 0.132000 0.000000 2.202790 
# 
# From -- ./inp_files/92473.got.cif
#   From: 2010.05.17/outbox.cif.g08.bks.cpg/sg13_47_cif.got.tgz:92473.got - 2010.06.03 16:44:36.
