data_PCOD9232815
_publ_section_title
;
Structure prediction by ZEFSAII (Michael W. Deem and Ramdas Pophale) SiO2 
 PCOD9232815
Probable space group: P 2/C
;
_chemical_formula_sum "Si O2"
_cell_formula_units_Z 26
_cell_length_a 22.489692
_cell_length_b 12.263954
_cell_length_c 5.434118
_cell_angle_alpha 90.000000
_cell_angle_beta 121.403720
_cell_angle_gamma 90.000000
_cell_volume 1279.249467
_symmetry_space_group_name_H-M "P 2/C"
_symmetry_group_IT_number 13
_symmetry_cell_setting 'monoclinic'
loop_
_space_group_symop_operation_xyz
x,y,z
-x,y,1/2-z
-x,-y,-z
x,-y,1/2+z
loop_
_atom_site_type_symbol
_atom_site_label
_atom_site_fract_x
_atom_site_fract_y
_atom_site_fract_z
Si Si1 0.712571 0.278250 0.598247
Si Si2 0.500000 0.068374 0.250000
Si Si3 0.500000 0.272048 0.750000
Si Si4 0.000000 0.571278 0.750000
Si Si5 0.845936 0.573032 0.420269
Si Si6 0.265210 0.032084 0.975449
Si Si7 0.589771 0.569301 0.701219
Si Si8 0.376724 0.841387 0.243277
O O1 0.785895 0.337058 0.784290
O O2 0.718268 0.159913 0.481521
O O3 0.659581 0.358591 0.349464
O O4 0.677716 0.249103 0.786967
O O5 0.570789 0.136200 0.416056
O O6 0.500000 0.000000 0.500000
O O7 0.476061 0.350914 0.478737
O O8 0.567614 0.200945 0.832430
O O9 0.923700 0.625321 0.585878
O O10 0.000000 0.500000 0.500000
O O11 0.839283 0.501475 0.657818
O O12 0.227500 0.991996 0.137862
O O13 0.333166 0.951386 0.098493
O O14 0.589497 0.494149 0.457687
#
# Coordination Sequence:
#
# PCOD9232815 Si02
#       8
#     4   2   2   2   4   4   4   4
#     4  11  23  40  61  87 118 155 195 243 300 358
#     4  12  23  38  57  78 106 142 185 246 307 354
#     4  12  25  44  65  82 108 156 205 256 313 362
#     4   8  16  34  60  90 128 158 188 232 280 334
#     4  10  21  38  62  95 127 160 194 233 283 347
#     4  10  22  40  58  81 112 143 188 243 297 349
#     4  12  26  43  59  80 110 147 192 243 294 355
#     4  11  24  41  59  85 110 147 198 255 306 355
#
# _framework density 20.324417
#
# number of rings (size 3 to 8) (size 9 to 14) (size 15 to 20)
#    0.000    1.231    0.000    6.462    0.000    7.385 
#    0.000    0.000    0.000    0.000    0.000    4.308 
#    0.000    0.000    0.000    0.000    0.000    0.000 
#
# Total GULP energy -145253.419686 kJ/mol
# GULP energy per Si atom -5586.669988 kJ/mol
# Density = 2.027816 g / cm^3
# Si number density = 20.324417 Si / 1000 Ang^3
#
#
#
# Elastic Constant Matrix: (Units=GPa)
#
#
# Indices 1 2 3 4 5 6 
#
# 1 115.8364 55.3982 58.9788 0.0000 14.4532 0.0000
# 2 55.3982 107.3882 57.1335 0.0000 5.9322 0.0000
# 3 58.9788 57.1335 109.4309 0.0000 -13.2272 0.0000
# 4 0.0000 0.0000 0.0000 31.9439 0.0000 -7.6599
# 5 14.4532 5.9322 -13.2272 0.0000 56.0644 0.0000
# 6 0.0000 0.0000 0.0000 -7.6599 0.0000 30.8141
#
#
#
# Elastic Compliance Matrix: (Units=1/GPa)
#
#
# Indices 1 2 3 4 5 6 
#
# 1 0.014207 -0.003721 -0.006289 0.000000 -0.004753 0.000000
# 2 -0.003721 0.014391 -0.005740 0.000000 -0.001918 0.000000
# 3 -0.006289 -0.005740 0.016258 0.000000 0.006064 0.000000
# 4 0.000000 0.000000 0.000000 0.033289 0.000000 0.008275
# 5 -0.004753 -0.001918 0.006064 0.000000 0.020696 0.000000
# 6 0.000000 0.000000 0.000000 0.008275 0.000000 0.034510
#
#
# Mechanical properties :
#
#
# Convention : Reuss Voigt Hill
#
# Bulk Modulus (GPa) = 74.87007 75.07516 74.97261
# Shear Modulus (GPa) = 29.53284 34.50748 32.02016
#
# Velocity S-wave (km/s) = 3.81605 4.12495 3.97350
# Velocity P-wave (km/s) = 7.50559 7.72694 7.61706
#
# Compressibility (1/GPa) = 0.01335647
#
# Stress axis : x y z
#
# Youngs Moduli (GPa) = 70.38581 69.48675 61.50904
#
# Poissons Ratio (x) = 0.25853 0.38684
# Poissons Ratio (y) = 0.26188 0.35307
# Poissons Ratio (z) = 0.44267 0.39887
#
# Static dielectric constant tensor:
#      x y z
#    x 1.740080 0.000000 -0.056750 
#    y 0.000000 1.788600 0.000000 
#    z -0.056750 0.000000 1.797130 
# 
# From -- ./inp_files/6898.got.cif
#   From: 2010.05.17/outbox.cif.g08.bks.cpg/sg13_4_cif.got.tgz:6898.got - 2010.06.03 16:44:36.
