data_PCOD9232725
_publ_section_title
;
Structure prediction by ZEFSAII (Michael W. Deem and Ramdas Pophale) SiO2 
 PCOD9232725
Probable space group: P 2/C
;
_chemical_formula_sum "Si O2"
_cell_formula_units_Z 28
_cell_length_a 25.717583
_cell_length_b 9.086635
_cell_length_c 9.256328
_cell_angle_alpha 90.000000
_cell_angle_beta 144.960669
_cell_angle_gamma 90.000000
_cell_volume 1241.905997
_symmetry_space_group_name_H-M "P 2/C"
_symmetry_group_IT_number 13
_symmetry_cell_setting 'monoclinic'
loop_
_space_group_symop_operation_xyz
x,y,z
-x,y,1/2-z
-x,-y,-z
x,-y,1/2+z
loop_
_atom_site_type_symbol
_atom_site_label
_atom_site_fract_x
_atom_site_fract_y
_atom_site_fract_z
Si Si1 0.787017 0.440452 0.759894
Si Si2 0.341070 0.201757 0.163479
Si Si3 0.518416 0.656395 0.117423
Si Si4 0.050893 0.616370 0.516414
Si Si5 0.882473 0.837659 0.622622
Si Si6 0.708327 0.730419 0.636393
Si Si7 0.190503 0.021587 0.272144
O O1 0.708981 0.350740 0.500916
O O2 0.856145 0.530048 0.814768
O O3 0.741547 0.567408 0.750889
O O4 0.837224 0.315169 0.966093
O O5 0.447580 0.226980 0.388818
O O6 0.324326 0.188202 0.295659
O O7 0.283398 0.071041 0.961688
O O8 0.500000 0.643041 0.250000
O O9 0.621849 0.708398 0.336264
O O10 0.500000 0.500000 0.000000
O O11 0.049072 0.768006 0.604954
O O12 0.000000 0.500000 0.500000
O O13 0.000000 0.639888 0.250000
O O14 0.827067 0.948139 0.600133
O O15 0.888738 0.930588 0.488669
O O16 0.789672 0.820434 0.750949
#
# Coordination Sequence:
#
# PCOD9232725 Si02
#       7
#     4   4   4   4   4   4   4
#     4  11  22  39  74  95 133 173 233 280 340 405
#     4  10  22  39  61  95 135 180 222 273 337 403
#     4  10  21  38  59  96 137 173 227 286 330 385
#     4  12  25  45  73 106 134 167 230 297 354 407
#     4  11  24  45  69 103 134 185 225 283 342 415
#     4  11  21  37  67  95 132 177 227 281 334 398
#     4  11  23  42  68  95 141 181 235 266 344 431
#
# _framework density 22.545991999999998
#
# number of rings (size 3 to 8) (size 9 to 14) (size 15 to 20)
#    0.000    1.143    5.714    0.857    0.000    0.571 
#    0.000    0.714    0.000    0.000    0.000    0.000 
#    0.000    0.000    0.000    0.000    0.000    0.000 
#
# Total GULP energy -156148.607711 kJ/mol
# GULP energy per Si atom -5576.735990 kJ/mol
# Density = 2.249468 g / cm^3
# Si number density = 22.545992 Si / 1000 Ang^3
#
#
#
# Elastic Constant Matrix: (Units=GPa)
#
#
# Indices 1 2 3 4 5 6 
#
# 1 31.2863 12.4747 5.3340 0.0000 -8.8507 0.0000
# 2 12.4747 112.1966 35.3204 0.0000 -4.7244 0.0000
# 3 5.3340 35.3204 87.2482 0.0000 -11.7296 0.0000
# 4 0.0000 0.0000 0.0000 48.3473 0.0000 -9.4734
# 5 -8.8507 -4.7244 -11.7296 0.0000 27.4969 0.0000
# 6 0.0000 0.0000 0.0000 -9.4734 0.0000 26.4664
#
#
#
# Elastic Compliance Matrix: (Units=1/GPa)
#
#
# Indices 1 2 3 4 5 6 
#
# 1 0.036604 -0.003860 0.000869 0.000000 0.011490 0.000000
# 2 -0.003860 0.010622 -0.004228 0.000000 -0.001221 0.000000
# 3 0.000869 -0.004228 0.013855 0.000000 0.005463 0.000000
# 4 0.000000 0.000000 0.000000 0.022244 0.000000 0.007962
# 5 0.011490 -0.001221 0.005463 0.000000 0.042187 0.000000
# 6 0.000000 0.000000 0.000000 0.007962 0.000000 0.040634
#
#
# Mechanical properties :
#
#
# Convention : Reuss Voigt Hill
#
# Bulk Modulus (GPa) = 21.43930 37.44326 29.44128
# Shear Modulus (GPa) = 25.49335 32.30224 28.89780
#
# Velocity S-wave (km/s) = 3.36628 3.78924 3.58400
# Velocity P-wave (km/s) = 4.96376 5.98231 5.49668
#
# Compressibility (1/GPa) = 0.04664332
#
# Stress axis : x y z
#
# Youngs Moduli (GPa) = 27.31939 94.14679 72.17833
#
# Poissons Ratio (x) = 0.36338 -0.06275
# Poissons Ratio (y) = 0.10545 0.30518
# Poissons Ratio (z) = -0.02375 0.39807
#
# Static dielectric constant tensor:
#      x y z
#    x 1.865210 0.000000 0.020250 
#    y 0.000000 1.831780 0.000000 
#    z 0.020250 0.000000 1.902190 
# 
# From -- ./inp_files/24604.got.cif
#   From: 2010.05.17/outbox.cif.g08.bks.cpg/sg13_13_cif.got.tgz:24604.got - 2010.06.03 16:44:36.
