data_PCOD9232950
_publ_section_title
;
Structure prediction by ZEFSAII (Michael W. Deem and Ramdas Pophale) SiO2 
 PCOD9232950
Probable space group: P 2/C
;
_chemical_formula_sum "Si O2"
_cell_formula_units_Z 14
_cell_length_a 8.914035
_cell_length_b 7.549435
_cell_length_c 9.628099
_cell_angle_alpha 90.000000
_cell_angle_beta 60.526691
_cell_angle_gamma 90.000000
_cell_volume 564.079751
_symmetry_space_group_name_H-M "P 2/C"
_symmetry_group_IT_number 13
_symmetry_cell_setting 'monoclinic'
loop_
_space_group_symop_operation_xyz
x,y,z
-x,y,1/2-z
-x,-y,-z
x,-y,1/2+z
loop_
_atom_site_type_symbol
_atom_site_label
_atom_site_fract_x
_atom_site_fract_y
_atom_site_fract_z
Si Si1 0.380421 0.301096 0.632637
Si Si2 0.000000 0.328341 0.250000
Si Si3 0.120904 0.012375 0.810585
Si Si4 0.722389 0.481940 0.559995
O O1 0.296790 0.121013 0.727363
O O2 0.580036 0.337426 0.571316
O O3 0.289531 0.454157 0.769889
O O4 0.338161 0.339988 0.490816
O O5 0.905271 0.433699 0.413081
O O6 0.136644 0.188465 0.252419
O O7 0.000000 0.106135 0.750000
O O8 0.000000 0.000000 0.000000
#
# Coordination Sequence:
#
# PCOD9232950 Si02
#       4
#     4   2   4   4
#     4  10  21  41  60  87 122 160 199 245 304 354
#     4  10  22  36  60  90 114 154 204 248 300 352
#     4  10  21  39  59  86 118 157 198 246 301 356
#     4  10  22  38  62  88 120 157 200 252 293 361
#
# _framework density 24.819186999999999
#
# number of rings (size 3 to 8) (size 9 to 14) (size 15 to 20)
#    0.857    1.143    2.857    0.000    2.000    4.571 
#    0.000    0.000    0.000    0.000    0.000    0.000 
#    0.000    0.000    0.000    0.000    0.000    0.000 
#
# Total GULP energy -78108.572058 kJ/mol
# GULP energy per Si atom -5579.183718 kJ/mol
# Density = 2.476270 g / cm^3
# Si number density = 24.819187 Si / 1000 Ang^3
#
#
#
# Elastic Constant Matrix: (Units=GPa)
#
#
# Indices 1 2 3 4 5 6 
#
# 1 48.3001 24.3574 23.0433 0.0000 -5.3844 0.0000
# 2 24.3574 45.4484 4.6101 0.0000 -14.9807 0.0000
# 3 23.0433 4.6101 141.1810 0.0000 -6.4608 0.0000
# 4 0.0000 0.0000 0.0000 43.2677 0.0000 -12.6967
# 5 -5.3844 -14.9807 -6.4608 0.0000 56.1280 0.0000
# 6 0.0000 0.0000 0.0000 -12.6967 0.0000 27.8754
#
#
#
# Elastic Compliance Matrix: (Units=1/GPa)
#
#
# Indices 1 2 3 4 5 6 
#
# 1 0.031234 -0.016948 -0.004639 0.000000 -0.002061 0.000000
# 2 -0.016948 0.033357 0.002021 0.000000 0.007510 0.000000
# 3 -0.004639 0.002021 0.007820 0.000000 0.000994 0.000000
# 4 0.000000 0.000000 0.000000 0.026678 0.000000 0.012151
# 5 -0.002061 0.007510 0.000994 0.000000 0.019738 0.000000
# 6 0.000000 0.000000 0.000000 0.012151 0.000000 0.041409
#
#
# Mechanical properties :
#
#
# Convention : Reuss Voigt Hill
#
# Bulk Modulus (GPa) = 30.05039 37.66126 33.85582
# Shear Modulus (GPa) = 23.75751 37.64879 30.70315
#
# Velocity S-wave (km/s) = 3.09726 3.89899 3.52102
# Velocity P-wave (km/s) = 4.99246 5.95624 5.49552
#
# Compressibility (1/GPa) = 0.03327744
#
# Stress axis : x y z
#
# Youngs Moduli (GPa) = 32.01621 29.97913 127.88084
#
# Poissons Ratio (x) = 0.50810 0.59322
# Poissons Ratio (y) = 0.54262 -0.25841
# Poissons Ratio (z) = 0.14852 -0.06058
#
# Static dielectric constant tensor:
#      x y z
#    x 2.251550 0.000000 -0.029500 
#    y 0.000000 1.981470 0.000000 
#    z -0.029500 0.000000 2.012430 
# 
# From -- ./inp_files/10668.got.cif
#   From: 2010.05.17/outbox.cif.g08.bks.cpg/sg13_6_cif.got.tgz:10668.got - 2010.06.03 16:44:36.
