data_PCOD9232264
_publ_section_title
;
Structure prediction by ZEFSAII (Michael W. Deem and Ramdas Pophale) SiO2 
 PCOD9232264
Probable space group: P 2/C
;
_chemical_formula_sum "Si O2"
_cell_formula_units_Z 28
_cell_length_a 16.934175
_cell_length_b 5.502354
_cell_length_c 16.538367
_cell_angle_alpha 90.000000
_cell_angle_beta 50.315087
_cell_angle_gamma 90.000000
_cell_volume 1185.910852
_symmetry_space_group_name_H-M "P 2/C"
_symmetry_group_IT_number 13
_symmetry_cell_setting 'monoclinic'
loop_
_space_group_symop_operation_xyz
x,y,z
-x,y,1/2-z
-x,-y,-z
x,-y,1/2+z
loop_
_atom_site_type_symbol
_atom_site_label
_atom_site_fract_x
_atom_site_fract_y
_atom_site_fract_z
Si Si1 0.476959 0.200083 0.446885
Si Si2 0.093906 0.545214 0.252545
Si Si3 0.192911 0.004625 0.441875
Si Si4 0.876894 0.044226 0.329572
Si Si5 0.422589 0.918642 0.246036
Si Si6 0.345200 0.591070 0.151400
Si Si7 0.142203 0.500295 0.384228
O O1 0.569724 0.385038 0.397026
O O2 0.367540 0.308901 0.546235
O O3 0.500000 0.000000 0.500000
O O4 0.493888 0.106434 0.345338
O O5 0.156056 0.308111 0.181027
O O6 0.055620 0.506735 0.370253
O O7 0.000000 0.564133 0.250000
O O8 0.146188 0.811701 0.211487
O O9 0.162077 0.001467 0.555350
O O10 0.316801 0.008802 0.354007
O O11 0.152552 0.751789 0.427250
O O12 0.148836 0.248427 0.428344
O O13 0.000000 0.063525 0.250000
O O14 0.500000 0.758047 0.250000
O O15 0.380082 0.787850 0.194545
O O16 0.239667 0.500151 0.258618
#
# Coordination Sequence:
#
# PCOD9232264 Si02
#       7
#     4   4   4   4   4   4   4
#     4   9  17  35  55  79 115 157 206 247 295 357
#     4  10  22  43  66  94 126 158 203 262 320 380
#     4  11  23  42  64  95 127 169 214 258 316 380
#     4  10  22  44  65  92 131 159 205 266 320 384
#     4  10  21  36  55  85 124 163 204 255 304 355
#     4   9  19  35  55  82 118 158 205 247 297 364
#     4  11  22  41  67  93 125 168 212 262 309 381
#
# _framework density 23.610544000000001
#
# number of rings (size 3 to 8) (size 9 to 14) (size 15 to 20)
#    0.000    2.000    1.429    1.714    0.000    1.714 
#    7.714   17.143    0.000    0.000    0.000    0.000 
#    0.000    0.000    0.000    0.000    0.000    0.000 
#
# Total GULP energy -156046.604905 kJ/mol
# GULP energy per Si atom -5573.093032 kJ/mol
# Density = 2.355681 g / cm^3
# Si number density = 23.610544 Si / 1000 Ang^3
#
#
#
# Elastic Constant Matrix: (Units=GPa)
#
#
# Indices 1 2 3 4 5 6 
#
# 1 61.3015 6.1026 14.8277 0.0000 4.4134 0.0000
# 2 6.1026 118.4003 31.8044 0.0000 1.4949 0.0000
# 3 14.8277 31.8044 120.6941 0.0000 -0.3047 0.0000
# 4 0.0000 0.0000 0.0000 29.4044 0.0000 8.9796
# 5 4.4134 1.4949 -0.3047 0.0000 41.2683 0.0000
# 6 0.0000 0.0000 0.0000 8.9796 0.0000 29.2395
#
#
#
# Elastic Compliance Matrix: (Units=1/GPa)
#
#
# Indices 1 2 3 4 5 6 
#
# 1 0.016960 -0.000312 -0.002006 0.000000 -0.001817 0.000000
# 2 -0.000312 0.009100 -0.002360 0.000000 -0.000314 0.000000
# 3 -0.002006 -0.002360 0.009155 0.000000 0.000368 0.000000
# 4 0.000000 0.000000 0.000000 0.037528 0.000000 -0.011525
# 5 -0.001817 -0.000314 0.000368 0.000000 0.024440 0.000000
# 6 0.000000 0.000000 0.000000 -0.011525 0.000000 0.037740
#
#
# Mechanical properties :
#
#
# Convention : Reuss Voigt Hill
#
# Bulk Modulus (GPa) = 38.67362 45.09617 41.88489
# Shear Modulus (GPa) = 32.70134 36.49320 34.59727
#
# Velocity S-wave (km/s) = 3.72564 3.93572 3.83212
# Velocity P-wave (km/s) = 5.90953 6.30830 6.11217
#
# Compressibility (1/GPa) = 0.02585742
#
# Stress axis : x y z
#
# Youngs Moduli (GPa) = 58.96250 109.88983 109.23287
#
# Poissons Ratio (x) = 0.03433 0.21911
# Poissons Ratio (y) = 0.01842 0.25783
# Poissons Ratio (z) = 0.11827 0.25938
#
# Static dielectric constant tensor:
#      x y z
#    x 2.158600 0.000000 0.000740 
#    y 0.000000 1.968890 0.000000 
#    z 0.000740 0.000000 1.912260 
# 
# From -- ./inp_files/54569.got.cif
#   From: 2010.05.17/outbox.cif.g08.bks.cpg/sg13_28_cif.got.tgz:54569.got - 2010.06.03 16:44:36.
