data_PCOD9232722
_publ_section_title
;
Structure prediction by ZEFSAII (Michael W. Deem and Ramdas Pophale) SiO2 
 PCOD9232722
Probable space group: P 2/C
;
_chemical_formula_sum "Si O2"
_cell_formula_units_Z 20
_cell_length_a 14.924866
_cell_length_b 5.330669
_cell_length_c 9.497075
_cell_angle_alpha 90.000000
_cell_angle_beta 73.157110
_cell_angle_gamma 90.000000
_cell_volume 723.170401
_symmetry_space_group_name_H-M "P 2/C"
_symmetry_group_IT_number 13
_symmetry_cell_setting 'monoclinic'
loop_
_space_group_symop_operation_xyz
x,y,z
-x,y,1/2-z
-x,-y,-z
x,-y,1/2+z
loop_
_atom_site_type_symbol
_atom_site_label
_atom_site_fract_x
_atom_site_fract_y
_atom_site_fract_z
Si Si1 0.362656 0.944266 0.274996
Si Si2 0.196863 0.390453 0.157736
Si Si3 0.968103 0.747316 0.597926
Si Si4 0.414737 0.564187 0.639300
Si Si5 0.767077 0.101264 0.930233
O O1 0.430928 0.149411 0.177375
O O2 0.275510 0.922769 0.207089
O O3 0.401996 0.661675 0.259162
O O4 0.322623 0.087522 0.428604
O O5 0.309700 0.423283 0.120484
O O6 0.182916 0.160242 0.058124
O O7 0.143194 0.306066 0.321971
O O8 0.167690 0.658831 0.111699
O O9 0.000000 0.752594 0.750000
O O10 0.000000 0.500000 0.500000
O O11 0.000000 0.000000 0.500000
O O12 0.500000 0.500000 0.500000
#
# Coordination Sequence:
#
# PCOD9232722 Si02
#       5
#     4   4   4   4   4
#     4  10  21  38  59  90 129 171 222 276 337 417
#     4  10  23  43  68  98 137 180 232 296 364 441
#     4  12  28  50  78 113 152 201 259 324 397 475
#     4  10  21  40  64  96 133 179 229 286 355 435
#     4  10  21  39  64  93 125 173 221 278 350 420
#
# _framework density 27.655998
#
# number of rings (size 3 to 8) (size 9 to 14) (size 15 to 20)
#    0.000    1.600    0.000    3.600    0.000    9.600 
#    0.000   24.000    0.000    0.000    0.000    0.000 
#    0.000    0.000    0.000    0.000    0.000    0.000 
#
# Total GULP energy -111754.856328 kJ/mol
# GULP energy per Si atom -5587.742816 kJ/mol
# Density = 2.759305 g / cm^3
# Si number density = 27.655998 Si / 1000 Ang^3
#
#
#
# Elastic Constant Matrix: (Units=GPa)
#
#
# Indices 1 2 3 4 5 6 
#
# 1 119.1058 9.9424 44.1591 0.0000 -2.7760 0.0000
# 2 9.9424 294.5840 75.4006 0.0000 -7.0566 0.0000
# 3 44.1591 75.4006 201.6656 0.0000 -24.3619 0.0000
# 4 0.0000 0.0000 0.0000 68.1780 0.0000 -14.5399
# 5 -2.7760 -7.0566 -24.3619 0.0000 53.6308 0.0000
# 6 0.0000 0.0000 0.0000 -14.5399 0.0000 2.1180
#
#
#
# Elastic Compliance Matrix: (Units=1/GPa)
#
#
# Indices 1 2 3 4 5 6 
#
# 1 0.009163 0.000230 -0.002149 0.000000 -0.000472 0.000000
# 2 0.000230 0.003761 -0.001476 0.000000 -0.000164 0.000000
# 3 -0.002149 -0.001476 0.006289 0.000000 0.002552 0.000000
# 4 0.000000 0.000000 0.000000 -0.031610 0.000000 -0.216998
# 5 -0.000472 -0.000164 0.002552 0.000000 0.019759 0.000000
# 6 0.000000 0.000000 0.000000 -0.216998 0.000000 -1.017513
#
#
# Mechanical properties :
#
#
# Convention : Reuss Voigt Hill
#
# Bulk Modulus (GPa) = 80.50731 97.15108 88.82920
# Shear Modulus (GPa) = -5.00391 57.17558 26.08584
#
# Velocity S-wave (km/s) = -1.34658 4.55178 3.07453
# Velocity P-wave (km/s) = 5.17260 7.92651 6.69273
#
# Compressibility (1/GPa) = 0.01242123
#
# Stress axis : x y z
#
# Youngs Moduli (GPa) = 109.13985 265.90224 158.99591
#
# Poissons Ratio (x) = -0.06104 0.34171
# Poissons Ratio (y) = -0.02505 0.23471
# Poissons Ratio (z) = 0.23456 0.39252
#
# Static dielectric constant tensor:
#      x y z
#    x 2.510200 0.000000 0.174980 
#    y 0.000000 2.294320 0.000000 
#    z 0.174980 0.000000 2.810060 
# 
# From -- ./inp_files/38086.got.cif
#   From: 2010.05.17/outbox.cif.g08.bks.cpg/sg13_20_cif.got.tgz:38086.got - 2010.06.03 16:44:36.
