data_PCOD9232260
_publ_section_title
;
Structure prediction by ZEFSAII (Michael W. Deem and Ramdas Pophale) SiO2 
 PCOD9232260
Probable space group: P 2/C
;
_chemical_formula_sum "Si O2"
_cell_formula_units_Z 28
_cell_length_a 15.337078
_cell_length_b 12.810860
_cell_length_c 8.324007
_cell_angle_alpha 90.000000
_cell_angle_beta 68.880709
_cell_angle_gamma 90.000000
_cell_volume 1525.657020
_symmetry_space_group_name_H-M "P 2/C"
_symmetry_group_IT_number 13
_symmetry_cell_setting 'monoclinic'
loop_
_space_group_symop_operation_xyz
x,y,z
-x,y,1/2-z
-x,-y,-z
x,-y,1/2+z
loop_
_atom_site_type_symbol
_atom_site_label
_atom_site_fract_x
_atom_site_fract_y
_atom_site_fract_z
Si Si1 0.899836 0.368498 0.608078
Si Si2 0.302600 0.347389 0.233797
Si Si3 0.893234 0.394554 0.993697
Si Si4 0.604093 0.137424 0.242165
Si Si5 0.574615 0.548364 0.327383
Si Si6 0.394036 0.920794 0.386326
Si Si7 0.706495 0.713021 0.132585
O O1 0.882120 0.380495 0.810419
O O2 0.895570 0.481746 0.527222
O O3 0.816543 0.298391 0.594059
O O4 0.009344 0.340431 0.519445
O O5 0.194686 0.355439 0.349245
O O6 0.341111 0.244972 0.295169
O O7 0.359323 0.449163 0.256169
O O8 0.312546 0.335049 0.033757
O O9 0.500000 0.158223 0.250000
O O10 0.601199 0.101643 0.428703
O O11 0.642184 0.037823 0.120298
O O12 0.500000 0.591491 0.250000
O O13 0.500000 0.500000 0.500000
O O14 0.647802 0.642798 0.299099
O O15 0.500000 0.916417 0.250000
O O16 0.332433 0.830262 0.346161
#
# Coordination Sequence:
#
# PCOD9232260 Si02
#       7
#     4   4   4   4   4   4   4
#     4  10  21  36  55  80 110 144 184 226 276 328
#     4  11  23  37  56  82 111 148 185 225 275 328
#     4  10  21  36  55  80 110 144 183 228 273 331
#     4  10  21  38  56  81 109 145 189 228 271 320
#     4  12  24  37  50  77 117 150 183 218 270 329
#     4  10  21  37  57  79 110 145 188 229 270 321
#     4  11  23  37  56  81 111 148 184 225 277 326
#
# _framework density 18.352747999999998
#
# number of rings (size 3 to 8) (size 9 to 14) (size 15 to 20)
#    0.000    1.429    2.857    3.429    4.000    4.000 
#    0.000    0.000    0.000    0.857    0.000    0.000 
#    0.000    0.000    0.000    0.000    0.000    0.000 
#
# Total GULP energy -156200.771754 kJ/mol
# GULP energy per Si atom -5578.598991 kJ/mol
# Density = 1.831098 g / cm^3
# Si number density = 18.352748 Si / 1000 Ang^3
#
#
#
# Elastic Constant Matrix: (Units=GPa)
#
#
# Indices 1 2 3 4 5 6 
#
# 1 118.7123 48.0418 17.3776 0.0000 -10.2669 0.0000
# 2 48.0418 70.8391 2.1906 0.0000 2.8178 0.0000
# 3 17.3776 2.1906 36.6357 0.0000 -16.0932 0.0000
# 4 0.0000 0.0000 0.0000 -50.6453 0.0000 59.7840
# 5 -10.2669 2.8178 -16.0932 0.0000 25.3786 0.0000
# 6 0.0000 0.0000 0.0000 59.7840 0.0000 -16.7918
#
#
#
# Elastic Compliance Matrix: (Units=1/GPa)
#
#
# Indices 1 2 3 4 5 6 
#
# 1 0.012860 -0.008744 -0.003972 0.000000 0.003655 0.000000
# 2 -0.008744 0.020246 0.000548 0.000000 -0.005437 0.000000
# 3 -0.003972 0.000548 0.039385 0.000000 0.023307 0.000000
# 4 0.000000 0.000000 0.000000 0.006165 0.000000 0.021950
# 5 0.003655 -0.005437 0.023307 0.000000 0.056265 0.000000
# 6 0.000000 0.000000 0.000000 0.021950 0.000000 0.018594
#
#
# Mechanical properties :
#
#
# Convention : Reuss Voigt Hill
#
# Bulk Modulus (GPa) = 20.76550 40.15632 30.46091
# Shear Modulus (GPa) = 25.78631 2.16012 13.97321
#
# Velocity S-wave (km/s) = 3.75245 1.08607 2.76229
# Velocity P-wave (km/s) = 5.48760 4.84773 5.17756
#
# Compressibility (1/GPa) = 0.04815679
#
# Stress axis : x y z
#
# Youngs Moduli (GPa) = 77.76226 49.39321 25.39022
#
# Poissons Ratio (x) = 0.43188 0.10084
# Poissons Ratio (y) = 0.67994 -0.01392
# Poissons Ratio (z) = 0.30884 -0.02709
#
# Static dielectric constant tensor:
#      x y z
#    x 1.371130 0.000000 0.140360 
#    y 0.000000 1.624210 0.000000 
#    z 0.140360 0.000000 1.640920 
# 
# From -- ./inp_files/18726.got.cif
#   From: 2010.05.17/outbox.cif.g08.bks.cpg/sg13_10_cif.got.tgz:18726.got - 2010.06.03 16:44:36.
