data_PCOD9232720
_publ_section_title
;
Structure prediction by ZEFSAII (Michael W. Deem and Ramdas Pophale) SiO2 
 PCOD9232720
Probable space group: P 2/C
;
_chemical_formula_sum "Si O2"
_cell_formula_units_Z 28
_cell_length_a 15.171463
_cell_length_b 8.936883
_cell_length_c 20.227734
_cell_angle_alpha 90.000000
_cell_angle_beta 153.044716
_cell_angle_gamma 90.000000
_cell_volume 1243.201945
_symmetry_space_group_name_H-M "P 2/C"
_symmetry_group_IT_number 13
_symmetry_cell_setting 'monoclinic'
loop_
_space_group_symop_operation_xyz
x,y,z
-x,y,1/2-z
-x,-y,-z
x,-y,1/2+z
loop_
_atom_site_type_symbol
_atom_site_label
_atom_site_fract_x
_atom_site_fract_y
_atom_site_fract_z
Si Si1 0.837888 0.907147 0.822438
Si Si2 0.665892 0.708783 0.604436
Si Si3 0.171020 0.668409 0.077122
Si Si4 0.607363 0.548339 0.172834
Si Si5 0.795736 0.899490 0.944795
Si Si6 0.000000 0.547086 0.750000
Si Si7 0.273675 0.577566 0.539233
Si Si8 0.500000 0.872299 0.250000
O O1 0.703234 0.859809 0.671092
O O2 0.741114 0.917375 0.830155
O O3 0.990383 0.771242 0.938391
O O4 0.978508 0.048838 0.901750
O O5 0.500924 0.683784 0.438222
O O6 0.624570 0.584291 0.632224
O O7 0.862724 0.655166 0.700621
O O8 0.184621 0.594946 0.158271
O O9 0.201570 0.546018 0.042090
O O10 0.367984 0.768154 0.207476
O O11 0.480676 0.475761 0.147946
O O12 0.742907 0.738891 0.938289
O O13 0.661832 0.022263 0.891623
O O14 0.867741 0.440132 0.617497
#
# Coordination Sequence:
#
# PCOD9232720 Si02
#       8
#     4   4   4   4   4   2   4   2
#     4  10  22  41  60  90 124 166 202 246 307 370
#     4  10  21  38  59  90 124 158 197 254 306 355
#     4  11  20  37  65  91 114 157 213 249 297 360
#     4  10  22  35  61  97 119 151 209 258 298 352
#     4  10  24  37  60  92 128 159 204 254 305 369
#     4  10  22  38  60  90 124 150 210 258 298 356
#     4  11  21  38  62  93 118 160 199 264 301 356
#     4  10  22  38  56  90 124 156 202 252 302 372
#
# _framework density 22.522487000000002
#
# number of rings (size 3 to 8) (size 9 to 14) (size 15 to 20)
#    0.000    1.714    2.857    0.857    6.000    1.143 
#    0.000    2.143    0.000    7.714    0.000    0.000 
#    0.000    0.000    0.000    0.000    0.000    0.000 
#
# Total GULP energy -156409.153261 kJ/mol
# GULP energy per Si atom -5586.041188 kJ/mol
# Density = 2.247122 g / cm^3
# Si number density = 22.522487 Si / 1000 Ang^3
#
#
#
# Elastic Constant Matrix: (Units=GPa)
#
#
# Indices 1 2 3 4 5 6 
#
# 1 79.4480 32.2242 20.1025 0.0000 5.2076 0.0000
# 2 32.2242 96.9740 12.7344 0.0000 -14.0508 0.0000
# 3 20.1025 12.7344 66.9852 0.0000 -7.6894 0.0000
# 4 0.0000 0.0000 0.0000 29.7230 0.0000 -8.1294
# 5 5.2076 -14.0508 -7.6894 0.0000 19.0434 0.0000
# 6 0.0000 0.0000 0.0000 -8.1294 0.0000 22.5244
#
#
#
# Elastic Compliance Matrix: (Units=1/GPa)
#
#
# Indices 1 2 3 4 5 6 
#
# 1 0.017500 -0.006854 -0.005326 0.000000 -0.011993 0.000000
# 2 -0.006854 0.014336 0.000798 0.000000 0.012774 0.000000
# 3 -0.005326 0.000798 0.017417 0.000000 0.009078 0.000000
# 4 0.000000 0.000000 0.000000 0.037329 0.000000 0.013472
# 5 -0.011993 0.012774 0.009078 0.000000 0.068881 0.000000
# 6 0.000000 0.000000 0.000000 0.013472 0.000000 0.049259
#
#
# Mechanical properties :
#
#
# Convention : Reuss Voigt Hill
#
# Bulk Modulus (GPa) = 37.74983 41.50326 39.62654
# Shear Modulus (GPa) = 21.15819 26.14790 23.65304
#
# Velocity S-wave (km/s) = 3.06833 3.41100 3.24419
# Velocity P-wave (km/s) = 5.41758 5.82929 5.62720
#
# Compressibility (1/GPa) = 0.02649019
#
# Stress axis : x y z
#
# Youngs Moduli (GPa) = 57.14182 69.75688 57.41409
#
# Poissons Ratio (x) = 0.47809 0.30577
# Poissons Ratio (y) = 0.39163 -0.04581
# Poissons Ratio (z) = 0.30432 -0.05565
#
# Static dielectric constant tensor:
#      x y z
#    x 1.857010 0.000000 0.006240 
#    y 0.000000 1.873580 0.000000 
#    z 0.006240 0.000000 1.886970 
# 
# From -- ./inp_files/80047.got.cif
#   From: 2010.05.17/outbox.cif.g08.bks.cpg/sg13_41_cif.got.tgz:80047.got - 2010.06.03 16:44:36.
