data_PCOD9232673
_publ_section_title
;
Structure prediction by ZEFSAII (Michael W. Deem and Ramdas Pophale) SiO2 
 PCOD9232673
Probable space group: P 2/C
;
_chemical_formula_sum "Si O2"
_cell_formula_units_Z 22
_cell_length_a 9.366404
_cell_length_b 13.535611
_cell_length_c 8.293650
_cell_angle_alpha 90.000000
_cell_angle_beta 87.788185
_cell_angle_gamma 90.000000
_cell_volume 1050.685589
_symmetry_space_group_name_H-M "P 2/C"
_symmetry_group_IT_number 13
_symmetry_cell_setting 'monoclinic'
loop_
_space_group_symop_operation_xyz
x,y,z
-x,y,1/2-z
-x,-y,-z
x,-y,1/2+z
loop_
_atom_site_type_symbol
_atom_site_label
_atom_site_fract_x
_atom_site_fract_y
_atom_site_fract_z
Si Si1 0.500000 0.505773 0.250000
Si Si2 0.054741 0.256401 0.069631
Si Si3 0.491108 0.170817 0.942414
Si Si4 0.208973 0.928789 0.442790
Si Si5 0.662313 0.632451 0.976857
Si Si6 0.184674 0.137896 0.571997
O O1 0.408903 0.575018 0.371592
O O2 0.383298 0.436097 0.169198
O O3 0.171242 0.338137 0.012161
O O4 0.000000 0.279700 0.250000
O O5 0.138170 0.151559 0.063060
O O6 0.919234 0.228854 0.963497
O O7 0.500000 0.191118 0.750000
O O8 0.379663 0.080456 0.964657
O O9 0.653382 0.159768 0.986649
O O10 0.419327 0.263509 0.031424
O O11 0.181212 0.890707 0.261683
O O12 0.151161 0.037419 0.477157
#
# Coordination Sequence:
#
# PCOD9232673 Si02
#       6
#     2   4   4   4   4   4
#     4  10  22  44  76  90 122 154 210 274 326 396
#     4  11  24  40  60  92 133 167 212 253 313 387
#     4   9  19  36  63  93 125 165 219 261 304 367
#     4  10  21  38  57  92 128 180 221 250 303 366
#     4  10  22  43  69  97 118 161 209 261 331 387
#     4  11  21  37  62  89 134 176 212 266 305 360
#
# _framework density 20.938707999999998
#
# number of rings (size 3 to 8) (size 9 to 14) (size 15 to 20)
#    0.000    1.818    0.909    2.727    2.545    0.000 
#    0.000    0.909    0.000    0.000    0.000    0.000 
#    0.000    0.000    0.000    0.000    0.000    0.000 
#
# Total GULP energy -122784.685777 kJ/mol
# GULP energy per Si atom -5581.122081 kJ/mol
# Density = 2.089105 g / cm^3
# Si number density = 20.938708 Si / 1000 Ang^3
#
#
#
# Elastic Constant Matrix: (Units=GPa)
#
#
# Indices 1 2 3 4 5 6 
#
# 1 164.0630 47.9137 22.2515 0.0000 13.7838 0.0000
# 2 47.9137 76.3385 25.9397 0.0000 7.5741 0.0000
# 3 22.2515 25.9397 27.5210 0.0000 -1.7271 0.0000
# 4 0.0000 0.0000 0.0000 3.1359 0.0000 0.8061
# 5 13.7838 7.5741 -1.7271 0.0000 20.9559 0.0000
# 6 0.0000 0.0000 0.0000 0.8061 0.0000 45.3755
#
#
#
# Elastic Compliance Matrix: (Units=1/GPa)
#
#
# Indices 1 2 3 4 5 6 
#
# 1 0.007908 -0.003347 -0.003508 0.000000 -0.004281 0.000000
# 2 -0.003347 0.022325 -0.018802 0.000000 -0.007417 0.000000
# 3 -0.003508 -0.018802 0.057764 0.000000 0.013864 0.000000
# 4 0.000000 0.000000 0.000000 0.320355 0.000000 -0.005691
# 5 -0.004281 -0.007417 0.013864 0.000000 0.054358 0.000000
# 6 0.000000 0.000000 0.000000 -0.005691 0.000000 0.022139
#
#
# Mechanical properties :
#
#
# Convention : Reuss Voigt Hill
#
# Bulk Modulus (GPa) = 27.26015 51.12584 39.19300
# Shear Modulus (GPa) = 9.11760 25.34796 17.23278
#
# Velocity S-wave (km/s) = 2.08899 3.48311 2.87193
# Velocity P-wave (km/s) = 4.34348 6.37542 5.45490
#
# Compressibility (1/GPa) = 0.03668358
#
# Stress axis : x y z
#
# Youngs Moduli (GPa) = 126.45305 44.79331 17.31188
#
# Poissons Ratio (x) = 0.14991 0.06073
# Poissons Ratio (y) = 0.42319 0.32549
# Poissons Ratio (z) = 0.44363 0.84219
#
# Static dielectric constant tensor:
#      x y z
#    x 1.819030 0.000000 0.020840 
#    y 0.000000 1.715810 0.000000 
#    z 0.020840 0.000000 1.771530 
# 
# From -- ./inp_files/12472.got.cif
#   From: 2010.05.17/outbox.cif.g08.bks.cpg/sg13_7_cif.got.tgz:12472.got - 2010.06.03 16:44:36.
