data_PCOD9232724
_publ_section_title
;
Structure prediction by ZEFSAII (Michael W. Deem and Ramdas Pophale) SiO2 
 PCOD9232724
Probable space group: P 2/C
;
_chemical_formula_sum "Si O2"
_cell_formula_units_Z 28
_cell_length_a 15.358570
_cell_length_b 10.913436
_cell_length_c 9.434030
_cell_angle_alpha 90.000000
_cell_angle_beta 61.458498
_cell_angle_gamma 90.000000
_cell_volume 1389.111463
_symmetry_space_group_name_H-M "P 2/C"
_symmetry_group_IT_number 13
_symmetry_cell_setting 'monoclinic'
loop_
_space_group_symop_operation_xyz
x,y,z
-x,y,1/2-z
-x,-y,-z
x,-y,1/2+z
loop_
_atom_site_type_symbol
_atom_site_label
_atom_site_fract_x
_atom_site_fract_y
_atom_site_fract_z
Si Si1 0.495906 0.687511 0.411800
Si Si2 0.128507 0.967533 0.990098
Si Si3 0.263033 0.367775 0.100148
Si Si4 0.449543 0.905436 0.937646
Si Si5 0.911563 0.177863 0.243367
Si Si6 0.767356 0.131572 0.833398
Si Si7 0.288605 0.604141 0.253619
O O1 0.500000 0.745945 0.250000
O O2 0.380968 0.658029 0.525801
O O3 0.528059 0.774632 0.512798
O O4 0.589532 0.593568 0.334790
O O5 0.064471 0.887527 0.926560
O O6 0.195002 0.044538 0.824328
O O7 0.167009 0.867946 0.075363
O O8 0.101312 0.072185 0.126807
O O9 0.251204 0.393080 0.942988
O O10 0.188815 0.256691 0.196265
O O11 0.244834 0.489644 0.204201
O O12 0.500000 0.915739 0.750000
O O13 0.333507 0.927326 0.029181
O O14 0.500000 0.000000 0.000000
O O15 0.000000 0.254132 0.250000
O O16 0.742959 0.266406 0.792235
#
# Coordination Sequence:
#
# PCOD9232724 Si02
#       7
#     4   4   4   4   4   4   4
#     4   9  21  38  56  86 119 166 210 252 299 365
#     4  10  22  40  69  87 124 157 203 260 319 384
#     4  11  23  39  65  85 128 164 214 257 306 366
#     4  11  22  30  50  84 130 160 203 247 305 372
#     4  11  24  43  68  96 121 159 209 264 327 377
#     4  10  21  38  59  92 121 165 202 249 312 376
#     4  10  22  40  60  91 128 166 208 251 301 375
#
# _framework density 20.156770000000002
#
# number of rings (size 3 to 8) (size 9 to 14) (size 15 to 20)
#    0.000    1.714    1.429    2.143    8.000    1.143 
#    0.000    1.429    0.000    0.000    0.000    0.000 
#    0.000    0.000    0.000    0.000    0.000    0.000 
#
# Total GULP energy -155871.633145 kJ/mol
# GULP energy per Si atom -5566.844041 kJ/mol
# Density = 2.011089 g / cm^3
# Si number density = 20.156770 Si / 1000 Ang^3
#
#
#
# Elastic Constant Matrix: (Units=GPa)
#
#
# Indices 1 2 3 4 5 6 
#
# 1 60.3352 22.4734 19.6370 0.0000 25.4992 0.0000
# 2 22.4734 51.8940 16.9220 0.0000 7.1770 0.0000
# 3 19.6370 16.9220 106.8123 0.0000 30.1275 0.0000
# 4 0.0000 0.0000 0.0000 28.3621 0.0000 10.6024
# 5 25.4992 7.1770 30.1275 0.0000 33.1065 0.0000
# 6 0.0000 0.0000 0.0000 10.6024 0.0000 20.1400
#
#
#
# Elastic Compliance Matrix: (Units=1/GPa)
#
#
# Indices 1 2 3 4 5 6 
#
# 1 0.029117 -0.010351 0.002663 0.000000 -0.022606 0.000000
# 2 -0.010351 0.024097 -0.003619 0.000000 0.006042 0.000000
# 3 0.002663 -0.003619 0.013188 0.000000 -0.013268 0.000000
# 4 0.000000 0.000000 0.000000 0.043897 0.000000 -0.023109
# 5 -0.022606 0.006042 -0.013268 0.000000 0.058382 0.000000
# 6 0.000000 0.000000 0.000000 -0.023109 0.000000 0.061818
#
#
# Mechanical properties :
#
#
# Convention : Reuss Voigt Hill
#
# Bulk Modulus (GPa) = 22.83719 37.45626 30.14672
# Shear Modulus (GPa) = 18.67700 26.98899 22.83300
#
# Velocity S-wave (km/s) = 3.04729 3.66314 3.36932
# Velocity P-wave (km/s) = 4.87193 6.04271 5.48862
#
# Compressibility (1/GPa) = 0.04378823
#
# Stress axis : x y z
#
# Youngs Moduli (GPa) = 34.34449 41.49841 75.82395
#
# Poissons Ratio (x) = 0.42957 -0.20193
# Poissons Ratio (y) = 0.35551 0.27440
# Poissons Ratio (z) = -0.09146 0.15018
#
# Static dielectric constant tensor:
#      x y z
#    x 1.784110 0.000000 -0.034620 
#    y 0.000000 1.749630 0.000000 
#    z -0.034620 0.000000 1.680860 
# 
# From -- ./inp_files/18727.got.cif
#   From: 2010.05.17/outbox.cif.g08.bks.cpg/sg13_10_cif.got.tgz:18727.got - 2010.06.03 16:44:36.
