data_PCOD9232941
_publ_section_title
;
Structure prediction by ZEFSAII (Michael W. Deem and Ramdas Pophale) SiO2 
 PCOD9232941
Probable space group: P 2/C
;
_chemical_formula_sum "Si O2"
_cell_formula_units_Z 30
_cell_length_a 19.430675
_cell_length_b 5.183054
_cell_length_c 14.254714
_cell_angle_alpha 90.000000
_cell_angle_beta 124.366490
_cell_angle_gamma 90.000000
_cell_volume 1185.003494
_symmetry_space_group_name_H-M "P 2/C"
_symmetry_group_IT_number 13
_symmetry_cell_setting 'monoclinic'
loop_
_space_group_symop_operation_xyz
x,y,z
-x,y,1/2-z
-x,-y,-z
x,-y,1/2+z
loop_
_atom_site_type_symbol
_atom_site_label
_atom_site_fract_x
_atom_site_fract_y
_atom_site_fract_z
Si Si1 0.307287 0.868288 0.434889
Si Si2 0.204787 0.276026 0.179235
Si Si3 0.000000 0.433662 0.750000
Si Si4 0.422668 0.446021 0.255807
Si Si5 0.926339 0.378885 0.004484
Si Si6 0.876580 0.095832 0.784954
Si Si7 0.317486 0.945473 0.143092
Si Si8 0.626636 0.384543 0.089743
O O1 0.217573 0.827414 0.316951
O O2 0.283645 0.993722 0.514989
O O3 0.359157 0.602805 0.477299
O O4 0.368663 0.087085 0.437812
O O5 0.247095 0.030428 0.161354
O O6 0.285791 0.403829 0.285740
O O7 0.140762 0.211216 0.215376
O O8 0.155754 0.444046 0.066784
O O9 0.954640 0.611143 0.635091
O O10 0.938815 0.238419 0.761810
O O11 0.500000 0.505143 0.250000
O O12 0.391047 0.155668 0.213733
O O13 0.438965 0.456644 0.380077
O O14 0.353563 0.662445 0.180718
O O15 0.905567 0.147138 0.915777
O O16 0.000000 0.500000 0.000000
#
# Coordination Sequence:
#
# PCOD9232941 Si02
#       8
#     4   4   2   4   4   4   4   4
#     4  11  21  41  64 101 128 168 231 288 332 391
#     4  10  21  39  64  89 120 178 224 277 337 398
#     4  10  22  38  58  90 128 172 222 280 338 416
#     4  11  23  44  66  97 137 183 218 269 344 417
#     4  10  21  39  58  88 127 170 215 276 342 401
#     4  10  21  40  63  85 132 169 222 282 344 402
#     4  11  24  39  68 100 132 173 237 281 330 413
#     4  10  21  39  68  92 129 172 220 273 339 400
#
# _framework density 25.316382999999998
#
# number of rings (size 3 to 8) (size 9 to 14) (size 15 to 20)
#    0.000    1.600    1.333    4.400    1.867    2.133 
#    2.400   10.000    0.000    0.000    0.000    0.000 
#    0.000    0.000    0.000    0.000    0.000    0.000 
#
# Total GULP energy -167306.374605 kJ/mol
# GULP energy per Si atom -5576.879153 kJ/mol
# Density = 2.525876 g / cm^3
# Si number density = 25.316383 Si / 1000 Ang^3
#
#
#
# Elastic Constant Matrix: (Units=GPa)
#
#
# Indices 1 2 3 4 5 6 
#
# 1 100.2208 31.2617 9.5125 0.0000 -25.0576 0.0000
# 2 31.2617 77.2499 3.1216 0.0000 -9.1300 0.0000
# 3 9.5125 3.1216 124.4815 0.0000 -25.5010 0.0000
# 4 0.0000 0.0000 0.0000 25.9477 0.0000 -9.1190
# 5 -25.0576 -9.1300 -25.5010 0.0000 31.7289 0.0000
# 6 0.0000 0.0000 0.0000 -9.1190 0.0000 30.7126
#
#
#
# Elastic Compliance Matrix: (Units=1/GPa)
#
#
# Indices 1 2 3 4 5 6 
#
# 1 0.013917 -0.004415 0.001243 0.000000 0.010720 0.000000
# 2 -0.004415 0.014832 0.000150 0.000000 0.000902 0.000000
# 3 0.001243 0.000150 0.009750 0.000000 0.008861 0.000000
# 4 0.000000 0.000000 0.000000 0.043029 0.000000 0.012776
# 5 0.010720 0.000902 0.008861 0.000000 0.047364 0.000000
# 6 0.000000 0.000000 0.000000 0.012776 0.000000 0.036353
#
#
# Mechanical properties :
#
#
# Convention : Reuss Voigt Hill
#
# Bulk Modulus (GPa) = 30.81130 43.30486 37.05808
# Shear Modulus (GPa) = 27.45613 34.88160 31.16886
#
# Velocity S-wave (km/s) = 3.29678 3.71594 3.51262
# Velocity P-wave (km/s) = 5.16610 5.96268 5.57862
#
# Compressibility (1/GPa) = 0.03245562
#
# Stress axis : x y z
#
# Youngs Moduli (GPa) = 71.85210 67.42016 102.56588
#
# Poissons Ratio (x) = 0.29769 -0.12751
# Poissons Ratio (y) = 0.31726 -0.01540
# Poissons Ratio (z) = -0.08933 -0.01013
#
# Static dielectric constant tensor:
#      x y z
#    x 2.055100 0.000000 -0.040860 
#    y 0.000000 2.123040 0.000000 
#    z -0.040860 0.000000 2.106330 
# 
# From -- ./inp_files/54507.got.cif
#   From: 2010.05.17/outbox.cif.g08.bks.cpg/sg13_28_cif.got.tgz:54507.got - 2010.06.03 16:44:36.
