data_PCOD9232249
_publ_section_title
;
Structure prediction by ZEFSAII (Michael W. Deem and Ramdas Pophale) SiO2 
 PCOD9232249
Probable space group: P 2/C
;
_chemical_formula_sum "Si O2"
_cell_formula_units_Z 28
_cell_length_a 8.419606
_cell_length_b 33.558186
_cell_length_c 5.298624
_cell_angle_alpha 90.000000
_cell_angle_beta 119.526033
_cell_angle_gamma 90.000000
_cell_volume 1302.682031
_symmetry_space_group_name_H-M "P 2/C"
_symmetry_group_IT_number 13
_symmetry_cell_setting 'monoclinic'
loop_
_space_group_symop_operation_xyz
x,y,z
-x,y,1/2-z
-x,-y,-z
x,-y,1/2+z
loop_
_atom_site_type_symbol
_atom_site_label
_atom_site_fract_x
_atom_site_fract_y
_atom_site_fract_z
Si Si1 0.780402 0.847481 0.579596
Si Si2 0.387252 0.236750 0.412198
Si Si3 0.715690 0.481030 0.387138
Si Si4 0.124266 0.398105 0.097227
Si Si5 0.293473 0.016567 0.864058
Si Si6 0.124108 0.690338 0.597602
Si Si7 0.222423 0.892771 0.422864
O O1 0.719850 0.802635 0.585099
O O2 0.719062 0.864084 0.260855
O O3 0.000000 0.848412 0.750000
O O4 0.718292 0.875620 0.761042
O O5 0.500000 0.225867 0.250000
O O6 0.262327 0.273426 0.228458
O O7 0.500000 0.249099 0.750000
O O8 0.500000 0.488647 0.250000
O O9 0.792973 0.490947 0.724818
O O10 0.744977 0.435877 0.322282
O O11 0.211645 0.353955 0.165625
O O12 0.000000 0.401676 0.250000
O O13 0.000000 0.399410 0.750000
O O14 0.291315 0.062903 0.925673
O O15 0.205832 0.007363 0.526293
O O16 0.500000 0.000000 0.000000
O O17 0.000000 0.691852 0.750000
O O18 0.000000 0.694265 0.250000
O O19 0.000000 0.894338 0.250000
#
# Coordination Sequence:
#
# PCOD9232249 Si02
#       7
#     4   4   4   4   4   4   4
#     4  10  22  42  64  88 121 162 200 243 302 365
#     4  12  25  42  62 100 130 157 206 258 311 367
#     4  10  21  36  54  80 118 161 201 248 313 379
#     4  10  21  37  59  88 115 151 211 259 305 364
#     4  10  21  38  54  84 116 152 192 235 294 353
#     4  10  22  42  66  89 123 171 208 252 313 382
#     4  10  21  39  63  87 114 155 205 244 286 354
#
# _framework density 21.494119000000001
#
# number of rings (size 3 to 8) (size 9 to 14) (size 15 to 20)
#    0.000    1.714    0.000    3.857    0.000    4.571 
#   15.429    2.143    0.000    0.000    0.000    0.000 
#    0.000    0.000    0.000    0.000    0.000    0.000 
#
# Total GULP energy -156543.786978 kJ/mol
# GULP energy per Si atom -5590.849535 kJ/mol
# Density = 2.144520 g / cm^3
# Si number density = 21.494119 Si / 1000 Ang^3
#
#
#
# Elastic Constant Matrix: (Units=GPa)
#
#
# Indices 1 2 3 4 5 6 
#
# 1 75.3642 53.9089 56.1557 0.0000 -36.1873 0.0000
# 2 53.9089 166.8938 35.8569 0.0000 -23.6764 0.0000
# 3 56.1557 35.8569 121.5903 0.0000 -40.7293 0.0000
# 4 0.0000 0.0000 0.0000 33.1920 0.0000 -12.5414
# 5 -36.1873 -23.6764 -40.7293 0.0000 37.9100 0.0000
# 6 0.0000 0.0000 0.0000 -12.5414 0.0000 10.1070
#
#
#
# Elastic Compliance Matrix: (Units=1/GPa)
#
#
# Indices 1 2 3 4 5 6 
#
# 1 0.031839 -0.006126 -0.006248 0.000000 0.019855 0.000000
# 2 -0.006126 0.007814 0.000314 0.000000 -0.000630 0.000000
# 3 -0.006248 0.000314 0.014193 0.000000 0.009481 0.000000
# 4 0.000000 0.000000 0.000000 0.056722 0.000000 0.070385
# 5 0.019855 -0.000630 0.009481 0.000000 0.055123 0.000000
# 6 0.000000 0.000000 0.000000 0.070385 0.000000 0.186279
#
#
# Mechanical properties :
#
#
# Convention : Reuss Voigt Hill
#
# Bulk Modulus (GPa) = 33.63937 72.85461 53.24699
# Shear Modulus (GPa) = 12.95341 30.77023 21.86182
#
# Velocity S-wave (km/s) = 2.45755 3.78771 3.19267
# Velocity P-wave (km/s) = 4.87209 7.28682 6.19818
#
# Compressibility (1/GPa) = 0.02972707
#
# Stress axis : x y z
#
# Youngs Moduli (GPa) = 31.40760 127.98077 70.45694
#
# Poissons Ratio (x) = 0.78396 0.44019
# Poissons Ratio (y) = 0.19239 -0.02210
# Poissons Ratio (z) = 0.19622 -0.04015
#
# Static dielectric constant tensor:
#      x y z
#    x 1.807770 0.000000 -0.056140 
#    y 0.000000 1.746160 0.000000 
#    z -0.056140 0.000000 1.850610 
# 
# From -- ./inp_files/2738.got.cif
#   From: 2010.05.17/outbox.cif.g08.bks.cpg/sg13_2_cif.got.tgz:2738.got - 2010.06.03 16:44:36.
