data_PCOD9232045
_publ_section_title
;
Structure prediction by ZEFSAII (Michael W. Deem and Ramdas Pophale) SiO2 
 PCOD9232045
Probable space group: P 2/C
;
_chemical_formula_sum "Si O2"
_cell_formula_units_Z 28
_cell_length_a 27.697450
_cell_length_b 8.600556
_cell_length_c 9.244342
_cell_angle_alpha 90.000000
_cell_angle_beta 34.832280
_cell_angle_gamma 90.000000
_cell_volume 1257.802202
_symmetry_space_group_name_H-M "P 2/C"
_symmetry_group_IT_number 13
_symmetry_cell_setting 'monoclinic'
loop_
_space_group_symop_operation_xyz
x,y,z
-x,y,1/2-z
-x,-y,-z
x,-y,1/2+z
loop_
_atom_site_type_symbol
_atom_site_label
_atom_site_fract_x
_atom_site_fract_y
_atom_site_fract_z
Si Si1 0.790122 0.212887 0.635463
Si Si2 0.500000 0.389374 0.750000
Si Si3 0.617199 0.326507 0.969483
Si Si4 0.879550 0.705613 0.373989
Si Si5 0.827523 0.032074 0.805984
Si Si6 0.000000 0.916890 0.250000
Si Si7 0.098559 0.541356 0.474527
Si Si8 0.519313 0.179704 0.978289
O O1 0.711122 0.322465 0.796596
O O2 0.811801 0.123170 0.435178
O O3 0.863535 0.315940 0.526688
O O4 0.771867 0.083567 0.805464
O O5 0.578451 0.505650 0.525649
O O6 0.476473 0.279141 0.676387
O O7 0.602499 0.213003 0.869215
O O8 0.556615 0.254988 0.241746
O O9 0.855577 0.612666 0.577486
O O10 0.960614 0.807747 0.222098
O O11 0.820303 0.830753 0.442325
O O12 0.893743 0.579430 0.213162
O O13 0.922716 0.014747 0.506387
O O14 0.000000 0.523002 0.750000
O O15 0.500000 0.000000 0.000000
#
# Coordination Sequence:
#
# PCOD9232045 Si02
#       8
#     4   2   4   4   4   2   4   4
#     4  11  26  43  65  99 137 175 225 286 343 401
#     4  10  20  46  74 102 136 184 214 266 332 418
#     4  10  22  42  64 100 141 176 217 268 335 402
#     4  11  24  39  65  90 120 173 226 290 341 406
#     4  11  25  44  66  92 133 177 231 289 344 410
#     4  12  22  42  72  92 120 182 242 284 354 410
#     4  11  24  42  61  93 130 171 229 279 341 409
#     4  10  21  42  74 103 132 173 223 264 324 402
#
# _framework density 22.261050999999998
#
# number of rings (size 3 to 8) (size 9 to 14) (size 15 to 20)
#    0.000    1.429    2.143    4.286    8.000    0.000 
#   10.286    0.000    0.000    0.000    0.000    0.000 
#    0.000    0.000    0.000    0.000    0.000    0.000 
#
# Total GULP energy -156409.892929 kJ/mol
# GULP energy per Si atom -5586.067605 kJ/mol
# Density = 2.221038 g / cm^3
# Si number density = 22.261051 Si / 1000 Ang^3
#
#
#
# Elastic Constant Matrix: (Units=GPa)
#
#
# Indices 1 2 3 4 5 6 
#
# 1 122.5566 40.3880 23.7258 0.0000 12.9798 0.0000
# 2 40.3880 108.6406 13.1147 0.0000 12.8614 0.0000
# 3 23.7258 13.1147 14.7554 0.0000 4.4005 0.0000
# 4 0.0000 0.0000 0.0000 22.5269 0.0000 22.1478
# 5 12.9798 12.8614 4.4005 0.0000 27.8690 0.0000
# 6 0.0000 0.0000 0.0000 22.1478 0.0000 54.9538
#
#
#
# Elastic Compliance Matrix: (Units=1/GPa)
#
#
# Indices 1 2 3 4 5 6 
#
# 1 0.012515 -0.002305 -0.017476 0.000000 -0.002005 0.000000
# 2 -0.002305 0.011067 -0.005170 0.000000 -0.003217 0.000000
# 3 -0.017476 -0.005170 0.102138 0.000000 -0.005602 0.000000
# 4 0.000000 0.000000 0.000000 0.073525 0.000000 -0.029632
# 5 -0.002005 -0.003217 -0.005602 0.000000 0.039185 0.000000
# 6 0.000000 0.000000 0.000000 -0.029632 0.000000 0.030140
#
#
# Mechanical properties :
#
#
# Convention : Reuss Voigt Hill
#
# Bulk Modulus (GPa) = 13.18965 44.48996 28.83980
# Shear Modulus (GPa) = 14.54572 32.31821 23.43196
#
# Velocity S-wave (km/s) = 2.55897 3.81436 3.24790
# Velocity P-wave (km/s) = 3.83001 6.27918 5.20082
#
# Compressibility (1/GPa) = 0.07581703
#
# Stress axis : x y z
#
# Youngs Moduli (GPa) = 79.90538 90.36157 9.79071
#
# Poissons Ratio (x) = 0.20832 0.17110
# Poissons Ratio (y) = 0.18422 0.05061
# Poissons Ratio (z) = 1.39642 0.46714
#
# Static dielectric constant tensor:
#      x y z
#    x 1.968090 0.000000 0.115830 
#    y 0.000000 1.855630 0.000000 
#    z 0.115830 0.000000 1.895500 
# 
# From -- ./inp_files/24568.got.cif
#   From: 2010.05.17/outbox.cif.g08.bks.cpg/sg13_13_cif.got.tgz:24568.got - 2010.06.03 16:44:36.
