data_PCOD9232603
_publ_section_title
;
Structure prediction by ZEFSAII (Michael W. Deem and Ramdas Pophale) SiO2 
 PCOD9232603
Probable space group: P 2/C
;
_chemical_formula_sum "Si O2"
_cell_formula_units_Z 28
_cell_length_a 24.460852
_cell_length_b 9.872906
_cell_length_c 8.711782
_cell_angle_alpha 90.000000
_cell_angle_beta 43.917066
_cell_angle_gamma 90.000000
_cell_volume 1459.294503
_symmetry_space_group_name_H-M "P 2/C"
_symmetry_group_IT_number 13
_symmetry_cell_setting 'monoclinic'
loop_
_space_group_symop_operation_xyz
x,y,z
-x,y,1/2-z
-x,-y,-z
x,-y,1/2+z
loop_
_atom_site_type_symbol
_atom_site_label
_atom_site_fract_x
_atom_site_fract_y
_atom_site_fract_z
Si Si1 0.495354 0.648325 0.942141
Si Si2 0.199868 0.715812 0.645216
Si Si3 0.167081 0.505448 0.974398
Si Si4 0.938756 0.609701 0.061711
Si Si5 0.356671 0.848024 0.253535
Si Si6 0.419875 0.897823 0.810047
Si Si7 0.973856 0.855283 0.483305
O O1 0.500000 0.630931 0.750000
O O2 0.561967 0.764986 0.830351
O O3 0.500000 0.500000 0.000000
O O4 0.414276 0.719305 0.156662
O O5 0.204959 0.606606 0.773941
O O6 0.207590 0.621537 0.476611
O O7 0.272216 0.817970 0.495072
O O8 0.116760 0.798388 0.822809
O O9 0.093139 0.436731 0.036638
O O10 0.135770 0.599116 0.174417
O O11 0.977807 0.752327 0.007395
O O12 0.000000 0.500000 0.000000
O O13 0.397040 0.975699 0.253839
O O14 0.355367 0.872016 0.072560
O O15 0.500000 0.921129 0.750000
O O16 0.000000 0.845633 0.250000
O O17 0.000000 0.000000 0.500000
#
# Coordination Sequence:
#
# PCOD9232603 Si02
#       7
#     4   4   4   4   4   4   4
#     4   9  19  35  62  93 120 152 201 247 285 345
#     4  11  24  40  60  91 125 157 203 262 316 366
#     4  10  21  37  64  86 111 153 206 254 303 363
#     4  11  18  37  66  84 104 152 213 252 296 363
#     4  10  22  40  60  90 128 159 203 244 305 368
#     4   9  19  40  65  88 119 167 204 236 291 372
#     4  12  26  39  58  87 122 155 209 256 312 368
#
# _framework density 19.187355
#
# number of rings (size 3 to 8) (size 9 to 14) (size 15 to 20)
#    0.000    2.000    4.286    2.143    2.000    5.143 
#    0.000    1.429    0.000    0.000    0.000    0.000 
#    0.000    0.000    0.000    0.000    0.000    0.000 
#
# Total GULP energy -155962.635960 kJ/mol
# GULP energy per Si atom -5570.094141 kJ/mol
# Density = 1.914368 g / cm^3
# Si number density = 19.187355 Si / 1000 Ang^3
#
#
#
# Elastic Constant Matrix: (Units=GPa)
#
#
# Indices 1 2 3 4 5 6 
#
# 1 34.4620 39.4977 28.3494 0.0000 2.6959 0.0000
# 2 39.4977 160.4690 44.6804 0.0000 -8.2757 0.0000
# 3 28.3494 44.6804 95.3655 0.0000 -2.5798 0.0000
# 4 0.0000 0.0000 0.0000 27.4200 0.0000 6.8429
# 5 2.6959 -8.2757 -2.5798 0.0000 18.5339 0.0000
# 6 0.0000 0.0000 0.0000 6.8429 0.0000 24.8597
#
#
#
# Elastic Compliance Matrix: (Units=1/GPa)
#
#
# Indices 1 2 3 4 5 6 
#
# 1 0.050399 -0.010144 -0.010590 0.000000 -0.013335 0.000000
# 2 -0.010144 0.009350 -0.001217 0.000000 0.005481 0.000000
# 3 -0.010590 -0.001217 0.014285 0.000000 0.002985 0.000000
# 4 0.000000 0.000000 0.000000 0.039160 0.000000 -0.010779
# 5 -0.013335 0.005481 0.002985 0.000000 0.058758 0.000000
# 6 0.000000 0.000000 0.000000 -0.010779 0.000000 0.043193
#
#
# Mechanical properties :
#
#
# Convention : Reuss Voigt Hill
#
# Bulk Modulus (GPa) = 33.18767 57.26127 45.22447
# Shear Modulus (GPa) = 18.58111 26.01399 22.29755
#
# Velocity S-wave (km/s) = 3.11530 3.68610 3.41265
# Velocity P-wave (km/s) = 5.50221 6.92997 6.25694
#
# Compressibility (1/GPa) = 0.03013167
#
# Stress axis : x y z
#
# Youngs Moduli (GPa) = 19.84175 106.95097 70.00351
#
# Poissons Ratio (x) = 1.08492 0.74135
# Poissons Ratio (y) = 0.20128 0.08518
# Poissons Ratio (z) = 0.21013 0.13014
#
# Static dielectric constant tensor:
#      x y z
#    x 1.901340 0.000000 0.162390 
#    y 0.000000 1.661860 0.000000 
#    z 0.162390 0.000000 1.842280 
# 
# From -- ./inp_files/24411.got.cif
#   From: 2010.05.17/outbox.cif.g08.bks.cpg/sg13_13_cif.got.tgz:24411.got - 2010.06.03 16:44:36.
