data_PCOD9232551
_publ_section_title
;
Structure prediction by ZEFSAII (Michael W. Deem and Ramdas Pophale) SiO2 
 PCOD9232551
Probable space group: P 2/C
;
_chemical_formula_sum "Si O2"
_cell_formula_units_Z 28
_cell_length_a 11.896822
_cell_length_b 15.832928
_cell_length_c 9.136509
_cell_angle_alpha 90.000000
_cell_angle_beta 52.317110
_cell_angle_gamma 90.000000
_cell_volume 1361.983633
_symmetry_space_group_name_H-M "P 2/C"
_symmetry_group_IT_number 13
_symmetry_cell_setting 'monoclinic'
loop_
_space_group_symop_operation_xyz
x,y,z
-x,y,1/2-z
-x,-y,-z
x,-y,1/2+z
loop_
_atom_site_type_symbol
_atom_site_label
_atom_site_fract_x
_atom_site_fract_y
_atom_site_fract_z
Si Si1 0.152863 0.712256 0.552848
Si Si2 0.612199 0.415170 0.533975
Si Si3 0.167788 0.105074 0.097028
Si Si4 0.844922 0.737066 0.300127
Si Si5 0.598112 0.394280 0.030464
Si Si6 0.307987 0.010640 0.732688
Si Si7 0.377920 0.876093 0.930984
O O1 0.253219 0.634524 0.513700
O O2 0.219034 0.798553 0.565855
O O3 0.140533 0.728366 0.388008
O O4 0.000000 0.700122 0.750000
O O5 0.500000 0.428878 0.750000
O O6 0.516212 0.362664 0.497386
O O7 0.645028 0.509681 0.450253
O O8 0.234027 0.045803 0.167998
O O9 0.000000 0.106129 0.250000
O O10 0.203252 0.070256 0.908276
O O11 0.737510 0.662122 0.431587
O O12 0.760837 0.821021 0.421501
O O13 0.000000 0.732952 0.250000
O O14 0.500000 0.396499 0.250000
O O15 0.356454 0.947233 0.822421
O O16 0.409256 0.074799 0.559711
O O17 0.500000 0.822512 0.750000
#
# Coordination Sequence:
#
# PCOD9232551 Si02
#       7
#     4   4   4   4   4   4   4
#     4  11  25  43  65  96 139 176 222 268 333 395
#     4  10  21  45  72  98 130 172 220 273 322 400
#     4  10  21  37  61  91 127 171 217 262 324 385
#     4  12  27  44  64  99 140 175 221 274 329 397
#     4  10  23  43  72 102 130 167 221 269 331 393
#     4  10  22  40  63  92 125 167 222 277 323 383
#     4  11  24  43  66  93 130 172 221 275 333 388
#
# _framework density 20.558250000000001
#
# number of rings (size 3 to 8) (size 9 to 14) (size 15 to 20)
#    0.000    1.429    2.857    1.286    6.000    4.000 
#    0.000    2.143    0.000    0.000    0.000    0.000 
#    0.000    0.000    0.000    0.000    0.000    0.000 
#
# Total GULP energy -156076.463925 kJ/mol
# GULP energy per Si atom -5574.159426 kJ/mol
# Density = 2.051146 g / cm^3
# Si number density = 20.558250 Si / 1000 Ang^3
#
#
#
# Elastic Constant Matrix: (Units=GPa)
#
#
# Indices 1 2 3 4 5 6 
#
# 1 104.9513 48.2297 52.9864 0.0000 -2.7960 0.0000
# 2 48.2297 97.5533 41.9026 0.0000 -15.8209 0.0000
# 3 52.9864 41.9026 155.1001 0.0000 -5.7167 0.0000
# 4 0.0000 0.0000 0.0000 60.3839 0.0000 -27.3280
# 5 -2.7960 -15.8209 -5.7167 0.0000 31.4298 0.0000
# 6 0.0000 0.0000 0.0000 -27.3280 0.0000 39.8303
#
#
#
# Elastic Compliance Matrix: (Units=1/GPa)
#
#
# Indices 1 2 3 4 5 6 
#
# 1 0.013751 -0.005785 -0.003219 0.000000 -0.002274 0.000000
# 2 -0.005785 0.014980 -0.001824 0.000000 0.006694 0.000000
# 3 -0.003219 -0.001824 0.008049 0.000000 0.000260 0.000000
# 4 0.000000 0.000000 0.000000 0.024019 0.000000 0.016480
# 5 -0.002274 0.006694 0.000260 0.000000 0.035031 0.000000
# 6 0.000000 0.000000 0.000000 0.016480 0.000000 0.036413
#
#
# Mechanical properties :
#
#
# Convention : Reuss Voigt Hill
#
# Bulk Modulus (GPa) = 66.11430 71.53801 68.82616
# Shear Modulus (GPa) = 31.45829 40.62786 36.04308
#
# Velocity S-wave (km/s) = 3.91602 4.45031 4.19169
# Velocity P-wave (km/s) = 7.25784 7.82817 7.54839
#
# Compressibility (1/GPa) = 0.01512532
#
# Stress axis : x y z
#
# Youngs Moduli (GPa) = 72.72221 66.75646 124.23246
#
# Poissons Ratio (x) = 0.38616 0.39987
# Poissons Ratio (y) = 0.42067 0.22661
# Poissons Ratio (z) = 0.23407 0.12177
#
# Static dielectric constant tensor:
#      x y z
#    x 1.690830 0.000000 -0.069290 
#    y 0.000000 1.791230 0.000000 
#    z -0.069290 0.000000 1.657710 
# 
# From -- ./inp_files/16680.got.cif
#   From: 2010.05.17/outbox.cif.g08.bks.cpg/sg13_9_cif.got.tgz:16680.got - 2010.06.03 16:44:36.
