data_PCOD9232779
_publ_section_title
;
Structure prediction by ZEFSAII (Michael W. Deem and Ramdas Pophale) SiO2 
 PCOD9232779
Probable space group: P 2/C
;
_chemical_formula_sum "Si O2"
_cell_formula_units_Z 32
_cell_length_a 5.404503
_cell_length_b 9.993142
_cell_length_c 24.993631
_cell_angle_alpha 90.000000
_cell_angle_beta 71.389435
_cell_angle_gamma 90.000000
_cell_volume 1279.270677
_symmetry_space_group_name_H-M "P 2/C"
_symmetry_group_IT_number 13
_symmetry_cell_setting 'monoclinic'
loop_
_space_group_symop_operation_xyz
x,y,z
-x,y,1/2-z
-x,-y,-z
x,-y,1/2+z
loop_
_atom_site_type_symbol
_atom_site_label
_atom_site_fract_x
_atom_site_fract_y
_atom_site_fract_z
Si Si1 0.324149 0.925205 0.368981
Si Si2 0.585606 0.668708 0.399597
Si Si3 0.471759 0.826059 0.578919
Si Si4 0.199623 0.668727 0.515944
Si Si5 0.787720 0.563498 0.722557
Si Si6 0.895615 0.118236 0.971918
Si Si7 0.106972 0.259753 0.798956
Si Si8 0.229435 0.569845 0.894698
O O1 0.468229 0.813335 0.394258
O O2 0.015986 0.925308 0.407265
O O3 0.295298 0.849817 0.313811
O O4 0.470047 0.060948 0.379382
O O5 0.475880 0.637911 0.467516
O O6 0.880252 0.687529 0.356926
O O7 0.431497 0.553654 0.378068
O O8 0.215691 0.766420 0.567350
O O9 0.606238 0.873729 0.513899
O O10 0.613445 0.694030 0.591755
O O11 0.031715 0.746021 0.482683
O O12 0.026019 0.548369 0.551407
O O13 0.500000 0.620516 0.750000
O O14 0.868132 0.598344 0.657591
O O15 0.000000 0.611068 0.750000
O O16 0.773296 0.402004 0.726927
O O17 0.000000 0.000000 0.000000
O O18 0.000000 0.202128 0.750000
#
# Coordination Sequence:
#
# PCOD9232779 Si02
#       8
#     4   4   4   4   4   4   4   4
#     4  10  21  38  61  92 128 169 225 280 337 410
#     4  11  23  40  65  99 134 176 231 286 346 417
#     4  10  22  37  61  91 137 177 217 271 342 422
#     4  10  22  36  62  98 140 178 216 275 356 417
#     4  11  25  45  75 101 131 178 243 292 349 414
#     4   8  17  34  55  85 125 170 216 259 314 410
#     4  11  24  40  69  95 126 173 232 300 348 405
#     4  11  23  41  65  97 136 174 226 287 347 418
#
# _framework density 25.014251999999999
#
# number of rings (size 3 to 8) (size 9 to 14) (size 15 to 20)
#    0.000    1.750    1.250    2.625    3.500    8.000 
#    0.000    0.625    2.750    0.000    0.000    0.000 
#    0.000    0.000    0.000    0.000    0.000    0.000 
#
# Total GULP energy -178235.122643 kJ/mol
# GULP energy per Si atom -5569.847583 kJ/mol
# Density = 2.495732 g / cm^3
# Si number density = 25.014252 Si / 1000 Ang^3
#
#
#
# Elastic Constant Matrix: (Units=GPa)
#
#
# Indices 1 2 3 4 5 6 
#
# 1 89.8225 22.5709 37.7513 0.0000 -0.6115 0.0000
# 2 22.5709 84.5302 2.2460 0.0000 0.8456 0.0000
# 3 37.7513 2.2460 99.7412 0.0000 7.8043 0.0000
# 4 0.0000 0.0000 0.0000 -187.2376 0.0000 -218.4828
# 5 -0.6115 0.8456 7.8043 0.0000 40.6667 0.0000
# 6 0.0000 0.0000 0.0000 -218.4828 0.0000 -209.1397
#
#
#
# Elastic Compliance Matrix: (Units=1/GPa)
#
#
# Indices 1 2 3 4 5 6 
#
# 1 0.014368 -0.003705 -0.005460 0.000000 0.001341 0.000000
# 2 -0.003705 0.012794 0.001157 0.000000 -0.000544 0.000000
# 3 -0.005460 0.001157 0.012259 0.000000 -0.002459 0.000000
# 4 0.000000 0.000000 0.000000 0.024387 0.000000 -0.025476
# 5 0.001341 -0.000544 -0.002459 0.000000 0.025093 0.000000
# 6 0.000000 0.000000 0.000000 -0.025476 0.000000 0.021833
#
#
# Mechanical properties :
#
#
# Convention : Reuss Voigt Hill
#
# Bulk Modulus (GPa) = 42.72571 44.35895 43.54233
# Shear Modulus (GPa) = 37.16072 -57.04042 -9.93985
#
# Velocity S-wave (km/s) = 3.85851 -4.78045 -1.99557
# Velocity P-wave (km/s) = 6.08016 3.56346 3.48354
#
# Compressibility (1/GPa) = 0.02340511
#
# Stress axis : x y z
#
# Youngs Moduli (GPa) = 69.60044 78.16148 81.57485
#
# Poissons Ratio (x) = 0.28957 0.44536
# Poissons Ratio (y) = 0.25785 -0.09435
# Poissons Ratio (z) = 0.37999 -0.09041
#
# Static dielectric constant tensor:
#      x y z
#    x 2.597590 0.000000 -0.198180 
#    y 0.000000 2.149300 0.000000 
#    z -0.198180 0.000000 2.161200 
# 
# From -- ./inp_files/83794.got.cif
#   From: 2010.05.17/outbox.cif.g08.bks.cpg/sg13_42_cif.got.tgz:83794.got - 2010.06.03 16:44:36.
