data_PCOD9232390
_publ_section_title
;
Structure prediction by ZEFSAII (Michael W. Deem and Ramdas Pophale) SiO2 
 PCOD9232390
Probable space group: P 2/C
;
_chemical_formula_sum "Si O2"
_cell_formula_units_Z 28
_cell_length_a 15.202104
_cell_length_b 9.273622
_cell_length_c 15.822830
_cell_angle_alpha 90.000000
_cell_angle_beta 141.407605
_cell_angle_gamma 90.000000
_cell_volume 1391.444260
_symmetry_space_group_name_H-M "P 2/C"
_symmetry_group_IT_number 13
_symmetry_cell_setting 'monoclinic'
loop_
_space_group_symop_operation_xyz
x,y,z
-x,y,1/2-z
-x,-y,-z
x,-y,1/2+z
loop_
_atom_site_type_symbol
_atom_site_label
_atom_site_fract_x
_atom_site_fract_y
_atom_site_fract_z
Si Si1 0.337458 0.471055 0.908604
Si Si2 0.277467 0.862514 0.130940
Si Si3 0.425342 0.076615 0.574777
Si Si4 0.101497 0.875098 0.547587
Si Si5 0.903688 0.637940 0.399967
Si Si6 0.462961 0.260725 0.126773
Si Si7 0.297072 0.767903 0.830607
O O1 0.228614 0.408483 0.757596
O O2 0.281883 0.632244 0.880635
O O3 0.500000 0.500000 0.000000
O O4 0.350371 0.365402 0.997817
O O5 0.414574 0.866657 0.295109
O O6 0.335311 0.843985 0.079880
O O7 0.170009 0.738926 0.082493
O O8 0.218884 0.028068 0.089886
O O9 0.364843 0.107037 0.437136
O O10 0.422375 0.907041 0.592233
O O11 0.158122 0.809327 0.677422
O O12 0.013518 0.748788 0.437161
O O13 0.000000 0.000000 0.500000
O O14 0.000000 0.500000 0.500000
O O15 0.500000 0.302150 0.250000
O O16 0.600208 0.270831 0.170100
#
# Coordination Sequence:
#
# PCOD9232390 Si02
#       7
#     4   4   4   4   4   4   4
#     4  10  23  40  63  97 126 175 227 263 337 402
#     4  10  21  40  61 102 127 172 227 275 346 393
#     4  11  21  38  67  97 133 167 230 292 333 393
#     4  10  21  36  64  90 126 175 217 269 341 398
#     4  11  22  42  69  94 136 180 219 275 343 424
#     4  11  21  39  65  96 134 166 221 288 338 395
#     4  11  21  39  61  96 131 172 224 270 338 406
#
# _framework density 20.122976999999999
#
# number of rings (size 3 to 8) (size 9 to 14) (size 15 to 20)
#    0.000    1.429    4.286    2.143    4.000    0.000 
#    7.714    2.857    3.143    3.429    0.000    0.000 
#    0.000    0.000    0.000    0.000    0.000    0.000 
#
# Total GULP energy -155946.894323 kJ/mol
# GULP energy per Si atom -5569.531940 kJ/mol
# Density = 2.007718 g / cm^3
# Si number density = 20.122977 Si / 1000 Ang^3
#
#
#
# Elastic Constant Matrix: (Units=GPa)
#
#
# Indices 1 2 3 4 5 6 
#
# 1 55.8855 35.2087 44.3170 0.0000 0.8892 0.0000
# 2 35.2087 123.4976 56.5075 0.0000 4.3525 0.0000
# 3 44.3170 56.5075 137.6495 0.0000 1.5717 0.0000
# 4 0.0000 0.0000 0.0000 44.7764 0.0000 -2.2699
# 5 0.8892 4.3525 1.5717 0.0000 25.9390 0.0000
# 6 0.0000 0.0000 0.0000 -2.2699 0.0000 14.5322
#
#
#
# Elastic Compliance Matrix: (Units=1/GPa)
#
#
# Indices 1 2 3 4 5 6 
#
# 1 0.025821 -0.004390 -0.006514 0.000000 0.000246 0.000000
# 2 -0.004390 0.010769 -0.002991 0.000000 -0.001475 0.000000
# 3 -0.006514 -0.002991 0.010589 0.000000 0.000084 0.000000
# 4 0.000000 0.000000 0.000000 0.022511 0.000000 0.003516
# 5 0.000246 -0.001475 0.000084 0.000000 0.038786 0.000000
# 6 0.000000 0.000000 0.000000 0.003516 0.000000 0.069362
#
#
# Mechanical properties :
#
#
# Convention : Reuss Voigt Hill
#
# Bulk Modulus (GPa) = 51.57254 65.45545 58.51399
# Shear Modulus (GPa) = 23.57480 29.11613 26.34546
#
# Velocity S-wave (km/s) = 3.42648 3.80795 3.62224
# Velocity P-wave (km/s) = 6.42952 7.20641 6.82902
#
# Compressibility (1/GPa) = 0.01939016
#
# Stress axis : x y z
#
# Youngs Moduli (GPa) = 38.72837 92.85669 94.43860
#
# Poissons Ratio (x) = 0.40760 0.61517
# Poissons Ratio (y) = 0.17000 0.28245
# Poissons Ratio (z) = 0.25228 0.27772
#
# Static dielectric constant tensor:
#      x y z
#    x 1.770100 0.000000 0.037730 
#    y 0.000000 1.766880 0.000000 
#    z 0.037730 0.000000 1.727120 
# 
# From -- ./inp_files/53389.got.cif
#   From: 2010.05.17/outbox.cif.g08.bks.cpg/sg13_27_cif.got.tgz:53389.got - 2010.06.03 16:44:36.
