data_PCOD9232979
_publ_section_title
;
Structure prediction by ZEFSAII (Michael W. Deem and Ramdas Pophale) SiO2 
 PCOD9232979
Probable space group: P 2/C
;
_chemical_formula_sum "Si O2"
_cell_formula_units_Z 30
_cell_length_a 17.247679
_cell_length_b 6.411856
_cell_length_c 14.643335
_cell_angle_alpha 90.000000
_cell_angle_beta 64.881268
_cell_angle_gamma 90.000000
_cell_volume 1466.254406
_symmetry_space_group_name_H-M "P 2/C"
_symmetry_group_IT_number 13
_symmetry_cell_setting 'monoclinic'
loop_
_space_group_symop_operation_xyz
x,y,z
-x,y,1/2-z
-x,-y,-z
x,-y,1/2+z
loop_
_atom_site_type_symbol
_atom_site_label
_atom_site_fract_x
_atom_site_fract_y
_atom_site_fract_z
Si Si1 0.903228 0.321411 0.901371
Si Si2 0.164818 0.999998 0.417592
Si Si3 0.500000 0.000022 0.750000
Si Si4 0.903221 0.678582 0.195410
Si Si5 0.565564 0.310199 0.568692
Si Si6 0.434442 0.689832 0.634247
Si Si7 0.751291 0.378973 0.217935
Si Si8 0.751295 0.378975 0.530774
O O1 0.895685 0.231961 0.802160
O O2 0.000003 0.404733 0.862759
O O3 0.887334 0.152925 0.989093
O O4 0.831959 0.500579 0.947372
O O5 0.221144 0.146765 0.323856
O O6 0.112677 0.847061 0.376419
O O7 0.221143 0.853243 0.455010
O O8 0.445386 0.855439 0.709565
O O9 0.554626 0.144608 0.654957
O O10 0.831954 0.499409 0.220685
O O11 0.500003 0.500017 0.618623
O O12 0.545615 0.227038 0.477198
O O13 0.663587 0.384102 0.519975
O O14 0.336419 0.615929 0.683562
O O15 0.732655 0.500013 0.133677
#
# Coordination Sequence:
#
# PCOD9232979 Si02
#       8
#     4   4   2   4   4   4   4   4
#     4  10  22  39  60  88 121 158 200 246 297 352
#     4  10  22  38  62  90 118 156 200 246 294 352
#     4  12  22  40  64  90 122 156 196 246 294 348
#     4  10  22  39  60  88 121 158 200 246 297 352
#     4  11  24  41  63  90 120 157 199 243 294 352
#     4  11  24  41  63  90 120 157 199 243 294 352
#     4  10  21  39  61  87 120 157 196 244 297 351
#     4  10  21  39  61  87 120 157 196 244 297 351
#
# _framework density 20.460296
#
# number of rings (size 3 to 8) (size 9 to 14) (size 15 to 20)
#    0.000    1.600    0.000    4.400    0.000   10.133 
#    0.000    2.667    0.000    0.000    0.000    0.000 
#    0.000    0.000    0.000    0.000    0.000    0.000 
#
# Total GULP energy -167518.245607 kJ/mol
# GULP energy per Si atom -5583.941520 kJ/mol
# Density = 2.041373 g / cm^3
# Si number density = 20.460296 Si / 1000 Ang^3
#
#
#
# Elastic Constant Matrix: (Units=GPa)
#
#
# Indices 1 2 3 4 5 6 
#
# 1 152.9896 64.9344 68.1250 0.0000 -20.4129 0.0000
# 2 64.9344 84.5421 45.1432 0.0000 -9.8136 0.0000
# 3 68.1250 45.1432 123.5078 0.0000 5.7410 0.0000
# 4 0.0000 0.0000 0.0000 13.7848 0.0000 1.6516
# 5 -20.4129 -9.8136 5.7410 0.0000 34.7623 0.0000
# 6 0.0000 0.0000 0.0000 1.6516 0.0000 10.4516
#
#
#
# Elastic Compliance Matrix: (Units=1/GPa)
#
#
# Indices 1 2 3 4 5 6 
#
# 1 0.011993 -0.005983 -0.004713 0.000000 0.006132 0.000000
# 2 -0.005983 0.018627 -0.003617 0.000000 0.002343 0.000000
# 3 -0.004713 -0.003617 0.012289 0.000000 -0.005818 0.000000
# 4 0.000000 0.000000 0.000000 0.073944 0.000000 -0.011685
# 5 0.006132 0.002343 -0.005818 0.000000 0.033990 0.000000
# 6 0.000000 0.000000 0.000000 -0.011685 0.000000 0.097526
#
#
# Mechanical properties :
#
#
# Convention : Reuss Voigt Hill
#
# Bulk Modulus (GPa) = 70.01700 79.71606 74.86653
# Shear Modulus (GPa) = 17.74593 23.98886 20.86739
#
# Velocity S-wave (km/s) = 2.94825 3.42783 3.19705
# Velocity P-wave (km/s) = 6.77383 7.39680 7.09216
#
# Compressibility (1/GPa) = 0.01428224
#
# Stress axis : x y z
#
# Youngs Moduli (GPa) = 83.38544 53.68544 81.37364
#
# Poissons Ratio (x) = 0.32118 0.38353
# Poissons Ratio (y) = 0.49886 0.29435
# Poissons Ratio (z) = 0.39301 0.19420
#
# Static dielectric constant tensor:
#      x y z
#    x 1.724780 0.000000 0.004300 
#    y 0.000000 1.725880 0.000000 
#    z 0.004300 0.000000 1.733440 
# 
# From -- ./inp_files/54645.got.cif
#   From: 2010.05.17/outbox.cif.g08.bks.cpg/sg13_28_cif.got.tgz:54645.got - 2010.06.03 16:44:36.
