data_PCOD9232419
_publ_section_title
;
Structure prediction by ZEFSAII (Michael W. Deem and Ramdas Pophale) SiO2 
 PCOD9232419
Probable space group: P 2/C
;
_chemical_formula_sum "Si O2"
_cell_formula_units_Z 24
_cell_length_a 26.492691
_cell_length_b 4.908148
_cell_length_c 31.342963
_cell_angle_alpha 90.000000
_cell_angle_beta 12.378682
_cell_angle_gamma 90.000000
_cell_volume 873.678557
_symmetry_space_group_name_H-M "P 2/C"
_symmetry_group_IT_number 13
_symmetry_cell_setting 'monoclinic'
loop_
_space_group_symop_operation_xyz
x,y,z
-x,y,1/2-z
-x,-y,-z
x,-y,1/2+z
loop_
_atom_site_type_symbol
_atom_site_label
_atom_site_fract_x
_atom_site_fract_y
_atom_site_fract_z
Si Si1 0.744697 0.897811 0.743567
Si Si2 0.150022 0.664492 0.707922
Si Si3 0.184307 0.161754 0.727870
Si Si4 0.699077 0.401221 0.731619
Si Si5 0.509901 0.346170 0.304152
Si Si6 0.500000 0.865006 0.250000
Si Si7 0.000000 0.358958 0.750000
O O1 0.775345 0.092922 0.677252
O O2 0.856507 0.033506 0.692646
O O3 0.810207 0.594586 0.676260
O O4 0.466526 0.863941 0.986010
O O5 0.080613 0.968133 0.776577
O O6 0.423716 0.633997 0.471990
O O7 0.026067 0.545752 0.769696
O O8 0.106235 0.468318 0.784344
O O9 0.676517 0.554324 0.705343
O O10 0.458222 0.627567 0.320942
O O11 0.259080 0.226655 0.529889
O O12 0.606675 0.102946 0.194302
#
# Coordination Sequence:
#
# PCOD9232419 Si02
#       7
#     4   4   4   4   4   2   2
#     4   9  15  24  41  63  94 133 166 203 262 318
#     4   9  18  28  42  67 100 134 169 209 256 310
#     4   9  16  26  38  61  99 135 163 203 262 318
#     4   9  16  27  45  69  95 129 171 213 256 310
#     4  10  21  37  56  80 112 145 181 222 268 322
#     4  10  22  38  54  76 114 148 178 226 272 312
#     4  10  22  36  58  82 110 148 186 220 264 322
#
# _framework density 27.470054999999999
#
# number of rings (size 3 to 8) (size 9 to 14) (size 15 to 20)
#    0.000    2.667    0.000    2.000    0.000   10.667 
#    0.000    0.000    0.000    0.000    0.000    0.000 
#    0.000   93.333    0.000    0.000    0.000    0.000 
#
# Total GULP energy -133979.847332 kJ/mol
# GULP energy per Si atom -5582.493639 kJ/mol
# Density = 2.740753 g / cm^3
# Si number density = 27.470055 Si / 1000 Ang^3
#
#
#
# Elastic Constant Matrix: (Units=GPa)
#
#
# Indices 1 2 3 4 5 6 
#
# 1 116.1479 26.3933 23.6206 0.0000 9.5846 0.0000
# 2 26.3933 139.2014 30.7695 0.0000 11.0636 0.0000
# 3 23.6206 30.7695 84.3709 0.0000 18.2015 0.0000
# 4 0.0000 0.0000 0.0000 6.6049 0.0000 12.9645
# 5 9.5846 11.0636 18.2015 0.0000 20.5315 0.0000
# 6 0.0000 0.0000 0.0000 12.9645 0.0000 31.2501
#
#
#
# Elastic Compliance Matrix: (Units=1/GPa)
#
#
# Indices 1 2 3 4 5 6 
#
# 1 0.009420 -0.001232 -0.001709 0.000000 -0.002218 0.000000
# 2 -0.001232 0.008048 -0.002199 0.000000 -0.001812 0.000000
# 3 -0.001709 -0.002199 0.015710 0.000000 -0.011944 0.000000
# 4 0.000000 0.000000 0.000000 0.815352 0.000000 -0.338258
# 5 -0.002218 -0.001812 -0.011944 0.000000 0.061306 0.000000
# 6 0.000000 0.000000 0.000000 -0.338258 0.000000 0.172330
#
#
# Mechanical properties :
#
#
# Convention : Reuss Voigt Hill
#
# Bulk Modulus (GPa) = 43.67488 55.69856 49.68672
# Shear Modulus (GPa) = 4.54513 28.93975 16.74244
#
# Velocity S-wave (km/s) = 1.28770 3.24929 2.47144
# Velocity P-wave (km/s) = 4.25964 5.86492 5.12551
#
# Compressibility (1/GPa) = 0.02289646
#
# Stress axis : x y z
#
# Youngs Moduli (GPa) = 106.15289 124.26179 63.65506
#
# Poissons Ratio (x) = 0.15309 0.10882
# Poissons Ratio (y) = 0.13078 0.13998
# Poissons Ratio (z) = 0.18147 0.27326
#
# Static dielectric constant tensor:
#      x y z
#    x 2.061360 0.000000 -0.043880 
#    y 0.000000 2.009170 0.000000 
#    z -0.043880 0.000000 2.414360 
# 
# From -- ./inp_files/97588.got.cif
#   From: 2010.05.17/outbox.cif.g08.bks.cpg/sg13_49_cif.got.tgz:97588.got - 2010.06.03 16:44:36.
