data_PCOD9232004
_publ_section_title
;
Structure prediction by ZEFSAII (Michael W. Deem and Ramdas Pophale) SiO2 
 PCOD9232004
Probable space group: P 2/C
;
_chemical_formula_sum "Si O2"
_cell_formula_units_Z 22
_cell_length_a 27.616388
_cell_length_b 6.983808
_cell_length_c 16.828726
_cell_angle_alpha 90.000000
_cell_angle_beta 160.563876
_cell_angle_gamma 90.000000
_cell_volume 1080.030393
_symmetry_space_group_name_H-M "P 2/C"
_symmetry_group_IT_number 13
_symmetry_cell_setting 'monoclinic'
loop_
_space_group_symop_operation_xyz
x,y,z
-x,y,1/2-z
-x,-y,-z
x,-y,1/2+z
loop_
_atom_site_type_symbol
_atom_site_label
_atom_site_fract_x
_atom_site_fract_y
_atom_site_fract_z
Si Si1 0.600965 0.752087 0.575431
Si Si2 0.041737 0.695847 0.022751
Si Si3 0.854816 0.551092 0.487568
Si Si4 0.779712 0.998899 0.104750
Si Si5 0.500000 0.821068 0.250000
Si Si6 0.688094 0.891219 0.294720
O O1 0.722641 0.598092 0.784311
O O2 0.546553 0.711302 0.401937
O O3 0.460085 0.774743 0.414290
O O4 0.668236 0.965953 0.689939
O O5 0.112887 0.633472 0.049785
O O6 0.149305 0.813549 0.246405
O O7 0.000000 0.500000 0.000000
O O8 0.900601 0.832185 0.793851
O O9 0.810834 0.735544 0.470690
O O10 0.000000 0.462127 0.750000
O O11 0.639480 0.058227 0.938650
O O12 0.726863 0.982815 0.932046
#
# Coordination Sequence:
#
# PCOD9232004 Si02
#       6
#     4   4   4   4   2   4
#     4  10  23  41  67  93 129 173 218 273 328 384
#     4  11  24  41  62  96 131 174 211 265 333 387
#     4  12  24  40  64 101 133 170 220 268 329 394
#     4  10  22  41  65  90 131 165 215 271 320 395
#     4  10  20  44  66  90 124 172 222 264 324 388
#     4  10  22  43  66  96 127 172 219 276 328 386
#
# _framework density 20.369796000000001
#
# number of rings (size 3 to 8) (size 9 to 14) (size 15 to 20)
#    0.000    1.455    1.818    2.727    2.545    2.182 
#    0.000   11.818    0.000    0.000    0.000    0.000 
#    0.000    0.000    0.000    0.000    0.000    0.000 
#
# Total GULP energy -122870.217227 kJ/mol
# GULP energy per Si atom -5585.009874 kJ/mol
# Density = 2.032343 g / cm^3
# Si number density = 20.369796 Si / 1000 Ang^3
#
#
#
# Elastic Constant Matrix: (Units=GPa)
#
#
# Indices 1 2 3 4 5 6 
#
# 1 89.5574 38.3993 32.8812 0.0000 -9.1559 0.0000
# 2 38.3993 75.7393 37.6909 0.0000 -0.9091 0.0000
# 3 32.8812 37.6909 113.3799 0.0000 -5.1717 0.0000
# 4 0.0000 0.0000 0.0000 -122.4926 0.0000 92.9434
# 5 -9.1559 -0.9091 -5.1717 0.0000 26.7010 0.0000
# 6 0.0000 0.0000 0.0000 92.9434 0.0000 -41.6141
#
#
#
# Elastic Compliance Matrix: (Units=1/GPa)
#
#
# Indices 1 2 3 4 5 6 
#
# 1 0.015230 -0.006677 -0.001987 0.000000 0.004610 0.000000
# 2 -0.006677 0.018754 -0.004412 0.000000 -0.002506 0.000000
# 3 -0.001987 -0.004412 0.010921 0.000000 0.001284 0.000000
# 4 0.000000 0.000000 0.000000 0.011752 0.000000 0.026247
# 5 0.004610 -0.002506 0.001284 0.000000 0.039196 0.000000
# 6 0.000000 0.000000 0.000000 0.026247 0.000000 0.034592
#
#
# Mechanical properties :
#
#
# Convention : Reuss Voigt Hill
#
# Bulk Modulus (GPa) = 53.32574 55.17994 54.25284
# Shear Modulus (GPa) = 30.70325 -16.16747 7.26789
#
# Velocity S-wave (km/s) = 3.88660 -2.82032 1.89096
# Velocity P-wave (km/s) = 6.81003 4.06722 5.60887
#
# Compressibility (1/GPa) = 0.01875267
#
# Stress axis : x y z
#
# Youngs Moduli (GPa) = 65.66059 53.32127 91.56325
#
# Poissons Ratio (x) = 0.35605 0.18191
# Poissons Ratio (y) = 0.43844 0.40400
# Poissons Ratio (z) = 0.13045 0.23527
#
# Static dielectric constant tensor:
#      x y z
#    x 1.773740 0.000000 0.006420 
#    y 0.000000 1.679560 0.000000 
#    z 0.006420 0.000000 1.764070 
# 
# From -- ./inp_files/72174.got.cif
#   From: 2010.05.17/outbox.cif.g08.bks.cpg/sg13_37_cif.got.tgz:72174.got - 2010.06.03 16:44:36.
