data_PCOD9232675
_publ_section_title
;
Structure prediction by ZEFSAII (Michael W. Deem and Ramdas Pophale) SiO2 
 PCOD9232675
Probable space group: P 2/C
;
_chemical_formula_sum "Si O2"
_cell_formula_units_Z 18
_cell_length_a 24.627964
_cell_length_b 4.919733
_cell_length_c 4.958945
_cell_angle_alpha 90.000000
_cell_angle_beta 91.553253
_cell_angle_gamma 90.000000
_cell_volume 600.619918
_symmetry_space_group_name_H-M "P 2/C"
_symmetry_group_IT_number 13
_symmetry_cell_setting 'monoclinic'
loop_
_space_group_symop_operation_xyz
x,y,z
-x,y,1/2-z
-x,-y,-z
x,-y,1/2+z
loop_
_atom_site_type_symbol
_atom_site_label
_atom_site_fract_x
_atom_site_fract_y
_atom_site_fract_z
Si Si1 0.827256 0.693654 0.805695
Si Si2 0.714799 0.694078 0.644900
Si Si3 0.055784 0.305253 0.183310
Si Si4 0.500000 0.000000 0.500000
Si Si5 0.602188 0.314034 0.274305
O O1 0.826416 0.436955 0.600156
O O2 0.771197 0.841059 0.724112
O O3 0.885622 0.832511 0.768742
O O4 0.714869 0.565000 0.350081
O O5 0.658261 0.839194 0.708507
O O6 0.054902 0.559888 0.390665
O O7 0.000000 0.153952 0.250000
O O8 0.500000 0.238902 0.750000
O O9 0.452136 0.137117 0.262981
O O10 0.603727 0.439064 0.567080
#
# Coordination Sequence:
#
# PCOD9232675 Si02
#       5
#     4   4   4   2   4
#     4   8  12  18  29  46  68  96 136 181 221 268
#     4   8  14  25  42  62  83 112 150 192 238 283
#     4   8  12  16  22  35  59  92 129 171 217 261
#     4  12  26  40  58  84 108 136 174 208 256 316
#     4  10  21  38  58  79 106 137 170 213 260 306
#
# _framework density 29.969041000000001
#
# number of rings (size 3 to 8) (size 9 to 14) (size 15 to 20)
#    0.000    3.111    0.000    1.333    0.000    2.667 
#    0.000    0.000    0.000    0.000    0.000    0.000 
#    0.000    0.000    0.000    0.000    0.000    2.222 
#
# Total GULP energy -100608.565986 kJ/mol
# GULP energy per Si atom -5589.364777 kJ/mol
# Density = 2.990083 g / cm^3
# Si number density = 29.969041 Si / 1000 Ang^3
#
#
#
# Elastic Constant Matrix: (Units=GPa)
#
#
# Indices 1 2 3 4 5 6 
#
# 1 355.5373 34.1722 19.6241 0.0000 20.8679 0.0000
# 2 34.1722 84.5356 52.8724 0.0000 -2.6430 0.0000
# 3 19.6241 52.8724 202.8974 0.0000 -5.3435 0.0000
# 4 0.0000 0.0000 0.0000 74.2284 0.0000 -14.7315
# 5 20.8679 -2.6430 -5.3435 0.0000 35.2397 0.0000
# 6 0.0000 0.0000 0.0000 -14.7315 0.0000 -57.6621
#
#
#
# Elastic Compliance Matrix: (Units=1/GPa)
#
#
# Indices 1 2 3 4 5 6 
#
# 1 0.003048 -0.001286 -0.000010 0.000000 -0.001903 0.000000
# 2 -0.001286 0.014684 -0.003668 0.000000 0.001306 0.000000
# 3 -0.000010 -0.003668 0.005902 0.000000 0.000626 0.000000
# 4 0.000000 0.000000 0.000000 0.012822 0.000000 -0.003276
# 5 -0.001903 0.001306 0.000626 0.000000 0.029697 0.000000
# 6 0.000000 0.000000 0.000000 -0.003276 0.000000 -0.016506
#
#
# Mechanical properties :
#
#
# Convention : Reuss Voigt Hill
#
# Bulk Modulus (GPa) = 72.95193 95.14528 84.04861
# Shear Modulus (GPa) = 77.95104 46.11463 62.03284
#
# Velocity S-wave (km/s) = 5.10558 3.92694 4.55455
# Velocity P-wave (km/s) = 7.69099 7.23726 7.46757
#
# Compressibility (1/GPa) = 0.01370766
#
# Stress axis : x y z
#
# Youngs Moduli (GPa) = 328.03469 68.10241 169.44030
#
# Poissons Ratio (x) = 0.08755 0.00169
# Poissons Ratio (y) = 0.42171 0.62145
# Poissons Ratio (z) = 0.00327 0.24978
#
# Static dielectric constant tensor:
#      x y z
#    x 2.647640 0.000000 -0.110610 
#    y 0.000000 2.070640 0.000000 
#    z -0.110610 0.000000 2.440270 
# 
# From -- ./inp_files/7618.got.cif
#   From: 2010.05.17/outbox.cif.g08.bks.cpg/sg13_4_cif.got.tgz:7618.got - 2010.06.03 16:44:36.
