data_PCOD9232103
_publ_section_title
;
Structure prediction by ZEFSAII (Michael W. Deem and Ramdas Pophale) SiO2 
 PCOD9232103
Probable space group: P 2/C
;
_chemical_formula_sum "Si O2"
_cell_formula_units_Z 32
_cell_length_a 21.070944
_cell_length_b 9.484354
_cell_length_c 25.467579
_cell_angle_alpha 90.000000
_cell_angle_beta 159.570577
_cell_angle_gamma 90.000000
_cell_volume 1776.524438
_symmetry_space_group_name_H-M "P 2/C"
_symmetry_group_IT_number 13
_symmetry_cell_setting 'monoclinic'
loop_
_space_group_symop_operation_xyz
x,y,z
-x,y,1/2-z
-x,-y,-z
x,-y,1/2+z
loop_
_atom_site_type_symbol
_atom_site_label
_atom_site_fract_x
_atom_site_fract_y
_atom_site_fract_z
Si Si1 0.010317 0.185917 0.553784
Si Si2 0.874149 0.682460 0.196036
Si Si3 0.126810 0.078364 0.945199
Si Si4 0.637999 0.287760 0.101513
Si Si5 0.245581 0.584463 0.285090
Si Si6 0.632091 0.086445 0.460427
Si Si7 0.886040 0.847015 0.710585
Si Si8 0.268573 0.074786 0.239044
O O1 0.094196 0.336965 0.633199
O O2 0.884992 0.129838 0.504595
O O3 0.892571 0.170391 0.410181
O O4 0.176415 0.074599 0.679831
O O5 0.813784 0.596746 0.199865
O O6 0.000000 0.608154 0.250000
O O7 0.003412 0.808084 0.317950
O O8 0.702907 0.762598 0.037295
O O9 0.316385 0.077593 0.060998
O O10 0.025067 0.929723 0.857060
O O11 0.713305 0.421261 0.192699
O O12 0.764077 0.258325 0.149202
O O13 0.647486 0.148879 0.144768
O O14 0.434546 0.329670 0.927455
O O15 0.428091 0.062213 0.320216
O O16 0.755243 0.966701 0.583987
O O17 0.000000 0.787012 0.750000
#
# Coordination Sequence:
#
# PCOD9232103 Si02
#       8
#     4   4   4   4   4   4   4   4
#     4  10  21  35  50  75 103 135 172 208 252 298
#     4   8  14  27  48  72  98 126 158 202 251 292
#     4   8  15  29  49  73 102 127 160 206 252 297
#     4  11  21  33  52  77 102 134 172 209 251 303
#     4  10  21  34  50  74 105 135 169 212 252 296
#     4   9  16  28  50  78 101 127 159 206 257 292
#     4   9  17  30  51  78 104 129 162 208 257 299
#     4  11  21  32  53  77 102 133 171 211 251 304
#
# _framework density 18.012699000000001
#
# number of rings (size 3 to 8) (size 9 to 14) (size 15 to 20)
#    0.000    2.500    2.500    2.250    0.000    2.500 
#    0.000    0.000    0.000    0.000    0.000    0.000 
#   11.250    0.000    0.000    0.000    0.000    0.000 
#
# Total GULP energy -178339.645112 kJ/mol
# GULP energy per Si atom -5573.113910 kJ/mol
# Density = 1.797170 g / cm^3
# Si number density = 18.012699 Si / 1000 Ang^3
#
#
#
# Elastic Constant Matrix: (Units=GPa)
#
#
# Indices 1 2 3 4 5 6 
#
# 1 43.5773 1.9133 18.4438 0.0000 24.2627 0.0000
# 2 1.9133 26.7694 14.8653 0.0000 4.3413 0.0000
# 3 18.4438 14.8653 30.6245 0.0000 15.0491 0.0000
# 4 0.0000 0.0000 0.0000 16.1485 0.0000 -5.1584
# 5 24.2627 4.3413 15.0491 0.0000 32.1246 0.0000
# 6 0.0000 0.0000 0.0000 -5.1584 0.0000 6.1550
#
#
#
# Elastic Compliance Matrix: (Units=1/GPa)
#
#
# Indices 1 2 3 4 5 6 
#
# 1 0.046063 0.012519 -0.020644 0.000000 -0.026811 0.000000
# 2 0.012519 0.055490 -0.033962 0.000000 -0.001045 0.000000
# 3 -0.020644 -0.033962 0.067102 0.000000 -0.011253 0.000000
# 4 0.000000 0.000000 0.000000 0.084564 0.000000 0.070871
# 5 -0.026811 -0.001045 -0.011253 0.000000 0.056791 0.000000
# 6 0.000000 0.000000 0.000000 0.070871 0.000000 0.221864
#
#
# Mechanical properties :
#
#
# Convention : Reuss Voigt Hill
#
# Bulk Modulus (GPa) = 11.83675 19.04622 15.44148
# Shear Modulus (GPa) = 7.76149 15.26887 11.51518
#
# Velocity S-wave (km/s) = 2.07804 2.91464 2.53114
# Velocity P-wave (km/s) = 3.51330 4.68226 4.13925
#
# Compressibility (1/GPa) = 0.08448264
#
# Stress axis : x y z
#
# Youngs Moduli (GPa) = 21.70945 18.02128 14.90278
#
# Poissons Ratio (x) = -0.22561 0.30765
# Poissons Ratio (y) = -0.27179 0.50612
# Poissons Ratio (z) = 0.44816 0.61203
#
# Static dielectric constant tensor:
#      x y z
#    x 1.652010 0.000000 0.011780 
#    y 0.000000 1.599530 0.000000 
#    z 0.011780 0.000000 1.610140 
# 
# From -- ./inp_files/93584.got.cif
#   From: 2010.05.17/outbox.cif.g08.bks.cpg/sg13_47_cif.got.tgz:93584.got - 2010.06.03 16:44:36.
