data_PCOD9232504
_publ_section_title
;
Structure prediction by ZEFSAII (Michael W. Deem and Ramdas Pophale) SiO2 
 PCOD9232504
Probable space group: P 2/C
;
_chemical_formula_sum "Si O2"
_cell_formula_units_Z 16
_cell_length_a 9.361420
_cell_length_b 13.181826
_cell_length_c 7.011451
_cell_angle_alpha 90.000000
_cell_angle_beta 138.501581
_cell_angle_gamma 90.000000
_cell_volume 573.292466
_symmetry_space_group_name_H-M "P 2/C"
_symmetry_group_IT_number 13
_symmetry_cell_setting 'monoclinic'
loop_
_space_group_symop_operation_xyz
x,y,z
-x,y,1/2-z
-x,-y,-z
x,-y,1/2+z
loop_
_atom_site_type_symbol
_atom_site_label
_atom_site_fract_x
_atom_site_fract_y
_atom_site_fract_z
Si Si1 0.746852 0.125953 0.162969
Si Si2 0.000000 0.454660 0.250000
Si Si3 0.000000 0.801326 0.250000
Si Si4 0.246852 0.625953 0.330734
Si Si5 0.500000 0.301326 0.750000
Si Si6 0.500000 0.045339 0.250000
O O1 0.549389 0.110786 0.115022
O O2 0.947966 0.138567 0.504143
O O3 0.698537 0.225552 0.992643
O O4 0.707013 0.027165 0.994011
O O5 0.207012 0.527165 0.420014
O O6 0.049389 0.389214 0.483755
O O7 0.801462 0.725552 0.095568
O O8 0.447966 0.638567 0.391788
#
# Coordination Sequence:
#
# PCOD9232504 Si02
#       6
#     4   2   2   4   2   2
#     4  10  21  37  60  85 121 158 196 242 296 351
#     4   9  20  40  58  87 124 156 192 247 300 350
#     4  11  22  38  62  89 118 158 200 243 292 350
#     4  10  21  37  60  85 121 158 196 242 296 351
#     4  11  22  38  62  89 118 158 200 243 292 350
#     4   9  20  40  58  87 124 156 192 247 300 350
#
# _framework density 27.908964000000001
#
# number of rings (size 3 to 8) (size 9 to 14) (size 15 to 20)
#    0.000    2.000    0.000    3.000    0.000    2.000 
#    0.000    0.000    0.000    0.000    0.000    0.000 
#    0.000    0.000    0.000    0.000    0.000    0.000 
#
# Total GULP energy -89533.271547 kJ/mol
# GULP energy per Si atom -5595.829472 kJ/mol
# Density = 2.784544 g / cm^3
# Si number density = 27.908964 Si / 1000 Ang^3
#
#
#
# Elastic Constant Matrix: (Units=GPa)
#
#
# Indices 1 2 3 4 5 6 
#
# 1 136.8828 36.1907 -13.8535 0.0000 2.6315 0.0000
# 2 36.1907 78.4565 40.8475 0.0000 6.9138 0.0000
# 3 -13.8535 40.8475 122.2107 0.0000 -24.4169 0.0000
# 4 0.0000 0.0000 0.0000 28.8794 0.0000 -2.4455
# 5 2.6315 6.9138 -24.4169 0.0000 36.0929 0.0000
# 6 0.0000 0.0000 0.0000 -2.4455 0.0000 30.5263
#
#
#
# Elastic Compliance Matrix: (Units=1/GPa)
#
#
# Indices 1 2 3 4 5 6 
#
# 1 0.009412 -0.006690 0.003957 0.000000 0.003272 0.000000
# 2 -0.006690 0.022139 -0.010300 0.000000 -0.010721 0.000000
# 3 0.003957 -0.010300 0.014350 0.000000 0.011392 0.000000
# 4 0.000000 0.000000 0.000000 0.034863 0.000000 0.002793
# 5 0.003272 -0.010721 0.011392 0.000000 0.037228 0.000000
# 6 0.000000 0.000000 0.000000 0.002793 0.000000 0.032982
#
#
# Mechanical properties :
#
#
# Convention : Reuss Voigt Hill
#
# Bulk Modulus (GPa) = 50.41784 51.54658 50.98221
# Shear Modulus (GPa) = 27.22524 37.39073 32.30799
#
# Velocity S-wave (km/s) = 3.12669 3.66422 3.40607
# Velocity P-wave (km/s) = 5.58026 6.03420 5.81166
#
# Compressibility (1/GPa) = 0.01983425
#
# Stress axis : x y z
#
# Youngs Moduli (GPa) = 106.24993 45.16865 69.68679
#
# Poissons Ratio (x) = 0.30217 -0.27572
# Poissons Ratio (y) = 0.71079 0.71778
# Poissons Ratio (z) = -0.42039 0.46524
#
# Static dielectric constant tensor:
#      x y z
#    x 2.075120 0.000000 0.075650 
#    y 0.000000 2.141790 0.000000 
#    z 0.075650 0.000000 2.126070 
# 
# From -- ./inp_files/16216.got.cif
#   From: 2010.05.17/outbox.cif.g08.bks.cpg/sg13_9_cif.got.tgz:16216.got - 2010.06.03 16:44:36.
