data_PCOD9232211
_publ_section_title
;
Structure prediction by ZEFSAII (Michael W. Deem and Ramdas Pophale) SiO2 
 PCOD9232211
Probable space group: P 2/C
;
_chemical_formula_sum "Si O2"
_cell_formula_units_Z 20
_cell_length_a 22.445601
_cell_length_b 6.634168
_cell_length_c 10.376142
_cell_angle_alpha 90.000000
_cell_angle_beta 35.637350
_cell_angle_gamma 90.000000
_cell_volume 900.250800
_symmetry_space_group_name_H-M "P 2/C"
_symmetry_group_IT_number 13
_symmetry_cell_setting 'monoclinic'
loop_
_space_group_symop_operation_xyz
x,y,z
-x,y,1/2-z
-x,-y,-z
x,-y,1/2+z
loop_
_atom_site_type_symbol
_atom_site_label
_atom_site_fract_x
_atom_site_fract_y
_atom_site_fract_z
Si Si1 0.758331 0.556233 0.880048
Si Si2 0.090501 0.840222 0.991862
Si Si3 0.103970 0.810685 0.305775
Si Si4 0.717862 0.057031 0.618146
Si Si5 0.620941 0.188783 0.053930
O O1 0.816092 0.688629 0.670534
O O2 0.842540 0.402769 0.786533
O O3 0.726191 0.719197 0.043026
O O4 0.669830 0.412063 0.982152
O O5 0.000000 0.807873 0.250000
O O6 0.017836 0.794887 0.993779
O O7 0.122629 0.068862 0.906333
O O8 0.170536 0.946782 0.087266
O O9 0.651592 0.928980 0.631180
O O10 0.668043 0.076782 0.845774
O O11 0.500000 0.198863 0.250000
#
# Coordination Sequence:
#
# PCOD9232211 Si02
#       5
#     4   4   4   4   4
#     4  10  23  39  62  98 127 172 220 274 323 394
#     4  10  21  35  61  91 127 173 214 264 325 395
#     4   9  21  39  57  89 133 167 217 265 326 391
#     4  10  24  42  69  95 134 174 221 277 334 398
#     4  11  25  45  70  98 133 176 224 281 338 392
#
# _framework density 22.21603
#
# number of rings (size 3 to 8) (size 9 to 14) (size 15 to 20)
#    0.000    2.000    0.000    1.200   11.200    4.000 
#    0.000    0.000    0.000    0.000    0.000    0.000 
#    0.000    0.000    0.000    0.000    0.000    0.000 
#
# Total GULP energy -111623.123557 kJ/mol
# GULP energy per Si atom -5581.156178 kJ/mol
# Density = 2.216547 g / cm^3
# Si number density = 22.216030 Si / 1000 Ang^3
#
#
#
# Elastic Constant Matrix: (Units=GPa)
#
#
# Indices 1 2 3 4 5 6 
#
# 1 58.2349 31.0875 37.4093 0.0000 -13.8306 0.0000
# 2 31.0875 129.5986 35.1706 0.0000 -10.2472 0.0000
# 3 37.4093 35.1706 111.0678 0.0000 -9.2045 0.0000
# 4 0.0000 0.0000 0.0000 20.2880 0.0000 -5.9032
# 5 -13.8306 -10.2472 -9.2045 0.0000 50.7199 0.0000
# 6 0.0000 0.0000 0.0000 -5.9032 0.0000 33.7283
#
#
#
# Elastic Compliance Matrix: (Units=1/GPa)
#
#
# Indices 1 2 3 4 5 6 
#
# 1 0.024587 -0.003700 -0.006717 0.000000 0.004738 0.000000
# 2 -0.003700 0.009076 -0.001583 0.000000 0.000537 0.000000
# 3 -0.006717 -0.001583 0.011766 0.000000 -0.000016 0.000000
# 4 0.000000 0.000000 0.000000 0.051935 0.000000 0.009090
# 5 0.004738 0.000537 -0.000016 0.000000 0.021114 0.000000
# 6 0.000000 0.000000 0.000000 0.009090 0.000000 0.031240
#
#
# Mechanical properties :
#
#
# Convention : Reuss Voigt Hill
#
# Bulk Modulus (GPa) = 46.66758 56.24847 51.45802
# Shear Modulus (GPa) = 27.64551 33.96283 30.80417
#
# Velocity S-wave (km/s) = 3.53143 3.91417 3.72771
# Velocity P-wave (km/s) = 6.13839 6.76768 6.46070
#
# Compressibility (1/GPa) = 0.02142815
#
# Stress axis : x y z
#
# Youngs Moduli (GPa) = 40.67127 110.18221 84.99182
#
# Poissons Ratio (x) = 0.40772 0.57089
# Poissons Ratio (y) = 0.15050 0.13455
# Poissons Ratio (z) = 0.27319 0.17443
#
# Static dielectric constant tensor:
#      x y z
#    x 2.086410 0.000000 0.084510 
#    y 0.000000 1.809320 0.000000 
#    z 0.084510 0.000000 1.824910 
# 
# From -- ./inp_files/35481.got.cif
#   From: 2010.05.17/outbox.cif.g08.bks.cpg/sg13_18_cif.got.tgz:35481.got - 2010.06.03 16:44:36.
