data_PCOD9232220
_publ_section_title
;
Structure prediction by ZEFSAII (Michael W. Deem and Ramdas Pophale) SiO2 
 PCOD9232220
Probable space group: P 2/C
;
_chemical_formula_sum "Si O2"
_cell_formula_units_Z 20
_cell_length_a 16.350618
_cell_length_b 5.269655
_cell_length_c 19.090250
_cell_angle_alpha 90.000000
_cell_angle_beta 149.286951
_cell_angle_gamma 90.000000
_cell_volume 840.091842
_symmetry_space_group_name_H-M "P 2/C"
_symmetry_group_IT_number 13
_symmetry_cell_setting 'monoclinic'
loop_
_space_group_symop_operation_xyz
x,y,z
-x,y,1/2-z
-x,-y,-z
x,-y,1/2+z
loop_
_atom_site_type_symbol
_atom_site_label
_atom_site_fract_x
_atom_site_fract_y
_atom_site_fract_z
Si Si1 0.194482 0.762926 0.446358
Si Si2 0.857305 0.936052 0.945672
Si Si3 0.342728 0.270711 0.321071
Si Si4 0.672471 0.740455 0.401968
Si Si5 0.714417 0.760219 0.133674
O O1 0.095073 0.809250 0.445185
O O2 0.252685 0.475899 0.496314
O O3 0.162034 0.787181 0.340028
O O4 0.325220 0.988787 0.556587
O O5 0.726189 0.772558 0.807249
O O6 0.777399 0.198707 0.911196
O O7 0.000000 0.000000 0.000000
O O8 0.266851 0.518166 0.301959
O O9 0.535686 0.285002 0.468487
O O10 0.293920 0.019510 0.328856
O O11 0.500000 0.662781 0.250000
#
# Coordination Sequence:
#
# PCOD9232220 Si02
#       5
#     4   4   4   4   4
#     4  10  22  38  64  90 126 165 214 269 318 384
#     4  10  25  43  65  95 134 170 219 264 337 395
#     4  10  22  37  64  92 129 166 205 268 323 382
#     4  10  21  35  64  93 121 159 214 270 313 375
#     4  10  21  39  61  96 126 161 215 264 324 378
#
# _framework density 23.806919000000001
#
# number of rings (size 3 to 8) (size 9 to 14) (size 15 to 20)
#    1.200    0.800    0.000    3.000    5.600    2.400 
#    0.000    1.000    0.000    0.000    0.000    0.000 
#    0.000    0.000    0.000    0.000    0.000    0.000 
#
# Total GULP energy -111643.905795 kJ/mol
# GULP energy per Si atom -5582.195290 kJ/mol
# Density = 2.375273 g / cm^3
# Si number density = 23.806919 Si / 1000 Ang^3
#
#
#
# Elastic Constant Matrix: (Units=GPa)
#
#
# Indices 1 2 3 4 5 6 
#
# 1 172.5303 53.8615 45.1541 0.0000 -12.4079 0.0000
# 2 53.8615 124.6152 7.9755 0.0000 -1.6929 0.0000
# 3 45.1541 7.9755 68.4570 0.0000 -29.4840 0.0000
# 4 0.0000 0.0000 0.0000 -0.0988 0.0000 -17.2808
# 5 -12.4079 -1.6929 -29.4840 0.0000 40.7323 0.0000
# 6 0.0000 0.0000 0.0000 -17.2808 0.0000 34.7610
#
#
#
# Elastic Compliance Matrix: (Units=1/GPa)
#
#
# Indices 1 2 3 4 5 6 
#
# 1 0.008183 -0.003189 -0.005825 0.000000 -0.001857 0.000000
# 2 -0.003189 0.009335 0.001111 0.000000 0.000221 0.000000
# 3 -0.005825 0.001111 0.025538 0.000000 0.016757 0.000000
# 4 0.000000 0.000000 0.000000 -0.115079 0.000000 -0.057210
# 5 -0.001857 0.000221 0.016757 0.000000 0.036124 0.000000
# 6 0.000000 0.000000 0.000000 -0.057210 0.000000 0.000327
#
#
# Mechanical properties :
#
#
# Convention : Reuss Voigt Hill
#
# Bulk Modulus (GPa) = 36.69905 64.39832 50.54868
# Shear Modulus (GPa) = -468.05066 32.31965 -217.86550
#
# Velocity S-wave (km/s) = -14.03672 3.68852 -9.57665
# Velocity P-wave (km/s) = 15.72442 6.72676 10.05008
#
# Compressibility (1/GPa) = 0.02724866
#
# Stress axis : x y z
#
# Youngs Moduli (GPa) = 122.20760 107.12345 39.15745
#
# Poissons Ratio (x) = 0.34164 0.22811
# Poissons Ratio (y) = 0.38974 -0.04351
# Poissons Ratio (z) = 0.71191 -0.11902
#
# Static dielectric constant tensor:
#      x y z
#    x 1.918240 0.000000 0.039630 
#    y 0.000000 1.894670 0.000000 
#    z 0.039630 0.000000 2.063160 
# 
# From -- ./inp_files/79423.got.cif
#   From: 2010.05.17/outbox.cif.g08.bks.cpg/sg13_40_cif.got.tgz:79423.got - 2010.06.03 16:44:36.
