data_PCOD9232253
_publ_section_title
;
Structure prediction by ZEFSAII (Michael W. Deem and Ramdas Pophale) SiO2 
 PCOD9232253
Probable space group: P 2/C
;
_chemical_formula_sum "Si O2"
_cell_formula_units_Z 26
_cell_length_a 10.418044
_cell_length_b 13.858602
_cell_length_c 9.362665
_cell_angle_alpha 90.000000
_cell_angle_beta 65.645769
_cell_angle_gamma 90.000000
_cell_volume 1231.487033
_symmetry_space_group_name_H-M "P 2/C"
_symmetry_group_IT_number 13
_symmetry_cell_setting 'monoclinic'
loop_
_space_group_symop_operation_xyz
x,y,z
-x,y,1/2-z
-x,-y,-z
x,-y,1/2+z
loop_
_atom_site_type_symbol
_atom_site_label
_atom_site_fract_x
_atom_site_fract_y
_atom_site_fract_z
Si Si1 0.640293 0.400691 0.512789
Si Si2 0.000000 0.130277 0.250000
Si Si3 0.583925 0.811988 0.000243
Si Si4 0.759753 0.152717 0.163884
Si Si5 0.206939 0.068981 0.916781
Si Si6 0.685224 0.427986 0.817872
Si Si7 0.252016 0.783305 0.155617
O O1 0.663151 0.286605 0.508737
O O2 0.666587 0.439940 0.658304
O O3 0.473467 0.406275 0.550808
O O4 0.725293 0.470065 0.368490
O O5 0.886119 0.188004 0.209054
O O6 0.914352 0.070360 0.407680
O O7 0.618883 0.823453 0.816992
O O8 0.655183 0.896517 0.058549
O O9 0.419040 0.803374 0.104723
O O10 0.771611 0.037009 0.153161
O O11 0.772904 0.191337 0.998177
O O12 0.177654 0.145758 0.803349
O O13 0.772258 0.330751 0.808159
#
# Coordination Sequence:
#
# PCOD9232253 Si02
#       7
#     4   2   4   4   4   4   4
#     4   9  17  32  50  78 118 158 186 222 272 324
#     4  10  24  44  58  78 108 148 200 266 284 306
#     4  10  21  36  54  86 131 155 176 233 285 349
#     4  11  24  37  58  84 112 156 195 236 286 337
#     4  11  22  39  60  82 113 154 193 238 289 334
#     4   9  18  30  52  80 115 155 190 223 267 335
#     4  11  21  35  57  90 122 151 193 224 284 360
#
# _framework density 21.112684999999999
#
# number of rings (size 3 to 8) (size 9 to 14) (size 15 to 20)
#    0.000    1.846    1.538    3.231    2.154    4.308 
#    0.000    0.000    0.000    0.000    0.000   17.231 
#    0.000    0.000    0.000    0.000    0.000    0.000 
#
# Total GULP energy -145094.327615 kJ/mol
# GULP energy per Si atom -5580.551062 kJ/mol
# Density = 2.106463 g / cm^3
# Si number density = 21.112685 Si / 1000 Ang^3
#
#
#
# Elastic Constant Matrix: (Units=GPa)
#
#
# Indices 1 2 3 4 5 6 
#
# 1 40.0709 16.1683 2.9330 0.0000 12.2677 0.0000
# 2 16.1683 67.1469 27.4813 0.0000 8.7855 0.0000
# 3 2.9330 27.4813 114.1938 0.0000 8.9116 0.0000
# 4 0.0000 0.0000 0.0000 32.6626 0.0000 11.8922
# 5 12.2677 8.7855 8.9116 0.0000 32.2261 0.0000
# 6 0.0000 0.0000 0.0000 11.8922 0.0000 7.3547
#
#
#
# Elastic Compliance Matrix: (Units=1/GPa)
#
#
# Indices 1 2 3 4 5 6 
#
# 1 0.030700 -0.006711 0.001631 0.000000 -0.010308 0.000000
# 2 -0.006711 0.018378 -0.004148 0.000000 -0.001308 0.000000
# 3 0.001631 -0.004148 0.009887 0.000000 -0.002224 0.000000
# 4 0.000000 0.000000 0.000000 0.074440 0.000000 -0.120366
# 5 -0.010308 -0.001308 -0.002224 0.000000 0.035926 0.000000
# 6 0.000000 0.000000 0.000000 -0.120366 0.000000 0.330592
#
#
# Mechanical properties :
#
#
# Convention : Reuss Voigt Hill
#
# Bulk Modulus (GPa) = 24.68642 34.95300 29.81971
# Shear Modulus (GPa) = 9.40057 26.10394 17.75225
#
# Velocity S-wave (km/s) = 2.11240 3.52008 2.90286
# Velocity P-wave (km/s) = 4.20330 5.75436 5.03887
#
# Compressibility (1/GPa) = 0.04050810
#
# Stress axis : x y z
#
# Youngs Moduli (GPa) = 32.57321 54.41403 101.14286
#
# Poissons Ratio (x) = 0.36518 -0.16496
# Poissons Ratio (y) = 0.21860 0.41956
# Poissons Ratio (z) = -0.05313 0.22572
#
# Static dielectric constant tensor:
#      x y z
#    x 1.796560 0.000000 -0.020410 
#    y 0.000000 1.779490 0.000000 
#    z -0.020410 0.000000 1.773770 
# 
# From -- ./inp_files/16417.got.cif
#   From: 2010.05.17/outbox.cif.g08.bks.cpg/sg13_9_cif.got.tgz:16417.got - 2010.06.03 16:44:36.
