data_PCOD9232604
_publ_section_title
;
Structure prediction by ZEFSAII (Michael W. Deem and Ramdas Pophale) SiO2 
 PCOD9232604
Probable space group: P 2/C
;
_chemical_formula_sum "Si O2"
_cell_formula_units_Z 28
_cell_length_a 18.562633
_cell_length_b 4.968730
_cell_length_c 23.663120
_cell_angle_alpha 90.000000
_cell_angle_beta 39.379296
_cell_angle_gamma 90.000000
_cell_volume 1384.698540
_symmetry_space_group_name_H-M "P 2/C"
_symmetry_group_IT_number 13
_symmetry_cell_setting 'monoclinic'
loop_
_space_group_symop_operation_xyz
x,y,z
-x,y,1/2-z
-x,-y,-z
x,-y,1/2+z
loop_
_atom_site_type_symbol
_atom_site_label
_atom_site_fract_x
_atom_site_fract_y
_atom_site_fract_z
Si Si1 0.395325 0.216438 0.566353
Si Si2 0.009957 0.749624 0.037095
Si Si3 0.472702 0.532647 0.916677
Si Si4 0.219274 0.695823 0.259463
Si Si5 0.738104 0.664201 0.586760
Si Si6 0.599504 0.157549 0.641277
Si Si7 0.318256 0.815324 0.752064
O O1 0.446760 0.414946 0.582536
O O2 0.270852 0.179944 0.670100
O O3 0.500000 0.000000 0.500000
O O4 0.621211 0.668862 0.486545
O O5 0.909187 0.748639 0.144044
O O6 0.129134 0.726485 0.997599
O O7 0.000000 0.500000 0.000000
O O8 0.000000 0.000000 0.000000
O O9 0.440373 0.303350 0.892121
O O10 0.551305 0.752035 0.838954
O O11 0.245623 0.381028 0.254901
O O12 0.290554 0.873881 0.261139
O O13 0.700175 0.359293 0.599894
O O14 0.709739 0.730075 0.668483
O O15 0.656877 0.865168 0.600924
O O16 0.500000 0.154708 0.750000
#
# Coordination Sequence:
#
# PCOD9232604 Si02
#       7
#     4   4   4   4   4   4   4
#     4  10  21  37  64  88 120 155 210 259 307 363
#     4  12  22  38  62  89 124 163 201 258 311 359
#     4  10  23  38  56  92 123 160 198 255 311 367
#     4  11  21  36  60  93 118 158 197 262 308 357
#     4  12  24  38  57  92 125 163 202 240 308 383
#     4  12  26  38  60  88 129 167 196 244 312 382
#     4  11  20  35  60  86 128 151 199 241 304 374
#
# _framework density 20.221007
#
# number of rings (size 3 to 8) (size 9 to 14) (size 15 to 20)
#    0.000    0.857    5.714    2.143    4.000    0.000 
#    0.000    0.000    0.000    0.857    0.000    0.000 
#    0.000    0.000    0.000    0.000    0.000    0.000 
#
# Total GULP energy -156183.329032 kJ/mol
# GULP energy per Si atom -5577.976037 kJ/mol
# Density = 2.017498 g / cm^3
# Si number density = 20.221007 Si / 1000 Ang^3
#
#
#
# Elastic Constant Matrix: (Units=GPa)
#
#
# Indices 1 2 3 4 5 6 
#
# 1 51.9054 0.7739 43.6416 0.0000 -13.9322 0.0000
# 2 0.7739 84.2173 16.1383 0.0000 -11.0068 0.0000
# 3 43.6416 16.1383 183.4558 0.0000 -6.5459 0.0000
# 4 0.0000 0.0000 0.0000 18.5347 0.0000 -8.8554
# 5 -13.9322 -11.0068 -6.5459 0.0000 37.0304 0.0000
# 6 0.0000 0.0000 0.0000 -8.8554 0.0000 16.2867
#
#
#
# Elastic Compliance Matrix: (Units=1/GPa)
#
#
# Indices 1 2 3 4 5 6 
#
# 1 0.027159 0.002236 -0.006309 0.000000 0.009767 0.000000
# 2 0.002236 0.012709 -0.001495 0.000000 0.004355 0.000000
# 3 -0.006309 -0.001495 0.007027 0.000000 -0.001576 0.000000
# 4 0.000000 0.000000 0.000000 0.072888 0.000000 0.039631
# 5 0.009767 0.004355 -0.001576 0.000000 0.031696 0.000000
# 6 0.000000 0.000000 0.000000 0.039631 0.000000 0.082948
#
#
# Mechanical properties :
#
#
# Convention : Reuss Voigt Hill
#
# Bulk Modulus (GPa) = 27.96437 48.96511 38.46474
# Shear Modulus (GPa) = 19.41894 31.63866 25.52880
#
# Velocity S-wave (km/s) = 3.10229 3.95985 3.55701
# Velocity P-wave (km/s) = 5.16640 6.72122 5.99443
#
# Compressibility (1/GPa) = 0.03575979
#
# Stress axis : x y z
#
# Youngs Moduli (GPa) = 36.82069 78.68425 142.30952
#
# Poissons Ratio (x) = -0.17593 0.89781
# Poissons Ratio (y) = -0.08233 0.21268
# Poissons Ratio (z) = 0.23230 0.11759
#
# Static dielectric constant tensor:
#      x y z
#    x 1.793760 0.000000 -0.044810 
#    y 0.000000 1.765860 0.000000 
#    z -0.044810 0.000000 1.847190 
# 
# From -- ./inp_files/87653.got.cif
#   From: 2010.05.17/outbox.cif.g08.bks.cpg/sg13_44_cif.got.tgz:87653.got - 2010.06.03 16:44:36.
