data_PCOD9232863
_publ_section_title
;
Structure prediction by ZEFSAII (Michael W. Deem and Ramdas Pophale) SiO2 
 PCOD9232863
Probable space group: P 2/C
;
_chemical_formula_sum "Si O2"
_cell_formula_units_Z 26
_cell_length_a 18.562477
_cell_length_b 6.057082
_cell_length_c 14.417460
_cell_angle_alpha 90.000000
_cell_angle_beta 137.360810
_cell_angle_gamma 90.000000
_cell_volume 1098.044792
_symmetry_space_group_name_H-M "P 2/C"
_symmetry_group_IT_number 13
_symmetry_cell_setting 'monoclinic'
loop_
_space_group_symop_operation_xyz
x,y,z
-x,y,1/2-z
-x,-y,-z
x,-y,1/2+z
loop_
_atom_site_type_symbol
_atom_site_label
_atom_site_fract_x
_atom_site_fract_y
_atom_site_fract_z
Si Si1 0.011081 0.189143 0.586734
Si Si2 0.513499 0.397859 0.411219
Si Si3 0.161751 0.432222 0.612840
Si Si4 0.322504 0.045331 0.976799
Si Si5 0.500000 0.763244 0.250000
Si Si6 0.840977 0.041041 0.025879
Si Si7 0.314994 0.814000 0.769576
O O1 0.928989 0.385469 0.488157
O O2 0.956938 0.066316 0.621695
O O3 0.125968 0.291437 0.669763
O O4 0.000000 0.000000 0.500000
O O5 0.500000 0.500000 0.500000
O O6 0.473668 0.590650 0.306618
O O7 0.431436 0.194289 0.335833
O O8 0.625667 0.289448 0.486927
O O9 0.269108 0.565292 0.733477
O O10 0.160326 0.289473 0.516529
O O11 0.403824 0.908163 0.119384
O O12 0.210544 0.013353 0.923894
O O13 0.317605 0.931568 0.871203
O O14 0.762846 0.929410 0.876220
#
# Coordination Sequence:
#
# PCOD9232863 Si02
#       7
#     4   4   4   4   2   4   4
#     4   8  16  35  64  94 124 164 211 270 332 396
#     4  12  26  44  64  93 131 177 224 272 336 397
#     4   9  18  36  66  94 121 169 217 264 341 389
#     4  12  26  40  62  96 130 174 230 276 333 400
#     4  12  24  42  66  88 130 174 224 280 332 394
#     4  10  21  38  64  92 131 169 217 276 327 398
#     4  11  23  39  62  92 128 170 221 277 321 393
#
# _framework density 23.678447999999999
#
# number of rings (size 3 to 8) (size 9 to 14) (size 15 to 20)
#    0.000    1.538    1.538    3.692    4.308    1.231 
#    0.000    0.000    0.000   42.462    0.000    0.000 
#    0.000    0.000    0.000    0.000    0.000    0.000 
#
# Total GULP energy -145172.471807 kJ/mol
# GULP energy per Si atom -5583.556608 kJ/mol
# Density = 2.362456 g / cm^3
# Si number density = 23.678448 Si / 1000 Ang^3
#
#
#
# Elastic Constant Matrix: (Units=GPa)
#
#
# Indices 1 2 3 4 5 6 
#
# 1 127.6381 29.1580 10.0874 0.0000 -3.4316 0.0000
# 2 29.1580 101.0008 16.1544 0.0000 -6.9769 0.0000
# 3 10.0874 16.1544 72.3766 0.0000 -27.4390 0.0000
# 4 0.0000 0.0000 0.0000 26.7838 0.0000 10.3026
# 5 -3.4316 -6.9769 -27.4390 0.0000 35.8945 0.0000
# 6 0.0000 0.0000 0.0000 10.3026 0.0000 36.7513
#
#
#
# Elastic Compliance Matrix: (Units=1/GPa)
#
#
# Indices 1 2 3 4 5 6 
#
# 1 0.008419 -0.002328 -0.000733 0.000000 -0.000208 0.000000
# 2 -0.002328 0.010914 -0.001960 0.000000 0.000401 0.000000
# 3 -0.000733 -0.001960 0.019974 0.000000 0.014818 0.000000
# 4 0.000000 0.000000 0.000000 0.041849 0.000000 -0.011732
# 5 -0.000208 0.000401 0.014818 0.000000 0.039245 0.000000
# 6 0.000000 0.000000 0.000000 -0.011732 0.000000 0.030499
#
#
# Mechanical properties :
#
#
# Convention : Reuss Voigt Hill
#
# Bulk Modulus (GPa) = 34.16824 45.75723 39.96273
# Shear Modulus (GPa) = 29.29231 36.26030 32.77630
#
# Velocity S-wave (km/s) = 3.52104 3.91751 3.72455
# Velocity P-wave (km/s) = 5.56702 6.31101 5.95066
#
# Compressibility (1/GPa) = 0.02926695
#
# Stress axis : x y z
#
# Youngs Moduli (GPa) = 118.78346 91.62560 50.06584
#
# Poissons Ratio (x) = 0.21326 0.03667
# Poissons Ratio (y) = 0.27648 0.09811
# Poissons Ratio (z) = 0.08701 0.17955
#
# Static dielectric constant tensor:
#      x y z
#    x 1.990900 0.000000 0.038350 
#    y 0.000000 1.972460 0.000000 
#    z 0.038350 0.000000 1.874220 
# 
# From -- ./inp_files/54516.got.cif
#   From: 2010.05.17/outbox.cif.g08.bks.cpg/sg13_28_cif.got.tgz:54516.got - 2010.06.03 16:44:36.
