data_PCOD9232020
_publ_section_title
;
Structure prediction by ZEFSAII (Michael W. Deem and Ramdas Pophale) SiO2 
 PCOD9232020
Probable space group: P 2/C
;
_chemical_formula_sum "Si O2"
_cell_formula_units_Z 26
_cell_length_a 10.690755
_cell_length_b 5.401849
_cell_length_c 18.851365
_cell_angle_alpha 90.000000
_cell_angle_beta 119.552844
_cell_angle_gamma 90.000000
_cell_volume 947.029550
_symmetry_space_group_name_H-M "P 2/C"
_symmetry_group_IT_number 13
_symmetry_cell_setting 'monoclinic'
loop_
_space_group_symop_operation_xyz
x,y,z
-x,y,1/2-z
-x,-y,-z
x,-y,1/2+z
loop_
_atom_site_type_symbol
_atom_site_label
_atom_site_fract_x
_atom_site_fract_y
_atom_site_fract_z
Si Si1 0.785969 0.047193 0.094900
Si Si2 0.181353 0.526764 0.476808
Si Si3 0.145743 0.656521 0.620950
Si Si4 0.285990 0.600183 0.279637
Si Si5 0.000000 0.128793 0.750000
Si Si6 0.359591 0.011519 0.678176
Si Si7 0.469166 0.106594 0.912717
O O1 0.782107 0.788433 0.049848
O O2 0.748060 0.292556 0.041513
O O3 0.947094 0.043203 0.170986
O O4 0.683721 0.038000 0.135302
O O5 0.214758 0.533549 0.569467
O O6 0.011784 0.458948 0.420884
O O7 0.234758 0.626452 0.717865
O O8 0.190467 0.938630 0.618748
O O9 0.347158 0.774755 0.233533
O O10 0.407884 0.618595 0.375064
O O11 0.133858 0.697412 0.268025
O O12 0.500000 0.861152 0.750000
O O13 0.416360 0.047285 0.614283
O O14 0.500000 0.000000 0.000000
#
# Coordination Sequence:
#
# PCOD9232020 Si02
#       7
#     4   4   4   4   2   4   4
#     4  11  24  47  69 110 145 196 241 316 367 451
#     4  11  26  43  75 107 149 185 251 307 385 436
#     4  11  24  41  72 104 139 194 239 314 371 454
#     4  10  22  43  69 100 140 189 245 307 371 450
#     4  10  20  44  70 100 144 186 248 300 382 436
#     4  10  23  45  67 102 144 194 248 303 370 450
#     4  10  23  45  72 102 148 197 252 306 374 451
#
# _framework density 27.454262
#
# number of rings (size 3 to 8) (size 9 to 14) (size 15 to 20)
#    0.000    1.538    1.538    1.846    4.308    3.692 
#   19.385    1.538    0.000    0.000    0.000    0.000 
#    0.000    0.000    0.000    0.000    0.000    0.000 
#
# Total GULP energy -144858.148324 kJ/mol
# GULP energy per Si atom -5571.467243 kJ/mol
# Density = 2.739178 g / cm^3
# Si number density = 27.454262 Si / 1000 Ang^3
#
#
#
# Elastic Constant Matrix: (Units=GPa)
#
#
# Indices 1 2 3 4 5 6 
#
# 1 154.5401 25.1558 19.8930 0.0000 -20.4712 0.0000
# 2 25.1558 88.0533 33.3061 0.0000 -21.0904 0.0000
# 3 19.8930 33.3061 147.5864 0.0000 -17.8531 0.0000
# 4 0.0000 0.0000 0.0000 31.8602 0.0000 -2.7695
# 5 -20.4712 -21.0904 -17.8531 0.0000 46.4342 0.0000
# 6 0.0000 0.0000 0.0000 -2.7695 0.0000 35.5177
#
#
#
# Elastic Compliance Matrix: (Units=1/GPa)
#
#
# Indices 1 2 3 4 5 6 
#
# 1 0.007045 -0.001305 -0.000368 0.000000 0.002371 0.000000
# 2 -0.001305 0.013762 -0.002353 0.000000 0.004771 0.000000
# 3 -0.000368 -0.002353 0.007559 0.000000 0.001675 0.000000
# 4 0.000000 0.000000 0.000000 0.031601 0.000000 0.002464
# 5 0.002371 0.004771 0.001675 0.000000 0.025392 0.000000
# 6 0.000000 0.000000 0.000000 0.002464 0.000000 0.028347
#
#
# Mechanical properties :
#
#
# Convention : Reuss Voigt Hill
#
# Bulk Modulus (GPa) = 49.22809 60.76549 54.99679
# Shear Modulus (GPa) = 38.90132 43.55076 41.22604
#
# Velocity S-wave (km/s) = 3.76832 3.98716 3.87929
# Velocity P-wave (km/s) = 6.07483 6.58620 6.33568
#
# Compressibility (1/GPa) = 0.02031361
#
# Stress axis : x y z
#
# Youngs Moduli (GPa) = 141.94844 72.66235 132.29416
#
# Poissons Ratio (x) = 0.09485 0.04870
# Poissons Ratio (y) = 0.18530 0.31125
# Poissons Ratio (z) = 0.05225 0.17095
#
# Static dielectric constant tensor:
#      x y z
#    x 2.303860 0.000000 0.095430 
#    y 0.000000 2.312190 0.000000 
#    z 0.095430 0.000000 2.333420 
# 
# From -- ./inp_files/77591.got.cif
#   From: 2010.05.17/outbox.cif.g08.bks.cpg/sg13_39_cif.got.tgz:77591.got - 2010.06.03 16:44:36.
