data_PCOD9232689
_publ_section_title
;
Structure prediction by ZEFSAII (Michael W. Deem and Ramdas Pophale) SiO2 
 PCOD9232689
Probable space group: P 2/C
;
_chemical_formula_sum "Si O2"
_cell_formula_units_Z 16
_cell_length_a 7.075095
_cell_length_b 10.040769
_cell_length_c 15.229197
_cell_angle_alpha 90.000000
_cell_angle_beta 36.799926
_cell_angle_gamma 90.000000
_cell_volume 648.066299
_symmetry_space_group_name_H-M "P 2/C"
_symmetry_group_IT_number 13
_symmetry_cell_setting 'monoclinic'
loop_
_space_group_symop_operation_xyz
x,y,z
-x,y,1/2-z
-x,-y,-z
x,-y,1/2+z
loop_
_atom_site_type_symbol
_atom_site_label
_atom_site_fract_x
_atom_site_fract_y
_atom_site_fract_z
Si Si1 0.794664 0.392219 0.962913
Si Si2 0.793455 0.923435 0.001494
Si Si3 0.390649 0.153936 0.189979
Si Si4 0.539025 0.647405 0.358697
O O1 0.687267 0.372992 0.901413
O O2 0.170672 0.369794 0.816743
O O3 0.558282 0.288940 0.097999
O O4 0.723971 0.532832 0.035122
O O5 0.018392 0.868523 0.840743
O O6 0.609574 0.792141 0.100118
O O7 0.539433 0.037016 0.076895
O O8 0.000000 0.000000 0.000000
O O9 0.500000 0.138599 0.250000
#
# Coordination Sequence:
#
# PCOD9232689 Si02
#       4
#     4   4   4   4
#     4  10  21  39  64  94 126 162 209 264 322 380
#     4  10  21  38  59  86 123 164 206 255 312 376
#     4  10  21  38  58  87 122 163 209 256 313 376
#     4  10  21  39  64  93 126 163 208 265 321 380
#
# _framework density 24.688832999999999
#
# number of rings (size 3 to 8) (size 9 to 14) (size 15 to 20)
#    0.000    2.000    0.000    3.000    0.000    6.000 
#    0.000   15.000    0.000    0.000    0.000    0.000 
#    0.000    0.000    0.000    0.000    0.000    0.000 
#
# Total GULP energy -89344.331149 kJ/mol
# GULP energy per Si atom -5584.020697 kJ/mol
# Density = 2.463264 g / cm^3
# Si number density = 24.688833 Si / 1000 Ang^3
#
#
#
# Elastic Constant Matrix: (Units=GPa)
#
#
# Indices 1 2 3 4 5 6 
#
# 1 43.2116 -158.7706 -160.1025 0.0000 7.9031 0.0000
# 2 -158.7706 -779.5655 -989.7864 0.0000 -42.1239 0.0000
# 3 -160.1025 -989.7864 -952.9758 0.0000 -51.2988 0.0000
# 4 0.0000 0.0000 0.0000 35.9061 0.0000 -0.8047
# 5 7.9031 -42.1239 -51.2988 0.0000 49.1462 0.0000
# 6 0.0000 0.0000 0.0000 -0.8047 0.0000 37.3162
#
#
#
# Elastic Compliance Matrix: (Units=1/GPa)
#
#
# Indices 1 2 3 4 5 6 
#
# 1 0.015435 -0.000249 -0.002073 0.000000 -0.004859 0.000000
# 2 -0.000249 0.004068 -0.004141 0.000000 -0.000795 0.000000
# 3 -0.002073 -0.004141 0.003572 0.000000 0.000513 0.000000
# 4 0.000000 0.000000 0.000000 0.027864 0.000000 0.000601
# 5 -0.004859 -0.000795 0.000513 0.000000 0.020983 0.000000
# 6 0.000000 0.000000 0.000000 0.000601 0.000000 0.026811
#
#
# Mechanical properties :
#
#
# Convention : Reuss Voigt Hill
#
# Bulk Modulus (GPa) = 98.52164 -478.51654 -189.99745
# Shear Modulus (GPa) = 43.46262 -0.90430 21.27916
#
# Velocity S-wave (km/s) = 4.20028 -0.60587 2.93899
# Velocity P-wave (km/s) = 7.96964 13.95454 8.09982
#
# Compressibility (1/GPa) = 0.01015005
#
# Stress axis : x y z
#
# Youngs Moduli (GPa) = 64.78678 245.81318 279.95687
#
# Poissons Ratio (x) = 0.06114 0.58042
# Poissons Ratio (y) = 0.01612 1.15921
# Poissons Ratio (z) = 0.13432 1.01783
#
# Static dielectric constant tensor:
#      x y z
#    x 2.370580 0.000000 -0.242280 
#    y 0.000000 1.956020 0.000000 
#    z -0.242280 0.000000 2.131550 
# 
# From -- ./inp_files/14694.got.cif
#   From: 2010.05.17/outbox.cif.g08.bks.cpg/sg13_8_cif.got.tgz:14694.got - 2010.06.03 16:44:36.
