data_PCOD9232490
_publ_section_title
;
Structure prediction by ZEFSAII (Michael W. Deem and Ramdas Pophale) SiO2 
 PCOD9232490
Probable space group: P 2/C
;
_chemical_formula_sum "Si O2"
_cell_formula_units_Z 28
_cell_length_a 12.653701
_cell_length_b 22.980214
_cell_length_c 5.193413
_cell_angle_alpha 90.000000
_cell_angle_beta 104.036628
_cell_angle_gamma 90.000000
_cell_volume 1465.073117
_symmetry_space_group_name_H-M "P 2/C"
_symmetry_group_IT_number 13
_symmetry_cell_setting 'monoclinic'
loop_
_space_group_symop_operation_xyz
x,y,z
-x,y,1/2-z
-x,-y,-z
x,-y,1/2+z
loop_
_atom_site_type_symbol
_atom_site_label
_atom_site_fract_x
_atom_site_fract_y
_atom_site_fract_z
Si Si1 0.369181 0.032568 0.150377
Si Si2 0.739501 0.148193 0.621088
Si Si3 0.876910 0.298887 0.161721
Si Si4 0.123193 0.838913 0.808781
Si Si5 0.124465 0.461351 0.801856
Si Si6 0.756504 0.654797 0.090918
Si Si7 0.425379 0.743240 0.458931
O O1 0.500000 0.031954 0.250000
O O2 0.331199 0.013642 0.411339
O O3 0.332675 0.094924 0.024666
O O4 0.828470 0.156979 0.448767
O O5 0.665578 0.205900 0.609437
O O6 0.798236 0.134960 0.926370
O O7 0.880824 0.229692 0.127683
O O8 0.812509 0.314422 0.380785
O O9 0.000000 0.321297 0.250000
O O10 0.817002 0.326045 0.885359
O O11 0.000000 0.862046 0.750000
O O12 0.133618 0.488679 0.523692
O O13 0.216025 0.413268 0.912190
O O14 0.000000 0.436936 0.750000
O O15 0.636045 0.681498 0.042402
O O16 0.500000 0.743892 0.250000
O O17 0.500000 0.754705 0.750000
#
# Coordination Sequence:
#
# PCOD9232490 Si02
#       7
#     4   4   4   4   4   4   4
#     4  10  22  40  63  92 119 155 209 260 304 355
#     4  12  22  41  64  89 125 164 196 248 318 358
#     4  11  20  34  57  89 121 154 194 235 292 366
#     4  11  22  37  59  91 127 157 197 242 294 373
#     4  10  21  37  59  89 120 153 196 244 298 360
#     4  12  22  39  59  86 124 162 194 246 303 361
#     4  12  25  40  59  88 122 157 202 250 302 359
#
# _framework density 19.111675000000002
#
# number of rings (size 3 to 8) (size 9 to 14) (size 15 to 20)
#    0.000    0.857    2.857    5.571    0.000    5.143 
#    0.000    0.000    0.000   11.143    0.000    0.000 
#    0.000    0.000    0.000    0.000    0.000    0.000 
#
# Total GULP energy -156453.037137 kJ/mol
# GULP energy per Si atom -5587.608469 kJ/mol
# Density = 1.906818 g / cm^3
# Si number density = 19.111675 Si / 1000 Ang^3
#
#
#
# Elastic Constant Matrix: (Units=GPa)
#
#
# Indices 1 2 3 4 5 6 
#
# 1 103.9407 18.5554 43.7436 0.0000 -16.6068 0.0000
# 2 18.5554 62.8435 1.7709 0.0000 6.3409 0.0000
# 3 43.7436 1.7709 105.9544 0.0000 -5.8529 0.0000
# 4 0.0000 0.0000 0.0000 30.2037 0.0000 4.2275
# 5 -16.6068 6.3409 -5.8529 0.0000 31.9407 0.0000
# 6 0.0000 0.0000 0.0000 4.2275 0.0000 22.3286
#
#
#
# Elastic Compliance Matrix: (Units=1/GPa)
#
#
# Indices 1 2 3 4 5 6 
#
# 1 0.013786 -0.004643 -0.005220 0.000000 0.007133 0.000000
# 2 -0.004643 0.017823 0.001303 0.000000 -0.005714 0.000000
# 3 -0.005220 0.001303 0.011524 0.000000 -0.000861 0.000000
# 4 0.000000 0.000000 0.000000 0.034010 0.000000 -0.006439
# 5 0.007133 -0.005714 -0.000861 0.000000 0.035993 0.000000
# 6 0.000000 0.000000 0.000000 -0.006439 0.000000 0.046005
#
#
# Mechanical properties :
#
#
# Convention : Reuss Voigt Hill
#
# Bulk Modulus (GPa) = 38.44130 44.54203 41.49166
# Shear Modulus (GPa) = 27.03697 30.80586 28.92142
#
# Velocity S-wave (km/s) = 3.76531 4.01919 3.89432
# Velocity P-wave (km/s) = 6.24989 6.70039 6.47906
#
# Compressibility (1/GPa) = 0.02601369
#
# Stress axis : x y z
#
# Youngs Moduli (GPa) = 72.53562 56.10640 86.77699
#
# Poissons Ratio (x) = 0.26051 0.45298
# Poissons Ratio (y) = 0.33680 -0.11311
# Poissons Ratio (z) = 0.37864 -0.07313
#
# Static dielectric constant tensor:
#      x y z
#    x 1.642920 0.000000 0.011300 
#    y 0.000000 1.675330 0.000000 
#    z 0.011300 0.000000 1.642250 
# 
# From -- ./inp_files/4094.got.cif
#   From: 2010.05.17/outbox.cif.g08.bks.cpg/sg13_3_cif.got.tgz:4094.got - 2010.06.03 16:44:36.
