data_PCOD9232187
_publ_section_title
;
Structure prediction by ZEFSAII (Michael W. Deem and Ramdas Pophale) SiO2 
 PCOD9232187
Probable space group: P 2/C
;
_chemical_formula_sum "Si O2"
_cell_formula_units_Z 28
_cell_length_a 11.655874
_cell_length_b 10.149121
_cell_length_c 19.089082
_cell_angle_alpha 90.000000
_cell_angle_beta 144.152588
_cell_angle_gamma 90.000000
_cell_volume 1322.454124
_symmetry_space_group_name_H-M "P 2/C"
_symmetry_group_IT_number 13
_symmetry_cell_setting 'monoclinic'
loop_
_space_group_symop_operation_xyz
x,y,z
-x,y,1/2-z
-x,-y,-z
x,-y,1/2+z
loop_
_atom_site_type_symbol
_atom_site_label
_atom_site_fract_x
_atom_site_fract_y
_atom_site_fract_z
Si Si1 0.722901 0.549467 0.732269
Si Si2 0.897236 0.346252 0.464019
Si Si3 0.441871 0.325905 0.549256
Si Si4 0.676615 0.081431 0.392637
Si Si5 0.589951 0.762568 0.982340
Si Si6 0.135176 0.538619 0.400952
Si Si7 0.284283 0.788041 0.108447
O O1 0.793608 0.594801 0.844146
O O2 0.611916 0.409787 0.671421
O O3 0.570019 0.662121 0.631734
O O4 0.921138 0.522533 0.786221
O O5 0.804632 0.206599 0.436898
O O6 0.854887 0.439872 0.509398
O O7 0.123620 0.306473 0.563665
O O8 0.516996 0.229390 0.526034
O O9 0.298761 0.441277 0.451507
O O10 0.315038 0.253682 0.543985
O O11 0.500000 0.084535 0.250000
O O12 0.609746 0.113221 0.439945
O O13 0.776368 0.941190 0.427307
O O14 0.796993 0.683356 0.090323
O O15 0.500000 0.780231 0.250000
#
# Coordination Sequence:
#
# PCOD9232187 Si02
#       7
#     4   4   4   4   4   4   4
#     4  11  20  36  61  86 125 153 194 239 304 369
#     4  11  21  38  62  92 115 160 201 250 304 360
#     4  11  24  36  56  94 123 160 192 244 302 365
#     4  10  21  42  65  85 115 165 206 256 295 347
#     4  10  23  39  58  89 122 161 202 237 303 364
#     4  10  21  35  58  87 123 154 195 242 303 355
#     4  11  24  40  61  89 123 153 209 258 298 347
#
# _framework density 21.172757000000001
#
# number of rings (size 3 to 8) (size 9 to 14) (size 15 to 20)
#    0.000    1.429    2.857    3.429    2.000    2.857 
#    0.000    0.000    0.000    0.000    3.714    0.000 
#    0.000    0.000    0.000    0.000    0.000    0.000 
#
# Total GULP energy -156181.562332 kJ/mol
# GULP energy per Si atom -5577.912940 kJ/mol
# Density = 2.112457 g / cm^3
# Si number density = 21.172757 Si / 1000 Ang^3
#
#
#
# Elastic Constant Matrix: (Units=GPa)
#
#
# Indices 1 2 3 4 5 6 
#
# 1 97.3697 3.3873 21.2430 0.0000 -0.7919 0.0000
# 2 3.3873 53.7641 12.6859 0.0000 -3.9356 0.0000
# 3 21.2430 12.6859 77.7466 0.0000 -1.6133 0.0000
# 4 0.0000 0.0000 0.0000 13.5741 0.0000 12.4796
# 5 -0.7919 -3.9356 -1.6133 0.0000 32.5457 0.0000
# 6 0.0000 0.0000 0.0000 12.4796 0.0000 21.3291
#
#
#
# Elastic Compliance Matrix: (Units=1/GPa)
#
#
# Indices 1 2 3 4 5 6 
#
# 1 0.010922 0.000025 -0.002986 0.000000 0.000121 0.000000
# 2 0.000025 0.019501 -0.003143 0.000000 0.002203 0.000000
# 3 -0.002986 -0.003143 0.014196 0.000000 0.000251 0.000000
# 4 0.000000 0.000000 0.000000 0.159429 0.000000 -0.093281
# 5 0.000121 0.002203 0.000251 0.000000 0.031008 0.000000
# 6 0.000000 0.000000 0.000000 -0.093281 0.000000 0.101463
#
#
# Mechanical properties :
#
#
# Convention : Reuss Voigt Hill
#
# Bulk Modulus (GPa) = 30.85321 33.72364 32.28842
# Shear Modulus (GPa) = 13.90707 26.26073 20.08390
#
# Velocity S-wave (km/s) = 2.56567 3.52562 3.08323
# Velocity P-wave (km/s) = 4.83535 5.70401 5.28755
#
# Compressibility (1/GPa) = 0.03241154
#
# Stress axis : x y z
#
# Youngs Moduli (GPa) = 91.56135 51.27914 70.44144
#
# Poissons Ratio (x) = -0.00130 0.21032
# Poissons Ratio (y) = -0.00231 0.22141
# Poissons Ratio (z) = 0.27338 0.16118
#
# Static dielectric constant tensor:
#      x y z
#    x 1.803250 0.000000 -0.022400 
#    y 0.000000 1.757530 0.000000 
#    z -0.022400 0.000000 1.831660 
# 
# From -- ./inp_files/78584.got.cif
#   From: 2010.05.17/outbox.cif.g08.bks.cpg/sg13_40_cif.got.tgz:78584.got - 2010.06.03 16:44:36.
