data_PCOD9232237
_publ_section_title
;
Structure prediction by ZEFSAII (Michael W. Deem and Ramdas Pophale) SiO2 
 PCOD9232237
Probable space group: P 2/C
;
_chemical_formula_sum "Si O2"
_cell_formula_units_Z 20
_cell_length_a 7.315343
_cell_length_b 24.293848
_cell_length_c 8.702034
_cell_angle_alpha 90.000000
_cell_angle_beta 143.339567
_cell_angle_gamma 90.000000
_cell_volume 923.374739
_symmetry_space_group_name_H-M "P 2/C"
_symmetry_group_IT_number 13
_symmetry_cell_setting 'monoclinic'
loop_
_space_group_symop_operation_xyz
x,y,z
-x,y,1/2-z
-x,-y,-z
x,-y,1/2+z
loop_
_atom_site_type_symbol
_atom_site_label
_atom_site_fract_x
_atom_site_fract_y
_atom_site_fract_z
Si Si1 0.367440 0.838876 0.489743
Si Si2 0.364204 0.394408 0.827770
Si Si3 0.365373 0.946214 0.990846
Si Si4 0.865874 0.555221 0.833074
Si Si5 0.633111 0.717271 0.011542
O O1 0.519074 0.890020 0.507960
O O2 0.444388 0.778060 0.476422
O O3 0.000000 0.845127 0.250000
O O4 0.500000 0.838807 0.750000
O O5 0.500000 0.406454 0.750000
O O6 0.462387 0.334155 0.948871
O O7 0.004767 0.400018 0.546116
O O8 0.507403 0.435694 0.052472
O O9 0.000000 0.948438 0.750000
O O10 0.500000 0.946736 0.250000
O O11 0.500000 0.000000 0.000000
O O12 0.000000 0.560168 0.750000
O O13 0.000000 0.500000 0.000000
O O14 0.000000 0.715298 0.250000
O O15 0.500000 0.712459 0.750000
#
# Coordination Sequence:
#
# PCOD9232237 Si02
#       5
#     4   4   4   4   4
#     4  10  21  40  61  86 122 159 198 249 298 349
#     4  10  21  37  55  79 111 143 181 231 285 339
#     4  12  24  40  63  92 124 162 205 248 298 354
#     4  10  21  36  54  78 107 142 182 229 282 337
#     4  10  21  37  59  85 113 148 191 235 286 343
#
# _framework density 21.659678
#
# number of rings (size 3 to 8) (size 9 to 14) (size 15 to 20)
#    0.000    1.600    0.000    4.800    0.000    3.200 
#    0.000    3.000    0.000    0.000    0.000    0.000 
#    0.000    0.000    0.000    0.000    0.000    0.000 
#
# Total GULP energy -111689.000416 kJ/mol
# GULP energy per Si atom -5584.450021 kJ/mol
# Density = 2.161038 g / cm^3
# Si number density = 21.659678 Si / 1000 Ang^3
#
#
#
# Elastic Constant Matrix: (Units=GPa)
#
#
# Indices 1 2 3 4 5 6 
#
# 1 39.6823 34.8455 48.6139 0.0000 6.2034 0.0000
# 2 34.8455 180.8138 71.3958 0.0000 -16.2214 0.0000
# 3 48.6139 71.3958 221.8394 0.0000 1.2793 0.0000
# 4 0.0000 0.0000 0.0000 36.3039 0.0000 -6.0063
# 5 6.2034 -16.2214 1.2793 0.0000 31.1714 0.0000
# 6 0.0000 0.0000 0.0000 -6.0063 0.0000 34.0760
#
#
#
# Elastic Compliance Matrix: (Units=1/GPa)
#
#
# Indices 1 2 3 4 5 6 
#
# 1 0.040739 -0.006116 -0.006896 0.000000 -0.011007 0.000000
# 2 -0.006116 0.007631 -0.001146 0.000000 0.005235 0.000000
# 3 -0.006896 -0.001146 0.006385 0.000000 0.000514 0.000000
# 4 0.000000 0.000000 0.000000 0.028373 0.000000 0.005001
# 5 -0.011007 0.005235 0.000514 0.000000 0.036975 0.000000
# 6 0.000000 0.000000 0.000000 0.005001 0.000000 0.030228
#
#
# Mechanical properties :
#
#
# Convention : Reuss Voigt Hill
#
# Bulk Modulus (GPa) = 37.82131 83.56064 60.69097
# Shear Modulus (GPa) = 26.67260 39.47561 33.07411
#
# Velocity S-wave (km/s) = 3.51300 4.27375 3.91191
# Velocity P-wave (km/s) = 5.82704 7.93826 6.96313
#
# Compressibility (1/GPa) = 0.02644012
#
# Stress axis : x y z
#
# Youngs Moduli (GPa) = 24.54653 131.03883 156.62210
#
# Poissons Ratio (x) = 0.80138 1.08004
# Poissons Ratio (y) = 0.15012 0.17950
# Poissons Ratio (z) = 0.16927 0.15018
#
# Static dielectric constant tensor:
#      x y z
#    x 1.773200 0.000000 0.055220 
#    y 0.000000 1.431380 0.000000 
#    z 0.055220 0.000000 1.784010 
# 
# From -- ./inp_files/13828.got.cif
#   From: 2010.05.17/outbox.cif.g08.bks.cpg/sg13_7_cif.got.tgz:13828.got - 2010.06.03 16:44:36.
