data_PCOD9232137
_publ_section_title
;
Structure prediction by ZEFSAII (Michael W. Deem and Ramdas Pophale) SiO2 
 PCOD9232137
Probable space group: P 2/C
;
_chemical_formula_sum "Si O2"
_cell_formula_units_Z 20
_cell_length_a 11.326110
_cell_length_b 13.144684
_cell_length_c 10.847963
_cell_angle_alpha 90.000000
_cell_angle_beta 142.329373
_cell_angle_gamma 90.000000
_cell_volume 986.975941
_symmetry_space_group_name_H-M "P 2/C"
_symmetry_group_IT_number 13
_symmetry_cell_setting 'monoclinic'
loop_
_space_group_symop_operation_xyz
x,y,z
-x,y,1/2-z
-x,-y,-z
x,-y,1/2+z
loop_
_atom_site_type_symbol
_atom_site_label
_atom_site_fract_x
_atom_site_fract_y
_atom_site_fract_z
Si Si1 0.208518 0.606685 0.570675
Si Si2 0.837149 0.374545 0.932780
Si Si3 0.801502 0.162498 0.025767
Si Si4 0.392351 0.685779 0.487718
Si Si5 0.556060 0.890379 0.097033
O O1 0.182411 0.486182 0.527130
O O2 0.232438 0.660589 0.458716
O O3 0.407993 0.635877 0.803485
O O4 0.033999 0.636351 0.516604
O O5 0.668858 0.360872 0.693125
O O6 0.822358 0.282193 0.014528
O O7 0.000000 0.124278 0.250000
O O8 0.627288 0.147341 0.975998
O O9 0.735385 0.111487 0.841646
O O10 0.409093 0.806528 0.479658
O O11 0.500000 0.000000 0.000000
#
# Coordination Sequence:
#
# PCOD9232137 Si02
#       5
#     4   4   4   4   4
#     4  10  21  34  58  87 119 156 191 237 287 348
#     4  10  21  37  56  85 121 155 191 232 287 353
#     4  10  22  40  63  88 116 154 195 240 296 358
#     4  10  21  37  57  83 115 153 197 241 290 346
#     4  10  23  42  62  86 117 153 199 253 299 343
#
# _framework density 20.263919999999999
#
# number of rings (size 3 to 8) (size 9 to 14) (size 15 to 20)
#    0.000    2.000    0.000    2.400    0.000   15.200 
#    0.000    4.000    0.000    0.000    0.000    0.000 
#    0.000    0.000    0.000    0.000    0.000    0.000 
#
# Total GULP energy -111749.162544 kJ/mol
# GULP energy per Si atom -5587.458127 kJ/mol
# Density = 2.021780 g / cm^3
# Si number density = 20.263920 Si / 1000 Ang^3
#
#
#
# Elastic Constant Matrix: (Units=GPa)
#
#
# Indices 1 2 3 4 5 6 
#
# 1 83.1500 82.5649 27.6794 0.0000 -8.4389 0.0000
# 2 82.5649 156.8136 27.5189 0.0000 -7.6636 0.0000
# 3 27.6794 27.5189 120.4063 0.0000 7.4144 0.0000
# 4 0.0000 0.0000 0.0000 0.7719 0.0000 -5.6773
# 5 -8.4389 -7.6636 7.4144 0.0000 19.4034 0.0000
# 6 0.0000 0.0000 0.0000 -5.6773 0.0000 14.8833
#
#
#
# Elastic Compliance Matrix: (Units=1/GPa)
#
#
# Indices 1 2 3 4 5 6 
#
# 1 0.027335 -0.013345 -0.003729 0.000000 0.008043 0.000000
# 2 -0.013345 0.013369 0.000046 0.000000 -0.000541 0.000000
# 3 -0.003729 0.000046 0.009474 0.000000 -0.005224 0.000000
# 4 0.000000 0.000000 0.000000 -0.717534 0.000000 -0.273705
# 5 0.008043 -0.000541 -0.005224 0.000000 0.056818 0.000000
# 6 0.000000 0.000000 0.000000 -0.273705 0.000000 -0.037216
#
#
# Mechanical properties :
#
#
# Convention : Reuss Voigt Hill
#
# Bulk Modulus (GPa) = 62.03149 70.65514 66.34332
# Shear Modulus (GPa) = -8.21930 21.85217 6.81643
#
# Velocity S-wave (km/s) = -2.01617 3.28743 1.83606
# Velocity P-wave (km/s) = 5.02577 7.02515 6.10783
#
# Compressibility (1/GPa) = 0.01612084
#
# Stress axis : x y z
#
# Youngs Moduli (GPa) = 36.58305 74.80081 105.55493
#
# Poissons Ratio (x) = 0.99821 0.39363
# Poissons Ratio (y) = 0.48820 -0.00482
# Poissons Ratio (z) = 0.13642 -0.00341
#
# Static dielectric constant tensor:
#      x y z
#    x 1.707670 0.000000 0.002040 
#    y 0.000000 1.691950 0.000000 
#    z 0.002040 0.000000 1.782180 
# 
# From -- ./inp_files/34018.got.cif
#   From: 2010.05.17/outbox.cif.g08.bks.cpg/sg13_18_cif.got.tgz:34018.got - 2010.06.03 16:44:36.
