data_PCOD9232699
_publ_section_title
;
Structure prediction by ZEFSAII (Michael W. Deem and Ramdas Pophale) SiO2 
 PCOD9232699
Probable space group: P 2/C
;
_chemical_formula_sum "Si O2"
_cell_formula_units_Z 26
_cell_length_a 23.024024
_cell_length_b 6.545073
_cell_length_c 18.360235
_cell_angle_alpha 90.000000
_cell_angle_beta 149.800088
_cell_angle_gamma 90.000000
_cell_volume 1391.739715
_symmetry_space_group_name_H-M "P 2/C"
_symmetry_group_IT_number 13
_symmetry_cell_setting 'monoclinic'
loop_
_space_group_symop_operation_xyz
x,y,z
-x,y,1/2-z
-x,-y,-z
x,-y,1/2+z
loop_
_atom_site_type_symbol
_atom_site_label
_atom_site_fract_x
_atom_site_fract_y
_atom_site_fract_z
Si Si1 0.792367 0.010104 0.522671
Si Si2 0.282456 0.741591 0.430016
Si Si3 0.467186 0.296012 0.006322
Si Si4 0.684430 0.015426 0.250359
Si Si5 0.873468 0.951724 0.833387
Si Si6 0.128588 0.366910 0.296382
Si Si7 0.000000 0.667735 0.250000
O O1 0.704042 0.110232 0.485567
O O2 0.737076 0.963476 0.385370
O O3 0.891487 0.182914 0.621153
O O4 0.846548 0.806846 0.616662
O O5 0.392693 0.700662 0.499430
O O6 0.184371 0.862876 0.276125
O O7 0.234196 0.523743 0.402785
O O8 0.386171 0.167488 0.863647
O O9 0.500000 0.500000 0.000000
O O10 0.587890 0.187628 0.153735
O O11 0.785406 0.082409 0.304451
O O12 0.884868 0.757076 0.792792
O O13 0.000000 0.000000 0.000000
O O14 0.025405 0.515308 0.210311
#
# Coordination Sequence:
#
# PCOD9232699 Si02
#       7
#     4   4   4   4   4   4   2
#     4  10  22  39  59  88 125 157 201 249 303 364
#     4   9  21  40  58  88 117 159 204 249 299 359
#     4  10  21  42  63  85 121 157 206 255 297 357
#     4  10  23  39  62  89 118 160 200 250 308 352
#     4  10  22  37  59  87 125 156 199 250 303 363
#     4  10  21  38  59  84 121 165 193 248 300 359
#     4  10  22  36  60  86 124 160 202 242 296 370
#
# _framework density 18.681653000000001
#
# number of rings (size 3 to 8) (size 9 to 14) (size 15 to 20)
#    0.000    2.154    0.000    1.385    8.615    4.923 
#    2.769    0.000    0.000    0.000    0.000    0.000 
#    0.000    0.000    0.000    0.000    0.000    0.000 
#
# Total GULP energy -145035.101771 kJ/mol
# GULP energy per Si atom -5578.273145 kJ/mol
# Density = 1.863913 g / cm^3
# Si number density = 18.681653 Si / 1000 Ang^3
#
#
#
# Elastic Constant Matrix: (Units=GPa)
#
#
# Indices 1 2 3 4 5 6 
#
# 1 118.2095 33.9178 30.9226 0.0000 15.3096 0.0000
# 2 33.9178 82.1734 -2.5246 0.0000 14.0151 0.0000
# 3 30.9226 -2.5246 50.8115 0.0000 2.2672 0.0000
# 4 0.0000 0.0000 0.0000 -14.0784 0.0000 -4.2532
# 5 15.3096 14.0151 2.2672 0.0000 36.0415 0.0000
# 6 0.0000 0.0000 0.0000 -4.2532 0.0000 36.6951
#
#
#
# Elastic Compliance Matrix: (Units=1/GPa)
#
#
# Indices 1 2 3 4 5 6 
#
# 1 0.012159 -0.004765 -0.007510 0.000000 -0.002839 0.000000
# 2 -0.004765 0.014940 0.003822 0.000000 -0.004026 0.000000
# 3 -0.007510 0.003822 0.024433 0.000000 0.000167 0.000000
# 4 0.000000 0.000000 0.000000 -0.068628 0.000000 -0.007954
# 5 -0.002839 -0.004026 0.000167 0.000000 0.030507 0.000000
# 6 0.000000 0.000000 0.000000 -0.007954 0.000000 0.026330
#
#
# Mechanical properties :
#
#
# Convention : Reuss Voigt Hill
#
# Bulk Modulus (GPa) = 28.87951 41.75847 35.31899
# Shear Modulus (GPa) = 73.32458 24.32355 48.82406
#
# Velocity S-wave (km/s) = 6.27174 3.61224 5.11776
# Velocity P-wave (km/s) = 8.24249 6.30864 7.33953
#
# Compressibility (1/GPa) = 0.03462662
#
# Stress axis : x y z
#
# Youngs Moduli (GPa) = 82.24315 66.93289 40.92777
#
# Poissons Ratio (x) = 0.31895 0.30736
# Poissons Ratio (y) = 0.39190 -0.15642
# Poissons Ratio (z) = 0.61763 -0.25581
#
# Static dielectric constant tensor:
#      x y z
#    x 1.668610 0.000000 0.009480 
#    y 0.000000 1.642640 0.000000 
#    z 0.009480 0.000000 1.603010 
# 
# From -- ./inp_files/70253.got.cif
#   From: 2010.05.17/outbox.cif.g08.bks.cpg/sg13_36_cif.got.tgz:70253.got - 2010.06.03 16:44:36.
