data_PCOD9232195
_publ_section_title
;
Structure prediction by ZEFSAII (Michael W. Deem and Ramdas Pophale) SiO2 
 PCOD9232195
Probable space group: P 2/C
;
_chemical_formula_sum "Si O2"
_cell_formula_units_Z 30
_cell_length_a 10.967642
_cell_length_b 11.832866
_cell_length_c 20.733105
_cell_angle_alpha 90.000000
_cell_angle_beta 145.959942
_cell_angle_gamma 90.000000
_cell_volume 1506.187462
_symmetry_space_group_name_H-M "P 2/C"
_symmetry_group_IT_number 13
_symmetry_cell_setting 'monoclinic'
loop_
_space_group_symop_operation_xyz
x,y,z
-x,y,1/2-z
-x,-y,-z
x,-y,1/2+z
loop_
_atom_site_type_symbol
_atom_site_label
_atom_site_fract_x
_atom_site_fract_y
_atom_site_fract_z
Si Si1 0.284451 0.004253 0.301281
Si Si2 0.423935 0.185765 0.642477
Si Si3 0.773731 0.825125 0.122513
Si Si4 0.042306 0.081969 0.078303
Si Si5 0.526500 0.757622 0.903398
Si Si6 0.466607 0.638451 0.408891
Si Si7 0.246330 0.572667 0.854549
Si Si8 0.500000 0.793752 0.750000
O O1 0.444893 0.917104 0.334621
O O2 0.248059 0.949421 0.355777
O O3 0.076012 0.020131 0.162396
O O4 0.388312 0.127355 0.352491
O O5 0.500000 0.181425 0.750000
O O6 0.486111 0.307358 0.639220
O O7 0.167686 0.163699 0.515786
O O8 0.586096 0.749989 0.072607
O O9 0.000000 0.783115 0.250000
O O10 0.748553 0.794002 0.036852
O O11 0.279711 0.136181 0.168363
O O12 0.000000 0.000000 0.000000
O O13 0.396498 0.655913 0.878810
O O14 0.550443 0.731247 0.838697
O O15 0.660852 0.574768 0.531698
O O16 0.271082 0.549977 0.332529
O O17 0.000000 0.611616 0.750000
#
# Coordination Sequence:
#
# PCOD9232195 Si02
#       8
#     4   4   4   4   4   4   4   2
#     4  10  22  35  54  90 121 161 206 251 305 365
#     4  11  22  38  61  89 130 168 206 252 309 375
#     4  10  21  35  59  85 121 159 201 258 308 364
#     4  11  20  35  58  83 123 172 203 242 295 374
#     4  10  22  39  56  90 125 157 204 255 309 370
#     4   9  22  41  59  91 117 153 209 259 312 372
#     4  10  21  41  69  86 115 160 206 262 315 364
#     4  10  24  36  56  84 124 158 206 244 298 372
#
# _framework density 19.917840000000002
#
# number of rings (size 3 to 8) (size 9 to 14) (size 15 to 20)
#    0.000    1.867    1.333    2.400    8.400    0.533 
#    1.200    0.000    0.000    1.600    0.000    0.000 
#    0.000    0.000    0.000    0.000    0.000    0.000 
#
# Total GULP energy -167106.081591 kJ/mol
# GULP energy per Si atom -5570.202720 kJ/mol
# Density = 1.987251 g / cm^3
# Si number density = 19.917840 Si / 1000 Ang^3
#
#
#
# Elastic Constant Matrix: (Units=GPa)
#
#
# Indices 1 2 3 4 5 6 
#
# 1 55.3578 13.9016 22.2264 0.0000 -11.3628 0.0000
# 2 13.9016 80.4055 3.3842 0.0000 -9.4365 0.0000
# 3 22.2264 3.3842 111.8333 0.0000 -7.1042 0.0000
# 4 0.0000 0.0000 0.0000 3.3846 0.0000 10.0700
# 5 -11.3628 -9.4365 -7.1042 0.0000 32.1619 0.0000
# 6 0.0000 0.0000 0.0000 10.0700 0.0000 20.3375
#
#
#
# Elastic Compliance Matrix: (Units=1/GPa)
#
#
# Indices 1 2 3 4 5 6 
#
# 1 0.021532 -0.002867 -0.003816 0.000000 0.005923 0.000000
# 2 -0.002867 0.013265 0.000356 0.000000 0.002958 0.000000
# 3 -0.003816 0.000356 0.009747 0.000000 0.000909 0.000000
# 4 0.000000 0.000000 0.000000 -0.624408 0.000000 0.309173
# 5 0.005923 0.002958 0.000909 0.000000 0.034254 0.000000
# 6 0.000000 0.000000 0.000000 0.309173 0.000000 -0.103916
#
#
# Mechanical properties :
#
#
# Convention : Reuss Voigt Hill
#
# Bulk Modulus (GPa) = 31.35763 36.29123 33.82443
# Shear Modulus (GPa) = -7.98415 25.04911 8.53248
#
# Velocity S-wave (km/s) = -2.00431 3.55014 2.07199
# Velocity P-wave (km/s) = 3.22821 5.92155 4.76897
#
# Compressibility (1/GPa) = 0.03189017
#
# Stress axis : x y z
#
# Youngs Moduli (GPa) = 46.44167 75.38767 102.59190
#
# Poissons Ratio (x) = 0.21614 0.39154
# Poissons Ratio (y) = 0.13315 -0.03655
# Poissons Ratio (z) = 0.17724 -0.02686
#
# Static dielectric constant tensor:
#      x y z
#    x 1.769660 0.000000 -0.017450 
#    y 0.000000 1.701830 0.000000 
#    z -0.017450 0.000000 1.785730 
# 
# From -- ./inp_files/78648.got.cif
#   From: 2010.05.17/outbox.cif.g08.bks.cpg/sg13_40_cif.got.tgz:78648.got - 2010.06.03 16:44:36.
