data_PCOD9232626
_publ_section_title
;
Structure prediction by ZEFSAII (Michael W. Deem and Ramdas Pophale) SiO2 
 PCOD9232626
Probable space group: P 2/C
;
_chemical_formula_sum "Si O2"
_cell_formula_units_Z 28
_cell_length_a 5.154482
_cell_length_b 19.416760
_cell_length_c 12.816293
_cell_angle_alpha 90.000000
_cell_angle_beta 104.463488
_cell_angle_gamma 90.000000
_cell_volume 1242.044879
_symmetry_space_group_name_H-M "P 2/C"
_symmetry_group_IT_number 13
_symmetry_cell_setting 'monoclinic'
loop_
_space_group_symop_operation_xyz
x,y,z
-x,y,1/2-z
-x,-y,-z
x,-y,1/2+z
loop_
_atom_site_type_symbol
_atom_site_label
_atom_site_fract_x
_atom_site_fract_y
_atom_site_fract_z
Si Si1 0.500000 0.834898 0.750000
Si Si2 0.684743 0.427726 0.910997
Si Si3 0.801189 0.729290 0.393443
Si Si4 0.500000 0.175821 0.750000
Si Si5 0.162624 0.516833 0.861512
Si Si6 0.778397 0.955636 0.659731
Si Si7 0.364684 0.209377 0.012122
Si Si8 0.588250 0.078184 0.939367
O O1 0.710997 0.888915 0.721760
O O2 0.592641 0.791385 0.859090
O O3 0.731000 0.350550 0.878697
O O4 0.404478 0.464999 0.855276
O O5 0.931135 0.471578 0.891494
O O6 0.713354 0.432118 0.040205
O O7 0.734917 0.767280 0.277518
O O8 0.603322 0.758967 0.465200
O O9 0.097871 0.749757 0.457546
O O10 0.636100 0.123235 0.843602
O O11 0.000000 0.550837 0.750000
O O12 0.828543 0.931841 0.545705
O O13 0.000000 0.993968 0.750000
O O14 0.531006 0.006604 0.613396
O O15 0.373870 0.128155 0.978251
#
# Coordination Sequence:
#
# PCOD9232626 Si02
#       8
#     2   4   4   2   4   4   4   4
#     4  10  23  40  62  90 115 166 216 266 328 388
#     4  10  22  41  63  99 131 162 223 255 310 383
#     4  11  24  42  63  95 125 175 206 261 309 386
#     4  10  23  36  64  84 133 164 204 262 312 376
#     4  10  21  39  68  94 131 171 200 274 315 358
#     4  10  21  37  66  84 117 161 209 272 325 384
#     4  10  24  42  64  87 132 164 212 260 324 376
#     4   9  21  41  54  98 117 158 216 260 326 387
#
# _framework density 22.543467
#
# number of rings (size 3 to 8) (size 9 to 14) (size 15 to 20)
#    0.000    2.000    0.000    1.714   10.000    1.714 
#    2.571    2.857    0.000    0.000    0.000    0.000 
#    0.000    0.000    0.000    0.000    0.000    0.000 
#
# Total GULP energy -155974.393393 kJ/mol
# GULP energy per Si atom -5570.514050 kJ/mol
# Density = 2.249216 g / cm^3
# Si number density = 22.543467 Si / 1000 Ang^3
#
#
#
# Elastic Constant Matrix: (Units=GPa)
#
#
# Indices 1 2 3 4 5 6 
#
# 1 108.6252 -6.7258 13.7817 0.0000 9.1656 0.0000
# 2 -6.7258 38.6883 -0.3498 0.0000 1.0351 0.0000
# 3 13.7817 -0.3498 96.7406 0.0000 20.7067 0.0000
# 4 0.0000 0.0000 0.0000 1.1961 0.0000 6.2343
# 5 9.1656 1.0351 20.7067 0.0000 27.9489 0.0000
# 6 0.0000 0.0000 0.0000 6.2343 0.0000 21.8719
#
#
#
# Elastic Compliance Matrix: (Units=1/GPa)
#
#
# Indices 1 2 3 4 5 6 
#
# 1 0.009637 0.001739 -0.000804 0.000000 -0.002629 0.000000
# 2 0.001739 0.026197 0.000210 0.000000 -0.001696 0.000000
# 3 -0.000804 0.000210 0.012357 0.000000 -0.008899 0.000000
# 4 0.000000 0.000000 0.000000 -1.721399 0.000000 0.490665
# 5 -0.002629 -0.001696 -0.008899 0.000000 0.043298 0.000000
# 6 0.000000 0.000000 0.000000 0.490665 0.000000 -0.094138
#
#
# Mechanical properties :
#
#
# Convention : Reuss Voigt Hill
#
# Bulk Modulus (GPa) = 19.80943 28.60737 24.20840
# Shear Modulus (GPa) = -2.92482 26.02659 11.55089
#
# Velocity S-wave (km/s) = -1.14028 3.40149 2.26604
# Velocity P-wave (km/s) = 2.65945 5.30512 4.19624
#
# Compressibility (1/GPa) = 0.05048100
#
# Stress axis : x y z
#
# Youngs Moduli (GPa) = 103.76175 38.17217 80.92571
#
# Poissons Ratio (x) = -0.06636 0.06505
# Poissons Ratio (y) = -0.18039 -0.01700
# Poissons Ratio (z) = 0.08341 -0.00802
#
# Static dielectric constant tensor:
#      x y z
#    x 1.935590 0.000000 0.020740 
#    y 0.000000 1.828290 0.000000 
#    z 0.020740 0.000000 2.065010 
# 
# From -- ./inp_files/26775.got.cif
#   From: 2010.05.17/outbox.cif.g08.bks.cpg/sg13_14_cif.got.tgz:26775.got - 2010.06.03 16:44:36.
