data_PCOD9232700
_publ_section_title
;
Structure prediction by ZEFSAII (Michael W. Deem and Ramdas Pophale) SiO2 
 PCOD9232700
Probable space group: P 2/C
;
_chemical_formula_sum "Si O2"
_cell_formula_units_Z 24
_cell_length_a 16.760430
_cell_length_b 8.466584
_cell_length_c 13.705044
_cell_angle_alpha 90.000000
_cell_angle_beta 146.197387
_cell_angle_gamma 90.000000
_cell_volume 1081.954591
_symmetry_space_group_name_H-M "P 2/C"
_symmetry_group_IT_number 13
_symmetry_cell_setting 'monoclinic'
loop_
_space_group_symop_operation_xyz
x,y,z
-x,y,1/2-z
-x,-y,-z
x,-y,1/2+z
loop_
_atom_site_type_symbol
_atom_site_label
_atom_site_fract_x
_atom_site_fract_y
_atom_site_fract_z
Si Si1 0.224599 0.698989 0.100658
Si Si2 0.722611 0.325168 0.344321
Si Si3 0.856774 0.148995 0.662041
Si Si4 0.006043 0.311344 0.994354
Si Si5 0.494905 0.810774 0.484219
Si Si6 0.353487 0.874200 0.048855
O O1 0.248492 0.511296 0.117498
O O2 0.067884 0.746971 0.981348
O O3 0.336316 0.757832 0.296027
O O4 0.268547 0.776966 0.044098
O O5 0.766421 0.245203 0.489845
O O6 0.566392 0.276497 0.148006
O O7 0.834491 0.263597 0.374948
O O8 0.911752 0.256270 0.806355
O O9 0.000000 0.092262 0.750000
O O10 0.752870 0.011289 0.592532
O O11 0.000000 0.500000 0.000000
O O12 0.588441 0.773285 0.482361
O O13 0.500000 0.000000 0.500000
O O14 0.500000 0.936246 0.250000
#
# Coordination Sequence:
#
# PCOD9232700 Si02
#       6
#     4   4   4   4   4   4
#     4  10  21  38  59  87 118 153 195 244 298 353
#     4  10  21  38  61  86 117 153 196 245 295 354
#     4  10  21  38  59  85 115 153 197 242 297 356
#     4   9  20  38  60  86 116 153 197 244 296 356
#     4  11  22  39  60  85 118 156 198 244 293 352
#     4  10  22  39  58  87 122 156 197 245 295 353
#
# _framework density 22.182079000000002
#
# number of rings (size 3 to 8) (size 9 to 14) (size 15 to 20)
#    0.000    2.000    0.000    3.500    0.000    4.000 
#    0.000   17.500    0.000    0.000    0.000    0.000 
#    0.000    0.000    0.000    0.000    0.000    0.000 
#
# Total GULP energy -134102.706571 kJ/mol
# GULP energy per Si atom -5587.612774 kJ/mol
# Density = 2.213159 g / cm^3
# Si number density = 22.182079 Si / 1000 Ang^3
#
#
#
# Elastic Constant Matrix: (Units=GPa)
#
#
# Indices 1 2 3 4 5 6 
#
# 1 93.5960 4.7797 -8.7661 0.0000 14.0808 0.0000
# 2 4.7797 42.3420 11.0934 0.0000 5.2260 0.0000
# 3 -8.7661 11.0934 55.0529 0.0000 -9.1532 0.0000
# 4 0.0000 0.0000 0.0000 22.1784 0.0000 1.0193
# 5 14.0808 5.2260 -9.1532 0.0000 19.2315 0.0000
# 6 0.0000 0.0000 0.0000 1.0193 0.0000 22.8451
#
#
#
# Elastic Compliance Matrix: (Units=1/GPa)
#
#
# Indices 1 2 3 4 5 6 
#
# 1 0.012028 -0.000486 0.000620 0.000000 -0.008379 0.000000
# 2 -0.000486 0.026841 -0.007210 0.000000 -0.010370 0.000000
# 3 0.000620 -0.007210 0.021682 0.000000 0.011825 0.000000
# 4 0.000000 0.000000 0.000000 0.045182 0.000000 -0.002016
# 5 -0.008379 -0.010370 0.011825 0.000000 0.066579 0.000000
# 6 0.000000 0.000000 0.000000 -0.002016 0.000000 0.043863
#
#
# Mechanical properties :
#
#
# Convention : Reuss Voigt Hill
#
# Bulk Modulus (GPa) = 21.55243 22.80056 22.17649
# Shear Modulus (GPa) = 20.34236 25.10991 22.72614
#
# Velocity S-wave (km/s) = 3.03159 3.36816 3.20430
# Velocity P-wave (km/s) = 4.68949 5.04253 4.86921
#
# Compressibility (1/GPa) = 0.04639849
#
# Stress axis : x y z
#
# Youngs Moduli (GPa) = 83.14149 37.25660 46.12134
#
# Poissons Ratio (x) = 0.01810 -0.02859
# Poissons Ratio (y) = 0.04040 0.33253
# Poissons Ratio (z) = -0.05154 0.26862
#
# Static dielectric constant tensor:
#      x y z
#    x 1.842830 0.000000 0.032660 
#    y 0.000000 1.795000 0.000000 
#    z 0.032660 0.000000 1.805430 
# 
# From -- ./inp_files/55385.got.cif
#   From: 2010.05.17/outbox.cif.g08.bks.cpg/sg13_28_cif.got.tgz:55385.got - 2010.06.03 16:44:36.
