data_PCOD9232088
_publ_section_title
;
Structure prediction by ZEFSAII (Michael W. Deem and Ramdas Pophale) SiO2 
 PCOD9232088
Probable space group: P 2/C
;
_chemical_formula_sum "Si O2"
_cell_formula_units_Z 28
_cell_length_a 20.902635
_cell_length_b 5.449299
_cell_length_c 23.759378
_cell_angle_alpha 90.000000
_cell_angle_beta 148.232018
_cell_angle_gamma 90.000000
_cell_volume 1424.817565
_symmetry_space_group_name_H-M "P 2/C"
_symmetry_group_IT_number 13
_symmetry_cell_setting 'monoclinic'
loop_
_space_group_symop_operation_xyz
x,y,z
-x,y,1/2-z
-x,-y,-z
x,-y,1/2+z
loop_
_atom_site_type_symbol
_atom_site_label
_atom_site_fract_x
_atom_site_fract_y
_atom_site_fract_z
Si Si1 0.050429 0.809326 0.991907
Si Si2 0.555794 0.484392 0.104773
Si Si3 0.809549 0.994197 0.624059
Si Si4 0.167276 0.426013 0.676847
Si Si5 0.011448 0.147150 0.646352
Si Si6 0.544133 0.015661 0.968092
Si Si7 0.878521 0.505680 0.121908
O O1 0.938621 0.626287 0.898920
O O2 0.158427 0.677145 0.106435
O O3 0.070591 0.959132 0.950173
O O4 0.000000 0.000000 0.000000
O O5 0.700761 0.474748 0.210467
O O6 0.516257 0.741198 0.102597
O O7 0.501918 0.240174 0.092018
O O8 0.500000 0.500000 0.000000
O O9 0.688395 0.962019 0.570248
O O10 0.819231 0.759342 0.589575
O O11 0.926735 0.019593 0.753148
O O12 0.803209 0.259989 0.589115
O O13 0.123606 0.227820 0.690389
O O14 0.931998 0.385867 0.603608
O O15 0.500000 0.000000 0.000000
O O16 0.000000 0.493481 0.250000
#
# Coordination Sequence:
#
# PCOD9232088 Si02
#       7
#     4   4   4   4   4   4   4
#     4   9  21  36  56  86 121 160 204 247 309 358
#     4  10  21  33  54  84 117 157 194 232 298 367
#     4  11  22  36  54  81 128 156 193 250 287 372
#     4  10  21  36  58  87 128 156 204 256 300 377
#     4  10  21  34  59  82 122 166 200 241 313 368
#     4  10  21  34  51  81 110 159 197 224 302 353
#     4  10  22  35  52  84 117 162 198 236 297 363
#
# _framework density 19.651638999999999
#
# number of rings (size 3 to 8) (size 9 to 14) (size 15 to 20)
#    0.000    2.000    0.000    3.857   14.000    0.000 
#    0.000    0.000    0.000    0.000    0.000    1.000 
#    0.000    0.000    0.000    0.000    0.000    0.000 
#
# Total GULP energy -156029.134730 kJ/mol
# GULP energy per Si atom -5572.469097 kJ/mol
# Density = 1.960691 g / cm^3
# Si number density = 19.651639 Si / 1000 Ang^3
#
#
#
# Elastic Constant Matrix: (Units=GPa)
#
#
# Indices 1 2 3 4 5 6 
#
# 1 79.9938 35.0951 32.5072 0.0000 9.4655 0.0000
# 2 35.0951 150.2213 22.7735 0.0000 -4.2263 0.0000
# 3 32.5072 22.7735 83.7104 0.0000 0.1499 0.0000
# 4 0.0000 0.0000 0.0000 24.2949 0.0000 -2.5937
# 5 9.4655 -4.2263 0.1499 0.0000 23.7118 0.0000
# 6 0.0000 0.0000 0.0000 -2.5937 0.0000 19.9880
#
#
#
# Elastic Compliance Matrix: (Units=1/GPa)
#
#
# Indices 1 2 3 4 5 6 
#
# 1 0.017186 -0.003352 -0.005749 0.000000 -0.007422 0.000000
# 2 -0.003352 0.007634 -0.000780 0.000000 0.002704 0.000000
# 3 -0.005749 -0.000780 0.014387 0.000000 0.002065 0.000000
# 4 0.000000 0.000000 0.000000 0.041739 0.000000 0.005416
# 5 -0.007422 0.002704 0.002065 0.000000 0.045605 0.000000
# 6 0.000000 0.000000 0.000000 0.005416 0.000000 0.050733
#
#
# Mechanical properties :
#
#
# Convention : Reuss Voigt Hill
#
# Bulk Modulus (GPa) = 51.42604 54.96414 53.19509
# Shear Modulus (GPa) = 24.56675 28.50224 26.53450
#
# Velocity S-wave (km/s) = 3.53953 3.81251 3.67855
# Velocity P-wave (km/s) = 6.55210 6.88551 6.72087
#
# Compressibility (1/GPa) = 0.01944540
#
# Stress axis : x y z
#
# Youngs Moduli (GPa) = 58.18711 130.98707 69.50837
#
# Poissons Ratio (x) = 0.43911 0.39957
# Poissons Ratio (y) = 0.19506 0.05421
# Poissons Ratio (z) = 0.33449 0.10216
#
# Static dielectric constant tensor:
#      x y z
#    x 1.772570 0.000000 -0.020850 
#    y 0.000000 1.826310 0.000000 
#    z -0.020850 0.000000 1.650930 
# 
# From -- ./inp_files/88318.got.cif
#   From: 2010.05.17/outbox.cif.g08.bks.cpg/sg13_45_cif.got.tgz:88318.got - 2010.06.03 16:44:36.
