data_PCOD9232251
_publ_section_title
;
Structure prediction by ZEFSAII (Michael W. Deem and Ramdas Pophale) SiO2 
 PCOD9232251
Probable space group: P 2/C
;
_chemical_formula_sum "Si O2"
_cell_formula_units_Z 32
_cell_length_a 14.746465
_cell_length_b 8.875118
_cell_length_c 26.919465
_cell_angle_alpha 90.000000
_cell_angle_beta 28.630625
_cell_angle_gamma 90.000000
_cell_volume 1688.146053
_symmetry_space_group_name_H-M "P 2/C"
_symmetry_group_IT_number 13
_symmetry_cell_setting 'monoclinic'
loop_
_space_group_symop_operation_xyz
x,y,z
-x,y,1/2-z
-x,-y,-z
x,-y,1/2+z
loop_
_atom_site_type_symbol
_atom_site_label
_atom_site_fract_x
_atom_site_fract_y
_atom_site_fract_z
Si Si1 0.611925 0.316499 0.779301
Si Si2 0.653485 0.591345 0.586957
Si Si3 0.094189 0.658883 0.278990
Si Si4 0.316124 0.831160 0.485085
Si Si5 0.306462 0.820854 0.015856
Si Si6 0.794013 0.471468 0.122239
Si Si7 0.002976 0.389030 0.381195
Si Si8 0.548435 0.329560 0.960825
O O1 0.509500 0.471086 0.845889
O O2 0.793388 0.285402 0.725935
O O3 0.451767 0.195210 0.871279
O O4 0.693467 0.370509 0.686758
O O5 0.634010 0.738554 0.563743
O O6 0.676634 0.607597 0.634956
O O7 0.843057 0.505531 0.478092
O O8 0.241134 0.678126 0.163915
O O9 0.898653 0.749625 0.371122
O O10 0.068584 0.479303 0.300890
O O11 0.109092 0.763571 0.574026
O O12 0.409943 0.733468 0.484668
O O13 0.304082 0.002369 0.507825
O O14 0.447406 0.772837 0.992118
O O15 0.839891 0.382052 0.151082
O O16 0.000000 0.500000 0.000000
O O17 0.500000 0.500000 0.000000
#
# Coordination Sequence:
#
# PCOD9232251 Si02
#       8
#     4   4   4   4   4   4   4   4
#     4   9  17  33  56  80 105 142 190 232 274 329
#     4   9  17  31  54  80 105 142 188 234 273 325
#     4   9  18  34  55  79 106 143 188 236 281 328
#     4  10  21  36  54  81 115 149 183 231 293 350
#     4  11  21  35  53  80 120 152 182 234 295 348
#     4   9  16  29  56  83 102 131 182 235 274 318
#     4   8  16  33  54  79 105 136 185 235 278 327
#     4  11  21  37  59  80 107 151 202 241 277 331
#
# _framework density 18.955705999999999
#
# number of rings (size 3 to 8) (size 9 to 14) (size 15 to 20)
#    0.000    2.500    0.000    4.875    0.000    0.000 
#    0.000   10.625    0.000    9.000    0.000    0.000 
#    0.000    0.000    0.000    0.000    0.000    0.000 
#
# Total GULP energy -178153.104779 kJ/mol
# GULP energy per Si atom -5567.284524 kJ/mol
# Density = 1.891256 g / cm^3
# Si number density = 18.955706 Si / 1000 Ang^3
#
#
#
# Elastic Constant Matrix: (Units=GPa)
#
#
# Indices 1 2 3 4 5 6 
#
# 1 107.7305 35.2647 20.6920 0.0000 10.3270 0.0000
# 2 35.2647 95.0834 10.2664 0.0000 16.5505 0.0000
# 3 20.6920 10.2664 50.4266 0.0000 13.0646 0.0000
# 4 0.0000 0.0000 0.0000 14.5592 0.0000 1.7737
# 5 10.3270 16.5505 13.0646 0.0000 24.1786 0.0000
# 6 0.0000 0.0000 0.0000 1.7737 0.0000 20.5255
#
#
#
# Elastic Compliance Matrix: (Units=1/GPa)
#
#
# Indices 1 2 3 4 5 6 
#
# 1 0.011253 -0.003728 -0.003807 0.000000 -0.000197 0.000000
# 2 -0.003728 0.013181 0.000897 0.000000 -0.007915 0.000000
# 3 -0.003807 0.000897 0.024358 0.000000 -0.012149 0.000000
# 4 0.000000 0.000000 0.000000 0.069416 0.000000 -0.005999
# 5 -0.000197 -0.007915 -0.012149 0.000000 0.053425 0.000000
# 6 0.000000 0.000000 0.000000 -0.005999 0.000000 0.049238
#
#
# Mechanical properties :
#
#
# Convention : Reuss Voigt Hill
#
# Bulk Modulus (GPa) = 28.15766 42.85406 35.50586
# Shear Modulus (GPa) = 20.32630 24.32049 22.32340
#
# Velocity S-wave (km/s) = 3.27816 3.58581 3.43543
# Velocity P-wave (km/s) = 5.40510 6.30877 5.87434
#
# Compressibility (1/GPa) = 0.03551431
#
# Stress axis : x y z
#
# Youngs Moduli (GPa) = 88.86524 75.86925 41.05386
#
# Poissons Ratio (x) = 0.28285 0.15631
# Poissons Ratio (y) = 0.33130 -0.03682
# Poissons Ratio (z) = 0.33835 -0.06804
#
# Static dielectric constant tensor:
#      x y z
#    x 1.722940 0.000000 0.021790 
#    y 0.000000 1.622560 0.000000 
#    z 0.021790 0.000000 1.753130 
# 
# From -- ./inp_files/92834.got.cif
#   From: 2010.05.17/outbox.cif.g08.bks.cpg/sg13_47_cif.got.tgz:92834.got - 2010.06.03 16:44:36.
