data_PCOD9232458
_publ_section_title
;
Structure prediction by ZEFSAII (Michael W. Deem and Ramdas Pophale) SiO2 
 PCOD9232458
Probable space group: P 2/C
;
_chemical_formula_sum "Si O2"
_cell_formula_units_Z 30
_cell_length_a 5.847157
_cell_length_b 11.317041
_cell_length_c 27.125265
_cell_angle_alpha 90.000000
_cell_angle_beta 123.839343
_cell_angle_gamma 90.000000
_cell_volume 1490.887095
_symmetry_space_group_name_H-M "P 2/C"
_symmetry_group_IT_number 13
_symmetry_cell_setting 'monoclinic'
loop_
_space_group_symop_operation_xyz
x,y,z
-x,y,1/2-z
-x,-y,-z
x,-y,1/2+z
loop_
_atom_site_type_symbol
_atom_site_label
_atom_site_fract_x
_atom_site_fract_y
_atom_site_fract_z
Si Si1 0.971957 0.149524 0.691243
Si Si2 0.713387 0.398276 0.010990
Si Si3 0.764197 0.639860 0.311611
Si Si4 0.716941 0.084301 0.183134
Si Si5 0.314593 0.485299 0.594920
Si Si6 0.299445 0.295873 0.391522
Si Si7 0.500000 0.016657 0.250000
Si Si8 0.827194 0.390649 0.279350
O O1 0.006469 0.258022 0.658258
O O2 0.000000 0.200594 0.750000
O O3 0.235899 0.066127 0.715740
O O4 0.732572 0.050817 0.664720
O O5 0.660859 0.296315 0.044825
O O6 0.017371 0.451371 0.056031
O O7 0.500000 0.500000 0.000000
O O8 0.673462 0.388794 0.947703
O O9 0.500000 0.687409 0.250000
O O10 0.666584 0.582850 0.351270
O O11 0.872623 0.529733 0.293240
O O12 0.652408 0.176519 0.132890
O O13 0.497606 0.092322 0.200356
O O14 0.000000 0.103606 0.250000
O O15 0.530607 0.591968 0.610813
O O16 0.983263 0.324111 0.341590
O O17 0.500000 0.372148 0.250000
O O18 0.000000 0.359762 0.250000
#
# Coordination Sequence:
#
# PCOD9232458 Si02
#       8
#     4   4   4   4   4   4   2   4
#     4   9  18  34  52  76 113 156 196 231 287 355
#     4   9  20  39  58  78 114 155 207 245 306 378
#     4  11  20  34  57  88 121 152 192 243 306 371
#     4   9  20  34  53  80 115 158 198 237 294 349
#     4  10  21  37  58  85 117 158 198 252 312 370
#     4  11  20  37  56  84 116 161 203 248 300 372
#     4   8  16  36  48  72 108 152 198 228 274 352
#     4  11  23  36  50  87 132 159 188 246 316 373
#
# _framework density 20.122247000000002
#
# number of rings (size 3 to 8) (size 9 to 14) (size 15 to 20)
#    0.000    2.400    2.000    2.400    0.000    2.133 
#    9.600    0.000    0.000    0.800    0.000    9.333 
#    0.000    0.000    0.000    0.000    0.000    0.000 
#
# Total GULP energy -167040.529605 kJ/mol
# GULP energy per Si atom -5568.017653 kJ/mol
# Density = 2.007645 g / cm^3
# Si number density = 20.122247 Si / 1000 Ang^3
#
#
#
# Elastic Constant Matrix: (Units=GPa)
#
#
# Indices 1 2 3 4 5 6 
#
# 1 90.7425 21.1098 25.5529 0.0000 -10.0414 0.0000
# 2 21.1098 81.6343 14.6188 0.0000 -13.8483 0.0000
# 3 25.5529 14.6188 63.3414 0.0000 -19.3729 0.0000
# 4 0.0000 0.0000 0.0000 3.0465 0.0000 -4.5919
# 5 -10.0414 -13.8483 -19.3729 0.0000 37.3881 0.0000
# 6 0.0000 0.0000 0.0000 -4.5919 0.0000 16.7415
#
#
#
# Elastic Compliance Matrix: (Units=1/GPa)
#
#
# Indices 1 2 3 4 5 6 
#
# 1 0.012908 -0.002489 -0.004580 0.000000 0.000172 0.000000
# 2 -0.002489 0.013731 -0.000967 0.000000 0.003916 0.000000
# 3 -0.004580 -0.000967 0.020644 0.000000 0.009109 0.000000
# 4 0.000000 0.000000 0.000000 0.559592 0.000000 0.153486
# 5 0.000172 0.003916 0.009109 0.000000 0.032963 0.000000
# 6 0.000000 0.000000 0.000000 0.153486 0.000000 0.101830
#
#
# Mechanical properties :
#
#
# Convention : Reuss Voigt Hill
#
# Bulk Modulus (GPa) = 32.04039 39.80903 35.92471
# Shear Modulus (GPa) = 6.50919 23.06432 14.78676
#
# Velocity S-wave (km/s) = 1.80051 3.38925 2.71375
# Velocity P-wave (km/s) = 4.50332 5.92811 5.26414
#
# Compressibility (1/GPa) = 0.03121061
#
# Stress axis : x y z
#
# Youngs Moduli (GPa) = 77.47169 72.82883 48.43932
#
# Poissons Ratio (x) = 0.18124 0.22187
# Poissons Ratio (y) = 0.19279 0.04686
# Poissons Ratio (z) = 0.35486 0.07045
#
# Static dielectric constant tensor:
#      x y z
#    x 1.900910 0.000000 -0.042640 
#    y 0.000000 1.750340 0.000000 
#    z -0.042640 0.000000 1.766510 
# 
# From -- ./inp_files/90484.got.cif
#   From: 2010.05.17/outbox.cif.g08.bks.cpg/sg13_46_cif.got.tgz:90484.got - 2010.06.03 16:44:36.
