data_PCOD9232104
_publ_section_title
;
Structure prediction by ZEFSAII (Michael W. Deem and Ramdas Pophale) SiO2 
 PCOD9232104
Probable space group: P 2/C
;
_chemical_formula_sum "Si O2"
_cell_formula_units_Z 28
_cell_length_a 26.677869
_cell_length_b 4.838272
_cell_length_c 8.326837
_cell_angle_alpha 90.000000
_cell_angle_beta 62.542914
_cell_angle_gamma 90.000000
_cell_volume 953.717122
_symmetry_space_group_name_H-M "P 2/C"
_symmetry_group_IT_number 13
_symmetry_cell_setting 'monoclinic'
loop_
_space_group_symop_operation_xyz
x,y,z
-x,y,1/2-z
-x,-y,-z
x,-y,1/2+z
loop_
_atom_site_type_symbol
_atom_site_label
_atom_site_fract_x
_atom_site_fract_y
_atom_site_fract_z
Si Si1 0.923123 0.322779 0.131881
Si Si2 0.258326 0.449114 0.369344
Si Si3 0.576893 0.177577 0.404449
Si Si4 0.000000 0.704110 0.250000
Si Si5 0.649996 0.241697 0.577227
Si Si6 0.500000 0.203243 0.250000
Si Si7 0.243969 0.096207 0.648840
Si Si8 0.851806 0.250873 0.516939
O O1 0.962123 0.512918 0.189236
O O2 0.891520 0.146171 0.315533
O O3 0.884060 0.530726 0.084091
O O4 0.959258 0.157401 0.944170
O O5 0.317520 0.545967 0.357565
O O6 0.246946 0.143816 0.453600
O O7 0.257794 0.599879 0.198624
O O8 0.198213 0.591658 0.507919
O O9 0.610349 0.345516 0.491564
O O10 0.540711 0.343330 0.323533
O O11 0.616461 0.973971 0.240033
O O12 0.537737 0.987561 0.576994
O O13 0.701426 0.090108 0.406419
O O14 0.182550 0.044658 0.814142
#
# Coordination Sequence:
#
# PCOD9232104 Si02
#       8
#     4   4   4   2   4   2   4   4
#     4   9  14  26  44  64 104 132 170 219 260 304
#     4  10  21  34  50  78 107 151 172 209 254 321
#     4   9  17  31  53  78 107 133 172 232 251 314
#     4   8  16  22  40  72  94 130 170 226 266 290
#     4  11  20  35  52  82 114 135 180 213 258 310
#     4   8  16  30  52  82  98 130 188 210 276 304
#     4  10  21  34  50  78 107 151 172 209 254 321
#     4   9  15  30  43  67  98 144 164 207 257 307
#
# _framework density 29.358809000000001
#
# number of rings (size 3 to 8) (size 9 to 14) (size 15 to 20)
#    0.857    1.714    2.857    0.000    2.000    0.000 
#    0.000    0.000    0.000    0.000    0.000   70.000 
#    0.000   57.143    0.000    0.000    0.000    0.000 
#
# Total GULP energy -156304.110880 kJ/mol
# GULP energy per Si atom -5582.289674 kJ/mol
# Density = 2.929199 g / cm^3
# Si number density = 29.358809 Si / 1000 Ang^3
#
#
#
# Elastic Constant Matrix: (Units=GPa)
#
#
# Indices 1 2 3 4 5 6 
#
# 1 220.1144 49.5266 32.4160 0.0000 65.0923 0.0000
# 2 49.5266 46.7413 39.7680 0.0000 16.1472 0.0000
# 3 32.4160 39.7680 280.5707 0.0000 -29.0512 0.0000
# 4 0.0000 0.0000 0.0000 475.4111 0.0000 206.9563
# 5 65.0923 16.1472 -29.0512 0.0000 57.3150 0.0000
# 6 0.0000 0.0000 0.0000 206.9563 0.0000 112.2669
#
#
#
# Elastic Compliance Matrix: (Units=1/GPa)
#
#
# Indices 1 2 3 4 5 6 
#
# 1 0.008411 -0.004862 -0.001192 0.000000 -0.008787 0.000000
# 2 -0.004862 0.032623 -0.004688 0.000000 -0.006045 0.000000
# 3 -0.001192 -0.004688 0.004901 0.000000 0.005159 0.000000
# 4 0.000000 0.000000 0.000000 0.010649 0.000000 -0.019631
# 5 -0.008787 -0.006045 0.005159 0.000000 0.031745 0.000000
# 6 0.000000 0.000000 0.000000 -0.019631 0.000000 0.045097
#
#
# Mechanical properties :
#
#
# Convention : Reuss Voigt Hill
#
# Bulk Modulus (GPa) = 40.90077 87.87195 64.38636
# Shear Modulus (GPa) = 30.66311 157.37967 94.02139
#
# Velocity S-wave (km/s) = 3.23526 7.32953 5.66520
# Velocity P-wave (km/s) = 5.28370 10.08090 8.04805
#
# Compressibility (1/GPa) = 0.02444942
#
# Stress axis : x y z
#
# Youngs Moduli (GPa) = 118.88731 30.65279 204.05542
#
# Poissons Ratio (x) = 0.14904 0.24333
# Poissons Ratio (y) = 0.57807 0.95665
# Poissons Ratio (z) = 0.14177 0.14371
#
# Static dielectric constant tensor:
#      x y z
#    x 2.382640 0.000000 -0.031270 
#    y 0.000000 2.311540 0.000000 
#    z -0.031270 0.000000 2.486710 
# 
# From -- ./inp_files/24768.got.cif
#   From: 2010.05.17/outbox.cif.g08.bks.cpg/sg13_13_cif.got.tgz:24768.got - 2010.06.03 16:44:36.
