data_PCOD9232268
_publ_section_title
;
Structure prediction by ZEFSAII (Michael W. Deem and Ramdas Pophale) SiO2 
 PCOD9232268
Probable space group: P 2/C
;
_chemical_formula_sum "Si O2"
_cell_formula_units_Z 30
_cell_length_a 14.944332
_cell_length_b 12.198276
_cell_length_c 17.850294
_cell_angle_alpha 90.000000
_cell_angle_beta 152.765462
_cell_angle_gamma 90.000000
_cell_volume 1489.150548
_symmetry_space_group_name_H-M "P 2/C"
_symmetry_group_IT_number 13
_symmetry_cell_setting 'monoclinic'
loop_
_space_group_symop_operation_xyz
x,y,z
-x,y,1/2-z
-x,-y,-z
x,-y,1/2+z
loop_
_atom_site_type_symbol
_atom_site_label
_atom_site_fract_x
_atom_site_fract_y
_atom_site_fract_z
Si Si1 0.330063 0.498083 0.482735
Si Si2 0.499043 0.288325 0.165543
Si Si3 0.908279 0.147745 0.307684
Si Si4 0.968068 0.092275 0.814917
Si Si5 0.542836 0.829967 0.011382
Si Si6 0.000000 0.326206 0.250000
Si Si7 0.930514 0.259863 0.482187
Si Si8 0.301517 0.606509 0.303869
O O1 0.349461 0.611649 0.542126
O O2 0.181872 0.407070 0.400942
O O3 0.267441 0.529909 0.351019
O O4 0.549193 0.451563 0.640598
O O5 0.500000 0.249716 0.250000
O O6 0.456341 0.191895 0.076580
O O7 0.724031 0.320088 0.316553
O O8 0.672173 0.131787 0.126194
O O9 0.958652 0.184879 0.429584
O O10 0.960334 0.246495 0.290454
O O11 0.015867 0.034966 0.365776
O O12 0.740747 0.104059 0.671703
O O13 0.000000 0.116032 0.750000
O O14 0.072444 0.180706 0.946688
O O15 0.579522 0.711338 0.075677
O O16 0.103794 0.346417 0.622460
#
# Coordination Sequence:
#
# PCOD9232268 Si02
#       8
#     4   4   4   4   4   2   4   4
#     4  10  22  37  61  84 121 163 205 248 301 371
#     4  10  21  36  55  91 121 153 200 256 309 361
#     4  11  22  41  61  90 123 169 204 255 308 370
#     4  11  21  38  66  93 119 160 209 255 312 375
#     4   9  19  38  61  84 121 160 203 252 306 370
#     4  12  24  40  64  88 126 164 218 252 296 368
#     4  10  23  38  62  89 126 157 202 260 313 358
#     4   9  19  39  59  85 116 160 205 243 307 368
#
# _framework density 20.145713000000001
#
# number of rings (size 3 to 8) (size 9 to 14) (size 15 to 20)
#    0.000    1.867    2.000    1.600    3.733    1.600 
#    2.400    0.000    0.000    3.200    0.000    0.000 
#    0.000    0.000    0.000    0.000    0.000    0.000 
#
# Total GULP energy -167368.144963 kJ/mol
# GULP energy per Si atom -5578.938165 kJ/mol
# Density = 2.009986 g / cm^3
# Si number density = 20.145713 Si / 1000 Ang^3
#
#
#
# Elastic Constant Matrix: (Units=GPa)
#
#
# Indices 1 2 3 4 5 6 
#
# 1 57.8849 22.1331 9.6947 0.0000 -6.2537 0.0000
# 2 22.1331 81.7322 15.8650 0.0000 11.1340 0.0000
# 3 9.6947 15.8650 71.0560 0.0000 10.5592 0.0000
# 4 0.0000 0.0000 0.0000 5.0159 0.0000 3.2289
# 5 -6.2537 11.1340 10.5592 0.0000 24.3397 0.0000
# 6 0.0000 0.0000 0.0000 3.2289 0.0000 14.0355
#
#
#
# Elastic Compliance Matrix: (Units=1/GPa)
#
#
# Indices 1 2 3 4 5 6 
#
# 1 0.021308 -0.006532 -0.002893 0.000000 0.009718 0.000000
# 2 -0.006532 0.015370 -0.001332 0.000000 -0.008132 0.000000
# 3 -0.002893 -0.001332 0.015804 0.000000 -0.006990 0.000000
# 4 0.000000 0.000000 0.000000 0.234024 0.000000 -0.053838
# 5 0.009718 -0.008132 -0.006990 0.000000 0.050334 0.000000
# 6 0.000000 0.000000 0.000000 -0.053838 0.000000 0.083634
#
#
# Mechanical properties :
#
#
# Convention : Reuss Voigt Hill
#
# Bulk Modulus (GPa) = 32.29173 34.00654 33.14913
# Shear Modulus (GPa) = 11.05434 19.54359 15.29896
#
# Velocity S-wave (km/s) = 2.34502 3.11804 2.75874
# Velocity P-wave (km/s) = 4.83694 5.46624 5.16119
#
# Compressibility (1/GPa) = 0.03096768
#
# Stress axis : x y z
#
# Youngs Moduli (GPa) = 46.93111 65.06023 63.27391
#
# Poissons Ratio (x) = 0.42500 0.18304
# Poissons Ratio (y) = 0.30658 0.08429
# Poissons Ratio (z) = 0.13576 0.08667
#
# Static dielectric constant tensor:
#      x y z
#    x 1.735190 0.000000 0.016300 
#    y 0.000000 1.728150 0.000000 
#    z 0.016300 0.000000 1.719450 
# 
# From -- ./inp_files/64443.got.cif
#   From: 2010.05.17/outbox.cif.g08.bks.cpg/sg13_33_cif.got.tgz:64443.got - 2010.06.03 16:44:36.
