data_PCOD9232640
_publ_section_title
;
Structure prediction by ZEFSAII (Michael W. Deem and Ramdas Pophale) SiO2 
 PCOD9232640
Probable space group: P 2/C
;
_chemical_formula_sum "Si O2"
_cell_formula_units_Z 30
_cell_length_a 14.378656
_cell_length_b 8.224111
_cell_length_c 24.130806
_cell_angle_alpha 90.000000
_cell_angle_beta 30.924870
_cell_angle_gamma 90.000000
_cell_volume 1466.456703
_symmetry_space_group_name_H-M "P 2/C"
_symmetry_group_IT_number 13
_symmetry_cell_setting 'monoclinic'
loop_
_space_group_symop_operation_xyz
x,y,z
-x,y,1/2-z
-x,-y,-z
x,-y,1/2+z
loop_
_atom_site_type_symbol
_atom_site_label
_atom_site_fract_x
_atom_site_fract_y
_atom_site_fract_z
Si Si1 0.348437 0.198394 0.984808
Si Si2 0.581406 0.666956 0.936596
Si Si3 0.070310 0.772857 0.793896
Si Si4 0.000000 0.935402 0.250000
Si Si5 0.184221 0.372651 0.468734
Si Si6 0.872051 0.368320 0.123840
Si Si7 0.720759 0.174892 0.977417
Si Si8 0.524400 0.590349 0.298627
O O1 0.461162 0.295666 0.881292
O O2 0.429191 0.213800 0.005100
O O3 0.143194 0.268500 0.096021
O O4 0.327273 0.009281 0.981415
O O5 0.789657 0.657454 0.810229
O O6 0.500000 0.500000 0.000000
O O7 0.459649 0.731007 0.948414
O O8 0.134725 0.763623 0.824298
O O9 0.079961 0.943835 0.756415
O O10 0.846243 0.834315 0.358853
O O11 0.143824 0.295680 0.429536
O O12 0.169507 0.259468 0.529346
O O13 0.387452 0.438806 0.365748
O O14 0.057796 0.531571 0.535170
O O15 0.719725 0.509093 0.206856
O O16 0.500000 0.670580 0.250000
#
# Coordination Sequence:
#
# PCOD9232640 Si02
#       8
#     4   4   4   2   4   4   4   4
#     4  11  22  42  61  89 134 165 207 263 325 388
#     4  12  24  39  65  96 119 169 221 260 319 382
#     4  11  20  40  63  90 128 174 198 261 329 370
#     4  10  24  40  60  90 134 172 198 258 320 390
#     4  10  21  41  63  96 124 163 216 270 310 378
#     4  10  21  37  69  92 126 162 218 265 318 367
#     4  11  24  42  63  89 133 165 211 262 322 381
#     4  10  21  42  66  93 124 164 214 268 315 374
#
# _framework density 20.457474000000001
#
# number of rings (size 3 to 8) (size 9 to 14) (size 15 to 20)
#    0.000    1.333    4.000    2.800    0.000    2.133 
#    2.400    6.000    0.000    0.000    0.000    0.000 
#    0.000    0.000    0.000    0.000    0.000    0.000 
#
# Total GULP energy -167442.496081 kJ/mol
# GULP energy per Si atom -5581.416536 kJ/mol
# Density = 2.041091 g / cm^3
# Si number density = 20.457474 Si / 1000 Ang^3
#
#
#
# Elastic Constant Matrix: (Units=GPa)
#
#
# Indices 1 2 3 4 5 6 
#
# 1 148.7035 28.6504 21.0465 0.0000 27.2258 0.0000
# 2 28.6504 29.0018 7.0587 0.0000 5.7033 0.0000
# 3 21.0465 7.0587 90.1121 0.0000 3.9304 0.0000
# 4 0.0000 0.0000 0.0000 20.5486 0.0000 5.1367
# 5 27.2258 5.7033 3.9304 0.0000 34.5871 0.0000
# 6 0.0000 0.0000 0.0000 5.1367 0.0000 29.1291
#
#
#
# Elastic Compliance Matrix: (Units=1/GPa)
#
#
# Indices 1 2 3 4 5 6 
#
# 1 0.009550 -0.007915 -0.001346 0.000000 -0.006059 0.000000
# 2 -0.007915 0.042788 -0.001474 0.000000 -0.000658 0.000000
# 3 -0.001346 -0.001474 0.011527 0.000000 -0.000007 0.000000
# 4 0.000000 0.000000 0.000000 0.050909 0.000000 -0.008977
# 5 -0.006059 -0.000658 -0.000007 0.000000 0.033791 0.000000
# 6 0.000000 0.000000 0.000000 -0.008977 0.000000 0.035913
#
#
# Mechanical properties :
#
#
# Convention : Reuss Voigt Hill
#
# Bulk Modulus (GPa) = 23.58818 42.36986 32.97902
# Shear Modulus (GPa) = 22.71900 30.92375 26.82138
#
# Velocity S-wave (km/s) = 3.33610 3.89216 3.62481
# Velocity P-wave (km/s) = 5.13759 6.39959 5.80300
#
# Compressibility (1/GPa) = 0.04239411
#
# Stress axis : x y z
#
# Youngs Moduli (GPa) = 104.71700 23.37129 86.74912
#
# Poissons Ratio (x) = 0.18498 0.11677
# Poissons Ratio (y) = 0.82880 0.12791
# Poissons Ratio (z) = 0.14096 0.03446
#
# Static dielectric constant tensor:
#      x y z
#    x 1.784460 0.000000 0.012500 
#    y 0.000000 1.704700 0.000000 
#    z 0.012500 0.000000 1.764200 
# 
# From -- ./inp_files/92781.got.cif
#   From: 2010.05.17/outbox.cif.g08.bks.cpg/sg13_47_cif.got.tgz:92781.got - 2010.06.03 16:44:36.
