data_PCOD9232600
_publ_section_title
;
Structure prediction by ZEFSAII (Michael W. Deem and Ramdas Pophale) SiO2 
 PCOD9232600
Probable space group: P 2/C
;
_chemical_formula_sum "Si O2"
_cell_formula_units_Z 30
_cell_length_a 6.324611
_cell_length_b 14.571030
_cell_length_c 17.116842
_cell_angle_alpha 90.000000
_cell_angle_beta 75.356095
_cell_angle_gamma 90.000000
_cell_volume 1526.179963
_symmetry_space_group_name_H-M "P 2/C"
_symmetry_group_IT_number 13
_symmetry_cell_setting 'monoclinic'
loop_
_space_group_symop_operation_xyz
x,y,z
-x,y,1/2-z
-x,-y,-z
x,-y,1/2+z
loop_
_atom_site_type_symbol
_atom_site_label
_atom_site_fract_x
_atom_site_fract_y
_atom_site_fract_z
Si Si1 0.000000 0.312763 0.250000
Si Si2 0.159510 0.250137 0.662529
Si Si3 0.439934 0.609863 0.663807
Si Si4 0.773408 0.949530 0.543144
Si Si5 0.496065 0.403399 0.845789
Si Si6 0.503167 0.886235 0.416362
Si Si7 0.149869 0.270253 0.952506
Si Si8 0.189337 0.249774 0.388836
O O1 0.817721 0.371301 0.312577
O O2 0.871675 0.256496 0.196412
O O3 0.297422 0.343909 0.644907
O O4 0.333347 0.167888 0.655443
O O5 0.000000 0.254591 0.750000
O O6 0.018899 0.235916 0.597757
O O7 0.500000 0.606579 0.750000
O O8 0.493365 0.508632 0.628393
O O9 0.589608 0.691793 0.616132
O O10 0.644954 0.919771 0.476769
O O11 0.800168 0.855993 0.587865
O O12 0.625357 0.024883 0.601086
O O13 0.000000 0.000000 0.500000
O O14 0.500000 0.398926 0.750000
O O15 0.285353 0.352830 0.901092
O O16 0.321739 0.810294 0.456637
O O17 0.004362 0.293089 0.040951
#
# Coordination Sequence:
#
# PCOD9232600 Si02
#       8
#     2   4   4   4   4   4   4   4
#     4  10  24  42  68  84 126 172 210 270 312 364
#     4  11  21  36  63  92 131 166 205 255 316 378
#     4   9  22  41  62  92 125 171 215 264 313 377
#     4  11  21  40  70  90 117 164 211 259 320 382
#     4  10  21  37  63  96 129 171 214 250 321 386
#     4  10  22  37  64  94 122 165 204 253 318 385
#     4  11  22  39  63  97 129 166 204 264 316 380
#     4  11  23  41  68  89 127 163 220 260 321 369
#
# _framework density 19.656921000000001
#
# number of rings (size 3 to 8) (size 9 to 14) (size 15 to 20)
#    0.000    1.600    4.000    0.000    2.800    1.600 
#    0.000    1.333   27.867    0.000    0.000    0.000 
#    0.000    0.000    0.000    0.000    0.000    0.000 
#
# Total GULP energy -167406.832984 kJ/mol
# GULP energy per Si atom -5580.227766 kJ/mol
# Density = 1.961218 g / cm^3
# Si number density = 19.656921 Si / 1000 Ang^3
#
#
#
# Elastic Constant Matrix: (Units=GPa)
#
#
# Indices 1 2 3 4 5 6 
#
# 1 108.3110 59.7248 22.5218 0.0000 -19.5416 0.0000
# 2 59.7248 164.5582 33.1272 0.0000 -25.9007 0.0000
# 3 22.5218 33.1272 57.7824 0.0000 -18.3685 0.0000
# 4 0.0000 0.0000 0.0000 27.1167 0.0000 -3.1753
# 5 -19.5416 -25.9007 -18.3685 0.0000 39.5565 0.0000
# 6 0.0000 0.0000 0.0000 -3.1753 0.0000 14.1038
#
#
#
# Elastic Compliance Matrix: (Units=1/GPa)
#
#
# Indices 1 2 3 4 5 6 
#
# 1 0.012084 -0.003590 -0.001761 0.000000 0.002801 0.000000
# 2 -0.003590 0.008284 -0.002569 0.000000 0.002458 0.000000
# 3 -0.001761 -0.002569 0.021885 0.000000 0.007611 0.000000
# 4 0.000000 0.000000 0.000000 0.037876 0.000000 0.008527
# 5 0.002801 0.002458 0.007611 0.000000 0.031807 0.000000
# 6 0.000000 0.000000 0.000000 0.008527 0.000000 0.072823
#
#
# Mechanical properties :
#
#
# Convention : Reuss Voigt Hill
#
# Bulk Modulus (GPa) = 37.86101 62.37768 50.11934
# Shear Modulus (GPa) = 23.87738 30.50725 27.19232
#
# Velocity S-wave (km/s) = 3.48904 3.94380 3.72337
# Velocity P-wave (km/s) = 5.96104 7.24846 6.63604
#
# Compressibility (1/GPa) = 0.02641240
#
# Stress axis : x y z
#
# Youngs Moduli (GPa) = 82.75367 120.71658 45.69417
#
# Poissons Ratio (x) = 0.43342 0.08048
# Poissons Ratio (y) = 0.29712 0.11737
# Poissons Ratio (z) = 0.14574 0.31006
#
# Static dielectric constant tensor:
#      x y z
#    x 1.724210 0.000000 -0.001030 
#    y 0.000000 1.688660 0.000000 
#    z -0.001030 0.000000 1.682340 
# 
# From -- ./inp_files/61576.got.cif
#   From: 2010.05.17/outbox.cif.g08.bks.cpg/sg13_31_cif.got.tgz:61576.got - 2010.06.03 16:44:36.
