data_PCOD9232546
_publ_section_title
;
Structure prediction by ZEFSAII (Michael W. Deem and Ramdas Pophale) SiO2 
 PCOD9232546
Probable space group: P 2/C
;
_chemical_formula_sum "Si O2"
_cell_formula_units_Z 18
_cell_length_a 6.220666
_cell_length_b 18.682748
_cell_length_c 8.694464
_cell_angle_alpha 90.000000
_cell_angle_beta 56.877975
_cell_angle_gamma 90.000000
_cell_volume 846.271656
_symmetry_space_group_name_H-M "P 2/C"
_symmetry_group_IT_number 13
_symmetry_cell_setting 'monoclinic'
loop_
_space_group_symop_operation_xyz
x,y,z
-x,y,1/2-z
-x,-y,-z
x,-y,1/2+z
loop_
_atom_site_type_symbol
_atom_site_label
_atom_site_fract_x
_atom_site_fract_y
_atom_site_fract_z
Si Si1 0.286719 0.401563 0.621635
Si Si2 0.500000 0.163475 0.250000
Si Si3 0.500000 0.476031 0.250000
Si Si4 0.500000 0.287674 0.750000
Si Si5 0.268104 0.943890 0.590974
Si Si6 0.042975 0.192758 0.049872
O O1 0.346023 0.426894 0.427630
O O2 0.325130 0.471371 0.715442
O O3 0.467211 0.340060 0.617127
O O4 0.000000 0.375338 0.750000
O O5 0.620794 0.112908 0.331387
O O6 0.757369 0.202044 0.090638
O O7 0.747878 0.240384 0.616198
O O8 0.161557 0.889147 0.500488
O O9 0.000000 0.979416 0.750000
O O10 0.500000 0.000000 0.500000
O O11 0.000000 0.211217 0.250000
#
# Coordination Sequence:
#
# PCOD9232546 Si02
#       6
#     4   2   2   2   4   4
#     4  10  21  37  61  90 120 156 197 238 290 348
#     4   8  18  37  55  71 109 156 184 236 300 342
#     4   9  20  40  61  87 121 156 194 242 285 340
#     4  11  24  37  58  92 118 154 204 240 295 360
#     4   9  19  33  53  81 107 143 193 240 295 354
#     4   9  21  39  55  79 117 153 192 242 292 352
#
# _framework density 21.269767000000002
#
# number of rings (size 3 to 8) (size 9 to 14) (size 15 to 20)
#    0.000    3.111    0.000    0.667    0.000   11.556 
#    0.000    3.333    0.000    0.000    0.000    0.000 
#    0.000    0.000    0.000    0.000    0.000    0.000 
#
# Total GULP energy -100209.889270 kJ/mol
# GULP energy per Si atom -5567.216071 kJ/mol
# Density = 2.122136 g / cm^3
# Si number density = 21.269767 Si / 1000 Ang^3
#
#
#
# Elastic Constant Matrix: (Units=GPa)
#
#
# Indices 1 2 3 4 5 6 
#
# 1 100.3505 23.1386 50.3413 0.0000 -41.7681 0.0000
# 2 23.1386 79.9407 58.5996 0.0000 -25.6963 0.0000
# 3 50.3413 58.5996 112.5374 0.0000 -26.4608 0.0000
# 4 0.0000 0.0000 0.0000 54.1732 0.0000 -94.3766
# 5 -41.7681 -25.6963 -26.4608 0.0000 48.1250 0.0000
# 6 0.0000 0.0000 0.0000 -94.3766 0.0000 -314.0545
#
#
#
# Elastic Compliance Matrix: (Units=1/GPa)
#
#
# Indices 1 2 3 4 5 6 
#
# 1 0.018679 0.004702 -0.007352 0.000000 0.014680 0.000000
# 2 0.004702 0.022905 -0.011709 0.000000 0.009873 0.000000
# 3 -0.007352 -0.011709 0.017573 0.000000 -0.002971 0.000000
# 4 0.000000 0.000000 0.000000 0.012116 0.000000 -0.003641
# 5 0.014680 0.009873 -0.002971 0.000000 0.037158 0.000000
# 6 0.000000 0.000000 0.000000 -0.003641 0.000000 -0.002090
#
#
# Mechanical properties :
#
#
# Convention : Reuss Voigt Hill
#
# Bulk Modulus (GPa) = 32.85300 61.88753 47.37027
# Shear Modulus (GPa) = 34.43369 -31.63465 1.39952
#
# Velocity S-wave (km/s) = 4.02792 -3.86074 0.81204
# Velocity P-wave (km/s) = 6.09193 3.04727 4.81651
#
# Compressibility (1/GPa) = 0.03043862
#
# Stress axis : x y z
#
# Youngs Moduli (GPa) = 53.53494 43.65905 56.90492
#
# Poissons Ratio (x) = -0.20527 0.41839
# Poissons Ratio (y) = -0.25170 0.66628
# Poissons Ratio (z) = 0.39361 0.51119
#
# Static dielectric constant tensor:
#      x y z
#    x 1.843740 0.000000 -0.021160 
#    y 0.000000 1.795660 0.000000 
#    z -0.021160 0.000000 1.818570 
# 
# From -- ./inp_files/9890.got.cif
#   From: 2010.05.17/outbox.cif.g08.bks.cpg/sg13_5_cif.got.tgz:9890.got - 2010.06.03 16:44:36.
