data_PCOD9232122
_publ_section_title
;
Structure prediction by ZEFSAII (Michael W. Deem and Ramdas Pophale) SiO2 
 PCOD9232122
Probable space group: P 2/C
;
_chemical_formula_sum "Si O2"
_cell_formula_units_Z 30
_cell_length_a 13.194824
_cell_length_b 5.233700
_cell_length_c 23.906352
_cell_angle_alpha 90.000000
_cell_angle_beta 70.271908
_cell_angle_gamma 90.000000
_cell_volume 1554.018460
_symmetry_space_group_name_H-M "P 2/C"
_symmetry_group_IT_number 13
_symmetry_cell_setting 'monoclinic'
loop_
_space_group_symop_operation_xyz
x,y,z
-x,y,1/2-z
-x,-y,-z
x,-y,1/2+z
loop_
_atom_site_type_symbol
_atom_site_label
_atom_site_fract_x
_atom_site_fract_y
_atom_site_fract_z
Si Si1 0.582297 0.432477 0.551200
Si Si2 0.494036 0.822891 0.850541
Si Si3 0.674827 0.185611 0.646792
Si Si4 0.626725 0.838811 0.394820
Si Si5 0.500000 0.465125 0.750000
Si Si6 0.915468 0.255877 0.577306
Si Si7 0.269034 0.639617 0.580821
Si Si8 0.052297 0.759375 0.560264
O O1 0.525715 0.684389 0.586607
O O2 0.642350 0.319634 0.594206
O O3 0.482747 0.250445 0.553241
O O4 0.666875 0.452745 0.486392
O O5 0.537234 0.637385 0.795252
O O6 0.375745 0.905809 0.851783
O O7 0.573981 0.059346 0.846588
O O8 0.601037 0.305953 0.708559
O O9 0.801643 0.207456 0.628027
O O10 0.703401 0.589441 0.380920
O O11 0.686249 0.083645 0.409224
O O12 0.903003 0.232114 0.512023
O O13 0.962670 0.537161 0.578742
O O14 0.999553 0.036252 0.579729
O O15 0.146482 0.682390 0.585165
#
# Coordination Sequence:
#
# PCOD9232122 Si02
#       8
#     4   4   4   4   2   4   4   4
#     4  10  21  34  54  84 122 162 201 230 291 362
#     4  10  22  38  57  88 122 152 193 245 301 377
#     4  10  21  36  61  87 122 157 192 254 306 362
#     4  11  23  35  54  83 124 162 200 231 295 352
#     4  10  22  40  60  90 124 142 202 246 320 368
#     4  10  21  38  57  82 121 160 202 247 288 343
#     4  12  22  35  55  83 124 169 199 242 275 353
#     4  10  22  36  55  85 118 165 210 233 282 346
#
# _framework density 19.304791999999999
#
# number of rings (size 3 to 8) (size 9 to 14) (size 15 to 20)
#    0.000    1.600    2.667    2.000    7.467    1.067 
#    0.000    0.000    0.000    0.000    0.000    0.933 
#    8.000    0.000    0.000    0.000    0.000    0.000 
#
# Total GULP energy -167358.102572 kJ/mol
# GULP energy per Si atom -5578.603419 kJ/mol
# Density = 1.926085 g / cm^3
# Si number density = 19.304792 Si / 1000 Ang^3
#
#
#
# Elastic Constant Matrix: (Units=GPa)
#
#
# Indices 1 2 3 4 5 6 
#
# 1 92.4450 21.8891 22.8244 0.0000 -10.7453 0.0000
# 2 21.8891 98.8566 22.1734 0.0000 -2.9767 0.0000
# 3 22.8244 22.1734 61.4176 0.0000 -15.7863 0.0000
# 4 0.0000 0.0000 0.0000 16.2552 0.0000 10.6278
# 5 -10.7453 -2.9767 -15.7863 0.0000 16.2607 0.0000
# 6 0.0000 0.0000 0.0000 10.6278 0.0000 28.9946
#
#
#
# Elastic Compliance Matrix: (Units=1/GPa)
#
#
# Indices 1 2 3 4 5 6 
#
# 1 0.012562 -0.002051 -0.002519 0.000000 0.005480 0.000000
# 2 -0.002051 0.011416 -0.004225 0.000000 -0.003367 0.000000
# 3 -0.002519 -0.004225 0.024141 0.000000 0.020998 0.000000
# 4 0.000000 0.000000 0.000000 0.080909 0.000000 -0.029657
# 5 0.005480 -0.003367 0.020998 0.000000 0.084889 0.000000
# 6 0.000000 0.000000 0.000000 -0.029657 0.000000 0.045360
#
#
# Mechanical properties :
#
#
# Convention : Reuss Voigt Hill
#
# Bulk Modulus (GPa) = 32.75671 42.94368 37.85020
# Shear Modulus (GPa) = 17.41904 24.69091 21.05497
#
# Velocity S-wave (km/s) = 3.00712 3.58020 3.30610
# Velocity P-wave (km/s) = 5.39092 6.27565 5.85003
#
# Compressibility (1/GPa) = 0.03052809
#
# Stress axis : x y z
#
# Youngs Moduli (GPa) = 79.60572 87.59569 41.42388
#
# Poissons Ratio (x) = 0.17970 0.10436
# Poissons Ratio (y) = 0.16331 0.17500
# Poissons Ratio (z) = 0.20054 0.37006
#
# Static dielectric constant tensor:
#      x y z
#    x 1.689520 0.000000 0.038770 
#    y 0.000000 1.758950 0.000000 
#    z 0.038770 0.000000 1.672160 
# 
# From -- ./inp_files/85813.got.cif
#   From: 2010.05.17/outbox.cif.g08.bks.cpg/sg13_43_cif.got.tgz:85813.got - 2010.06.03 16:44:36.
