data_PCOD9232466
_publ_section_title
;
Structure prediction by ZEFSAII (Michael W. Deem and Ramdas Pophale) SiO2 
 PCOD9232466
Probable space group: P 2/C
;
_chemical_formula_sum "Si O2"
_cell_formula_units_Z 26
_cell_length_a 7.497958
_cell_length_b 19.425015
_cell_length_c 11.610963
_cell_angle_alpha 90.000000
_cell_angle_beta 136.503284
_cell_angle_gamma 90.000000
_cell_volume 1164.015004
_symmetry_space_group_name_H-M "P 2/C"
_symmetry_group_IT_number 13
_symmetry_cell_setting 'monoclinic'
loop_
_space_group_symop_operation_xyz
x,y,z
-x,y,1/2-z
-x,-y,-z
x,-y,1/2+z
loop_
_atom_site_type_symbol
_atom_site_label
_atom_site_fract_x
_atom_site_fract_y
_atom_site_fract_z
Si Si1 0.916846 0.852655 0.460128
Si Si2 0.246479 0.939167 0.776404
Si Si3 0.500000 0.656372 0.750000
Si Si4 0.582084 0.095604 0.629448
Si Si5 0.667653 0.419648 0.947572
Si Si6 0.767104 0.431719 0.560809
Si Si7 0.025883 0.284067 0.133991
O O1 0.668316 0.879057 0.416956
O O2 0.829986 0.862628 0.288591
O O3 0.953685 0.773602 0.508644
O O4 0.149091 0.899583 0.617913
O O5 0.000000 0.942341 0.750000
O O6 0.343905 0.016850 0.805092
O O7 0.482786 0.901717 0.952499
O O8 0.299946 0.611544 0.582783
O O9 0.675088 0.698654 0.745334
O O10 0.500000 0.421021 0.750000
O O11 0.476710 0.423875 0.967927
O O12 0.821355 0.491153 0.039285
O O13 0.847506 0.352263 0.039765
O O14 0.000000 0.407816 0.750000
O O15 0.000000 0.254459 0.250000
#
# Coordination Sequence:
#
# PCOD9232466 Si02
#       7
#     4   4   2   4   4   4   4
#     4  10  21  37  58  88 124 169 216 268 332 413
#     4   9  17  34  59  88 120 158 211 275 332 388
#     4  12  26  48  68  98 138 184 238 298 340 422
#     4   9  18  34  57  84 115 157 206 268 321 391
#     4  11  24  41  72 104 136 188 227 290 356 415
#     4  11  24  44  70 105 140 171 240 298 346 409
#     4  12  25  45  68  95 140 189 230 277 358 421
#
# _framework density 22.336480999999999
#
# number of rings (size 3 to 8) (size 9 to 14) (size 15 to 20)
#    0.000    1.538    2.308    3.231    4.308    1.231 
#    0.000    7.692    0.000    0.000    0.000    0.000 
#    0.000    0.000    0.000    0.000    0.000    0.000 
#
# Total GULP energy -145257.858045 kJ/mol
# GULP energy per Si atom -5586.840694 kJ/mol
# Density = 2.228564 g / cm^3
# Si number density = 22.336481 Si / 1000 Ang^3
#
#
#
# Elastic Constant Matrix: (Units=GPa)
#
#
# Indices 1 2 3 4 5 6 
#
# 1 39.0184 2.6001 -12.7703 0.0000 6.6540 0.0000
# 2 2.6001 82.2382 32.9296 0.0000 19.5027 0.0000
# 3 -12.7703 32.9296 134.0058 0.0000 13.3567 0.0000
# 4 0.0000 0.0000 0.0000 22.1485 0.0000 -25.4453
# 5 6.6540 19.5027 13.3567 0.0000 21.2952 0.0000
# 6 0.0000 0.0000 0.0000 -25.4453 0.0000 10.6224
#
#
#
# Elastic Compliance Matrix: (Units=1/GPa)
#
#
# Indices 1 2 3 4 5 6 
#
# 1 0.028863 0.000332 0.003838 0.000000 -0.011731 0.000000
# 2 0.000332 0.016406 -0.002658 0.000000 -0.013462 0.000000
# 3 0.003838 -0.002658 0.008916 0.000000 -0.004357 0.000000
# 4 0.000000 0.000000 0.000000 -0.025770 0.000000 -0.061732
# 5 -0.011731 -0.013462 -0.004357 0.000000 0.065686 0.000000
# 6 0.000000 0.000000 0.000000 -0.061732 0.000000 -0.053733
#
#
# Mechanical properties :
#
#
# Convention : Reuss Voigt Hill
#
# Bulk Modulus (GPa) = 17.47942 33.42013 25.44977
# Shear Modulus (GPa) = 88.63384 26.31343 57.47363
#
# Velocity S-wave (km/s) = 6.30614 3.43599 5.07806
# Velocity P-wave (km/s) = 7.80164 5.54401 6.76763
#
# Compressibility (1/GPa) = 0.05721015
#
# Stress axis : x y z
#
# Youngs Moduli (GPa) = 34.64596 60.95304 112.16349
#
# Poissons Ratio (x) = -0.02027 -0.43050
# Poissons Ratio (y) = -0.01152 0.29814
# Poissons Ratio (z) = -0.13297 0.16202
#
# Static dielectric constant tensor:
#      x y z
#    x 1.852230 0.000000 -0.043660 
#    y 0.000000 1.800430 0.000000 
#    z -0.043660 0.000000 1.751130 
# 
# From -- ./inp_files/30822.got.cif
#   From: 2010.05.17/outbox.cif.g08.bks.cpg/sg13_16_cif.got.tgz:30822.got - 2010.06.03 16:44:36.
