data_PCOD9232988
_publ_section_title
;
Structure prediction by ZEFSAII (Michael W. Deem and Ramdas Pophale) SiO2 
 PCOD9232988
Probable space group: P 2/C
;
_chemical_formula_sum "Si O2"
_cell_formula_units_Z 24
_cell_length_a 13.175904
_cell_length_b 5.484508
_cell_length_c 25.184489
_cell_angle_alpha 90.000000
_cell_angle_beta 149.858886
_cell_angle_gamma 90.000000
_cell_volume 913.836785
_symmetry_space_group_name_H-M "P 2/C"
_symmetry_group_IT_number 13
_symmetry_cell_setting 'monoclinic'
loop_
_space_group_symop_operation_xyz
x,y,z
-x,y,1/2-z
-x,-y,-z
x,-y,1/2+z
loop_
_atom_site_type_symbol
_atom_site_label
_atom_site_fract_x
_atom_site_fract_y
_atom_site_fract_z
Si Si1 0.022631 0.809793 0.082075
Si Si2 0.004901 0.694788 0.867096
Si Si3 0.531333 0.326296 0.899358
Si Si4 0.693066 0.645246 0.634129
Si Si5 0.334781 0.040804 0.636924
Si Si6 0.759839 0.855051 0.147632
O O1 0.041078 0.556707 0.122047
O O2 0.170205 0.819391 0.098415
O O3 0.065305 0.056345 0.135463
O O4 0.794725 0.851453 0.956662
O O5 0.899701 0.670232 0.762192
O O6 0.246092 0.719687 0.977522
O O7 0.465857 0.594111 0.890209
O O8 0.551600 0.238060 0.848554
O O9 0.347750 0.175160 0.843504
O O10 0.698779 0.409129 0.598846
O O11 0.676653 0.886875 0.593076
O O12 0.500000 0.922055 0.750000
O O13 0.000000 0.861382 0.250000
#
# Coordination Sequence:
#
# PCOD9232988 Si02
#       6
#     4   4   4   4   4   4
#     4  10  24  38  57  91 129 162 205 256 294 349
#     4  11  22  41  63  90 128 164 204 251 302 365
#     4   9  24  38  65  89 124 161 207 250 306 358
#     4  10  22  39  67  90 121 165 200 250 315 366
#     4  10  21  39  61  89 126 167 209 247 302 360
#     4  10  22  43  65  91 123 157 202 262 312 367
#
# _framework density 26.262896000000001
#
# number of rings (size 3 to 8) (size 9 to 14) (size 15 to 20)
#    1.000    1.000    0.000    2.500    7.000    6.000 
#    0.000    5.833    0.000    0.000    0.000    0.000 
#    0.000    0.000    0.000    0.000    0.000    0.000 
#
# Total GULP energy -134132.781779 kJ/mol
# GULP energy per Si atom -5588.865907 kJ/mol
# Density = 2.620312 g / cm^3
# Si number density = 26.262896 Si / 1000 Ang^3
#
#
#
# Elastic Constant Matrix: (Units=GPa)
#
#
# Indices 1 2 3 4 5 6 
#
# 1 136.6243 70.5616 25.7515 0.0000 27.2557 0.0000
# 2 70.5616 207.1128 23.3095 0.0000 0.5011 0.0000
# 3 25.7515 23.3095 107.7607 0.0000 -5.6260 0.0000
# 4 0.0000 0.0000 0.0000 37.5422 0.0000 1.2586
# 5 27.2557 0.5011 -5.6260 0.0000 52.4183 0.0000
# 6 0.0000 0.0000 0.0000 1.2586 0.0000 23.5816
#
#
#
# Elastic Compliance Matrix: (Units=1/GPa)
#
#
# Indices 1 2 3 4 5 6 
#
# 1 0.010585 -0.003356 -0.002101 0.000000 -0.005697 0.000000
# 2 -0.003356 0.006014 -0.000413 0.000000 0.001643 0.000000
# 3 -0.002101 -0.000413 0.009984 0.000000 0.002168 0.000000
# 4 0.000000 0.000000 0.000000 0.026684 0.000000 -0.001424
# 5 -0.005697 0.001643 0.002168 0.000000 0.022257 0.000000
# 6 0.000000 0.000000 0.000000 -0.001424 0.000000 0.042482
#
#
# Mechanical properties :
#
#
# Convention : Reuss Voigt Hill
#
# Bulk Modulus (GPa) = 67.37003 76.74922 72.05962
# Shear Modulus (GPa) = 37.12082 44.83343 40.97712
#
# Velocity S-wave (km/s) = 3.76364 4.13619 3.95431
# Velocity P-wave (km/s) = 6.67791 7.21787 6.95314
#
# Compressibility (1/GPa) = 0.01484340
#
# Stress axis : x y z
#
# Youngs Moduli (GPa) = 94.47129 166.27352 100.15559
#
# Poissons Ratio (x) = 0.55802 0.21043
# Poissons Ratio (y) = 0.31705 0.04138
# Poissons Ratio (z) = 0.19849 0.06869
#
# Static dielectric constant tensor:
#      x y z
#    x 2.064910 0.000000 0.027190 
#    y 0.000000 2.153320 0.000000 
#    z 0.027190 0.000000 2.079220 
# 
# From -- ./inp_files/96884.got.cif
#   From: 2010.05.17/outbox.cif.g08.bks.cpg/sg13_49_cif.got.tgz:96884.got - 2010.06.03 16:44:36.
