data_PCOD9232248
_publ_section_title
;
Structure prediction by ZEFSAII (Michael W. Deem and Ramdas Pophale) SiO2 
 PCOD9232248
Probable space group: P 2/C
;
_chemical_formula_sum "Si O2"
_cell_formula_units_Z 24
_cell_length_a 31.263677
_cell_length_b 7.392040
_cell_length_c 5.202197
_cell_angle_alpha 90.000000
_cell_angle_beta 93.568006
_cell_angle_gamma 90.000000
_cell_volume 1199.909577
_symmetry_space_group_name_H-M "P 2/C"
_symmetry_group_IT_number 13
_symmetry_cell_setting 'monoclinic'
loop_
_space_group_symop_operation_xyz
x,y,z
-x,y,1/2-z
-x,-y,-z
x,-y,1/2+z
loop_
_atom_site_type_symbol
_atom_site_label
_atom_site_fract_x
_atom_site_fract_y
_atom_site_fract_z
Si Si1 0.797121 0.118123 0.457156
Si Si2 0.280765 0.618601 0.691774
Si Si3 0.452988 0.119046 0.278107
Si Si4 0.893097 0.125975 0.428893
Si Si5 0.625395 0.380880 0.366259
Si Si6 0.980569 0.296226 0.492586
O O1 0.758639 0.251984 0.381933
O O2 0.844656 0.199423 0.433290
O O3 0.794416 0.957177 0.245636
O O4 0.278860 0.457286 0.480407
O O5 0.327642 0.705657 0.662181
O O6 0.500000 0.205112 0.250000
O O7 0.413830 0.250119 0.205823
O O8 0.450874 0.041683 0.565869
O O9 0.929681 0.277080 0.468575
O O10 0.897897 0.019030 0.162166
O O11 0.623339 0.458418 0.653955
O O12 0.000000 0.206782 0.250000
O O13 0.000000 0.500000 0.500000
O O14 0.000000 0.207355 0.750000
#
# Coordination Sequence:
#
# PCOD9232248 Si02
#       6
#     4   4   4   4   4   4
#     4  10  21  38  59  84 113 144 184 227 273 332
#     4  10  21  38  56  85 115 146 185 230 281 329
#     4  10  21  36  54  80 113 147 190 238 283 333
#     4  10  21  37  57  81 108 140 177 218 264 315
#     4  10  21  36  56  80 113 147 188 234 276 336
#     4  10  21  37  53  78 110 136 174 219 256 311
#
# _framework density 20.001508999999999
#
# number of rings (size 3 to 8) (size 9 to 14) (size 15 to 20)
#    0.000    2.000    0.000    3.000    0.000    4.000 
#    6.000    0.000    0.000    0.000    0.000    0.000 
#    0.000    0.000    0.000    0.000    0.000    0.000 
#
# Total GULP energy -133924.310493 kJ/mol
# GULP energy per Si atom -5580.179604 kJ/mol
# Density = 1.995599 g / cm^3
# Si number density = 20.001509 Si / 1000 Ang^3
#
#
#
# Elastic Constant Matrix: (Units=GPa)
#
#
# Indices 1 2 3 4 5 6 
#
# 1 199.7219 50.5782 -6.9192 0.0000 20.0367 0.0000
# 2 50.5782 32.6831 -12.5852 0.0000 1.3145 0.0000
# 3 -6.9192 -12.5852 104.0519 0.0000 5.8350 0.0000
# 4 0.0000 0.0000 0.0000 5.4896 0.0000 15.8038
# 5 20.0367 1.3145 5.8350 0.0000 27.1032 0.0000
# 6 0.0000 0.0000 0.0000 15.8038 0.0000 51.6228
#
#
#
# Elastic Compliance Matrix: (Units=1/GPa)
#
#
# Indices 1 2 3 4 5 6 
#
# 1 0.009195 -0.014292 -0.000784 0.000000 -0.005935 0.000000
# 2 -0.014292 0.054466 0.005256 0.000000 0.006793 0.000000
# 3 -0.000784 0.005256 0.010300 0.000000 -0.001893 0.000000
# 4 0.000000 0.000000 0.000000 1.534964 0.000000 -0.469913
# 5 -0.005935 0.006793 -0.001893 0.000000 0.041362 0.000000
# 6 0.000000 0.000000 0.000000 -0.469913 0.000000 0.163230
#
#
# Mechanical properties :
#
#
# Convention : Reuss Voigt Hill
#
# Bulk Modulus (GPa) = 18.40952 44.28936 31.34944
# Shear Modulus (GPa) = 2.70086 37.20201 19.95143
#
# Velocity S-wave (km/s) = 1.16330 4.31740 3.16174
# Velocity P-wave (km/s) = 3.32090 6.85889 5.38854
#
# Compressibility (1/GPa) = 0.05431973
#
# Stress axis : x y z
#
# Youngs Moduli (GPa) = 108.75836 18.36019 97.08432
#
# Poissons Ratio (x) = 0.26241 0.07615
# Poissons Ratio (y) = 1.55442 -0.51031
# Poissons Ratio (z) = 0.08531 -0.09651
#
# Static dielectric constant tensor:
#      x y z
#    x 1.718350 0.000000 -0.002300 
#    y 0.000000 1.668920 0.000000 
#    z -0.002300 0.000000 1.721710 
# 
# From -- ./inp_files/7335.got.cif
#   From: 2010.05.17/outbox.cif.g08.bks.cpg/sg13_4_cif.got.tgz:7335.got - 2010.06.03 16:44:36.
