data_PCOD9232909
_publ_section_title
;
Structure prediction by ZEFSAII (Michael W. Deem and Ramdas Pophale) SiO2 
 PCOD9232909
Probable space group: P 2/C
;
_chemical_formula_sum "Si O2"
_cell_formula_units_Z 20
_cell_length_a 12.681175
_cell_length_b 10.055403
_cell_length_c 10.518581
_cell_angle_alpha 90.000000
_cell_angle_beta 43.930693
_cell_angle_gamma 90.000000
_cell_volume 930.556492
_symmetry_space_group_name_H-M "P 2/C"
_symmetry_group_IT_number 13
_symmetry_cell_setting 'monoclinic'
loop_
_space_group_symop_operation_xyz
x,y,z
-x,y,1/2-z
-x,-y,-z
x,-y,1/2+z
loop_
_atom_site_type_symbol
_atom_site_label
_atom_site_fract_x
_atom_site_fract_y
_atom_site_fract_z
Si Si1 0.777653 0.238751 0.251368
Si Si2 0.398100 0.023200 0.964746
Si Si3 0.822730 0.805019 0.435442
Si Si4 0.334752 0.549854 0.836293
Si Si5 0.947227 0.406532 0.431032
O O1 0.690901 0.160241 0.434412
O O2 0.683458 0.368744 0.281986
O O3 0.948682 0.277774 0.141842
O O4 0.795970 0.153999 0.106235
O O5 0.500000 0.022228 0.750000
O O6 0.500000 0.000000 0.000000
O O7 0.275064 0.905120 0.062524
O O8 0.750691 0.656897 0.497303
O O9 0.000000 0.803317 0.250000
O O10 0.500000 0.530231 0.750000
O O11 0.234288 0.416879 0.912640
O O12 0.000000 0.461496 0.250000
O O13 0.000000 0.500000 0.500000
#
# Coordination Sequence:
#
# PCOD9232909 Si02
#       5
#     4   4   4   4   4
#     4   9  22  39  63 101 140 176 224 279 336 414
#     4  12  22  43  67 100 139 178 227 281 337 401
#     4  10  21  38  68  96 132 189 221 267 340 415
#     4   9  18  39  66  96 131 176 224 275 345 400
#     4  10  21  41  68  91 134 175 224 283 335 406
#
# _framework density 21.492514
#
# number of rings (size 3 to 8) (size 9 to 14) (size 15 to 20)
#    1.200    0.800    2.000    2.400    0.000    1.600 
#    3.600    7.000    0.000    0.000    0.000    0.000 
#    0.000    0.000    0.000    0.000    0.000    0.000 
#
# Total GULP energy -111446.715857 kJ/mol
# GULP energy per Si atom -5572.335793 kJ/mol
# Density = 2.144360 g / cm^3
# Si number density = 21.492514 Si / 1000 Ang^3
#
#
#
# Elastic Constant Matrix: (Units=GPa)
#
#
# Indices 1 2 3 4 5 6 
#
# 1 151.7171 44.6551 61.2738 0.0000 -30.1221 0.0000
# 2 44.6551 53.2393 19.7732 0.0000 -23.4344 0.0000
# 3 61.2738 19.7732 85.4051 0.0000 -23.0399 0.0000
# 4 0.0000 0.0000 0.0000 17.9297 0.0000 -20.9049
# 5 -30.1221 -23.4344 -23.0399 0.0000 53.2107 0.0000
# 6 0.0000 0.0000 0.0000 -20.9049 0.0000 16.7494
#
#
#
# Elastic Compliance Matrix: (Units=1/GPa)
#
#
# Indices 1 2 3 4 5 6 
#
# 1 0.011293 -0.006835 -0.006349 0.000000 0.000634 0.000000
# 2 -0.006835 0.028124 0.000781 0.000000 0.008855 0.000000
# 3 -0.006349 0.000781 0.017217 0.000000 0.004205 0.000000
# 4 0.000000 0.000000 0.000000 -0.122524 0.000000 -0.152922
# 5 0.000634 0.008855 0.004205 0.000000 0.024872 0.000000
# 6 0.000000 0.000000 0.000000 -0.152922 0.000000 -0.131157
#
#
# Mechanical properties :
#
#
# Convention : Reuss Voigt Hill
#
# Bulk Modulus (GPa) = 31.41791 60.19617 45.80704
# Shear Modulus (GPa) = -36.56025 28.55526 -4.00250
#
# Velocity S-wave (km/s) = -4.12888 3.64897 -1.36613
# Velocity P-wave (km/s) = 2.84260 6.76920 4.34406
#
# Compressibility (1/GPa) = 0.03182898
#
# Stress axis : x y z
#
# Youngs Moduli (GPa) = 88.55172 35.55730 58.08133
#
# Poissons Ratio (x) = 0.24304 0.36874
# Poissons Ratio (y) = 0.60527 -0.04539
# Poissons Ratio (z) = 0.56218 -0.02779
#
# Static dielectric constant tensor:
#      x y z
#    x 1.798250 0.000000 0.009750 
#    y 0.000000 1.833060 0.000000 
#    z 0.009750 0.000000 1.802070 
# 
# From -- ./inp_files/33594.got.cif
#   From: 2010.05.17/outbox.cif.g08.bks.cpg/sg13_17_cif.got.tgz:33594.got - 2010.06.03 16:44:36.
