data_PCOD9232350
_publ_section_title
;
Structure prediction by ZEFSAII (Michael W. Deem and Ramdas Pophale) SiO2 
 PCOD9232350
Probable space group: P 2/C
;
_chemical_formula_sum "Si O2"
_cell_formula_units_Z 26
_cell_length_a 9.991697
_cell_length_b 16.836931
_cell_length_c 16.451271
_cell_angle_alpha 90.000000
_cell_angle_beta 27.679967
_cell_angle_gamma 90.000000
_cell_volume 1285.635033
_symmetry_space_group_name_H-M "P 2/C"
_symmetry_group_IT_number 13
_symmetry_cell_setting 'monoclinic'
loop_
_space_group_symop_operation_xyz
x,y,z
-x,y,1/2-z
-x,-y,-z
x,-y,1/2+z
loop_
_atom_site_type_symbol
_atom_site_label
_atom_site_fract_x
_atom_site_fract_y
_atom_site_fract_z
Si Si1 0.264261 0.761238 0.805689
Si Si2 0.496414 0.598139 0.421705
Si Si3 0.118245 0.820443 0.276244
Si Si4 0.333307 0.769751 0.582992
Si Si5 0.769586 0.695019 0.147549
Si Si6 0.158098 0.920591 0.939920
Si Si7 0.000000 0.489290 0.750000
O O1 0.500000 0.753027 0.750000
O O2 0.393023 0.764952 0.647146
O O3 0.106177 0.845255 0.908239
O O4 0.027283 0.692368 0.944469
O O5 0.401272 0.682822 0.510237
O O6 0.627423 0.617504 0.263055
O O7 0.213015 0.543335 0.580059
O O8 0.765662 0.562014 0.326715
O O9 0.103547 0.745270 0.345066
O O10 0.000000 0.804132 0.250000
O O11 0.953173 0.889985 0.412379
O O12 0.458393 0.830699 0.075726
O O13 0.000000 0.788307 0.750000
O O14 0.500000 0.738501 0.250000
O O15 0.500000 0.933334 0.750000
O O16 0.000000 0.000000 0.000000
#
# Coordination Sequence:
#
# PCOD9232350 Si02
#       7
#     4   4   4   4   4   4   2
#     4  10  21  37  60  91 121 152 202 255 307 368
#     4  10  22  38  62  82 120 163 213 249 314 370
#     4  10  21  39  64  92 121 163 215 254 298 376
#     4  11  21  36  63  93 120 153 209 265 305 361
#     4  10  21  36  60  92 122 154 202 259 315 357
#     4  10  22  40  60  88 128 168 200 252 319 370
#     4  10  22  40  60  84 120 168 210 252 312 378
#
# _framework density 20.223468
#
# number of rings (size 3 to 8) (size 9 to 14) (size 15 to 20)
#    0.000    1.846    0.769    4.615    6.462    3.692 
#    0.000    4.615    0.000    0.000    0.000    0.000 
#    0.000    0.000    0.000    0.000    0.000    0.000 
#
# Total GULP energy -144936.146011 kJ/mol
# GULP energy per Si atom -5574.467154 kJ/mol
# Density = 2.017744 g / cm^3
# Si number density = 20.223468 Si / 1000 Ang^3
#
#
#
# Elastic Constant Matrix: (Units=GPa)
#
#
# Indices 1 2 3 4 5 6 
#
# 1 84.2057 15.7522 31.6507 0.0000 1.9595 0.0000
# 2 15.7522 40.9290 39.1063 0.0000 -4.0677 0.0000
# 3 31.6507 39.1063 173.8147 0.0000 -8.4020 0.0000
# 4 0.0000 0.0000 0.0000 18.5829 0.0000 1.2576
# 5 1.9595 -4.0677 -8.4020 0.0000 41.9905 0.0000
# 6 0.0000 0.0000 0.0000 1.2576 0.0000 18.5470
#
#
#
# Elastic Compliance Matrix: (Units=1/GPa)
#
#
# Indices 1 2 3 4 5 6 
#
# 1 0.013206 -0.003635 -0.001650 0.000000 -0.001298 0.000000
# 2 -0.003635 0.032235 -0.006494 0.000000 0.001993 0.000000
# 3 -0.001650 -0.006494 0.007561 0.000000 0.000961 0.000000
# 4 0.000000 0.000000 0.000000 0.054061 0.000000 -0.003666
# 5 -0.001298 0.001993 0.000961 0.000000 0.024261 0.000000
# 6 0.000000 0.000000 0.000000 -0.003666 0.000000 0.054166
#
#
# Mechanical properties :
#
#
# Convention : Reuss Voigt Hill
#
# Bulk Modulus (GPa) = 33.96326 52.44086 43.20206
# Shear Modulus (GPa) = 22.84542 29.98676 26.41609
#
# Velocity S-wave (km/s) = 3.36467 3.85485 3.61807
# Velocity P-wave (km/s) = 5.65023 6.76758 6.23399
#
# Compressibility (1/GPa) = 0.02944358
#
# Stress axis : x y z
#
# Youngs Moduli (GPa) = 75.72315 31.02246 132.25454
#
# Poissons Ratio (x) = 0.11278 0.21816
# Poissons Ratio (y) = 0.27529 0.85888
# Poissons Ratio (z) = 0.12491 0.20146
#
# Static dielectric constant tensor:
#      x y z
#    x 1.779700 0.000000 -0.013800 
#    y 0.000000 1.712030 0.000000 
#    z -0.013800 0.000000 1.787020 
# 
# From -- ./inp_files/48155.got.cif
#   From: 2010.05.17/outbox.cif.g08.bks.cpg/sg13_25_cif.got.tgz:48155.got - 2010.06.03 16:44:36.
