data_PCOD9232638
_publ_section_title
;
Structure prediction by ZEFSAII (Michael W. Deem and Ramdas Pophale) SiO2 
 PCOD9232638
Probable space group: P 2/C
;
_chemical_formula_sum "Si O2"
_cell_formula_units_Z 18
_cell_length_a 7.476003
_cell_length_b 5.332021
_cell_length_c 18.947554
_cell_angle_alpha 90.000000
_cell_angle_beta 74.543533
_cell_angle_gamma 90.000000
_cell_volume 727.974829
_symmetry_space_group_name_H-M "P 2/C"
_symmetry_group_IT_number 13
_symmetry_cell_setting 'monoclinic'
loop_
_space_group_symop_operation_xyz
x,y,z
-x,y,1/2-z
-x,-y,-z
x,-y,1/2+z
loop_
_atom_site_type_symbol
_atom_site_label
_atom_site_fract_x
_atom_site_fract_y
_atom_site_fract_z
Si Si1 0.702214 0.251089 0.034639
Si Si2 0.261853 0.249859 0.045014
Si Si3 0.820084 0.904252 0.792021
Si Si4 0.500000 0.168575 0.750000
Si Si5 0.709730 0.462741 0.188558
O O1 0.482782 0.256137 0.038516
O O2 0.720835 0.325385 0.114282
O O3 0.790458 0.478864 0.979927
O O4 0.773566 0.979661 0.004219
O O5 0.170165 0.184593 0.129066
O O6 0.819982 0.669811 0.737937
O O7 0.000000 0.061158 0.750000
O O8 0.621719 0.033874 0.798552
O O9 0.306799 0.241919 0.817870
O O10 0.500000 0.484544 0.250000
#
# Coordination Sequence:
#
# PCOD9232638 Si02
#       5
#     4   4   4   2   4
#     4  10  21  37  68  97 135 179 223 288 343 411
#     4  10  22  38  62 103 135 174 230 282 348 405
#     4  12  25  44  70 101 135 182 235 284 339 418
#     4  10  22  42  68  96 134 172 238 276 348 394
#     4  10  22  40  68  94 132 175 227 274 342 405
#
# _framework density 24.726129
#
# number of rings (size 3 to 8) (size 9 to 14) (size 15 to 20)
#    0.667    0.889    3.333    0.000   15.556    0.889 
#    0.000    2.222    0.000    0.000    0.000    0.000 
#    0.000    0.000    0.000    0.000    0.000    0.000 
#
# Total GULP energy -100289.244662 kJ/mol
# GULP energy per Si atom -5571.624703 kJ/mol
# Density = 2.466985 g / cm^3
# Si number density = 24.726129 Si / 1000 Ang^3
#
#
#
# Elastic Constant Matrix: (Units=GPa)
#
#
# Indices 1 2 3 4 5 6 
#
# 1 89.3220 10.2307 12.2961 0.0000 4.9027 0.0000
# 2 10.2307 93.4136 47.0028 0.0000 2.5532 0.0000
# 3 12.2961 47.0028 172.6786 0.0000 11.2887 0.0000
# 4 0.0000 0.0000 0.0000 24.9137 0.0000 10.7896
# 5 4.9027 2.5532 11.2887 0.0000 19.4239 0.0000
# 6 0.0000 0.0000 0.0000 10.7896 0.0000 3.3009
#
#
#
# Elastic Compliance Matrix: (Units=1/GPa)
#
#
# Indices 1 2 3 4 5 6 
#
# 1 0.011502 -0.000999 -0.000380 0.000000 -0.002551 0.000000
# 2 -0.000999 0.012493 -0.003366 0.000000 0.000566 0.000000
# 3 -0.000380 -0.003366 0.006964 0.000000 -0.003509 0.000000
# 4 0.000000 0.000000 0.000000 -0.096574 0.000000 0.315676
# 5 -0.002551 0.000566 -0.003509 0.000000 0.054092 0.000000
# 6 0.000000 0.000000 0.000000 0.315676 0.000000 -0.728910
#
#
# Mechanical properties :
#
#
# Convention : Reuss Voigt Hill
#
# Bulk Modulus (GPa) = 46.58100 54.94149 50.76125
# Shear Modulus (GPa) = -6.90812 28.58667 10.83928
#
# Velocity S-wave (km/s) = -1.67330 3.40388 2.09601
# Velocity P-wave (km/s) = 3.89184 6.14140 5.14117
#
# Compressibility (1/GPa) = 0.02146798
#
# Stress axis : x y z
#
# Youngs Moduli (GPa) = 86.93981 80.04580 143.59732
#
# Poissons Ratio (x) = 0.07993 0.05464
# Poissons Ratio (y) = 0.08681 0.48341
# Poissons Ratio (z) = 0.03308 0.26947
#
# Static dielectric constant tensor:
#      x y z
#    x 2.041760 0.000000 -0.049100 
#    y 0.000000 2.063880 0.000000 
#    z -0.049100 0.000000 1.967350 
# 
# From -- ./inp_files/74087.got.cif
#   From: 2010.05.17/outbox.cif.g08.bks.cpg/sg13_38_cif.got.tgz:74087.got - 2010.06.03 16:44:36.
