data_PCOD9232874
_publ_section_title
;
Structure prediction by ZEFSAII (Michael W. Deem and Ramdas Pophale) SiO2 
 PCOD9232874
Probable space group: P 2/C
;
_chemical_formula_sum "Si O2"
_cell_formula_units_Z 28
_cell_length_a 28.901912
_cell_length_b 8.155156
_cell_length_c 29.597977
_cell_angle_alpha 90.000000
_cell_angle_beta 9.847665
_cell_angle_gamma 90.000000
_cell_volume 1193.139354
_symmetry_space_group_name_H-M "P 2/C"
_symmetry_group_IT_number 13
_symmetry_cell_setting 'monoclinic'
loop_
_space_group_symop_operation_xyz
x,y,z
-x,y,1/2-z
-x,-y,-z
x,-y,1/2+z
loop_
_atom_site_type_symbol
_atom_site_label
_atom_site_fract_x
_atom_site_fract_y
_atom_site_fract_z
Si Si1 0.204793 0.379936 0.511797
Si Si2 0.669681 0.655444 0.286426
Si Si3 0.290640 0.993732 0.741920
Si Si4 0.792338 0.744575 0.991530
Si Si5 0.662036 0.174282 0.946776
Si Si6 0.142044 0.542829 0.298016
Si Si7 0.202445 0.064659 0.452136
O O1 0.176985 0.561736 0.516798
O O2 0.144357 0.221945 0.539828
O O3 0.000000 0.379740 0.750000
O O4 0.500000 0.364714 0.250000
O O5 0.805758 0.645757 0.205742
O O6 0.362205 0.601524 0.588372
O O7 0.679478 0.838961 0.258553
O O8 0.844660 0.532427 0.087639
O O9 0.405761 0.844198 0.659506
O O10 0.500000 0.000000 0.500000
O O11 0.000000 0.000000 0.000000
O O12 0.500000 0.747869 0.250000
O O13 0.805162 0.894425 0.013931
O O14 0.000000 0.764489 0.750000
O O15 0.501214 0.111112 0.145569
O O16 0.779057 0.352293 0.821667
O O17 0.934075 0.065715 0.678024
#
# Coordination Sequence:
#
# PCOD9232874 Si02
#       7
#     4   4   4   4   4   4   4
#     4  10  21  41  71  99 124 168 218 256 305 382
#     4  10  21  38  65  85 109 154 224 277 313 368
#     4  12  24  42  65  87 120 167 227 276 321 390
#     4  10  21  41  71 100 129 168 220 261 296 385
#     4  12  26  42  61  92 134 170 207 269 341 394
#     4  10  21  39  61  88 114 155 213 271 321 377
#     4  12  24  42  63  97 140 172 201 262 340 393
#
# _framework density 23.467500999999999
#
# number of rings (size 3 to 8) (size 9 to 14) (size 15 to 20)
#    0.000    1.143    1.429    5.143    4.000    0.000 
#    7.714    0.000    0.000    0.000    0.000    0.000 
#    0.000    0.000    0.000    0.000    0.000    0.000 
#
# Total GULP energy -156372.057239 kJ/mol
# GULP energy per Si atom -5584.716330 kJ/mol
# Density = 2.341409 g / cm^3
# Si number density = 23.467501 Si / 1000 Ang^3
#
#
#
# Elastic Constant Matrix: (Units=GPa)
#
#
# Indices 1 2 3 4 5 6 
#
# 1 27.7928 15.4742 11.6271 0.0000 -6.1967 0.0000
# 2 15.4742 110.3621 17.0618 0.0000 1.4341 0.0000
# 3 11.6271 17.0618 159.3753 0.0000 2.6993 0.0000
# 4 0.0000 0.0000 0.0000 29.9159 0.0000 -2.4126
# 5 -6.1967 1.4341 2.6993 0.0000 30.7953 0.0000
# 6 0.0000 0.0000 0.0000 -2.4126 0.0000 17.9011
#
#
#
# Elastic Compliance Matrix: (Units=1/GPa)
#
#
# Indices 1 2 3 4 5 6 
#
# 1 0.042219 -0.005630 -0.002630 0.000000 0.008988 0.000000
# 2 -0.005630 0.009968 -0.000630 0.000000 -0.001542 0.000000
# 3 -0.002630 -0.000630 0.006552 0.000000 -0.001074 0.000000
# 4 0.000000 0.000000 0.000000 0.033794 0.000000 0.004555
# 5 0.008988 -0.001542 -0.001074 0.000000 0.034447 0.000000
# 6 0.000000 0.000000 0.000000 0.004555 0.000000 0.056476
#
#
# Mechanical properties :
#
#
# Convention : Reuss Voigt Hill
#
# Bulk Modulus (GPa) = 24.41429 42.87292 33.64361
# Shear Modulus (GPa) = 23.26774 32.61362 27.94068
#
# Velocity S-wave (km/s) = 3.15221 3.73196 3.45427
# Velocity P-wave (km/s) = 4.86565 6.07279 5.50242
#
# Compressibility (1/GPa) = 0.04095961
#
# Stress axis : x y z
#
# Youngs Moduli (GPa) = 23.68584 100.32155 152.62514
#
# Poissons Ratio (x) = 0.56481 0.40134
# Poissons Ratio (y) = 0.13335 0.09619
# Poissons Ratio (z) = 0.06228 0.06323
#
# Static dielectric constant tensor:
#      x y z
#    x 1.953060 0.000000 -0.019280 
#    y 0.000000 1.959320 0.000000 
#    z -0.019280 0.000000 1.853990 
# 
# From -- ./inp_files/97976.got.cif
#   From: 2010.05.17/outbox.cif.g08.bks.cpg/sg13_49_cif.got.tgz:97976.got - 2010.06.03 16:44:36.
