data_PCOD9232853
_publ_section_title
;
Structure prediction by ZEFSAII (Michael W. Deem and Ramdas Pophale) SiO2 
 PCOD9232853
Probable space group: P 2/C
;
_chemical_formula_sum "Si O2"
_cell_formula_units_Z 24
_cell_length_a 18.341257
_cell_length_b 6.087159
_cell_length_c 17.867593
_cell_angle_alpha 90.000000
_cell_angle_beta 31.154876
_cell_angle_gamma 90.000000
_cell_volume 1032.040950
_symmetry_space_group_name_H-M "P 2/C"
_symmetry_group_IT_number 13
_symmetry_cell_setting 'monoclinic'
loop_
_space_group_symop_operation_xyz
x,y,z
-x,y,1/2-z
-x,-y,-z
x,-y,1/2+z
loop_
_atom_site_type_symbol
_atom_site_label
_atom_site_fract_x
_atom_site_fract_y
_atom_site_fract_z
Si Si1 0.313225 0.580757 0.792462
Si Si2 0.776952 0.099949 0.240419
Si Si3 0.824318 0.725807 0.304388
Si Si4 0.587493 0.372743 0.520538
Si Si5 0.963217 0.344835 0.421646
Si Si6 0.500000 0.413492 0.750000
Si Si7 0.000000 0.044541 0.250000
O O1 0.275859 0.820618 0.793821
O O2 0.432922 0.464722 0.635962
O O3 0.384058 0.565550 0.811490
O O4 0.175773 0.430863 0.916968
O O5 0.793121 0.855262 0.255060
O O6 0.665728 0.210297 0.396218
O O7 0.928827 0.213034 0.120442
O O8 0.878831 0.897884 0.318070
O O9 0.688922 0.582031 0.442822
O O10 0.951428 0.557337 0.180676
O O11 0.563547 0.277131 0.625210
O O12 0.938204 0.194581 0.370778
#
# Coordination Sequence:
#
# PCOD9232853 Si02
#       7
#     4   4   4   4   4   2   2
#     4  10  21  38  64  85 124 159 198 249 305 347
#     4  10  21  40  62  89 116 166 202 237 302 363
#     4  10  22  36  61  87 117 156 202 239 303 360
#     4   9  21  40  60  84 123 154 200 250 293 352
#     4  10  22  38  61  88 126 153 200 253 291 351
#     4   8  22  34  62  88 116 166 190 252 306 340
#     4  10  22  34  64  88 116 160 194 244 306 356
#
# _framework density 23.254892999999999
#
# number of rings (size 3 to 8) (size 9 to 14) (size 15 to 20)
#    1.000    1.333    0.000    1.500    9.333    1.333 
#    0.000    7.500    0.000    0.000    0.000    0.000 
#    0.000    0.000    0.000    0.000    0.000    0.000 
#
# Total GULP energy -134082.347250 kJ/mol
# GULP energy per Si atom -5586.764469 kJ/mol
# Density = 2.320196 g / cm^3
# Si number density = 23.254893 Si / 1000 Ang^3
#
#
#
# Elastic Constant Matrix: (Units=GPa)
#
#
# Indices 1 2 3 4 5 6 
#
# 1 77.5670 14.4918 17.3884 0.0000 -1.0794 0.0000
# 2 14.4918 73.3085 32.7660 0.0000 -3.4967 0.0000
# 3 17.3884 32.7660 142.7887 0.0000 -22.7893 0.0000
# 4 0.0000 0.0000 0.0000 -3.6256 0.0000 -0.0160
# 5 -1.0794 -3.4967 -22.7893 0.0000 27.8370 0.0000
# 6 0.0000 0.0000 0.0000 -0.0160 0.0000 27.6599
#
#
#
# Elastic Compliance Matrix: (Units=1/GPa)
#
#
# Indices 1 2 3 4 5 6 
#
# 1 0.013570 -0.002145 -0.001288 0.000000 -0.000797 0.000000
# 2 -0.002145 0.015568 -0.003465 0.000000 -0.000964 0.000000
# 3 -0.001288 -0.003465 0.009062 0.000000 0.006934 0.000000
# 4 0.000000 0.000000 0.000000 -0.275813 0.000000 -0.000159
# 5 -0.000797 -0.000964 0.006934 0.000000 0.041448 0.000000
# 6 0.000000 0.000000 0.000000 -0.000159 0.000000 0.036153
#
#
# Mechanical properties :
#
#
# Convention : Reuss Voigt Hill
#
# Bulk Modulus (GPa) = 40.97608 46.99518 43.98563
# Shear Modulus (GPa) = -36.21052 25.64210 -5.28421
#
# Velocity S-wave (km/s) = -3.95031 3.32423 -1.50905
# Velocity P-wave (km/s) = 1.77424 5.91494 3.98990
#
# Compressibility (1/GPa) = 0.02440448
#
# Stress axis : x y z
#
# Youngs Moduli (GPa) = 73.68975 64.23516 110.35228
#
# Poissons Ratio (x) = 0.13780 0.14209
# Poissons Ratio (y) = 0.15808 0.38238
# Poissons Ratio (z) = 0.09488 0.22258
#
# Static dielectric constant tensor:
#      x y z
#    x 1.899920 0.000000 0.014260 
#    y 0.000000 1.860100 0.000000 
#    z 0.014260 0.000000 1.869560 
# 
# From -- ./inp_files/81237.got.cif
#   From: 2010.05.17/outbox.cif.g08.bks.cpg/sg13_41_cif.got.tgz:81237.got - 2010.06.03 16:44:36.
