data_PCOD9232050
_publ_section_title
;
Structure prediction by ZEFSAII (Michael W. Deem and Ramdas Pophale) SiO2 
 PCOD9232050
Probable space group: P 2/C
;
_chemical_formula_sum "Si O2"
_cell_formula_units_Z 24
_cell_length_a 10.889839
_cell_length_b 5.167555
_cell_length_c 17.957947
_cell_angle_alpha 90.000000
_cell_angle_beta 74.130708
_cell_angle_gamma 90.000000
_cell_volume 972.048109
_symmetry_space_group_name_H-M "P 2/C"
_symmetry_group_IT_number 13
_symmetry_cell_setting 'monoclinic'
loop_
_space_group_symop_operation_xyz
x,y,z
-x,y,1/2-z
-x,-y,-z
x,-y,1/2+z
loop_
_atom_site_type_symbol
_atom_site_label
_atom_site_fract_x
_atom_site_fract_y
_atom_site_fract_z
Si Si1 0.960565 0.240655 0.900729
Si Si2 0.193153 0.742610 0.548037
Si Si3 0.500000 0.461029 0.750000
Si Si4 0.644703 0.153078 0.335285
Si Si5 0.388660 0.098879 0.895969
Si Si6 0.000000 0.005653 0.250000
Si Si7 0.796808 0.995631 0.681519
O O1 0.896779 0.494970 0.942318
O O2 0.928388 0.186412 0.818829
O O3 0.114414 0.216294 0.871289
O O4 0.894941 0.993829 0.950098
O O5 0.255310 0.751627 0.620325
O O6 0.312510 0.759951 0.473044
O O7 0.407322 0.635936 0.714345
O O8 0.425074 0.292116 0.823285
O O9 0.520612 0.035224 0.396132
O O10 0.708245 0.948790 0.267599
O O11 0.291957 0.898992 0.870268
O O12 0.090661 0.160425 0.292390
#
# Coordination Sequence:
#
# PCOD9232050 Si02
#       7
#     4   4   2   4   4   2   4
#     4  10  25  45  73 109 136 199 232 309 358 433
#     4  12  28  46  74 106 155 181 250 297 386 431
#     4  12  26  40  76 102 136 198 248 286 378 422
#     4  12  24  47  72 108 143 195 247 309 360 448
#     4  12  27  46  68 108 145 196 237 312 369 440
#     4   8  20  42  72 102 134 194 236 298 352 430
#     4  10  20  47  71 100 145 182 256 294 359 439
#
# _framework density 24.690132999999999
#
# number of rings (size 3 to 8) (size 9 to 14) (size 15 to 20)
#    1.000    0.000    5.000    0.500    7.000    5.333 
#    0.000    0.000    0.000    0.000    0.000    0.000 
#    0.000    0.000    0.000    0.000    0.000    0.000 
#
# Total GULP energy -133801.526875 kJ/mol
# GULP energy per Si atom -5575.063620 kJ/mol
# Density = 2.463394 g / cm^3
# Si number density = 24.690133 Si / 1000 Ang^3
#
#
#
# Elastic Constant Matrix: (Units=GPa)
#
#
# Indices 1 2 3 4 5 6 
#
# 1 119.9484 28.7859 7.5028 0.0000 3.1362 0.0000
# 2 28.7859 109.9516 35.3108 0.0000 -20.7372 0.0000
# 3 7.5028 35.3108 121.9905 0.0000 -31.6511 0.0000
# 4 0.0000 0.0000 0.0000 10.6260 0.0000 -7.7763
# 5 3.1362 -20.7372 -31.6511 0.0000 50.9861 0.0000
# 6 0.0000 0.0000 0.0000 -7.7763 0.0000 15.4633
#
#
#
# Elastic Compliance Matrix: (Units=1/GPa)
#
#
# Indices 1 2 3 4 5 6 
#
# 1 0.009027 -0.002616 -0.000260 0.000000 -0.001781 0.000000
# 2 -0.002616 0.011110 -0.002194 0.000000 0.003317 0.000000
# 3 -0.000260 -0.002194 0.010276 0.000000 0.005503 0.000000
# 4 0.000000 0.000000 0.000000 0.148912 0.000000 0.074886
# 5 -0.001781 0.003317 0.005503 0.000000 0.024488 0.000000
# 6 0.000000 0.000000 0.000000 0.074886 0.000000 0.102329
#
#
# Mechanical properties :
#
#
# Convention : Reuss Voigt Hill
#
# Bulk Modulus (GPa) = 49.32514 55.00996 52.16755
# Shear Modulus (GPa) = 15.47792 34.10115 24.78953
#
# Velocity S-wave (km/s) = 2.50649 3.72043 3.17207
# Velocity P-wave (km/s) = 5.32895 6.38624 5.88140
#
# Compressibility (1/GPa) = 0.02027364
#
# Stress axis : x y z
#
# Youngs Moduli (GPa) = 110.77284 90.00821 97.31204
#
# Poissons Ratio (x) = 0.23544 0.02531
# Poissons Ratio (y) = 0.28975 0.21353
# Poissons Ratio (z) = 0.02881 0.19750
#
# Static dielectric constant tensor:
#      x y z
#    x 2.101980 0.000000 -0.044420 
#    y 0.000000 1.957950 0.000000 
#    z -0.044420 0.000000 1.949080 
# 
# From -- ./inp_files/65324.got.cif
#   From: 2010.05.17/outbox.cif.g08.bks.cpg/sg13_33_cif.got.tgz:65324.got - 2010.06.03 16:44:36.
