data_PCOD9232888
_publ_section_title
;
Structure prediction by ZEFSAII (Michael W. Deem and Ramdas Pophale) SiO2 
 PCOD9232888
Probable space group: P 2/C
;
_chemical_formula_sum "Si O2"
_cell_formula_units_Z 30
_cell_length_a 11.699876
_cell_length_b 11.620359
_cell_length_c 12.241375
_cell_angle_alpha 90.000000
_cell_angle_beta 67.797327
_cell_angle_gamma 90.000000
_cell_volume 1540.894923
_symmetry_space_group_name_H-M "P 2/C"
_symmetry_group_IT_number 13
_symmetry_cell_setting 'monoclinic'
loop_
_space_group_symop_operation_xyz
x,y,z
-x,y,1/2-z
-x,-y,-z
x,-y,1/2+z
loop_
_atom_site_type_symbol
_atom_site_label
_atom_site_fract_x
_atom_site_fract_y
_atom_site_fract_z
Si Si1 0.500000 0.778812 0.750000
Si Si2 0.772716 0.863795 0.220432
Si Si3 0.857418 0.336404 0.840922
Si Si4 0.060376 0.936638 0.875073
Si Si5 0.606195 0.955943 0.883910
Si Si6 0.193214 0.180846 0.049071
Si Si7 0.851695 0.401734 0.300411
Si Si8 0.773863 0.275008 0.112651
O O1 0.552289 0.856953 0.827727
O O2 0.375025 0.719279 0.839605
O O3 0.784300 0.753476 0.292345
O O4 0.881867 0.955498 0.209290
O O5 0.653540 0.938875 0.292564
O O6 0.783325 0.829851 0.089155
O O7 0.815168 0.467654 0.839065
O O8 0.000000 0.328901 0.750000
O O9 0.837776 0.302900 0.974304
O O10 0.171347 0.850008 0.869359
O O11 0.945936 0.861557 0.875061
O O12 0.000000 0.000000 0.000000
O O13 0.714118 0.901989 0.919576
O O14 0.500000 0.000000 0.000000
O O15 0.201801 0.309329 0.094175
O O16 0.812687 0.361879 0.194107
O O17 0.000000 0.397233 0.250000
#
# Coordination Sequence:
#
# PCOD9232888 Si02
#       8
#     2   4   4   4   4   4   4   4
#     4  12  24  44  66 100 130 192 222 278 346 406
#     4  11  24  40  65 101 139 173 216 277 343 411
#     4  11  27  41  69 103 142 177 224 291 345 409
#     4  10  21  38  66 100 134 164 214 275 345 412
#     4  12  25  40  67  98 140 179 223 278 345 418
#     4  11  23  42  68  99 133 176 226 279 340 413
#     4  11  24  44  70  99 132 184 230 284 342 402
#     4  12  24  47  69  98 140 182 229 279 349 414
#
# _framework density 19.469204999999999
#
# number of rings (size 3 to 8) (size 9 to 14) (size 15 to 20)
#    0.000    0.800    4.000    3.200    9.333    1.067 
#    0.000    0.667    0.000    0.000    0.000    0.000 
#    0.000    0.000    0.000    0.000    0.000    0.000 
#
# Total GULP energy -167612.151314 kJ/mol
# GULP energy per Si atom -5587.071710 kJ/mol
# Density = 1.942489 g / cm^3
# Si number density = 19.469205 Si / 1000 Ang^3
#
#
#
# Elastic Constant Matrix: (Units=GPa)
#
#
# Indices 1 2 3 4 5 6 
#
# 1 97.8745 35.4727 48.4999 0.0000 -1.8423 0.0000
# 2 35.4727 133.8948 60.4275 0.0000 9.5136 0.0000
# 3 48.4999 60.4275 142.2972 0.0000 6.7801 0.0000
# 4 0.0000 0.0000 0.0000 19.5674 0.0000 -3.8473
# 5 -1.8423 9.5136 6.7801 0.0000 39.8270 0.0000
# 6 0.0000 0.0000 0.0000 -3.8473 0.0000 -20.8334
#
#
#
# Elastic Compliance Matrix: (Units=1/GPa)
#
#
# Indices 1 2 3 4 5 6 
#
# 1 0.012716 -0.001849 -0.003627 0.000000 0.001647 0.000000
# 2 -0.001849 0.009604 -0.003362 0.000000 -0.001807 0.000000
# 3 -0.003627 -0.003362 0.009740 0.000000 -0.001023 0.000000
# 4 0.000000 0.000000 0.000000 0.049315 0.000000 -0.009107
# 5 0.001647 -0.001807 -0.001023 0.000000 0.025791 0.000000
# 6 0.000000 0.000000 0.000000 -0.009107 0.000000 -0.046318
#
#
# Mechanical properties :
#
#
# Convention : Reuss Voigt Hill
#
# Bulk Modulus (GPa) = 69.52390 73.65186 71.58788
# Shear Modulus (GPa) = 60.01035 23.02328 41.51681
#
# Velocity S-wave (km/s) = 5.55789 3.44255 4.62284
# Velocity P-wave (km/s) = 8.77348 7.32896 8.08355
#
# Compressibility (1/GPa) = 0.01438354
#
# Stress axis : x y z
#
# Youngs Moduli (GPa) = 78.64294 104.12164 102.66511
#
# Poissons Ratio (x) = 0.19250 0.37240
# Poissons Ratio (y) = 0.14539 0.34518
# Poissons Ratio (z) = 0.28527 0.35008
#
# Static dielectric constant tensor:
#      x y z
#    x 1.717170 0.000000 -0.005700 
#    y 0.000000 1.666590 0.000000 
#    z -0.005700 0.000000 1.699300 
# 
# From -- ./inp_files/33808.got.cif
#   From: 2010.05.17/outbox.cif.g08.bks.cpg/sg13_17_cif.got.tgz:33808.got - 2010.06.03 16:44:36.
