data_PCOD9232218
_publ_section_title
;
Structure prediction by ZEFSAII (Michael W. Deem and Ramdas Pophale) SiO2 
 PCOD9232218
Probable space group: P 2/C
;
_chemical_formula_sum "Si O2"
_cell_formula_units_Z 22
_cell_length_a 20.090688
_cell_length_b 8.698574
_cell_length_c 8.092730
_cell_angle_alpha 90.000000
_cell_angle_beta 146.117801
_cell_angle_gamma 90.000000
_cell_volume 788.447590
_symmetry_space_group_name_H-M "P 2/C"
_symmetry_group_IT_number 13
_symmetry_cell_setting 'monoclinic'
loop_
_space_group_symop_operation_xyz
x,y,z
-x,y,1/2-z
-x,-y,-z
x,-y,1/2+z
loop_
_atom_site_type_symbol
_atom_site_label
_atom_site_fract_x
_atom_site_fract_y
_atom_site_fract_z
Si Si1 0.074901 0.787671 0.746121
Si Si2 0.839193 0.548570 0.102402
Si Si3 0.706056 0.799261 0.972007
Si Si4 0.000000 0.759756 0.250000
Si Si5 0.341517 0.703688 0.302564
Si Si6 0.625482 0.887799 0.444692
O O1 0.074618 0.600819 0.718781
O O2 0.000000 0.835429 0.750000
O O3 0.024766 0.848775 0.468994
O O4 0.217070 0.806228 0.054270
O O5 0.817631 0.678283 0.198710
O O6 0.886719 0.649091 0.047956
O O7 0.709688 0.467620 0.823792
O O8 0.616772 0.722242 0.922264
O O9 0.676703 0.813674 0.717016
O O10 0.703839 0.975987 0.027966
O O11 0.399065 0.767431 0.254006
O O12 0.500000 0.956309 0.250000
#
# Coordination Sequence:
#
# PCOD9232218 Si02
#       6
#     4   4   4   2   4   4
#     4  10  21  35  64 103 134 170 220 263 328 392
#     4  10  22  39  68 103 135 171 218 281 324 382
#     4  12  24  44  72  94 137 170 222 280 329 399
#     4  12  18  34  64 102 132 178 212 266 328 386
#     4  10  24  42  66 105 133 168 226 274 330 392
#     4  12  27  47  71  95 124 183 230 265 337 409
#
# _framework density 27.902930999999999
#
# number of rings (size 3 to 8) (size 9 to 14) (size 15 to 20)
#    1.091    0.000    2.727    4.364    2.545    0.000 
#    0.000    1.818    2.000    3.273    0.000    0.000 
#    0.000    0.000    0.000    0.000    0.000    0.000 
#
# Total GULP energy -122748.023965 kJ/mol
# GULP energy per Si atom -5579.455635 kJ/mol
# Density = 2.783942 g / cm^3
# Si number density = 27.902931 Si / 1000 Ang^3
#
#
#
# Elastic Constant Matrix: (Units=GPa)
#
#
# Indices 1 2 3 4 5 6 
#
# 1 219.5818 74.8441 38.4448 0.0000 -42.7120 0.0000
# 2 74.8441 147.4267 40.7472 0.0000 -17.6504 0.0000
# 3 38.4448 40.7472 94.2175 0.0000 -47.9535 0.0000
# 4 0.0000 0.0000 0.0000 11.4740 0.0000 -11.3038
# 5 -42.7120 -17.6504 -47.9535 0.0000 58.6432 0.0000
# 6 0.0000 0.0000 0.0000 -11.3038 0.0000 36.1249
#
#
#
# Elastic Compliance Matrix: (Units=1/GPa)
#
#
# Indices 1 2 3 4 5 6 
#
# 1 0.006243 -0.002907 0.000991 0.000000 0.004483 0.000000
# 2 -0.002907 0.009074 -0.004155 0.000000 -0.002784 0.000000
# 3 0.000991 -0.004155 0.020104 0.000000 0.015911 0.000000
# 4 0.000000 0.000000 0.000000 0.125993 0.000000 0.039424
# 5 0.004483 -0.002784 0.015911 0.000000 0.032490 0.000000
# 6 0.000000 0.000000 0.000000 0.039424 0.000000 0.040018
#
#
# Mechanical properties :
#
#
# Convention : Reuss Voigt Hill
#
# Bulk Modulus (GPa) = 42.95436 85.47758 64.21597
# Shear Modulus (GPa) = 19.69866 41.72775 30.71320
#
# Velocity S-wave (km/s) = 2.65989 3.87131 3.32130
# Velocity P-wave (km/s) = 4.98608 7.11921 6.14590
#
# Compressibility (1/GPa) = 0.02328052
#
# Stress axis : x y z
#
# Youngs Moduli (GPa) = 160.17061 110.20681 49.74042
#
# Poissons Ratio (x) = 0.32035 -0.04930
# Poissons Ratio (y) = 0.46559 0.20667
# Poissons Ratio (z) = -0.15877 0.45790
#
# Static dielectric constant tensor:
#      x y z
#    x 2.201070 0.000000 0.012350 
#    y 0.000000 2.100510 0.000000 
#    z 0.012350 0.000000 2.449960 
# 
# From -- ./inp_files/23908.got.cif
#   From: 2010.05.17/outbox.cif.g08.bks.cpg/sg13_12_cif.got.tgz:23908.got - 2010.06.03 16:44:36.
