data_PCOD9232290
_publ_section_title
;
Structure prediction by ZEFSAII (Michael W. Deem and Ramdas Pophale) SiO2 
 PCOD9232290
Probable space group: P 2/C
;
_chemical_formula_sum "Si O2"
_cell_formula_units_Z 26
_cell_length_a 7.905288
_cell_length_b 15.979902
_cell_length_c 13.939302
_cell_angle_alpha 90.000000
_cell_angle_beta 39.474526
_cell_angle_gamma 90.000000
_cell_volume 1119.461129
_symmetry_space_group_name_H-M "P 2/C"
_symmetry_group_IT_number 13
_symmetry_cell_setting 'monoclinic'
loop_
_space_group_symop_operation_xyz
x,y,z
-x,y,1/2-z
-x,-y,-z
x,-y,1/2+z
loop_
_atom_site_type_symbol
_atom_site_label
_atom_site_fract_x
_atom_site_fract_y
_atom_site_fract_z
Si Si1 0.749921 0.883515 0.286679
Si Si2 0.510261 0.606426 0.961305
Si Si3 0.563600 0.777069 0.609032
Si Si4 0.000000 0.486847 0.750000
Si Si5 0.421619 0.722013 0.395242
Si Si6 0.252369 0.935848 0.709377
Si Si7 0.019705 0.845570 0.501397
O O1 0.616131 0.792698 0.353326
O O2 0.000000 0.887104 0.250000
O O3 0.611393 0.974136 0.362453
O O4 0.788464 0.892783 0.154221
O O5 0.204299 0.570215 0.095799
O O6 0.571788 0.639464 0.042689
O O7 0.519967 0.689897 0.895687
O O8 0.755360 0.546735 0.820131
O O9 0.500000 0.779975 0.750000
O O10 0.442540 0.857123 0.609597
O O11 0.873301 0.792649 0.481643
O O12 0.500000 0.705215 0.250000
O O13 0.146770 0.774497 0.512996
O O14 0.000000 0.931478 0.750000
O O15 0.139407 0.911630 0.864940
#
# Coordination Sequence:
#
# PCOD9232290 Si02
#       7
#     4   4   4   2   4   4   4
#     4  10  21  36  56  91 130 176 224 266 316 370
#     4  11  24  50  71 100 134 166 217 270 340 411
#     4  10  23  38  67  94 129 178 214 271 318 395
#     4  10  28  46  78 100 128 170 204 280 350 404
#     4  10  23  38  67  94 129 178 214 271 318 395
#     4  10  21  36  56  91 130 176 224 266 316 370
#     4  10  21  36  56  93 124 184 212 271 314 370
#
# _framework density 23.225460000000002
#
# number of rings (size 3 to 8) (size 9 to 14) (size 15 to 20)
#    0.000    1.846    0.000    2.308   10.769    6.769 
#    0.000    8.462    0.000    0.000    0.000    0.000 
#    0.000    0.000    0.000    0.000    0.000    0.000 
#
# Total GULP energy -144735.859537 kJ/mol
# GULP energy per Si atom -5566.763828 kJ/mol
# Density = 2.317260 g / cm^3
# Si number density = 23.225460 Si / 1000 Ang^3
#
#
#
# Elastic Constant Matrix: (Units=GPa)
#
#
# Indices 1 2 3 4 5 6 
#
# 1 79.6988 32.5774 11.5390 0.0000 -7.8119 0.0000
# 2 32.5774 116.3595 9.5405 0.0000 -8.7670 0.0000
# 3 11.5390 9.5405 72.9599 0.0000 0.9302 0.0000
# 4 0.0000 0.0000 0.0000 -469.6811 0.0000 439.6469
# 5 -7.8119 -8.7670 0.9302 0.0000 44.5324 0.0000
# 6 0.0000 0.0000 0.0000 439.6469 0.0000 -387.3410
#
#
#
# Elastic Compliance Matrix: (Units=1/GPa)
#
#
# Indices 1 2 3 4 5 6 
#
# 1 0.014538 -0.003782 -0.001828 0.000000 0.001844 0.000000
# 2 -0.003782 0.009807 -0.000701 0.000000 0.001282 0.000000
# 3 -0.001828 -0.000701 0.014097 0.000000 -0.000753 0.000000
# 4 0.000000 0.000000 0.000000 0.034089 0.000000 0.038692
# 5 0.001844 0.001282 -0.000753 0.000000 0.023047 0.000000
# 6 0.000000 0.000000 0.000000 0.038692 0.000000 0.041335
#
#
# Mechanical properties :
#
#
# Convention : Reuss Voigt Hill
#
# Bulk Modulus (GPa) = 38.72854 41.81467 40.27161
# Shear Modulus (GPa) = 31.61730 -148.14053 -58.26162
#
# Velocity S-wave (km/s) = 3.69361 -7.99513 -5.01395
# Velocity P-wave (km/s) = 5.90776 8.19675 4.01778
#
# Compressibility (1/GPa) = 0.02582075
#
# Stress axis : x y z
#
# Youngs Moduli (GPa) = 68.78329 101.97003 70.93937
#
# Poissons Ratio (x) = 0.38560 0.12970
# Poissons Ratio (y) = 0.26010 0.04970
# Poissons Ratio (z) = 0.12576 0.07145
#
# Static dielectric constant tensor:
#      x y z
#    x 2.191230 0.000000 0.142740 
#    y 0.000000 1.864740 0.000000 
#    z 0.142740 0.000000 2.806410 
# 
# From -- ./inp_files/47878.got.cif
#   From: 2010.05.17/outbox.cif.g08.bks.cpg/sg13_24_cif.got.tgz:47878.got - 2010.06.03 16:44:36.
