data_PCOD9232460
_publ_section_title
;
Structure prediction by ZEFSAII (Michael W. Deem and Ramdas Pophale) SiO2 
 PCOD9232460
Probable space group: P 2/C
;
_chemical_formula_sum "Si O2"
_cell_formula_units_Z 28
_cell_length_a 4.833585
_cell_length_b 22.548275
_cell_length_c 11.100598
_cell_angle_alpha 90.000000
_cell_angle_beta 80.659784
_cell_angle_gamma 90.000000
_cell_volume 1193.803070
_symmetry_space_group_name_H-M "P 2/C"
_symmetry_group_IT_number 13
_symmetry_cell_setting 'monoclinic'
loop_
_space_group_symop_operation_xyz
x,y,z
-x,y,1/2-z
-x,-y,-z
x,-y,1/2+z
loop_
_atom_site_type_symbol
_atom_site_label
_atom_site_fract_x
_atom_site_fract_y
_atom_site_fract_z
Si Si1 0.950756 0.069649 0.997198
Si Si2 0.606253 0.889676 0.868755
Si Si3 0.665536 0.479481 0.112236
Si Si4 0.300217 0.357640 0.493276
Si Si5 0.761221 0.393729 0.637148
Si Si6 0.120153 0.817308 0.372351
Si Si7 0.433036 0.226252 0.478263
O O1 0.621353 0.084541 0.019426
O O2 0.089109 0.092682 0.110927
O O3 0.114391 0.110771 0.887460
O O4 0.000000 0.000000 0.000000
O O5 0.500000 0.912743 0.750000
O O6 0.584516 0.818632 0.877923
O O7 0.500000 0.475616 0.250000
O O8 0.856828 0.537311 0.125712
O O9 0.500000 0.500000 0.000000
O O10 0.781891 0.413324 0.084242
O O11 0.593740 0.377030 0.529774
O O12 0.378016 0.292976 0.441100
O O13 0.046537 0.355552 0.610304
O O14 0.500000 0.388020 0.750000
O O15 0.395716 0.784808 0.406717
O O16 0.000000 0.801269 0.250000
O O17 0.877041 0.797895 0.479844
#
# Coordination Sequence:
#
# PCOD9232460 Si02
#       7
#     4   4   4   4   4   4   4
#     4  10  21  38  59  89 118 148 200 253 298 367
#     4  10  21  38  59  83 118 159 194 243 306 362
#     4   9  20  39  63  92 127 166 210 265 328 393
#     4  11  21  37  59  86 118 160 208 257 312 377
#     4  10  21  37  58  86 120 157 201 258 321 381
#     4  10  21  38  58  82 119 163 199 247 310 364
#     4  10  22  37  56  84 119 155 204 253 298 362
#
# _framework density 23.454453999999998
#
# number of rings (size 3 to 8) (size 9 to 14) (size 15 to 20)
#    0.000    2.000    0.000    3.000    0.000    4.000 
#    0.000    7.143    0.000    6.857    0.000    0.000 
#    0.000    0.000    0.000    0.000    0.000    0.000 
#
# Total GULP energy -155874.024766 kJ/mol
# GULP energy per Si atom -5566.929456 kJ/mol
# Density = 2.340107 g / cm^3
# Si number density = 23.454454 Si / 1000 Ang^3
#
#
#
# Elastic Constant Matrix: (Units=GPa)
#
#
# Indices 1 2 3 4 5 6 
#
# 1 123.4996 5.3307 8.1305 0.0000 -3.4927 0.0000
# 2 5.3307 128.3143 -0.5356 0.0000 -18.2520 0.0000
# 3 8.1305 -0.5356 58.5352 0.0000 8.0548 0.0000
# 4 0.0000 0.0000 0.0000 2.7186 0.0000 -3.3492
# 5 -3.4927 -18.2520 8.0548 0.0000 27.3023 0.0000
# 6 0.0000 0.0000 0.0000 -3.3492 0.0000 18.2451
#
#
#
# Elastic Compliance Matrix: (Units=1/GPa)
#
#
# Indices 1 2 3 4 5 6 
#
# 1 0.008229 -0.000157 -0.001329 0.000000 0.001340 0.000000
# 2 -0.000157 0.008646 -0.000721 0.000000 0.005973 0.000000
# 3 -0.001329 -0.000721 0.018086 0.000000 -0.005988 0.000000
# 4 0.000000 0.000000 0.000000 0.475328 0.000000 0.087254
# 5 0.001340 0.005973 -0.005988 0.000000 0.042558 0.000000
# 6 0.000000 0.000000 0.000000 0.087254 0.000000 0.070826
#
#
# Mechanical properties :
#
#
# Convention : Reuss Voigt Hill
#
# Bulk Modulus (GPa) = 32.73530 37.35559 35.04544
# Shear Modulus (GPa) = 7.83368 29.48143 18.65755
#
# Velocity S-wave (km/s) = 1.82954 3.54922 2.82349
# Velocity P-wave (km/s) = 4.29537 5.72340 5.06002
#
# Compressibility (1/GPa) = 0.03054807
#
# Stress axis : x y z
#
# Youngs Moduli (GPa) = 121.51645 115.65381 55.29245
#
# Poissons Ratio (x) = 0.01814 0.07348
# Poissons Ratio (y) = 0.01906 0.03987
# Poissons Ratio (z) = 0.16148 0.08339
#
# Static dielectric constant tensor:
#      x y z
#    x 1.882010 0.000000 0.013990 
#    y 0.000000 1.979110 0.000000 
#    z 0.013990 0.000000 2.042700 
# 
# From -- ./inp_files/26709.got.cif
#   From: 2010.05.17/outbox.cif.g08.bks.cpg/sg13_14_cif.got.tgz:26709.got - 2010.06.03 16:44:36.
