data_PCOD9232954
_publ_section_title
;
Structure prediction by ZEFSAII (Michael W. Deem and Ramdas Pophale) SiO2 
 PCOD9232954
Probable space group: P 2/C
;
_chemical_formula_sum "Si O2"
_cell_formula_units_Z 18
_cell_length_a 6.182590
_cell_length_b 5.290570
_cell_length_c 21.875864
_cell_angle_alpha 90.000000
_cell_angle_beta 85.085925
_cell_angle_gamma 90.000000
_cell_volume 712.916789
_symmetry_space_group_name_H-M "P 2/C"
_symmetry_group_IT_number 13
_symmetry_cell_setting 'monoclinic'
loop_
_space_group_symop_operation_xyz
x,y,z
-x,y,1/2-z
-x,-y,-z
x,-y,1/2+z
loop_
_atom_site_type_symbol
_atom_site_label
_atom_site_fract_x
_atom_site_fract_y
_atom_site_fract_z
Si Si1 0.652153 0.446384 0.197982
Si Si2 0.000000 0.101189 0.250000
Si Si3 0.809414 0.703969 0.017253
Si Si4 0.409296 0.590821 0.589346
Si Si5 0.982011 0.208608 0.871720
O O1 0.500000 0.590523 0.250000
O O2 0.511653 0.309011 0.149264
O O3 0.793528 0.260533 0.234777
O O4 0.823961 0.620793 0.160073
O O5 0.064769 0.965370 0.185071
O O6 0.608436 0.552353 0.051915
O O7 0.911690 0.887833 0.066324
O O8 0.704151 0.785922 0.954931
O O9 0.000000 0.500000 0.000000
O O10 0.224762 0.384846 0.609777
#
# Coordination Sequence:
#
# PCOD9232954 Si02
#       5
#     4   2   4   4   4
#     4  11  23  38  57  82 116 153 190 235 281 335
#     4  12  24  36  54  86 118 150 192 232 278 336
#     4   8  16  32  60  88 109 143 188 233 285 338
#     4   9  17  35  61  84 110 148 189 233 285 336
#     4  10  21  39  60  84 116 151 189 234 284 338
#
# _framework density 25.248387000000001
#
# number of rings (size 3 to 8) (size 9 to 14) (size 15 to 20)
#    0.000    2.222    0.000    3.333    0.000    4.444 
#    0.000    1.111    0.000   54.667    0.000    0.000 
#    0.000    0.000    0.000    0.000    0.000    0.000 
#
# Total GULP energy -100562.192821 kJ/mol
# GULP energy per Si atom -5586.788490 kJ/mol
# Density = 2.519092 g / cm^3
# Si number density = 25.248387 Si / 1000 Ang^3
#
#
#
# Elastic Constant Matrix: (Units=GPa)
#
#
# Indices 1 2 3 4 5 6 
#
# 1 172.3396 21.4971 74.1778 0.0000 1.9185 0.0000
# 2 21.4971 15.3393 8.8033 0.0000 14.8160 0.0000
# 3 74.1778 8.8033 142.0357 0.0000 58.2742 0.0000
# 4 0.0000 0.0000 0.0000 -337.5330 0.0000 -187.6103
# 5 1.9185 14.8160 58.2742 0.0000 97.3617 0.0000
# 6 0.0000 0.0000 0.0000 -187.6103 0.0000 -80.6372
#
#
#
# Elastic Compliance Matrix: (Units=1/GPa)
#
#
# Indices 1 2 3 4 5 6 
#
# 1 0.011361 -0.018450 -0.007754 0.000000 0.007225 0.000000
# 2 -0.018450 0.106387 0.012638 0.000000 -0.023390 0.000000
# 3 -0.007754 0.012638 0.014624 0.000000 -0.010523 0.000000
# 4 0.000000 0.000000 0.000000 0.010105 0.000000 -0.023510
# 5 0.007225 -0.023390 -0.010523 0.000000 0.019987 0.000000
# 6 0.000000 0.000000 0.000000 -0.023510 0.000000 0.042298
#
#
# Mechanical properties :
#
#
# Convention : Reuss Voigt Hill
#
# Bulk Modulus (GPa) = 9.50196 59.85233 34.67715
# Shear Modulus (GPa) = 18.72849 -49.14593 -15.20872
#
# Velocity S-wave (km/s) = 2.72650 -4.41670 -2.45697
# Velocity P-wave (km/s) = 3.69909 1.50093 2.39066
#
# Compressibility (1/GPa) = 0.10524142
#
# Stress axis : x y z
#
# Youngs Moduli (GPa) = 88.02237 9.39961 68.38043
#
# Poissons Ratio (x) = 0.17342 0.53020
# Poissons Ratio (y) = 1.62398 -0.86419
# Poissons Ratio (z) = 0.68250 -0.11879
#
# Static dielectric constant tensor:
#      x y z
#    x 1.987740 0.000000 -0.016190 
#    y 0.000000 1.997260 0.000000 
#    z -0.016190 0.000000 2.169280 
# 
# From -- ./inp_files/83019.got.cif
#   From: 2010.05.17/outbox.cif.g08.bks.cpg/sg13_42_cif.got.tgz:83019.got - 2010.06.03 16:44:36.
