data_PCOD9232385
_publ_section_title
;
Structure prediction by ZEFSAII (Michael W. Deem and Ramdas Pophale) SiO2 
 PCOD9232385
Probable space group: P 2/C
;
_chemical_formula_sum "Si O2"
_cell_formula_units_Z 30
_cell_length_a 11.533617
_cell_length_b 11.582633
_cell_length_c 13.736407
_cell_angle_alpha 90.000000
_cell_angle_beta 125.862839
_cell_angle_gamma 90.000000
_cell_volume 1487.157878
_symmetry_space_group_name_H-M "P 2/C"
_symmetry_group_IT_number 13
_symmetry_cell_setting 'monoclinic'
loop_
_space_group_symop_operation_xyz
x,y,z
-x,y,1/2-z
-x,-y,-z
x,-y,1/2+z
loop_
_atom_site_type_symbol
_atom_site_label
_atom_site_fract_x
_atom_site_fract_y
_atom_site_fract_z
Si Si1 0.800654 0.142736 0.533142
Si Si2 0.519636 0.144561 0.150322
Si Si3 0.052017 0.884362 0.581071
Si Si4 0.123041 0.706630 0.893094
Si Si5 0.000000 0.690139 0.250000
Si Si6 0.738062 0.522383 0.104147
Si Si7 0.236076 0.077917 0.357810
Si Si8 0.532108 0.593242 0.656318
O O1 0.635434 0.167763 0.472551
O O2 0.820705 0.152177 0.427718
O O3 0.926152 0.223197 0.636561
O O4 0.808276 0.016134 0.584826
O O5 0.500000 0.095786 0.250000
O O6 0.617348 0.065530 0.129997
O O7 0.581006 0.273768 0.189306
O O8 0.115041 0.918933 0.715785
O O9 0.947281 0.775333 0.550007
O O10 0.000000 0.000000 0.500000
O O11 0.192218 0.580249 0.927310
O O12 0.239062 0.798103 0.911205
O O13 0.000000 0.698231 0.750000
O O14 0.864885 0.606202 0.203352
O O15 0.655324 0.471472 0.156872
O O16 0.614554 0.580011 0.977541
O O17 0.500000 0.550706 0.750000
#
# Coordination Sequence:
#
# PCOD9232385 Si02
#       8
#     4   4   4   4   2   4   4   4
#     4  12  24  41  63  94 134 168 210 274 329 396
#     4  11  21  40  65  94 124 169 221 263 321 395
#     4  11  22  39  62  94 130 167 213 267 326 392
#     4  10  21  36  63  92 119 168 207 260 322 386
#     4  12  26  42  64 100 130 174 210 272 348 384
#     4  11  22  44  66  91 136 166 219 276 327 395
#     4  11  22  40  64  90 128 169 217 260 328 386
#     4  10  23  41  67  92 126 176 220 270 325 391
#
# _framework density 20.172706999999999
#
# number of rings (size 3 to 8) (size 9 to 14) (size 15 to 20)
#    0.000    1.067    6.000    1.200    0.933    1.067 
#    0.000    1.333    0.000    1.600    0.000    0.000 
#    0.000    0.000    0.000    0.000    0.000    0.000 
#
# Total GULP energy -167127.111849 kJ/mol
# GULP energy per Si atom -5570.903728 kJ/mol
# Density = 2.012679 g / cm^3
# Si number density = 20.172707 Si / 1000 Ang^3
#
#
#
# Elastic Constant Matrix: (Units=GPa)
#
#
# Indices 1 2 3 4 5 6 
#
# 1 122.7751 21.4837 20.3874 0.0000 -1.0051 0.0000
# 2 21.4837 79.2116 9.6060 0.0000 2.8933 0.0000
# 3 20.3874 9.6060 54.9732 0.0000 7.2893 0.0000
# 4 0.0000 0.0000 0.0000 27.2749 0.0000 9.6691
# 5 -1.0051 2.8933 7.2893 0.0000 34.9623 0.0000
# 6 0.0000 0.0000 0.0000 9.6691 0.0000 11.2486
#
#
#
# Elastic Compliance Matrix: (Units=1/GPa)
#
#
# Indices 1 2 3 4 5 6 
#
# 1 0.009043 -0.002113 -0.003129 0.000000 0.001087 0.000000
# 2 -0.002113 0.013404 -0.001443 0.000000 -0.000869 0.000000
# 3 -0.003129 -0.001443 0.020156 0.000000 -0.004173 0.000000
# 4 0.000000 0.000000 0.000000 0.052733 0.000000 -0.045328
# 5 0.001087 -0.000869 -0.004173 0.000000 0.029575 0.000000
# 6 0.000000 0.000000 0.000000 -0.045328 0.000000 0.127863
#
#
# Mechanical properties :
#
#
# Convention : Reuss Voigt Hill
#
# Bulk Modulus (GPa) = 34.20694 39.99046 37.09870
# Shear Modulus (GPa) = 18.12318 28.39604 23.25961
#
# Velocity S-wave (km/s) = 3.00059 3.75593 3.39930
# Velocity P-wave (km/s) = 5.38503 6.21904 5.81700
#
# Compressibility (1/GPa) = 0.02923383
#
# Stress axis : x y z
#
# Youngs Moduli (GPa) = 110.58101 74.60308 49.61179
#
# Poissons Ratio (x) = 0.15763 0.15522
# Poissons Ratio (y) = 0.23365 0.07161
# Poissons Ratio (z) = 0.34597 0.10768
#
# Static dielectric constant tensor:
#      x y z
#    x 1.769410 0.000000 0.024560 
#    y 0.000000 1.754100 0.000000 
#    z 0.024560 0.000000 1.721110 
# 
# From -- ./inp_files/51198.got.cif
#   From: 2010.05.17/outbox.cif.g08.bks.cpg/sg13_26_cif.got.tgz:51198.got - 2010.06.03 16:44:36.
