data_PCOD9232256
_publ_section_title
;
Structure prediction by ZEFSAII (Michael W. Deem and Ramdas Pophale) SiO2 
 PCOD9232256
Probable space group: P 2/C
;
_chemical_formula_sum "Si O2"
_cell_formula_units_Z 26
_cell_length_a 15.024293
_cell_length_b 6.693139
_cell_length_c 17.287554
_cell_angle_alpha 90.000000
_cell_angle_beta 56.371380
_cell_angle_gamma 90.000000
_cell_volume 1447.495312
_symmetry_space_group_name_H-M "P 2/C"
_symmetry_group_IT_number 13
_symmetry_cell_setting 'monoclinic'
loop_
_space_group_symop_operation_xyz
x,y,z
-x,y,1/2-z
-x,-y,-z
x,-y,1/2+z
loop_
_atom_site_type_symbol
_atom_site_label
_atom_site_fract_x
_atom_site_fract_y
_atom_site_fract_z
Si Si1 0.911092 0.037456 0.705572
Si Si2 0.000000 0.413965 0.750000
Si Si3 0.502802 0.958537 0.408151
Si Si4 0.295894 0.955358 0.292791
Si Si5 0.398846 0.711497 0.846964
Si Si6 0.322651 0.304887 0.929295
Si Si7 0.117265 0.791720 0.626753
O O1 0.823733 0.041723 0.681130
O O2 0.941273 0.260122 0.720043
O O3 0.865202 0.915231 0.802047
O O4 0.019487 0.914339 0.634525
O O5 0.077989 0.568860 0.668373
O O6 0.621535 0.931261 0.317653
O O7 0.429532 0.771595 0.419845
O O8 0.500000 0.000000 0.500000
O O9 0.449110 0.140234 0.386151
O O10 0.316771 0.783973 0.345812
O O11 0.328750 0.157006 0.321945
O O12 0.500000 0.625691 0.750000
O O13 0.329333 0.541489 0.919440
O O14 0.221532 0.223377 0.024908
#
# Coordination Sequence:
#
# PCOD9232256 Si02
#       7
#     4   2   4   4   4   4   4
#     4   9  19  38  58  77 107 141 178 224 264 304
#     4   8  18  36  56  76 104 140 178 220 266 308
#     4  10  21  37  57  81 105 138 182 220 261 315
#     4  10  21  36  55  79 109 142 177 217 265 318
#     4   9  20  37  53  76 111 142 171 214 265 318
#     4  11  21  35  55  79 110 142 174 217 268 317
#     4   9  20  35  54  81 106 137 183 221 258 315
#
# _framework density 17.962060999999999
#
# number of rings (size 3 to 8) (size 9 to 14) (size 15 to 20)
#    0.000    2.769    0.000    3.231    0.000    9.846 
#    0.000    1.538    0.000    0.000    0.000    0.000 
#    0.000    0.000    0.000    0.000    0.000    0.000 
#
# Total GULP energy -144986.098879 kJ/mol
# GULP energy per Si atom -5576.388418 kJ/mol
# Density = 1.792118 g / cm^3
# Si number density = 17.962061 Si / 1000 Ang^3
#
#
#
# Elastic Constant Matrix: (Units=GPa)
#
#
# Indices 1 2 3 4 5 6 
#
# 1 87.4277 9.3694 -17.1077 0.0000 12.7159 0.0000
# 2 9.3694 77.5124 -0.7199 0.0000 -1.9951 0.0000
# 3 -17.1077 -0.7199 36.2905 0.0000 6.3934 0.0000
# 4 0.0000 0.0000 0.0000 12.1087 0.0000 -6.6562
# 5 12.7159 -1.9951 6.3934 0.0000 22.2049 0.0000
# 6 0.0000 0.0000 0.0000 -6.6562 0.0000 6.0271
#
#
#
# Elastic Compliance Matrix: (Units=1/GPa)
#
#
# Indices 1 2 3 4 5 6 
#
# 1 0.015101 -0.002036 0.009096 0.000000 -0.011450 0.000000
# 2 -0.002036 0.013206 -0.001171 0.000000 0.002690 0.000000
# 3 0.009096 -0.001171 0.034506 0.000000 -0.015249 0.000000
# 4 0.000000 0.000000 0.000000 0.210182 0.000000 0.232121
# 5 -0.011450 0.002690 -0.015249 0.000000 0.056224 0.000000
# 6 0.000000 0.000000 0.000000 0.232121 0.000000 0.422267
#
#
# Mechanical properties :
#
#
# Convention : Reuss Voigt Hill
#
# Bulk Modulus (GPa) = 13.40654 20.47935 16.94294
# Shear Modulus (GPa) = 6.53960 22.04739 14.29349
#
# Velocity S-wave (km/s) = 1.91015 3.50729 2.82398
# Velocity P-wave (km/s) = 3.51354 5.27519 4.48177
#
# Compressibility (1/GPa) = 0.07459045
#
# Stress axis : x y z
#
# Youngs Moduli (GPa) = 66.21955 75.72562 28.98007
#
# Poissons Ratio (x) = 0.15415 -0.26359
# Poissons Ratio (y) = 0.13480 0.03395
# Poissons Ratio (z) = -0.60231 0.08871
#
# Static dielectric constant tensor:
#      x y z
#    x 1.597220 0.000000 -0.015170 
#    y 0.000000 1.610110 0.000000 
#    z -0.015170 0.000000 1.617610 
# 
# From -- ./inp_files/67288.got.cif
#   From: 2010.05.17/outbox.cif.g08.bks.cpg/sg13_34_cif.got.tgz:67288.got - 2010.06.03 16:44:36.
