data_PCOD9232704
_publ_section_title
;
Structure prediction by ZEFSAII (Michael W. Deem and Ramdas Pophale) SiO2 
 PCOD9232704
Probable space group: P 2/C
;
_chemical_formula_sum "Si O2"
_cell_formula_units_Z 28
_cell_length_a 7.696921
_cell_length_b 16.659242
_cell_length_c 19.059971
_cell_angle_alpha 90.000000
_cell_angle_beta 31.967387
_cell_angle_gamma 90.000000
_cell_volume 1293.922761
_symmetry_space_group_name_H-M "P 2/C"
_symmetry_group_IT_number 13
_symmetry_cell_setting 'monoclinic'
loop_
_space_group_symop_operation_xyz
x,y,z
-x,y,1/2-z
-x,-y,-z
x,-y,1/2+z
loop_
_atom_site_type_symbol
_atom_site_label
_atom_site_fract_x
_atom_site_fract_y
_atom_site_fract_z
Si Si1 0.454926 0.658731 0.186350
Si Si2 0.829107 0.251223 0.457377
Si Si3 0.781670 0.251350 0.937645
Si Si4 0.890619 0.906770 0.120316
Si Si5 0.309348 0.663185 0.698493
Si Si6 0.388641 0.508278 0.118568
Si Si7 0.886714 0.085726 0.117108
O O1 0.500000 0.630970 0.250000
O O2 0.528236 0.586266 0.108483
O O3 0.085932 0.692769 0.311351
O O4 0.708731 0.728436 0.076990
O O5 0.499667 0.261642 0.524341
O O6 0.131116 0.307796 0.330108
O O7 0.939442 0.160463 0.406558
O O8 0.925202 0.162381 0.899879
O O9 0.595949 0.279383 0.072188
O O10 0.500000 0.892600 0.250000
O O11 0.953043 0.997623 0.126010
O O12 0.008531 0.909955 0.999777
O O13 0.444298 0.572931 0.644019
O O14 0.000000 0.667245 0.750000
O O15 0.000000 0.519849 0.250000
O O16 0.500000 0.500000 0.000000
O O17 0.500000 0.098094 0.250000
#
# Coordination Sequence:
#
# PCOD9232704 Si02
#       7
#     4   4   4   4   4   4   4
#     4  12  25  40  60  90 126 162 204 256 316 372
#     4  11  22  38  62  90 119 160 208 252 305 365
#     4  11  21  38  63  89 120 158 207 256 301 364
#     4  10  21  38  59  85 120 161 201 246 305 364
#     4   9  20  37  59  87 116 151 195 248 303 354
#     4  11  21  41  66  86 118 161 205 251 307 367
#     4  10  21  38  59  85 121 161 198 245 308 367
#
# _framework density 21.639621999999999
#
# number of rings (size 3 to 8) (size 9 to 14) (size 15 to 20)
#    0.000    1.429    0.000    7.714    0.000    0.571 
#    0.000    8.571    0.000    8.571    0.000    0.000 
#    0.000    0.000    0.000    0.000    0.000    0.000 
#
# Total GULP energy -156501.446176 kJ/mol
# GULP energy per Si atom -5589.337363 kJ/mol
# Density = 2.159037 g / cm^3
# Si number density = 21.639622 Si / 1000 Ang^3
#
#
#
# Elastic Constant Matrix: (Units=GPa)
#
#
# Indices 1 2 3 4 5 6 
#
# 1 42.8336 35.5624 23.4393 0.0000 3.6837 0.0000
# 2 35.5624 151.3648 50.7243 0.0000 -5.9441 0.0000
# 3 23.4393 50.7243 161.8481 0.0000 4.3865 0.0000
# 4 0.0000 0.0000 0.0000 31.3646 0.0000 0.8245
# 5 3.6837 -5.9441 4.3865 0.0000 25.8172 0.0000
# 6 0.0000 0.0000 0.0000 0.8245 0.0000 29.1536
#
#
#
# Elastic Compliance Matrix: (Units=1/GPa)
#
#
# Indices 1 2 3 4 5 6 
#
# 1 0.030548 -0.006661 -0.002187 0.000000 -0.005521 0.000000
# 2 -0.006661 0.008950 -0.001931 0.000000 0.003339 0.000000
# 3 -0.002187 -0.001931 0.007137 0.000000 -0.001345 0.000000
# 4 0.000000 0.000000 0.000000 0.031907 0.000000 -0.000902
# 5 -0.005521 0.003339 -0.001345 0.000000 0.040519 0.000000
# 6 0.000000 0.000000 0.000000 -0.000902 0.000000 0.034327
#
#
# Mechanical properties :
#
#
# Convention : Reuss Voigt Hill
#
# Bulk Modulus (GPa) = 39.87662 63.94429 51.91046
# Shear Modulus (GPa) = 27.27722 33.68844 30.48283
#
# Velocity S-wave (km/s) = 3.55423 3.94990 3.75728
# Velocity P-wave (km/s) = 5.94231 7.10043 6.54703
#
# Compressibility (1/GPa) = 0.02507735
#
# Stress axis : x y z
#
# Youngs Moduli (GPa) = 32.73543 111.73595 140.11721
#
# Poissons Ratio (x) = 0.74428 0.30641
# Poissons Ratio (y) = 0.21805 0.27053
# Poissons Ratio (z) = 0.07159 0.21573
#
# Static dielectric constant tensor:
#      x y z
#    x 1.777990 0.000000 0.015770 
#    y 0.000000 1.856490 0.000000 
#    z 0.015770 0.000000 1.754070 
# 
# From -- ./inp_files/76696.got.cif
#   From: 2010.05.17/outbox.cif.g08.bks.cpg/sg13_39_cif.got.tgz:76696.got - 2010.06.03 16:44:36.
