data_PCOD9232648
_publ_section_title
;
Structure prediction by ZEFSAII (Michael W. Deem and Ramdas Pophale) SiO2 
 PCOD9232648
Probable space group: P 2/C
;
_chemical_formula_sum "Si O2"
_cell_formula_units_Z 32
_cell_length_a 17.496924
_cell_length_b 14.838768
_cell_length_c 10.430196
_cell_angle_alpha 90.000000
_cell_angle_beta 34.783238
_cell_angle_gamma 90.000000
_cell_volume 1544.853687
_symmetry_space_group_name_H-M "P 2/C"
_symmetry_group_IT_number 13
_symmetry_cell_setting 'monoclinic'
loop_
_space_group_symop_operation_xyz
x,y,z
-x,y,1/2-z
-x,-y,-z
x,-y,1/2+z
loop_
_atom_site_type_symbol
_atom_site_label
_atom_site_fract_x
_atom_site_fract_y
_atom_site_fract_z
Si Si1 0.803996 0.404766 0.427798
Si Si2 0.261779 0.755115 0.100404
Si Si3 0.631095 0.575317 0.937814
Si Si4 0.019786 0.764053 0.866620
Si Si5 0.399740 0.373543 0.579867
Si Si6 0.816936 0.939678 0.390441
Si Si7 0.150152 0.396322 0.571552
Si Si8 0.866440 0.086163 0.118982
O O1 0.674875 0.392765 0.515407
O O2 0.918457 0.334734 0.236636
O O3 0.741804 0.384166 0.651798
O O4 0.851401 0.508035 0.352267
O O5 0.382409 0.712249 0.014375
O O6 0.271896 0.855226 0.032575
O O7 0.227335 0.681135 0.040336
O O8 0.126555 0.760223 0.371385
O O9 0.583307 0.471273 0.010098
O O10 0.767928 0.581978 0.668809
O O11 0.522539 0.630955 0.008258
O O12 0.118529 0.817646 0.827869
O O13 0.000000 0.805476 0.750000
O O14 0.805376 0.936622 0.562046
O O15 0.794577 0.025228 0.327565
O O16 0.975009 0.927319 0.134687
O O17 0.000000 0.366311 0.750000
#
# Coordination Sequence:
#
# PCOD9232648 Si02
#       8
#     4   4   4   4   4   4   4   4
#     4  11  21  36  55  79 111 158 201 245 292 348
#     4  11  22  36  53  84 119 151 197 245 298 354
#     4  10  22  37  56  76 111 158 203 249 293 340
#     4  11  22  33  55  83 122 155 199 242 301 354
#     4  10  21  38  54  79 110 154 207 252 290 338
#     4   9  20  34  56  81 116 157 193 239 302 360
#     4  11  24  35  55  79 120 155 193 243 301 355
#     4   9  20  34  54  82 118 157 194 239 300 362
#
# _framework density 20.713936
#
# number of rings (size 3 to 8) (size 9 to 14) (size 15 to 20)
#    0.000    1.750    2.500    1.500   12.250    1.500 
#    0.000    0.000    0.000    0.000    0.000    0.875 
#    3.750    0.000    0.000    0.000    0.000    0.000 
#
# Total GULP energy -178339.898165 kJ/mol
# GULP energy per Si atom -5573.121818 kJ/mol
# Density = 2.066679 g / cm^3
# Si number density = 20.713936 Si / 1000 Ang^3
#
#
#
# Elastic Constant Matrix: (Units=GPa)
#
#
# Indices 1 2 3 4 5 6 
#
# 1 97.7606 33.4123 7.3359 0.0000 1.1642 0.0000
# 2 33.4123 86.9744 0.9384 0.0000 6.2651 0.0000
# 3 7.3359 0.9384 31.7052 0.0000 19.0017 0.0000
# 4 0.0000 0.0000 0.0000 8.9093 0.0000 -3.2851
# 5 1.1642 6.2651 19.0017 0.0000 30.3766 0.0000
# 6 0.0000 0.0000 0.0000 -3.2851 0.0000 25.6917
#
#
#
# Elastic Compliance Matrix: (Units=1/GPa)
#
#
# Indices 1 2 3 4 5 6 
#
# 1 0.012222 -0.004899 -0.004812 0.000000 0.003552 0.000000
# 2 -0.004899 0.013696 0.003693 0.000000 -0.004947 0.000000
# 3 -0.004812 0.003693 0.052616 0.000000 -0.033491 0.000000
# 4 0.000000 0.000000 0.000000 0.117796 0.000000 0.015062
# 5 0.003552 -0.004947 -0.033491 0.000000 0.054754 0.000000
# 6 0.000000 0.000000 0.000000 0.015062 0.000000 0.040849
#
#
# Mechanical properties :
#
#
# Convention : Reuss Voigt Hill
#
# Bulk Modulus (GPa) = 15.03771 33.31261 24.17516
# Shear Modulus (GPa) = 15.33101 24.64575 19.98838
#
# Velocity S-wave (km/s) = 2.72348 3.45311 3.10977
# Velocity P-wave (km/s) = 4.14310 5.65825 4.95888
#
# Compressibility (1/GPa) = 0.06649947
#
# Stress axis : x y z
#
# Youngs Moduli (GPa) = 81.81753 73.01244 19.00545
#
# Poissons Ratio (x) = 0.35771 0.09145
# Poissons Ratio (y) = 0.40085 -0.07019
# Poissons Ratio (z) = 0.39369 -0.26965
#
# Static dielectric constant tensor:
#      x y z
#    x 1.813510 0.000000 0.029800 
#    y 0.000000 1.762360 0.000000 
#    z 0.029800 0.000000 1.772710 
# 
# From -- ./inp_files/39467.got.cif
#   From: 2010.05.17/outbox.cif.g08.bks.cpg/sg13_20_cif.got.tgz:39467.got - 2010.06.03 16:44:36.
