data_PCOD9232893
_publ_section_title
;
Structure prediction by ZEFSAII (Michael W. Deem and Ramdas Pophale) SiO2 
 PCOD9232893
Probable space group: P 2/C
;
_chemical_formula_sum "Si O2"
_cell_formula_units_Z 26
_cell_length_a 10.751468
_cell_length_b 5.876373
_cell_length_c 19.721128
_cell_angle_alpha 90.000000
_cell_angle_beta 106.829915
_cell_angle_gamma 90.000000
_cell_volume 1192.606721
_symmetry_space_group_name_H-M "P 2/C"
_symmetry_group_IT_number 13
_symmetry_cell_setting 'monoclinic'
loop_
_space_group_symop_operation_xyz
x,y,z
-x,y,1/2-z
-x,-y,-z
x,-y,1/2+z
loop_
_atom_site_type_symbol
_atom_site_label
_atom_site_fract_x
_atom_site_fract_y
_atom_site_fract_z
Si Si1 0.479357 0.168620 0.595732
Si Si2 0.066093 0.891852 0.944457
Si Si3 0.500000 0.279326 0.750000
Si Si4 0.676306 0.844797 0.017424
Si Si5 0.781246 0.446881 0.794795
Si Si6 0.888106 0.059961 0.286983
Si Si7 0.789238 0.545684 0.451551
O O1 0.504530 0.142138 0.679685
O O2 0.602948 0.257721 0.571697
O O3 0.348251 0.317271 0.568272
O O4 0.437457 0.943456 0.548905
O O5 0.959990 0.917534 0.870187
O O6 0.205766 0.991238 0.940975
O O7 0.108890 0.649065 0.979950
O O8 0.000000 0.000000 0.000000
O O9 0.626305 0.435311 0.772519
O O10 0.752906 0.692844 0.976302
O O11 0.818175 0.691271 0.767333
O O12 0.831715 0.452012 0.880450
O O13 0.819492 0.191212 0.773891
O O14 0.000000 0.050011 0.250000
#
# Coordination Sequence:
#
# PCOD9232893 Si02
#       7
#     4   4   2   4   4   4   4
#     4   9  21  41  60 100 133 175 229 288 350 407
#     4  11  23  40  64  98 129 184 226 279 348 408
#     4  10  24  44  70  98 136 188 232 292 356 424
#     4  10  21  38  66  95 135 175 229 291 341 413
#     4  11  26  47  71 102 140 184 237 287 352 417
#     4  12  28  47  70 102 147 185 232 291 346 425
#     4  10  21  39  68  96 132 177 229 290 339 414
#
# _framework density 21.800982000000001
#
# number of rings (size 3 to 8) (size 9 to 14) (size 15 to 20)
#    0.000    1.538    1.538    1.846    8.615    3.077 
#    2.769    0.000    0.000    0.000    0.000    0.000 
#    0.000    0.000    0.000    0.000    0.000    0.000 
#
# Total GULP energy -144784.142390 kJ/mol
# GULP energy per Si atom -5568.620861 kJ/mol
# Density = 2.175136 g / cm^3
# Si number density = 21.800982 Si / 1000 Ang^3
#
#
#
# Elastic Constant Matrix: (Units=GPa)
#
#
# Indices 1 2 3 4 5 6 
#
# 1 94.2659 33.5487 30.2589 0.0000 -13.6630 0.0000
# 2 33.5487 95.1147 19.3255 0.0000 -10.8302 0.0000
# 3 30.2589 19.3255 65.4116 0.0000 0.9975 0.0000
# 4 0.0000 0.0000 0.0000 8.4082 0.0000 -6.4092
# 5 -13.6630 -10.8302 0.9975 0.0000 37.6671 0.0000
# 6 0.0000 0.0000 0.0000 -6.4092 0.0000 21.4764
#
#
#
# Elastic Compliance Matrix: (Units=1/GPa)
#
#
# Indices 1 2 3 4 5 6 
#
# 1 0.014261 -0.003384 -0.005664 0.000000 0.004350 0.000000
# 2 -0.003384 0.012415 -0.002139 0.000000 0.002399 0.000000
# 3 -0.005664 -0.002139 0.018588 0.000000 -0.003162 0.000000
# 4 0.000000 0.000000 0.000000 0.153952 0.000000 0.045944
# 5 0.004350 0.002399 -0.003162 0.000000 0.028900 0.000000
# 6 0.000000 0.000000 0.000000 0.045944 0.000000 0.060274
#
#
# Mechanical properties :
#
#
# Convention : Reuss Voigt Hill
#
# Bulk Modulus (GPa) = 43.68623 46.78429 45.23526
# Shear Modulus (GPa) = 15.70388 24.95429 20.32908
#
# Velocity S-wave (km/s) = 2.68681 3.38692 3.05697
# Velocity P-wave (km/s) = 5.45045 6.06641 5.76666
#
# Compressibility (1/GPa) = 0.02289051
#
# Stress axis : x y z
#
# Youngs Moduli (GPa) = 70.12054 80.54768 53.79829
#
# Poissons Ratio (x) = 0.27258 0.30469
# Poissons Ratio (y) = 0.23730 0.11508
# Poissons Ratio (z) = 0.39714 0.17230
#
# Static dielectric constant tensor:
#      x y z
#    x 2.350330 0.000000 0.048420 
#    y 0.000000 1.955810 0.000000 
#    z 0.048420 0.000000 1.764840 
# 
# From -- ./inp_files/77277.got.cif
#   From: 2010.05.17/outbox.cif.g08.bks.cpg/sg13_39_cif.got.tgz:77277.got - 2010.06.03 16:44:36.
