data_PCOD9232677
_publ_section_title
;
Structure prediction by ZEFSAII (Michael W. Deem and Ramdas Pophale) SiO2 
 PCOD9232677
Probable space group: P 2/C
;
_chemical_formula_sum "Si O2"
_cell_formula_units_Z 26
_cell_length_a 27.039191
_cell_length_b 7.667895
_cell_length_c 8.858985
_cell_angle_alpha 90.000000
_cell_angle_beta 140.309813
_cell_angle_gamma 90.000000
_cell_volume 1173.024914
_symmetry_space_group_name_H-M "P 2/C"
_symmetry_group_IT_number 13
_symmetry_cell_setting 'monoclinic'
loop_
_space_group_symop_operation_xyz
x,y,z
-x,y,1/2-z
-x,-y,-z
x,-y,1/2+z
loop_
_atom_site_type_symbol
_atom_site_label
_atom_site_fract_x
_atom_site_fract_y
_atom_site_fract_z
Si Si1 0.081273 0.393965 0.015541
Si Si2 0.177564 0.868405 0.372284
Si Si3 0.296081 0.166095 0.748730
Si Si4 0.608027 0.944677 0.746375
Si Si5 0.082248 0.992694 0.412732
Si Si6 0.185664 0.504922 0.005000
Si Si7 0.500000 0.102528 0.750000
O O1 0.082749 0.184815 0.011546
O O2 0.157201 0.464218 0.106541
O O3 0.000000 0.447313 0.750000
O O4 0.102960 0.447881 0.233769
O O5 0.101520 0.916147 0.294281
O O6 0.209182 0.682192 0.493692
O O7 0.237252 0.013733 0.563417
O O8 0.149266 0.885065 0.134829
O O9 0.250325 0.348502 0.632110
O O10 0.362245 0.116665 0.777499
O O11 0.326658 0.140351 0.992393
O O12 0.567819 0.823953 0.521604
O O13 0.547512 0.997671 0.735051
O O14 0.000000 0.078620 0.250000
#
# Coordination Sequence:
#
# PCOD9232677 Si02
#       7
#     4   4   4   4   4   4   2
#     4  10  22  41  59  82 116 170 223 275 321 368
#     4  11  23  38  57  84 120 163 202 261 320 367
#     4  11  22  39  58  97 127 162 198 254 306 372
#     4   9  19  35  68  95 135 158 201 244 295 363
#     4  10  21  38  58  81 112 159 222 273 320 369
#     4  11  25  38  60  84 124 162 211 268 318 377
#     4   8  16  38  64 108 122 162 206 234 280 374
#
# _framework density 22.164916999999999
#
# number of rings (size 3 to 8) (size 9 to 14) (size 15 to 20)
#    0.000    1.846    1.538    1.846    6.462    0.615 
#    0.000    0.000    0.000    0.000    0.000   75.385 
#    0.000    0.000    0.000    0.000    0.000    0.154 
#
# Total GULP energy -144824.459376 kJ/mol
# GULP energy per Si atom -5570.171514 kJ/mol
# Density = 2.211447 g / cm^3
# Si number density = 22.164917 Si / 1000 Ang^3
#
#
#
# Elastic Constant Matrix: (Units=GPa)
#
#
# Indices 1 2 3 4 5 6 
#
# 1 91.5551 42.4445 32.2264 0.0000 -3.1546 0.0000
# 2 42.4445 102.5712 30.3322 0.0000 1.8889 0.0000
# 3 32.2264 30.3322 141.1488 0.0000 -12.6999 0.0000
# 4 0.0000 0.0000 0.0000 17.8909 0.0000 -9.5602
# 5 -3.1546 1.8889 -12.6999 0.0000 37.4095 0.0000
# 6 0.0000 0.0000 0.0000 -9.5602 0.0000 11.4061
#
#
#
# Elastic Compliance Matrix: (Units=1/GPa)
#
#
# Indices 1 2 3 4 5 6 
#
# 1 0.014093 -0.005248 -0.002021 0.000000 0.000767 0.000000
# 2 -0.005248 0.012430 -0.001618 0.000000 -0.001620 0.000000
# 3 -0.002021 -0.001618 0.008134 0.000000 0.002673 0.000000
# 4 0.000000 0.000000 0.000000 0.101237 0.000000 0.084853
# 5 0.000767 -0.001620 0.002673 0.000000 0.027785 0.000000
# 6 0.000000 0.000000 0.000000 0.084853 0.000000 0.158793
#
#
# Mechanical properties :
#
#
# Convention : Reuss Voigt Hill
#
# Bulk Modulus (GPa) = 59.23526 60.58682 59.91104
# Shear Modulus (GPa) = 14.45609 28.69277 21.57443
#
# Velocity S-wave (km/s) = 2.55660 3.60184 3.12326
# Velocity P-wave (km/s) = 5.95800 6.68517 6.33203
#
# Compressibility (1/GPa) = 0.01688184
#
# Stress axis : x y z
#
# Youngs Moduli (GPa) = 70.95585 80.45312 122.93480
#
# Poissons Ratio (x) = 0.42225 0.24843
# Poissons Ratio (y) = 0.37241 0.19897
# Poissons Ratio (z) = 0.14339 0.13021
#
# Static dielectric constant tensor:
#      x y z
#    x 1.898060 0.000000 0.046490 
#    y 0.000000 1.784630 0.000000 
#    z 0.046490 0.000000 1.938830 
# 
# From -- ./inp_files/20927.got.cif
#   From: 2010.05.17/outbox.cif.g08.bks.cpg/sg13_11_cif.got.tgz:20927.got - 2010.06.03 16:44:36.
