data_PCOD9232140
_publ_section_title
;
Structure prediction by ZEFSAII (Michael W. Deem and Ramdas Pophale) SiO2 
 PCOD9232140
Probable space group: P 2/C
;
_chemical_formula_sum "Si O2"
_cell_formula_units_Z 30
_cell_length_a 15.378485
_cell_length_b 5.136815
_cell_length_c 19.984774
_cell_angle_alpha 90.000000
_cell_angle_beta 129.758702
_cell_angle_gamma 90.000000
_cell_volume 1213.637139
_symmetry_space_group_name_H-M "P 2/C"
_symmetry_group_IT_number 13
_symmetry_cell_setting 'monoclinic'
loop_
_space_group_symop_operation_xyz
x,y,z
-x,y,1/2-z
-x,-y,-z
x,-y,1/2+z
loop_
_atom_site_type_symbol
_atom_site_label
_atom_site_fract_x
_atom_site_fract_y
_atom_site_fract_z
Si Si1 0.321917 0.892710 0.427591
Si Si2 0.896144 0.563306 0.069007
Si Si3 0.312111 0.727684 0.672640
Si Si4 0.740697 0.062462 0.970015
Si Si5 0.500000 0.351512 0.750000
Si Si6 0.151128 0.425190 0.673204
Si Si7 0.626402 0.073756 0.693409
Si Si8 0.818511 0.610041 0.663485
O O1 0.216171 0.089662 0.361542
O O2 0.350376 0.004509 0.515394
O O3 0.395409 0.923807 0.396353
O O4 0.284303 0.590151 0.407065
O O5 0.828662 0.829790 0.028379
O O6 0.909353 0.479970 0.153488
O O7 0.018444 0.619880 0.097862
O O8 0.812374 0.327881 0.004914
O O9 0.305441 0.985716 0.625264
O O10 0.396069 0.534857 0.677596
O O11 0.193701 0.600772 0.632762
O O12 0.364259 0.785641 0.771457
O O13 0.541043 0.208792 0.703019
O O14 0.247323 0.200977 0.730737
O O15 0.156266 0.567858 0.747111
#
# Coordination Sequence:
#
# PCOD9232140 Si02
#       8
#     4   4   4   4   2   4   4   4
#     4   9  18  37  60  87 120 160 201 246 301 354
#     4  10  22  37  57  89 131 170 204 240 295 361
#     4  11  23  41  63  88 120 157 204 258 319 367
#     4  10  24  39  60  89 131 167 197 246 304 368
#     4  10  24  42  66  92 114 150 208 268 322 368
#     4  10  21  34  59  90 122 166 210 248 294 356
#     4  10  21  40  65  89 120 158 210 265 303 365
#     4   9  17  34  56  86 121 163 209 248 282 343
#
# _framework density 24.719083000000001
#
# number of rings (size 3 to 8) (size 9 to 14) (size 15 to 20)
#    0.000    2.133    1.333    0.800    5.600    1.067 
#    0.000    4.667    0.000    3.200    0.000    0.000 
#    0.000    0.000    0.000    0.000    0.000    0.000 
#
# Total GULP energy -167380.034407 kJ/mol
# GULP energy per Si atom -5579.334480 kJ/mol
# Density = 2.466282 g / cm^3
# Si number density = 24.719083 Si / 1000 Ang^3
#
#
#
# Elastic Constant Matrix: (Units=GPa)
#
#
# Indices 1 2 3 4 5 6 
#
# 1 188.2340 37.2374 37.9333 0.0000 -10.5530 0.0000
# 2 37.2374 102.2981 17.3073 0.0000 4.4167 0.0000
# 3 37.9333 17.3073 91.6866 0.0000 -27.4190 0.0000
# 4 0.0000 0.0000 0.0000 28.2125 0.0000 -16.5636
# 5 -10.5530 4.4167 -27.4190 0.0000 38.6836 0.0000
# 6 0.0000 0.0000 0.0000 -16.5636 0.0000 24.7341
#
#
#
# Elastic Compliance Matrix: (Units=1/GPa)
#
#
# Indices 1 2 3 4 5 6 
#
# 1 0.006125 -0.001903 -0.002044 0.000000 0.000440 0.000000
# 2 -0.001903 0.011007 -0.002311 0.000000 -0.003414 0.000000
# 3 -0.002044 -0.002311 0.015356 0.000000 0.010590 0.000000
# 4 0.000000 0.000000 0.000000 0.058410 0.000000 0.039115
# 5 0.000440 -0.003414 0.010590 0.000000 0.033867 0.000000
# 6 0.000000 0.000000 0.000000 0.039115 0.000000 0.066624
#
#
# Mechanical properties :
#
#
# Convention : Reuss Voigt Hill
#
# Bulk Modulus (GPa) = 50.07034 63.01941 56.54487
# Shear Modulus (GPa) = 23.74605 37.64209 30.69407
#
# Velocity S-wave (km/s) = 3.10278 3.90653 3.52762
# Velocity P-wave (km/s) = 5.75639 6.77478 6.28624
#
# Compressibility (1/GPa) = 0.01997190
#
# Stress axis : x y z
#
# Youngs Moduli (GPa) = 163.25286 90.85539 65.12296
#
# Poissons Ratio (x) = 0.17290 0.13308
# Poissons Ratio (y) = 0.31067 0.15052
# Poissons Ratio (z) = 0.33361 0.21000
#
# Static dielectric constant tensor:
#      x y z
#    x 1.992380 0.000000 -0.006940 
#    y 0.000000 1.924680 0.000000 
#    z -0.006940 0.000000 2.060490 
# 
# From -- ./inp_files/79362.got.cif
#   From: 2010.05.17/outbox.cif.g08.bks.cpg/sg13_40_cif.got.tgz:79362.got - 2010.06.03 16:44:36.
