data_PCOD9232528
_publ_section_title
;
Structure prediction by ZEFSAII (Michael W. Deem and Ramdas Pophale) SiO2 
 PCOD9232528
Probable space group: P 2/C
;
_chemical_formula_sum "Si O2"
_cell_formula_units_Z 32
_cell_length_a 25.578926
_cell_length_b 10.785911
_cell_length_c 11.680890
_cell_angle_alpha 90.000000
_cell_angle_beta 151.081469
_cell_angle_gamma 90.000000
_cell_volume 1558.369310
_symmetry_space_group_name_H-M "P 2/C"
_symmetry_group_IT_number 13
_symmetry_cell_setting 'monoclinic'
loop_
_space_group_symop_operation_xyz
x,y,z
-x,y,1/2-z
-x,-y,-z
x,-y,1/2+z
loop_
_atom_site_type_symbol
_atom_site_label
_atom_site_fract_x
_atom_site_fract_y
_atom_site_fract_z
Si Si1 0.353858 0.419050 0.325355
Si Si2 0.723295 0.286033 0.117635
Si Si3 0.062121 0.602404 0.479816
Si Si4 0.557035 0.808406 0.626508
Si Si5 0.733016 0.804801 0.160601
Si Si6 0.619337 0.957853 0.529592
Si Si7 0.142530 0.361720 0.763003
Si Si8 0.345610 0.694906 0.270301
O O1 0.331414 0.397487 0.416064
O O2 0.435075 0.314052 0.437539
O O3 0.391516 0.556908 0.372712
O O4 0.242090 0.388181 0.041695
O O5 0.850373 0.294875 0.387582
O O6 0.663729 0.164507 0.049853
O O7 0.712666 0.297509 0.962170
O O8 0.125203 0.487991 0.658129
O O9 0.000000 0.553906 0.250000
O O10 0.970094 0.654584 0.386886
O O11 0.598491 0.917283 0.622212
O O12 0.435585 0.802862 0.439600
O O13 0.632519 0.792014 0.880648
O O14 0.829261 0.755159 0.264174
O O15 0.727822 0.715327 0.259823
O O16 0.709751 0.939487 0.171670
O O17 0.500000 0.987874 0.250000
#
# Coordination Sequence:
#
# PCOD9232528 Si02
#       8
#     4   4   4   4   4   4   4   4
#     4  10  21  37  60  91 132 161 205 270 328 385
#     4  11  23  39  62  98 124 167 223 261 324 391
#     4  11  21  39  71  95 128 169 208 268 338 393
#     4  10  23  41  59  92 128 174 215 258 322 386
#     4  11  26  40  63  93 129 169 222 263 314 380
#     4  11  23  43  68  90 129 176 221 266 308 378
#     4  10  22  40  62  98 127 161 211 271 323 390
#     4  12  22  38  61  92 132 168 213 265 324 390
#
# _framework density 20.534285000000001
#
# number of rings (size 3 to 8) (size 9 to 14) (size 15 to 20)
#    0.000    1.250    3.750    2.250    3.500    1.000 
#    2.250    0.625    0.000    0.750    0.000    0.000 
#    0.000    0.000    0.000    0.000    0.000    0.000 
#
# Total GULP energy -178572.429594 kJ/mol
# GULP energy per Si atom -5580.388425 kJ/mol
# Density = 2.048755 g / cm^3
# Si number density = 20.534285 Si / 1000 Ang^3
#
#
#
# Elastic Constant Matrix: (Units=GPa)
#
#
# Indices 1 2 3 4 5 6 
#
# 1 111.4155 27.8918 13.2783 0.0000 -3.9301 0.0000
# 2 27.8918 95.0492 -3.3389 0.0000 14.7455 0.0000
# 3 13.2783 -3.3389 38.6405 0.0000 -2.2054 0.0000
# 4 0.0000 0.0000 0.0000 17.2074 0.0000 -0.3963
# 5 -3.9301 14.7455 -2.2054 0.0000 41.8464 0.0000
# 6 0.0000 0.0000 0.0000 -0.3963 0.0000 24.4492
#
#
#
# Elastic Compliance Matrix: (Units=1/GPa)
#
#
# Indices 1 2 3 4 5 6 
#
# 1 0.010365 -0.003484 -0.003749 0.000000 0.002004 0.000000
# 2 -0.003484 0.012322 0.002002 0.000000 -0.004563 0.000000
# 3 -0.003749 0.002002 0.027363 0.000000 0.000385 0.000000
# 4 0.000000 0.000000 0.000000 0.058136 0.000000 0.000942
# 5 0.002004 -0.004563 0.000385 0.000000 0.025713 0.000000
# 6 0.000000 0.000000 0.000000 0.000942 0.000000 0.040916
#
#
# Mechanical properties :
#
#
# Convention : Reuss Voigt Hill
#
# Bulk Modulus (GPa) = 25.26081 35.64083 30.45082
# Shear Modulus (GPa) = 25.19233 30.51887 27.85560
#
# Velocity S-wave (km/s) = 3.50643 3.85936 3.68712
# Velocity P-wave (km/s) = 5.35928 6.10360 5.74351
#
# Compressibility (1/GPa) = 0.03958701
#
# Stress axis : x y z
#
# Youngs Moduli (GPa) = 96.47826 81.15879 36.54620
#
# Poissons Ratio (x) = 0.28276 0.13699
# Poissons Ratio (y) = 0.33614 -0.07315
# Poissons Ratio (z) = 0.36165 -0.16244
#
# Static dielectric constant tensor:
#      x y z
#    x 1.762090 0.000000 -0.000450 
#    y 0.000000 1.757630 0.000000 
#    z -0.000450 0.000000 1.721910 
# 
# From -- ./inp_files/41877.got.cif
#   From: 2010.05.17/outbox.cif.g08.bks.cpg/sg13_21_cif.got.tgz:41877.got - 2010.06.03 16:44:36.
