data_PCOD9232884
_publ_section_title
;
Structure prediction by ZEFSAII (Michael W. Deem and Ramdas Pophale) SiO2 
 PCOD9232884
Probable space group: P 2/C
;
_chemical_formula_sum "Si O2"
_cell_formula_units_Z 26
_cell_length_a 9.238022
_cell_length_b 8.804757
_cell_length_c 18.364589
_cell_angle_alpha 90.000000
_cell_angle_beta 52.910232
_cell_angle_gamma 90.000000
_cell_volume 1191.550956
_symmetry_space_group_name_H-M "P 2/C"
_symmetry_group_IT_number 13
_symmetry_cell_setting 'monoclinic'
loop_
_space_group_symop_operation_xyz
x,y,z
-x,y,1/2-z
-x,-y,-z
x,-y,1/2+z
loop_
_atom_site_type_symbol
_atom_site_label
_atom_site_fract_x
_atom_site_fract_y
_atom_site_fract_z
Si Si1 0.715487 0.471183 0.598090
Si Si2 0.806037 0.692538 0.937712
Si Si3 0.193319 0.313849 0.292949
Si Si4 0.494648 0.700228 0.574195
Si Si5 0.227384 0.033824 0.513288
Si Si6 0.500000 0.239974 0.750000
Si Si7 0.177617 0.028773 0.858604
O O1 0.846943 0.368532 0.507337
O O2 0.758223 0.561215 0.659707
O O3 0.649479 0.596924 0.562025
O O4 0.563260 0.349167 0.666170
O O5 0.617939 0.638383 0.960153
O O6 0.983878 0.652195 0.837815
O O7 0.774074 0.873516 0.945341
O O8 0.341433 0.299811 0.184576
O O9 0.185515 0.143522 0.328186
O O10 0.603556 0.856081 0.524507
O O11 0.023976 0.097754 0.589666
O O12 0.224849 0.987725 0.429251
O O13 0.331783 0.134842 0.778391
#
# Coordination Sequence:
#
# PCOD9232884 Si02
#       7
#     4   4   4   4   4   2   4
#     4  12  24  40  63  95 127 167 213 259 320 380
#     4  11  25  42  64  95 134 168 209 264 325 378
#     4  11  23  42  69  95 122 171 220 262 309 383
#     4  12  23  42  64  96 131 171 210 263 322 379
#     4  10  21  39  65  93 123 166 216 256 321 382
#     4  12  22  38  64  96 122 156 216 272 304 364
#     4  10  21  38  65  95 119 163 218 271 309 362
#
# _framework density 21.820301000000001
#
# number of rings (size 3 to 8) (size 9 to 14) (size 15 to 20)
#    0.000    0.923    4.615    2.769    0.000    1.231 
#    0.000    0.000    0.000    0.000    0.000    0.000 
#    0.000    0.000    0.000    0.000    0.000    0.000 
#
# Total GULP energy -144967.386047 kJ/mol
# GULP energy per Si atom -5575.668694 kJ/mol
# Density = 2.177064 g / cm^3
# Si number density = 21.820301 Si / 1000 Ang^3
#
#
#
# Elastic Constant Matrix: (Units=GPa)
#
#
# Indices 1 2 3 4 5 6 
#
# 1 66.7619 29.5327 11.3790 0.0000 -11.5785 0.0000
# 2 29.5327 89.1214 38.3014 0.0000 -19.0786 0.0000
# 3 11.3790 38.3014 103.7759 0.0000 -17.1762 0.0000
# 4 0.0000 0.0000 0.0000 25.9135 0.0000 6.4411
# 5 -11.5785 -19.0786 -17.1762 0.0000 28.5166 0.0000
# 6 0.0000 0.0000 0.0000 6.4411 0.0000 -0.7367
#
#
#
# Elastic Compliance Matrix: (Units=1/GPa)
#
#
# Indices 1 2 3 4 5 6 
#
# 1 0.017947 -0.005364 0.000693 0.000000 0.004116 0.000000
# 2 -0.005364 0.016167 -0.004386 0.000000 0.005996 0.000000
# 3 0.000693 -0.004386 0.011929 0.000000 0.004532 0.000000
# 4 0.000000 0.000000 0.000000 0.012161 0.000000 0.106327
# 5 0.004116 0.005996 0.004532 0.000000 0.043480 0.000000
# 6 0.000000 0.000000 0.000000 0.106327 0.000000 -0.427767
#
#
# Mechanical properties :
#
#
# Convention : Reuss Voigt Hill
#
# Bulk Modulus (GPa) = 35.80541 46.45394 41.12968
# Shear Modulus (GPa) = -16.74150 22.76842 3.01346
#
# Velocity S-wave (km/s) = -2.77292 3.23375 1.17645
# Velocity P-wave (km/s) = 2.48852 5.93956 4.55363
#
# Compressibility (1/GPa) = 0.02792874
#
# Stress axis : x y z
#
# Youngs Moduli (GPa) = 55.71930 61.85482 83.82851
#
# Poissons Ratio (x) = 0.33179 -0.05810
# Poissons Ratio (y) = 0.29888 0.36769
# Poissons Ratio (z) = -0.03862 0.27131
#
# Static dielectric constant tensor:
#      x y z
#    x 1.826390 0.000000 -0.033760 
#    y 0.000000 1.820480 0.000000 
#    z -0.033760 0.000000 1.829760 
# 
# From -- ./inp_files/75906.got.cif
#   From: 2010.05.17/outbox.cif.g08.bks.cpg/sg13_38_cif.got.tgz:75906.got - 2010.06.03 16:44:36.
