data_PCOD9232259
_publ_section_title
;
Structure prediction by ZEFSAII (Michael W. Deem and Ramdas Pophale) SiO2 
 PCOD9232259
Probable space group: P 2/C
;
_chemical_formula_sum "Si O2"
_cell_formula_units_Z 28
_cell_length_a 7.295844
_cell_length_b 29.502280
_cell_length_c 8.243466
_cell_angle_alpha 90.000000
_cell_angle_beta 141.186624
_cell_angle_gamma 90.000000
_cell_volume 1112.141571
_symmetry_space_group_name_H-M "P 2/C"
_symmetry_group_IT_number 13
_symmetry_cell_setting 'monoclinic'
loop_
_space_group_symop_operation_xyz
x,y,z
-x,y,1/2-z
-x,-y,-z
x,-y,1/2+z
loop_
_atom_site_type_symbol
_atom_site_label
_atom_site_fract_x
_atom_site_fract_y
_atom_site_fract_z
Si Si1 0.786087 0.970093 0.246844
Si Si2 0.895822 0.413742 0.361067
Si Si3 0.386122 0.452165 0.856922
Si Si4 0.211643 0.167900 0.245222
Si Si5 0.661045 0.728762 0.686831
Si Si6 0.846159 0.320859 0.821034
Si Si7 0.302238 0.130747 0.759674
O O1 0.731700 0.922314 0.295067
O O2 0.000000 0.956354 0.250000
O O3 0.000000 0.000000 0.500000
O O4 0.500000 0.000000 0.000000
O O5 0.000000 0.424272 0.250000
O O6 0.037048 0.448192 0.589120
O O7 0.057623 0.367888 0.529016
O O8 0.545664 0.416296 0.089679
O O9 0.500000 0.445804 0.750000
O O10 0.500000 0.500000 0.000000
O O11 0.331157 0.218556 0.349527
O O12 0.491988 0.136047 0.443341
O O13 0.000000 0.155968 0.250000
O O14 0.997783 0.158449 0.947962
O O15 0.500000 0.724376 0.750000
O O16 0.483836 0.695465 0.443546
O O17 0.993070 0.714991 0.952261
O O18 0.000000 0.321488 0.750000
O O19 0.500000 0.150551 0.750000
#
# Coordination Sequence:
#
# PCOD9232259 Si02
#       7
#     4   4   4   4   4   4   4
#     4  12  25  42  65  94 127 166 211 259 314 376
#     4  10  21  37  55  80 112 144 183 234 284 338
#     4  10  21  36  55  80 110 143 183 229 282 340
#     4  10  21  37  58  85 117 154 196 243 298 358
#     4  10  21  37  57  82 114 149 191 241 289 345
#     4  10  21  37  57  82 111 149 191 233 286 346
#     4  10  21  38  59  85 119 157 199 249 301 359
#
# _framework density 25.176649000000001
#
# number of rings (size 3 to 8) (size 9 to 14) (size 15 to 20)
#    0.000    1.714    0.000    4.286    0.000    4.000 
#    0.000    1.429    0.000    0.000    0.000    0.000 
#    0.000    0.000    0.000    0.000    0.000    0.000 
#
# Total GULP energy -156336.543945 kJ/mol
# GULP energy per Si atom -5583.447998 kJ/mol
# Density = 2.511935 g / cm^3
# Si number density = 25.176649 Si / 1000 Ang^3
#
#
#
# Elastic Constant Matrix: (Units=GPa)
#
#
# Indices 1 2 3 4 5 6 
#
# 1 71.5302 -23.4614 23.7797 0.0000 1.0812 0.0000
# 2 -23.4614 118.2103 57.9929 0.0000 11.8385 0.0000
# 3 23.7797 57.9929 231.3221 0.0000 27.9522 0.0000
# 4 0.0000 0.0000 0.0000 48.0177 0.0000 2.6238
# 5 1.0812 11.8385 27.9522 0.0000 31.9897 0.0000
# 6 0.0000 0.0000 0.0000 2.6238 0.0000 23.5663
#
#
#
# Elastic Compliance Matrix: (Units=1/GPa)
#
#
# Indices 1 2 3 4 5 6 
#
# 1 0.016467 0.004662 -0.002891 0.000000 0.000244 0.000000
# 2 0.004662 0.011042 -0.003058 0.000000 -0.001572 0.000000
# 3 -0.002891 -0.003058 0.005857 0.000000 -0.003888 0.000000
# 4 0.000000 0.000000 0.000000 0.020953 0.000000 -0.002333
# 5 0.000244 -0.001572 -0.003888 0.000000 0.035231 0.000000
# 6 0.000000 0.000000 0.000000 -0.002333 0.000000 0.042693
#
#
# Mechanical properties :
#
#
# Convention : Reuss Voigt Hill
#
# Bulk Modulus (GPa) = 32.47575 59.74279 46.10927
# Shear Modulus (GPa) = 34.46375 44.89819 39.68097
#
# Velocity S-wave (km/s) = 3.70385 4.22753 3.97432
# Velocity P-wave (km/s) = 5.58735 6.90002 6.27809
#
# Compressibility (1/GPa) = 0.03079220
#
# Stress axis : x y z
#
# Youngs Moduli (GPa) = 60.72890 90.56118 170.74933
#
# Poissons Ratio (x) = -0.42220 0.49364
# Poissons Ratio (y) = -0.28312 0.52208
# Poissons Ratio (z) = 0.17557 0.27690
#
# Static dielectric constant tensor:
#      x y z
#    x 1.966700 0.000000 0.060220 
#    y 0.000000 1.962690 0.000000 
#    z 0.060220 0.000000 2.042200 
# 
# From -- ./inp_files/13961.got.cif
#   From: 2010.05.17/outbox.cif.g08.bks.cpg/sg13_7_cif.got.tgz:13961.got - 2010.06.03 16:44:36.
