data_PCOD9232464
_publ_section_title
;
Structure prediction by ZEFSAII (Michael W. Deem and Ramdas Pophale) SiO2 
 PCOD9232464
Probable space group: P 2/C
;
_chemical_formula_sum "Si O2"
_cell_formula_units_Z 18
_cell_length_a 10.696348
_cell_length_b 12.343035
_cell_length_c 10.114748
_cell_angle_alpha 90.000000
_cell_angle_beta 39.171736
_cell_angle_gamma 90.000000
_cell_volume 843.503623
_symmetry_space_group_name_H-M "P 2/C"
_symmetry_group_IT_number 13
_symmetry_cell_setting 'monoclinic'
loop_
_space_group_symop_operation_xyz
x,y,z
-x,y,1/2-z
-x,-y,-z
x,-y,1/2+z
loop_
_atom_site_type_symbol
_atom_site_label
_atom_site_fract_x
_atom_site_fract_y
_atom_site_fract_z
Si Si1 0.000000 0.344963 0.750000
Si Si2 0.951586 0.152360 0.608959
Si Si3 0.460029 0.777669 0.142271
Si Si4 0.573919 0.407355 0.038303
Si Si5 0.183712 0.937313 0.688467
O O1 0.043753 0.259027 0.597723
O O2 0.188649 0.411053 0.641091
O O3 0.768554 0.188491 0.668595
O O4 0.122466 0.092617 0.388307
O O5 0.835455 0.067734 0.800642
O O6 0.500000 0.719641 0.250000
O O7 0.482366 0.703079 0.994307
O O8 0.610578 0.879679 0.012945
O O9 0.500000 0.411748 0.250000
O O10 0.500000 0.500000 0.000000
O O11 0.000000 0.897044 0.750000
#
# Coordination Sequence:
#
# PCOD9232464 Si02
#       5
#     2   4   4   4   4
#     4  10  22  42  66  90 122 164 198 258 310 366
#     4  10  21  37  58  87 127 165 208 245 298 363
#     4  11  22  39  61  92 124 162 207 256 307 361
#     4  11  25  46  67  94 122 158 208 262 318 376
#     4  11  20  35  57  89 126 167 206 246 294 362
#
# _framework density 21.339563999999999
#
# number of rings (size 3 to 8) (size 9 to 14) (size 15 to 20)
#    0.000    1.333    3.333    2.667    0.000    0.889 
#    2.000    1.111    0.000    0.000    0.000    0.000 
#    0.000    0.000    0.000    0.000    0.000    0.000 
#
# Total GULP energy -100326.246975 kJ/mol
# GULP energy per Si atom -5573.680387 kJ/mol
# Density = 2.129099 g / cm^3
# Si number density = 21.339564 Si / 1000 Ang^3
#
#
#
# Elastic Constant Matrix: (Units=GPa)
#
#
# Indices 1 2 3 4 5 6 
#
# 1 139.7934 41.0547 30.2289 0.0000 -5.8093 0.0000
# 2 41.0547 65.9218 27.4125 0.0000 -5.6259 0.0000
# 3 30.2289 27.4125 51.0435 0.0000 14.2639 0.0000
# 4 0.0000 0.0000 0.0000 18.1476 0.0000 -3.9898
# 5 -5.8093 -5.6259 14.2639 0.0000 40.4230 0.0000
# 6 0.0000 0.0000 0.0000 -3.9898 0.0000 30.2921
#
#
#
# Elastic Compliance Matrix: (Units=1/GPa)
#
#
# Indices 1 2 3 4 5 6 
#
# 1 0.009259 -0.003919 -0.003991 0.000000 0.002194 0.000000
# 2 -0.003919 0.023231 -0.012094 0.000000 0.006938 0.000000
# 3 -0.003991 -0.012094 0.032262 0.000000 -0.013641 0.000000
# 4 0.000000 0.000000 0.000000 0.056747 0.000000 0.007474
# 5 0.002194 0.006938 -0.013641 0.000000 0.030833 0.000000
# 6 0.000000 0.000000 0.000000 0.007474 0.000000 0.033996
#
#
# Mechanical properties :
#
#
# Convention : Reuss Voigt Hill
#
# Bulk Modulus (GPa) = 40.41565 50.46120 45.43843
# Shear Modulus (GPa) = 21.31432 28.31004 24.81218
#
# Velocity S-wave (km/s) = 3.16384 3.64627 3.41358
# Velocity P-wave (km/s) = 5.68567 6.43624 6.07256
#
# Compressibility (1/GPa) = 0.02474289
#
# Stress axis : x y z
#
# Youngs Moduli (GPa) = 108.00724 43.04522 30.99650
#
# Poissons Ratio (x) = 0.16870 0.12372
# Poissons Ratio (y) = 0.42330 0.37487
# Poissons Ratio (z) = 0.43110 0.52058
#
# Static dielectric constant tensor:
#      x y z
#    x 1.859030 0.000000 0.060730 
#    y 0.000000 1.800920 0.000000 
#    z 0.060730 0.000000 1.789040 
# 
# From -- ./inp_files/33545.got.cif
#   From: 2010.05.17/outbox.cif.g08.bks.cpg/sg13_17_cif.got.tgz:33545.got - 2010.06.03 16:44:36.
