data_PCOD9232354
_publ_section_title
;
Structure prediction by ZEFSAII (Michael W. Deem and Ramdas Pophale) SiO2 
 PCOD9232354
Probable space group: P 2/C
;
_chemical_formula_sum "Si O2"
_cell_formula_units_Z 30
_cell_length_a 5.324618
_cell_length_b 11.404666
_cell_length_c 28.042959
_cell_angle_alpha 90.000000
_cell_angle_beta 118.454042
_cell_angle_gamma 90.000000
_cell_volume 1497.208658
_symmetry_space_group_name_H-M "P 2/C"
_symmetry_group_IT_number 13
_symmetry_cell_setting 'monoclinic'
loop_
_space_group_symop_operation_xyz
x,y,z
-x,y,1/2-z
-x,-y,-z
x,-y,1/2+z
loop_
_atom_site_type_symbol
_atom_site_label
_atom_site_fract_x
_atom_site_fract_y
_atom_site_fract_z
Si Si1 0.671323 0.070623 0.623907
Si Si2 0.000000 0.683944 0.750000
Si Si3 0.818952 0.783945 0.830064
Si Si4 0.668859 0.732620 0.042662
Si Si5 0.573317 0.180052 0.078383
Si Si6 0.349443 0.967308 0.187597
Si Si7 0.192153 0.582394 0.051300
Si Si8 0.515743 0.605857 0.856276
O O1 0.677507 0.171945 0.585276
O O2 0.520620 0.953080 0.589671
O O3 0.493599 0.097597 0.655807
O O4 0.007913 0.045686 0.663370
O O5 0.115912 0.771126 0.719715
O O6 0.221283 0.605112 0.800218
O O7 0.606092 0.892630 0.817240
O O8 0.728467 0.653573 0.835686
O O9 0.084194 0.811130 0.888415
O O10 0.424953 0.643090 0.038279
O O11 0.969961 0.669507 0.057797
O O12 0.563241 0.792662 0.984453
O O13 0.487486 0.284237 0.106921
O O14 0.500000 0.932562 0.250000
O O15 0.369194 0.505708 0.105616
O O16 0.000000 0.500000 0.000000
#
# Coordination Sequence:
#
# PCOD9232354 Si02
#       8
#     4   2   4   4   4   4   4   4
#     4  11  24  42  65  99 132 172 216 270 334 397
#     4  10  22  34  62  94 136 166 208 290 340 404
#     4  10  21  36  61 101 134 164 214 273 349 401
#     4  12  26  45  66  96 135 176 223 266 326 393
#     4  10  22  38  65  98 134 169 208 273 338 407
#     4  11  22  39  67  95 131 174 217 272 327 391
#     4  12  26  43  71  93 129 177 226 275 320 396
#     4  11  21  39  63  96 132 168 222 271 347 390
#
# _framework density 20.037286000000002
#
# number of rings (size 3 to 8) (size 9 to 14) (size 15 to 20)
#    0.000    1.067    2.667    4.000    7.467    0.000 
#    0.000    3.333    5.867    0.000    0.000    0.000 
#    0.000    0.000    0.000    0.000    0.000    0.000 
#
# Total GULP energy -167362.524528 kJ/mol
# GULP energy per Si atom -5578.750818 kJ/mol
# Density = 1.999168 g / cm^3
# Si number density = 20.037286 Si / 1000 Ang^3
#
#
#
# Elastic Constant Matrix: (Units=GPa)
#
#
# Indices 1 2 3 4 5 6 
#
# 1 33.4053 4.1131 0.5261 0.0000 -2.4276 0.0000
# 2 4.1131 50.8683 37.3071 0.0000 0.0483 0.0000
# 3 0.5261 37.3071 116.9475 0.0000 2.2269 0.0000
# 4 0.0000 0.0000 0.0000 20.3491 0.0000 0.0083
# 5 -2.4276 0.0483 2.2269 0.0000 30.5738 0.0000
# 6 0.0000 0.0000 0.0000 0.0083 0.0000 29.0511
#
#
#
# Elastic Compliance Matrix: (Units=1/GPa)
#
#
# Indices 1 2 3 4 5 6 
#
# 1 0.030470 -0.003045 0.000789 0.000000 0.002367 0.000000
# 2 -0.003045 0.025976 -0.008279 0.000000 0.000320 0.000000
# 3 0.000789 -0.008279 0.011202 0.000000 -0.000740 0.000000
# 4 0.000000 0.000000 0.000000 0.049142 0.000000 -0.000014
# 5 0.002367 0.000320 -0.000740 0.000000 0.032949 0.000000
# 6 0.000000 0.000000 0.000000 -0.000014 0.000000 0.034422
#
#
# Mechanical properties :
#
#
# Convention : Reuss Voigt Hill
#
# Bulk Modulus (GPa) = 21.46872 31.67930 26.57401
# Shear Modulus (GPa) = 22.64926 26.61313 24.63119
#
# Velocity S-wave (km/s) = 3.36572 3.64837 3.50990
# Velocity P-wave (km/s) = 5.08348 5.79586 5.45132
#
# Compressibility (1/GPa) = 0.04657940
#
# Stress axis : x y z
#
# Youngs Moduli (GPa) = 32.81934 38.49654 89.26614
#
# Poissons Ratio (x) = 0.11721 -0.07044
# Poissons Ratio (y) = 0.09993 0.73904
# Poissons Ratio (z) = -0.02590 0.31871
#
# Static dielectric constant tensor:
#      x y z
#    x 1.812240 0.000000 0.007920 
#    y 0.000000 1.713110 0.000000 
#    z 0.007920 0.000000 1.687570 
# 
# From -- ./inp_files/90494.got.cif
#   From: 2010.05.17/outbox.cif.g08.bks.cpg/sg13_46_cif.got.tgz:90494.got - 2010.06.03 16:44:36.
