data_PCOD9232771
_publ_section_title
;
Structure prediction by ZEFSAII (Michael W. Deem and Ramdas Pophale) SiO2 
 PCOD9232771
Probable space group: P 2/C
;
_chemical_formula_sum "Si O2"
_cell_formula_units_Z 20
_cell_length_a 4.962923
_cell_length_b 23.676429
_cell_length_c 9.093656
_cell_angle_alpha 90.000000
_cell_angle_beta 116.402128
_cell_angle_gamma 90.000000
_cell_volume 957.089448
_symmetry_space_group_name_H-M "P 2/C"
_symmetry_group_IT_number 13
_symmetry_cell_setting 'monoclinic'
loop_
_space_group_symop_operation_xyz
x,y,z
-x,y,1/2-z
-x,-y,-z
x,-y,1/2+z
loop_
_atom_site_type_symbol
_atom_site_label
_atom_site_fract_x
_atom_site_fract_y
_atom_site_fract_z
Si Si1 0.649371 0.152461 0.943904
Si Si2 0.345044 0.325684 0.871752
Si Si3 0.261760 0.218856 0.059453
Si Si4 0.646747 0.450075 0.627881
Si Si5 0.680166 0.043502 0.142221
O O1 0.500000 0.140521 0.750000
O O2 0.365190 0.173470 0.966828
O O3 0.756871 0.098100 0.060472
O O4 0.916013 0.200478 0.009931
O O5 0.500000 0.311582 0.750000
O O6 0.439626 0.387453 0.953381
O O7 0.000000 0.334075 0.750000
O O8 0.331496 0.277776 0.992857
O O9 0.500000 0.215019 0.250000
O O10 0.500000 0.451009 0.750000
O O11 0.500000 0.500000 0.500000
O O12 0.000000 0.457212 0.750000
O O13 0.500000 0.056651 0.250000
O O14 0.000000 0.015463 0.250000
O O15 0.500000 0.000000 0.000000
#
# Coordination Sequence:
#
# PCOD9232771 Si02
#       5
#     4   4   4   4   4
#     4  12  25  43  66  93 127 169 209 254 313 375
#     4  10  21  39  61  88 124 169 211 256 316 383
#     4  12  24  40  63  93 125 162 210 264 313 368
#     4  10  21  38  61  89 125 165 211 262 318 379
#     4  12  26  46  70  99 134 169 212 262 313 375
#
# _framework density 20.896685999999999
#
# number of rings (size 3 to 8) (size 9 to 14) (size 15 to 20)
#    0.000    0.800    0.000    9.000    0.000    2.400 
#    0.000    2.000    0.000    0.000    0.000    0.000 
#    0.000    0.000    0.000    0.000    0.000    0.000 
#
# Total GULP energy -111537.335932 kJ/mol
# GULP energy per Si atom -5576.866797 kJ/mol
# Density = 2.084912 g / cm^3
# Si number density = 20.896686 Si / 1000 Ang^3
#
#
#
# Elastic Constant Matrix: (Units=GPa)
#
#
# Indices 1 2 3 4 5 6 
#
# 1 114.3494 13.3796 22.2033 0.0000 7.1891 0.0000
# 2 13.3796 104.3089 51.0954 0.0000 -1.9619 0.0000
# 3 22.2033 51.0954 116.5806 0.0000 6.4791 0.0000
# 4 0.0000 0.0000 0.0000 28.4260 0.0000 9.4537
# 5 7.1891 -1.9619 6.4791 0.0000 29.4079 0.0000
# 6 0.0000 0.0000 0.0000 9.4537 0.0000 27.6178
#
#
#
# Elastic Compliance Matrix: (Units=1/GPa)
#
#
# Indices 1 2 3 4 5 6 
#
# 1 0.009205 -0.000526 -0.001413 0.000000 -0.001974 0.000000
# 2 -0.000526 0.012357 -0.005435 0.000000 0.002150 0.000000
# 3 -0.001413 -0.005435 0.011369 0.000000 -0.002522 0.000000
# 4 0.000000 0.000000 0.000000 0.039698 0.000000 -0.013589
# 5 -0.001974 0.002150 -0.002522 0.000000 0.035186 0.000000
# 6 0.000000 0.000000 0.000000 -0.013589 0.000000 0.040860
#
#
# Mechanical properties :
#
#
# Convention : Reuss Voigt Hill
#
# Bulk Modulus (GPa) = 54.99508 56.51061 55.75285
# Shear Modulus (GPa) = 29.50101 33.66105 31.58103
#
# Velocity S-wave (km/s) = 3.76141 4.01787 3.89175
# Velocity P-wave (km/s) = 6.72599 6.97323 6.85073
#
# Compressibility (1/GPa) = 0.01818345
#
# Stress axis : x y z
#
# Youngs Moduli (GPa) = 108.63528 80.92379 87.95621
#
# Poissons Ratio (x) = 0.04254 0.12429
# Poissons Ratio (y) = 0.05711 0.47808
# Poissons Ratio (z) = 0.15351 0.43985
#
# Static dielectric constant tensor:
#      x y z
#    x 1.721370 0.000000 0.012600 
#    y 0.000000 -1.069040 0.000000 
#    z 0.012600 0.000000 1.727080 
# 
# From -- ./inp_files/10044.got.cif
#   From: 2010.05.17/outbox.cif.g08.bks.cpg/sg13_6_cif.got.tgz:10044.got - 2010.06.03 16:44:36.
