data_PCOD9232302
_publ_section_title
;
Structure prediction by ZEFSAII (Michael W. Deem and Ramdas Pophale) SiO2 
 PCOD9232302
Probable space group: P 2/C
;
_chemical_formula_sum "Si O2"
_cell_formula_units_Z 32
_cell_length_a 9.384822
_cell_length_b 8.813561
_cell_length_c 15.339520
_cell_angle_alpha 90.000000
_cell_angle_beta 109.284343
_cell_angle_gamma 90.000000
_cell_volume 1197.598319
_symmetry_space_group_name_H-M "P 2/C"
_symmetry_group_IT_number 13
_symmetry_cell_setting 'monoclinic'
loop_
_space_group_symop_operation_xyz
x,y,z
-x,y,1/2-z
-x,-y,-z
x,-y,1/2+z
loop_
_atom_site_type_symbol
_atom_site_label
_atom_site_fract_x
_atom_site_fract_y
_atom_site_fract_z
Si Si1 0.054551 0.944273 0.661558
Si Si2 0.703746 0.478398 0.618337
Si Si3 0.196171 0.221799 0.444417
Si Si4 0.927270 0.749775 0.136561
Si Si5 0.450933 0.936256 0.898003
Si Si6 0.198097 0.560510 0.172666
Si Si7 0.665400 0.874988 0.342276
Si Si8 0.428212 0.376248 0.138759
O O1 0.956957 0.086655 0.604175
O O2 0.000000 0.927360 0.750000
O O3 0.225935 0.998116 0.681113
O O4 0.982964 0.800768 0.599776
O O5 0.756178 0.606409 0.562735
O O6 0.758465 0.311467 0.603163
O O7 0.792846 0.506126 0.727864
O O8 0.529967 0.506066 0.604839
O O9 0.284801 0.130290 0.384085
O O10 0.257644 0.159512 0.547744
O O11 0.000000 0.760195 0.250000
O O12 0.035479 0.624608 0.116900
O O13 0.550266 0.789322 0.894730
O O14 0.499398 0.062233 0.836172
O O15 0.500000 0.000000 0.000000
O O16 0.308718 0.710460 0.197286
O O17 0.263629 0.440165 0.119526
O O18 0.500000 0.372050 0.250000
#
# Coordination Sequence:
#
# PCOD9232302 Si02
#       8
#     4   4   4   4   4   4   4   4
#     4  10  21  36  57  86 116 150 190 233 282 341
#     4   9  18  34  54  78 109 143 183 232 278 328
#     4  10  21  38  58  85 116 148 190 239 285 338
#     4   8  16  32  51  74 106 137 174 221 268 322
#     4   9  20  38  56  79 113 148 184 230 284 338
#     4   9  18  34  55  79 108 145 186 230 279 334
#     4  10  21  39  59  83 116 152 190 235 285 341
#     4   9  18  33  54  80 107 137 183 232 275 330
#
# _framework density 26.720146
#
# number of rings (size 3 to 8) (size 9 to 14) (size 15 to 20)
#    0.000    2.750    0.000    1.125    0.000    6.500 
#    0.000   15.000    0.000    0.000    0.000    0.000 
#    0.000    0.000    0.000    0.000    0.000    0.000 
#
# Total GULP energy -179034.910649 kJ/mol
# GULP energy per Si atom -5594.840958 kJ/mol
# Density = 2.665933 g / cm^3
# Si number density = 26.720146 Si / 1000 Ang^3
#
#
#
# Elastic Constant Matrix: (Units=GPa)
#
#
# Indices 1 2 3 4 5 6 
#
# 1 87.1044 48.1048 18.3648 0.0000 -11.0704 0.0000
# 2 48.1048 39.1104 21.8334 0.0000 0.9475 0.0000
# 3 18.3648 21.8334 96.0877 0.0000 -15.1811 0.0000
# 4 0.0000 0.0000 0.0000 31.7806 0.0000 -20.5601
# 5 -11.0704 0.9475 -15.1811 0.0000 24.4446 0.0000
# 6 0.0000 0.0000 0.0000 -20.5601 0.0000 55.3331
#
#
#
# Elastic Compliance Matrix: (Units=1/GPa)
#
#
# Indices 1 2 3 4 5 6 
#
# 1 0.055008 -0.075325 0.012196 0.000000 0.035406 0.000000
# 2 -0.075325 0.133200 -0.024477 0.000000 -0.054477 0.000000
# 3 0.012196 -0.024477 0.016255 0.000000 0.016567 0.000000
# 4 0.000000 0.000000 0.000000 0.041423 0.000000 0.015392
# 5 0.035406 -0.054477 0.016567 0.000000 0.069344 0.000000
# 6 0.000000 0.000000 0.000000 0.015392 0.000000 0.023791
#
#
# Mechanical properties :
#
#
# Convention : Reuss Voigt Hill
#
# Bulk Modulus (GPa) = 34.18493 44.32316 39.25405
# Shear Modulus (GPa) = 9.54226 31.24496 20.39361
#
# Velocity S-wave (km/s) = 1.89181 3.42327 2.76566
# Velocity P-wave (km/s) = 4.19445 5.67882 4.99211
#
# Compressibility (1/GPa) = 0.02925266
#
# Stress axis : x y z
#
# Youngs Moduli (GPa) = 18.17902 7.50748 61.51815
#
# Poissons Ratio (x) = 0.56550 -0.75027
# Poissons Ratio (y) = 1.36934 1.50576
# Poissons Ratio (z) = -0.22171 0.18376
#
# Static dielectric constant tensor:
#      x y z
#    x 2.077210 0.000000 -0.025600 
#    y 0.000000 2.055500 0.000000 
#    z -0.025600 0.000000 2.173890 
# 
# From -- ./inp_files/66056.got.cif
#   From: 2010.05.17/outbox.cif.g08.bks.cpg/sg13_34_cif.got.tgz:66056.got - 2010.06.03 16:44:36.
