data_PCOD9232111
_publ_section_title
;
Structure prediction by ZEFSAII (Michael W. Deem and Ramdas Pophale) SiO2 
 PCOD9232111
Probable space group: P 2/C
;
_chemical_formula_sum "Si O2"
_cell_formula_units_Z 28
_cell_length_a 5.066111
_cell_length_b 14.629069
_cell_length_c 19.002512
_cell_angle_alpha 90.000000
_cell_angle_beta 103.502126
_cell_angle_gamma 90.000000
_cell_volume 1369.399142
_symmetry_space_group_name_H-M "P 2/C"
_symmetry_group_IT_number 13
_symmetry_cell_setting 'monoclinic'
loop_
_space_group_symop_operation_xyz
x,y,z
-x,y,1/2-z
-x,-y,-z
x,-y,1/2+z
loop_
_atom_site_type_symbol
_atom_site_label
_atom_site_fract_x
_atom_site_fract_y
_atom_site_fract_z
Si Si1 0.279052 0.604533 0.798353
Si Si2 0.370060 0.504840 0.568880
Si Si3 0.292200 0.183774 0.801813
Si Si4 0.533540 0.209598 0.167597
Si Si5 0.855856 0.307091 0.461233
Si Si6 0.582714 0.301160 0.940251
Si Si7 0.711096 0.022309 0.199096
O O1 0.500000 0.608102 0.750000
O O2 0.398957 0.541405 0.865277
O O3 0.251704 0.707616 0.826735
O O4 0.000000 0.571142 0.750000
O O5 0.500000 0.500000 0.500000
O O6 0.138276 0.583769 0.558573
O O7 0.317193 0.399648 0.583638
O O8 0.500000 0.183272 0.750000
O O9 0.430382 0.245537 0.870015
O O10 0.000000 0.210909 0.750000
O O11 0.261217 0.079758 0.829618
O O12 0.500000 0.200031 0.250000
O O13 0.274203 0.249412 0.110538
O O14 0.616667 0.108860 0.147340
O O15 0.635611 0.306752 0.510414
O O16 0.138151 0.267061 0.506562
O O17 0.500000 0.012229 0.250000
O O18 0.000000 0.048245 0.250000
#
# Coordination Sequence:
#
# PCOD9232111 Si02
#       7
#     4   4   4   4   4   4   4
#     4  10  21  34  52  80 108 133 174 228 269 306
#     4   9  21  37  56  76 107 147 182 213 263 327
#     4  10  21  38  59  82 107 141 184 223 261 315
#     4   9  19  35  57  81 107 141 177 218 267 320
#     4  10  22  37  55  81 110 141 179 220 267 320
#     4  11  22  38  56  78 110 145 178 221 268 313
#     4   9  18  33  55  80 106 138 177 217 263 319
#
# _framework density 20.446923000000002
#
# number of rings (size 3 to 8) (size 9 to 14) (size 15 to 20)
#    0.000    2.286    0.000    1.714    0.000   16.000 
#    0.000    1.429    0.000    0.000    0.000    0.000 
#    0.000    0.000    0.000    0.000    0.000    0.000 
#
# Total GULP energy -156142.658134 kJ/mol
# GULP energy per Si atom -5576.523505 kJ/mol
# Density = 2.040038 g / cm^3
# Si number density = 20.446923 Si / 1000 Ang^3
#
#
#
# Elastic Constant Matrix: (Units=GPa)
#
#
# Indices 1 2 3 4 5 6 
#
# 1 108.8016 13.7583 38.1845 0.0000 24.0304 0.0000
# 2 13.7583 109.7330 68.4553 0.0000 27.0490 0.0000
# 3 38.1845 68.4553 123.9154 0.0000 33.1211 0.0000
# 4 0.0000 0.0000 0.0000 20.0233 0.0000 10.5073
# 5 24.0304 27.0490 33.1211 0.0000 35.8951 0.0000
# 6 0.0000 0.0000 0.0000 10.5073 0.0000 -11.0618
#
#
#
# Elastic Compliance Matrix: (Units=1/GPa)
#
#
# Indices 1 2 3 4 5 6 
#
# 1 0.011370 0.001944 -0.002856 0.000000 -0.006442 0.000000
# 2 0.001944 0.014808 -0.007233 0.000000 -0.005786 0.000000
# 3 -0.002856 -0.007233 0.014572 0.000000 -0.006083 0.000000
# 4 0.000000 0.000000 0.000000 0.033329 0.000000 0.031658
# 5 -0.006442 -0.005786 -0.006083 0.000000 0.042145 0.000000
# 6 0.000000 0.000000 0.000000 0.031658 0.000000 -0.060330
#
#
# Mechanical properties :
#
#
# Convention : Reuss Voigt Hill
#
# Bulk Modulus (GPa) = 40.88304 64.80515 52.84409
# Shear Modulus (GPa) = 62.23878 23.77479 43.00678
#
# Velocity S-wave (km/s) = 5.52316 3.41362 4.59119
# Velocity P-wave (km/s) = 7.79178 6.87751 7.34888
#
# Compressibility (1/GPa) = 0.02446002
#
# Stress axis : x y z
#
# Youngs Moduli (GPa) = 87.94899 67.53320 68.62635
#
# Poissons Ratio (x) = -0.13127 0.19598
# Poissons Ratio (y) = -0.17095 0.49635
# Poissons Ratio (z) = 0.25116 0.48845
#
# Static dielectric constant tensor:
#      x y z
#    x 1.725070 0.000000 0.016930 
#    y 0.000000 1.821870 0.000000 
#    z 0.016930 0.000000 1.700850 
# 
# From -- ./inp_files/61413.got.cif
#   From: 2010.05.17/outbox.cif.g08.bks.cpg/sg13_31_cif.got.tgz:61413.got - 2010.06.03 16:44:36.
