data_PCOD9232555
_publ_section_title
;
Structure prediction by ZEFSAII (Michael W. Deem and Ramdas Pophale) SiO2 
 PCOD9232555
Probable space group: P 2/C
;
_chemical_formula_sum "Si O2"
_cell_formula_units_Z 32
_cell_length_a 14.651265
_cell_length_b 11.783173
_cell_length_c 18.252085
_cell_angle_alpha 90.000000
_cell_angle_beta 150.722584
_cell_angle_gamma 90.000000
_cell_volume 1540.966033
_symmetry_space_group_name_H-M "P 2/C"
_symmetry_group_IT_number 13
_symmetry_cell_setting 'monoclinic'
loop_
_space_group_symop_operation_xyz
x,y,z
-x,y,1/2-z
-x,-y,-z
x,-y,1/2+z
loop_
_atom_site_type_symbol
_atom_site_label
_atom_site_fract_x
_atom_site_fract_y
_atom_site_fract_z
Si Si1 0.445643 0.678207 0.872922
Si Si2 0.816229 0.067551 0.901254
Si Si3 0.730040 0.673363 0.600204
Si Si4 0.697592 0.532906 0.845456
Si Si5 0.596203 0.282048 0.736790
Si Si6 0.021894 0.115334 0.184400
Si Si7 0.389490 0.940560 0.857106
Si Si8 0.177299 0.440821 0.913642
O O1 0.377675 0.632068 0.903198
O O2 0.297058 0.633336 0.709257
O O3 0.454619 0.812903 0.887771
O O4 0.641408 0.628796 0.983559
O O5 0.764435 0.195016 0.839209
O O6 0.642137 0.999992 0.743677
O O7 0.846035 0.089473 0.009140
O O8 0.000000 0.000000 0.000000
O O9 0.572293 0.733680 0.439415
O O10 0.897184 0.756394 0.744314
O O11 0.795387 0.567125 0.598935
O O12 0.500000 0.541980 0.750000
O O13 0.680365 0.409822 0.795726
O O14 0.843018 0.546302 0.013131
O O15 0.500000 0.267076 0.750000
O O16 0.188478 0.064324 0.254625
O O17 0.000000 0.066336 0.250000
O O18 0.500000 0.000000 0.000000
O O19 0.000000 0.388717 0.750000
#
# Coordination Sequence:
#
# PCOD9232555 Si02
#       8
#     4   4   4   4   4   4   4   4
#     4  10  21  41  64  87 125 169 212 253 316 392
#     4  10  22  38  59  91 129 163 208 270 323 360
#     4  11  20  35  64  93 124 161 207 254 321 391
#     4   9  19  38  59  91 126 165 205 255 319 391
#     4  11  19  35  63  94 122 162 216 261 315 388
#     4  10  21  37  61  94 126 154 203 277 325 355
#     4  10  22  44  66  89 122 174 221 261 311 391
#     4  11  22  38  60  94 135 163 203 261 328 380
#
# _framework density 20.766195
#
# number of rings (size 3 to 8) (size 9 to 14) (size 15 to 20)
#    0.000    1.750    3.750    3.000    1.750    0.000 
#    0.000   15.625    0.000    0.000    0.000    0.000 
#    0.000    0.000    0.000    0.000    0.000    0.000 
#
# Total GULP energy -178196.188782 kJ/mol
# GULP energy per Si atom -5568.630899 kJ/mol
# Density = 2.071893 g / cm^3
# Si number density = 20.766195 Si / 1000 Ang^3
#
#
#
# Elastic Constant Matrix: (Units=GPa)
#
#
# Indices 1 2 3 4 5 6 
#
# 1 60.4079 32.5655 43.6416 0.0000 -26.6798 0.0000
# 2 32.5655 87.5852 63.5652 0.0000 -24.7755 0.0000
# 3 43.6416 63.5652 120.0987 0.0000 -39.3419 0.0000
# 4 0.0000 0.0000 0.0000 7.5456 0.0000 -10.9074
# 5 -26.6798 -24.7755 -39.3419 0.0000 35.0115 0.0000
# 6 0.0000 0.0000 0.0000 -10.9074 0.0000 18.7022
#
#
#
# Elastic Compliance Matrix: (Units=1/GPa)
#
#
# Indices 1 2 3 4 5 6 
#
# 1 0.027301 -0.003720 -0.003163 0.000000 0.014617 0.000000
# 2 -0.003720 0.019291 -0.008412 0.000000 0.001364 0.000000
# 3 -0.003163 -0.008412 0.017706 0.000000 0.011533 0.000000
# 4 0.000000 0.000000 0.000000 0.844386 0.000000 0.492458
# 5 0.014617 0.001364 0.011533 0.000000 0.053625 0.000000
# 6 0.000000 0.000000 0.000000 0.492458 0.000000 0.340678
#
#
# Mechanical properties :
#
#
# Convention : Reuss Voigt Hill
#
# Bulk Modulus (GPa) = 29.66700 60.84848 45.25774
# Shear Modulus (GPa) = 3.71798 20.80650 12.26224
#
# Velocity S-wave (km/s) = 1.33951 3.16878 2.43264
# Velocity P-wave (km/s) = 4.08774 6.53862 5.45267
#
# Compressibility (1/GPa) = 0.03370748
#
# Stress axis : x y z
#
# Youngs Moduli (GPa) = 36.62917 51.83653 56.47792
#
# Poissons Ratio (x) = 0.19285 0.17866
# Poissons Ratio (y) = 0.13627 0.47507
# Poissons Ratio (z) = 0.11587 0.43603
#
# Static dielectric constant tensor:
#      x y z
#    x 1.749110 0.000000 -0.012980 
#    y 0.000000 1.745640 0.000000 
#    z -0.012980 0.000000 1.879780 
# 
# From -- ./inp_files/68683.got.cif
#   From: 2010.05.17/outbox.cif.g08.bks.cpg/sg13_35_cif.got.tgz:68683.got - 2010.06.03 16:44:36.
