data_PCOD9232657
_publ_section_title
;
Structure prediction by ZEFSAII (Michael W. Deem and Ramdas Pophale) SiO2 
 PCOD9232657
Probable space group: P 2/C
;
_chemical_formula_sum "Si O2"
_cell_formula_units_Z 20
_cell_length_a 8.025014
_cell_length_b 22.643713
_cell_length_c 5.403264
_cell_angle_alpha 90.000000
_cell_angle_beta 119.433120
_cell_angle_gamma 90.000000
_cell_volume 855.131347
_symmetry_space_group_name_H-M "P 2/C"
_symmetry_group_IT_number 13
_symmetry_cell_setting 'monoclinic'
loop_
_space_group_symop_operation_xyz
x,y,z
-x,y,1/2-z
-x,-y,-z
x,-y,1/2+z
loop_
_atom_site_type_symbol
_atom_site_label
_atom_site_fract_x
_atom_site_fract_y
_atom_site_fract_z
Si Si1 0.783900 0.475600 0.856753
Si Si2 0.267872 0.661245 0.084942
Si Si3 0.879067 0.855037 0.915657
Si Si4 0.283257 0.976270 0.816584
Si Si5 0.269447 0.275529 0.086352
O O1 0.695089 0.492127 0.528749
O O2 0.787187 0.406082 0.905341
O O3 0.000000 0.500000 0.000000
O O4 0.500000 0.663005 0.250000
O O5 0.203750 0.701559 0.269530
O O6 0.203556 0.684386 0.769692
O O7 0.729283 0.907691 0.760167
O O8 0.788971 0.791470 0.904663
O O9 0.000000 0.850935 0.750000
O O10 0.000000 0.870538 0.250000
O O11 0.195646 0.012120 0.522594
O O12 0.500000 0.000000 0.000000
O O13 0.500000 0.278630 0.250000
#
# Coordination Sequence:
#
# PCOD9232657 Si02
#       5
#     4   4   4   4   4
#     4  10  21  38  56  91 125 167 209 269 336 393
#     4  10  21  41  65  93 127 171 230 274 321 399
#     4  12  26  45  67 106 144 171 227 288 340 396
#     4  10  23  43  69 101 131 186 226 267 335 401
#     4  10  23  44  68  94 130 185 224 271 333 403
#
# _framework density 23.388221999999999
#
# number of rings (size 3 to 8) (size 9 to 14) (size 15 to 20)
#    0.000    1.600    0.000    3.600    2.800    3.200 
#   28.800    0.000    0.000    0.000    0.000    0.000 
#    0.000    0.000    0.000    0.000    0.000    0.000 
#
# Total GULP energy -111973.595784 kJ/mol
# GULP energy per Si atom -5598.679789 kJ/mol
# Density = 2.333499 g / cm^3
# Si number density = 23.388222 Si / 1000 Ang^3
#
#
#
# Elastic Constant Matrix: (Units=GPa)
#
#
# Indices 1 2 3 4 5 6 
#
# 1 107.0629 47.5086 66.9312 0.0000 -24.6524 0.0000
# 2 47.5086 219.0868 74.4317 0.0000 -31.9310 0.0000
# 3 66.9312 74.4317 201.8462 0.0000 -44.6643 0.0000
# 4 0.0000 0.0000 0.0000 45.5493 0.0000 -4.3962
# 5 -24.6524 -31.9310 -44.6643 0.0000 43.4495 0.0000
# 6 0.0000 0.0000 0.0000 -4.3962 0.0000 37.8254
#
#
#
# Elastic Compliance Matrix: (Units=1/GPa)
#
#
# Indices 1 2 3 4 5 6 
#
# 1 0.012474 -0.001237 -0.002997 0.000000 0.003088 0.000000
# 2 -0.001237 0.005542 -0.001149 0.000000 0.002190 0.000000
# 3 -0.002997 -0.001149 0.007519 0.000000 0.005184 0.000000
# 4 0.000000 0.000000 0.000000 0.022203 0.000000 0.002581
# 5 0.003088 0.002190 0.005184 0.000000 0.031706 0.000000
# 6 0.000000 0.000000 0.000000 0.002581 0.000000 0.026737
#
#
# Mechanical properties :
#
#
# Convention : Reuss Voigt Hill
#
# Bulk Modulus (GPa) = 67.70713 100.63766 84.17239
# Shear Modulus (GPa) = 41.02753 47.97313 44.50033
#
# Velocity S-wave (km/s) = 4.19286 4.53389 4.36671
# Velocity P-wave (km/s) = 7.24239 8.39827 7.84165
#
# Compressibility (1/GPa) = 0.01476949
#
# Stress axis : x y z
#
# Youngs Moduli (GPa) = 80.16934 180.43616 132.99820
#
# Poissons Ratio (x) = 0.22315 0.39858
# Poissons Ratio (y) = 0.09915 0.15281
# Poissons Ratio (z) = 0.24026 0.20732
#
# Static dielectric constant tensor:
#      x y z
#    x 1.912540 0.000000 -0.034550 
#    y 0.000000 1.789560 0.000000 
#    z -0.034550 0.000000 1.932790 
# 
# From -- ./inp_files/2159.got.cif
#   From: 2010.05.17/outbox.cif.g08.bks.cpg/sg13_2_cif.got.tgz:2159.got - 2010.06.03 16:44:36.
