data_PCOD9232312
_publ_section_title
;
Structure prediction by ZEFSAII (Michael W. Deem and Ramdas Pophale) SiO2 
 PCOD9232312
Probable space group: P 2/C
;
_chemical_formula_sum "Si O2"
_cell_formula_units_Z 18
_cell_length_a 8.272673
_cell_length_b 15.690173
_cell_length_c 8.238199
_cell_angle_alpha 90.000000
_cell_angle_beta 52.664775
_cell_angle_gamma 90.000000
_cell_volume 850.213594
_symmetry_space_group_name_H-M "P 2/C"
_symmetry_group_IT_number 13
_symmetry_cell_setting 'monoclinic'
loop_
_space_group_symop_operation_xyz
x,y,z
-x,y,1/2-z
-x,-y,-z
x,-y,1/2+z
loop_
_atom_site_type_symbol
_atom_site_label
_atom_site_fract_x
_atom_site_fract_y
_atom_site_fract_z
Si Si1 0.195344 0.560175 0.239817
Si Si2 0.500000 0.992161 0.250000
Si Si3 0.455583 0.718969 0.965832
Si Si4 0.760769 0.894123 0.343348
Si Si5 0.312805 0.397715 0.991247
O O1 0.143104 0.587072 0.456667
O O2 0.000000 0.563927 0.250000
O O3 0.337363 0.631669 0.071424
O O4 0.286643 0.466538 0.148647
O O5 0.676993 0.935819 0.227490
O O6 0.375765 0.053418 0.445574
O O7 0.500000 0.730330 0.750000
O O8 0.319371 0.797207 0.107013
O O9 0.654537 0.696194 0.954377
O O10 0.000000 0.899217 0.250000
O O11 0.500000 0.417276 0.750000
#
# Coordination Sequence:
#
# PCOD9232312 Si02
#       5
#     4   2   4   4   4
#     4  11  21  36  59  87 121 165 222 271 322 385
#     4  10  24  44  74 102 132 172 210 274 338 392
#     4  11  22  39  59  86 127 170 214 263 325 380
#     4  11  23  44  72 101 135 171 219 267 331 400
#     4  10  21  36  58  82 118 169 209 260 331 375
#
# _framework density 21.171150999999998
#
# number of rings (size 3 to 8) (size 9 to 14) (size 15 to 20)
#    0.000    1.333    1.111    6.667    4.667    0.000 
#    0.000    0.000    0.000    0.000    0.000    0.000 
#    0.000    0.000    0.000    0.000    0.000    0.000 
#
# Total GULP energy -100243.235488 kJ/mol
# GULP energy per Si atom -5569.068638 kJ/mol
# Density = 2.112296 g / cm^3
# Si number density = 21.171151 Si / 1000 Ang^3
#
#
#
# Elastic Constant Matrix: (Units=GPa)
#
#
# Indices 1 2 3 4 5 6 
#
# 1 133.6168 43.5585 13.9774 0.0000 9.6547 0.0000
# 2 43.5585 91.3528 14.4533 0.0000 -8.2035 0.0000
# 3 13.9774 14.4533 39.3969 0.0000 7.1047 0.0000
# 4 0.0000 0.0000 0.0000 21.8558 0.0000 8.2720
# 5 9.6547 -8.2035 7.1047 0.0000 31.5008 0.0000
# 6 0.0000 0.0000 0.0000 8.2720 0.0000 30.2241
#
#
#
# Elastic Compliance Matrix: (Units=1/GPa)
#
#
# Indices 1 2 3 4 5 6 
#
# 1 0.009386 -0.004681 -0.000911 0.000000 -0.003890 0.000000
# 2 -0.004681 0.014502 -0.004794 0.000000 0.006293 0.000000
# 3 -0.000911 -0.004794 0.028812 0.000000 -0.007467 0.000000
# 4 0.000000 0.000000 0.000000 0.051042 0.000000 -0.013970
# 5 -0.003890 0.006293 -0.007467 0.000000 0.036261 0.000000
# 6 0.000000 0.000000 0.000000 -0.013970 0.000000 0.036910
#
#
# Mechanical properties :
#
#
# Convention : Reuss Voigt Hill
#
# Bulk Modulus (GPa) = 31.32148 45.37168 38.34658
# Shear Modulus (GPa) = 24.00071 29.54129 26.77100
#
# Velocity S-wave (km/s) = 3.37063 3.73950 3.55984
# Velocity P-wave (km/s) = 5.47492 6.33424 5.92019
#
# Compressibility (1/GPa) = 0.03192697
#
# Stress axis : x y z
#
# Youngs Moduli (GPa) = 106.53671 68.95576 34.70821
#
# Poissons Ratio (x) = 0.32277 0.03163
# Poissons Ratio (y) = 0.49867 0.16641
# Poissons Ratio (z) = 0.09710 0.33060
#
# Static dielectric constant tensor:
#      x y z
#    x 2.345130 0.000000 -0.066620 
#    y 0.000000 1.716910 0.000000 
#    z -0.066620 0.000000 1.821810 
# 
# From -- ./inp_files/11632.got.cif
#   From: 2010.05.17/outbox.cif.g08.bks.cpg/sg13_6_cif.got.tgz:11632.got - 2010.06.03 16:44:36.
