data_PCOD9232682
_publ_section_title
;
Structure prediction by ZEFSAII (Michael W. Deem and Ramdas Pophale) SiO2 
 PCOD9232682
Probable space group: P 2/C
;
_chemical_formula_sum "Si O2"
_cell_formula_units_Z 24
_cell_length_a 5.344917
_cell_length_b 11.216588
_cell_length_c 21.012252
_cell_angle_alpha 90.000000
_cell_angle_beta 97.075859
_cell_angle_gamma 90.000000
_cell_volume 1250.126773
_symmetry_space_group_name_H-M "P 2/C"
_symmetry_group_IT_number 13
_symmetry_cell_setting 'monoclinic'
loop_
_space_group_symop_operation_xyz
x,y,z
-x,y,1/2-z
-x,-y,-z
x,-y,1/2+z
loop_
_atom_site_type_symbol
_atom_site_label
_atom_site_fract_x
_atom_site_fract_y
_atom_site_fract_z
Si Si1 0.964308 0.183394 0.173214
Si Si2 0.462138 0.964344 0.672726
Si Si3 0.608351 0.234204 0.860639
Si Si4 0.976266 0.573848 0.596376
Si Si5 0.676933 0.580574 0.463159
Si Si6 0.894486 0.640585 0.180062
O O1 0.000000 0.201453 0.250000
O O2 0.962346 0.309831 0.138272
O O3 0.207732 0.111228 0.156961
O O4 0.706929 0.108167 0.156539
O O5 0.500000 0.983632 0.750000
O O6 0.423011 0.093031 0.640443
O O7 0.591630 0.296673 0.929292
O O8 0.362571 0.286857 0.817161
O O9 0.879144 0.275710 0.840407
O O10 0.892866 0.607529 0.522134
O O11 0.835681 0.466199 0.628938
O O12 0.239127 0.506278 0.591764
O O13 0.500000 0.500000 0.500000
O O14 0.000000 0.591370 0.250000
#
# Coordination Sequence:
#
# PCOD9232682 Si02
#       6
#     4   4   4   4   4   4
#     4  10  22  39  61  87 120 156 190 238 293 351
#     4  10  21  38  58  84 118 155 191 235 292 349
#     4  11  22  38  60  86 118 155 196 238 293 346
#     4  10  22  38  59  87 116 153 196 239 297 350
#     4  10  21  40  61  83 117 158 194 246 293 339
#     4  11  21  34  59  90 116 145 189 248 299 350
#
# _framework density 19.198053999999999
#
# number of rings (size 3 to 8) (size 9 to 14) (size 15 to 20)
#    0.000    1.667    1.667    3.000    2.333    1.333 
#    0.000    5.000    0.000    0.000    0.000    0.000 
#    0.000    0.000    0.000    0.000    0.000    0.000 
#
# Total GULP energy -133758.637554 kJ/mol
# GULP energy per Si atom -5573.276565 kJ/mol
# Density = 1.915436 g / cm^3
# Si number density = 19.198054 Si / 1000 Ang^3
#
#
#
# Elastic Constant Matrix: (Units=GPa)
#
#
# Indices 1 2 3 4 5 6 
#
# 1 125.1571 68.8977 21.3375 0.0000 -4.0304 0.0000
# 2 68.8977 176.2759 42.3711 0.0000 -8.3968 0.0000
# 3 21.3375 42.3711 47.2947 0.0000 -0.8693 0.0000
# 4 0.0000 0.0000 0.0000 33.1590 0.0000 -6.3926
# 5 -4.0304 -8.3968 -0.8693 0.0000 21.4501 0.0000
# 6 0.0000 0.0000 0.0000 -6.3926 0.0000 9.0850
#
#
#
# Elastic Compliance Matrix: (Units=1/GPa)
#
#
# Indices 1 2 3 4 5 6 
#
# 1 0.010249 -0.003664 -0.001333 0.000000 0.000437 0.000000
# 2 -0.003664 0.008684 -0.006082 0.000000 0.002465 0.000000
# 3 -0.001333 -0.006082 0.027166 0.000000 -0.001530 0.000000
# 4 0.000000 0.000000 0.000000 0.034891 0.000000 0.024551
# 5 0.000437 0.002465 -0.001530 0.000000 0.047605 0.000000
# 6 0.000000 0.000000 0.000000 0.024551 0.000000 0.127346
#
#
# Mechanical properties :
#
#
# Convention : Reuss Voigt Hill
#
# Bulk Modulus (GPa) = 41.76962 68.21556 54.99259
# Shear Modulus (GPa) = 17.47773 27.14692 22.31233
#
# Velocity S-wave (km/s) = 3.02054 3.76446 3.41283
# Velocity P-wave (km/s) = 5.82832 7.38272 6.65109
#
# Compressibility (1/GPa) = 0.02394085
#
# Stress axis : x y z
#
# Youngs Moduli (GPa) = 97.57524 115.14821 36.81097
#
# Poissons Ratio (x) = 0.42196 0.04906
# Poissons Ratio (y) = 0.35756 0.22388
# Poissons Ratio (z) = 0.13004 0.70031
#
# Static dielectric constant tensor:
#      x y z
#    x 1.773240 0.000000 0.032650 
#    y 0.000000 1.657270 0.000000 
#    z 0.032650 0.000000 1.710690 
# 
# From -- ./inp_files/83336.got.cif
#   From: 2010.05.17/outbox.cif.g08.bks.cpg/sg13_42_cif.got.tgz:83336.got - 2010.06.03 16:44:36.
