data_PCOD9232402
_publ_section_title
;
Structure prediction by ZEFSAII (Michael W. Deem and Ramdas Pophale) SiO2 
 PCOD9232402
Probable space group: P 2/C
;
_chemical_formula_sum "Si O2"
_cell_formula_units_Z 20
_cell_length_a 12.348420
_cell_length_b 16.546240
_cell_length_c 5.132953
_cell_angle_alpha 90.000000
_cell_angle_beta 100.386311
_cell_angle_gamma 90.000000
_cell_volume 1031.580095
_symmetry_space_group_name_H-M "P 2/C"
_symmetry_group_IT_number 13
_symmetry_cell_setting 'monoclinic'
loop_
_space_group_symop_operation_xyz
x,y,z
-x,y,1/2-z
-x,-y,-z
x,-y,1/2+z
loop_
_atom_site_type_symbol
_atom_site_label
_atom_site_fract_x
_atom_site_fract_y
_atom_site_fract_z
Si Si1 0.500000 0.943227 0.250000
Si Si2 0.069402 0.200535 0.521287
Si Si3 0.679587 0.805433 0.288624
Si Si4 0.798926 0.553160 0.909646
Si Si5 0.628149 0.698577 0.764578
Si Si6 0.000000 0.359000 0.250000
O O1 0.604129 0.883707 0.282181
O O2 0.500000 0.000000 0.500000
O O3 0.193380 0.172984 0.608077
O O4 0.000000 0.188924 0.750000
O O5 0.071899 0.296840 0.454962
O O6 0.000000 0.165011 0.250000
O O7 0.643016 0.741592 0.493254
O O8 0.663519 0.762786 0.002444
O O9 0.787532 0.481304 0.694415
O O10 0.707650 0.621650 0.821877
O O11 0.918613 0.590489 0.895434
O O12 0.500000 0.677667 0.750000
#
# Coordination Sequence:
#
# PCOD9232402 Si02
#       6
#     2   4   4   4   4   2
#     4  12  26  44  72 110 138 160 202 256 338 392
#     4  10  21  36  66  96 122 165 229 269 304 379
#     4  12  22  44  70  97 133 170 211 272 314 390
#     4  12  26  38  57  87 130 173 219 286 341 364
#     4  12  23  42  66  90 122 178 235 263 318 396
#     4  10  22  38  60  86 124 164 230 276 324 376
#
# _framework density 19.387732
#
# number of rings (size 3 to 8) (size 9 to 14) (size 15 to 20)
#    0.600    0.000    4.000    5.400    2.800    0.800 
#    0.000    0.000    0.000    3.600    0.000    0.000 
#    0.000    0.000    0.000    0.000    0.000    0.000 
#
# Total GULP energy -111843.770434 kJ/mol
# GULP energy per Si atom -5592.188522 kJ/mol
# Density = 1.934360 g / cm^3
# Si number density = 19.387732 Si / 1000 Ang^3
#
#
#
# Elastic Constant Matrix: (Units=GPa)
#
#
# Indices 1 2 3 4 5 6 
#
# 1 153.2063 44.2571 1.7779 0.0000 7.8385 0.0000
# 2 44.2571 69.7254 3.0947 0.0000 10.7310 0.0000
# 3 1.7779 3.0947 69.6358 0.0000 -1.2751 0.0000
# 4 0.0000 0.0000 0.0000 58.0098 0.0000 1.3468
# 5 7.8385 10.7310 -1.2751 0.0000 29.4531 0.0000
# 6 0.0000 0.0000 0.0000 1.3468 0.0000 -22.0563
#
#
#
# Elastic Compliance Matrix: (Units=1/GPa)
#
#
# Indices 1 2 3 4 5 6 
#
# 1 0.007995 -0.005030 0.000014 0.000000 -0.000295 0.000000
# 2 -0.005030 0.018401 -0.000788 0.000000 -0.005400 0.000000
# 3 0.000014 -0.000788 0.014412 0.000000 0.000907 0.000000
# 4 0.000000 0.000000 0.000000 0.017214 0.000000 0.001051
# 5 -0.000295 -0.005400 0.000907 0.000000 0.036037 0.000000
# 6 0.000000 0.000000 0.000000 0.001051 0.000000 -0.045274
#
#
# Mechanical properties :
#
#
# Convention : Reuss Voigt Hill
#
# Bulk Modulus (GPa) = 34.24768 43.42522 38.83645
# Shear Modulus (GPa) = 71.30015 29.31050 50.30533
#
# Velocity S-wave (km/s) = 6.07089 3.89241 5.09934
# Velocity P-wave (km/s) = 8.17582 6.53055 7.39906
#
# Compressibility (1/GPa) = 0.02919906
#
# Stress axis : x y z
#
# Youngs Moduli (GPa) = 125.07657 54.34563 69.38799
#
# Poissons Ratio (x) = 0.27336 -0.00097
# Poissons Ratio (y) = 0.62914 0.05469
# Poissons Ratio (z) = -0.00175 0.04284
#
# Static dielectric constant tensor:
#      x y z
#    x 1.645080 0.000000 -0.006860 
#    y 0.000000 1.650190 0.000000 
#    z -0.006860 0.000000 1.633960 
# 
# From -- ./inp_files/3314.got.cif
#   From: 2010.05.17/outbox.cif.g08.bks.cpg/sg13_2_cif.got.tgz:3314.got - 2010.06.03 16:44:36.
