data_PCOD9232016
_publ_section_title
;
Structure prediction by ZEFSAII (Michael W. Deem and Ramdas Pophale) SiO2 
 PCOD9232016
Probable space group: P 2/C
;
_chemical_formula_sum "Si O2"
_cell_formula_units_Z 28
_cell_length_a 14.508888
_cell_length_b 12.826907
_cell_length_c 8.983357
_cell_angle_alpha 90.000000
_cell_angle_beta 134.904048
_cell_angle_gamma 90.000000
_cell_volume 1184.147554
_symmetry_space_group_name_H-M "P 2/C"
_symmetry_group_IT_number 13
_symmetry_cell_setting 'monoclinic'
loop_
_space_group_symop_operation_xyz
x,y,z
-x,y,1/2-z
-x,-y,-z
x,-y,1/2+z
loop_
_atom_site_type_symbol
_atom_site_label
_atom_site_fract_x
_atom_site_fract_y
_atom_site_fract_z
Si Si1 0.000000 0.499895 0.250000
Si Si2 0.982171 0.709736 0.888802
Si Si3 0.644815 0.543684 0.203759
Si Si4 0.500000 0.794153 0.250000
Si Si5 0.639604 0.047238 0.707664
Si Si6 0.304099 0.646501 0.912227
Si Si7 0.341428 0.141693 0.079676
Si Si8 0.807834 0.329228 0.657198
O O1 0.024242 0.412870 0.405728
O O2 0.885065 0.575483 0.170514
O O3 0.829246 0.709106 0.736727
O O4 0.000000 0.764336 0.750000
O O5 0.668619 0.585585 0.397909
O O6 0.717281 0.438914 0.237521
O O7 0.701095 0.629814 0.155092
O O8 0.500000 0.500000 0.000000
O O9 0.393219 0.865768 0.206727
O O10 0.571859 0.722333 0.453587
O O11 0.697773 0.100407 0.629101
O O12 0.500000 0.000000 0.500000
O O13 0.702438 0.947162 0.855416
O O14 0.078309 0.736799 0.130098
O O15 0.500000 0.152026 0.250000
O O16 0.273409 0.250466 0.036809
#
# Coordination Sequence:
#
# PCOD9232016 Si02
#       8
#     2   4   4   2   4   4   4   4
#     4  10  22  40  66  90 138 192 224 274 312 402
#     4  10  22  41  61  87 131 192 228 260 316 395
#     4  12  23  42  58  98 146 176 221 284 341 394
#     4  12  22  42  66  96 132 180 224 276 358 420
#     4  10  20  44  68  99 128 170 215 285 360 420
#     4  12  25  38  66  97 139 186 226 278 335 411
#     4  10  23  44  73 102 131 168 222 288 359 416
#     4  12  24  43  67  96 138 183 240 272 338 416
#
# _framework density 23.645700999999999
#
# number of rings (size 3 to 8) (size 9 to 14) (size 15 to 20)
#    0.429    0.571    6.429    1.286    2.000    1.143 
#    7.714    0.000    0.000    3.429    0.000    0.000 
#    0.000    0.000    0.000    0.000    0.000    0.000 
#
# Total GULP energy -156401.888343 kJ/mol
# GULP energy per Si atom -5585.781727 kJ/mol
# Density = 2.359188 g / cm^3
# Si number density = 23.645701 Si / 1000 Ang^3
#
#
#
# Elastic Constant Matrix: (Units=GPa)
#
#
# Indices 1 2 3 4 5 6 
#
# 1 63.7506 6.9776 19.6167 0.0000 7.5013 0.0000
# 2 6.9776 85.0053 19.6410 0.0000 -7.2138 0.0000
# 3 19.6167 19.6410 98.8327 0.0000 8.8391 0.0000
# 4 0.0000 0.0000 0.0000 27.7441 0.0000 -0.5464
# 5 7.5013 -7.2138 8.8391 0.0000 34.7640 0.0000
# 6 0.0000 0.0000 0.0000 -0.5464 0.0000 19.6556
#
#
#
# Elastic Compliance Matrix: (Units=1/GPa)
#
#
# Indices 1 2 3 4 5 6 
#
# 1 0.017060 -0.000996 -0.002907 0.000000 -0.003149 0.000000
# 2 -0.000996 0.012759 -0.002654 0.000000 0.003537 0.000000
# 3 -0.002907 -0.002654 0.011477 0.000000 -0.002842 0.000000
# 4 0.000000 0.000000 0.000000 0.036063 0.000000 0.001002
# 5 -0.003149 0.003537 -0.002842 0.000000 0.030901 0.000000
# 6 0.000000 0.000000 0.000000 0.001002 0.000000 0.050904
#
#
# Mechanical properties :
#
#
# Convention : Reuss Voigt Hill
#
# Bulk Modulus (GPa) = 35.48351 37.78435 36.63393
# Shear Modulus (GPa) = 27.52206 29.85631 28.68918
#
# Velocity S-wave (km/s) = 3.41535 3.55724 3.48702
# Velocity P-wave (km/s) = 5.53098 5.73463 5.63372
#
# Compressibility (1/GPa) = 0.02818211
#
# Stress axis : x y z
#
# Youngs Moduli (GPa) = 58.61650 78.37467 87.13346
#
# Poissons Ratio (x) = 0.07806 0.25326
# Poissons Ratio (y) = 0.05838 0.23128
# Poissons Ratio (z) = 0.17037 0.20803
#
# Static dielectric constant tensor:
#      x y z
#    x 1.835170 0.000000 0.157720 
#    y 0.000000 1.935050 0.000000 
#    z 0.157720 0.000000 1.841410 
# 
# From -- ./inp_files/21998.got.cif
#   From: 2010.05.17/outbox.cif.g08.bks.cpg/sg13_11_cif.got.tgz:21998.got - 2010.06.03 16:44:36.
