data_PCOD9232625
_publ_section_title
;
Structure prediction by ZEFSAII (Michael W. Deem and Ramdas Pophale) SiO2 
 PCOD9232625
Probable space group: P 2/C
;
_chemical_formula_sum "Si O2"
_cell_formula_units_Z 20
_cell_length_a 7.799923
_cell_length_b 11.872601
_cell_length_c 8.572358
_cell_angle_alpha 90.000000
_cell_angle_beta 87.615067
_cell_angle_gamma 90.000000
_cell_volume 793.158792
_symmetry_space_group_name_H-M "P 2/C"
_symmetry_group_IT_number 13
_symmetry_cell_setting 'monoclinic'
loop_
_space_group_symop_operation_xyz
x,y,z
-x,y,1/2-z
-x,-y,-z
x,-y,1/2+z
loop_
_atom_site_type_symbol
_atom_site_label
_atom_site_fract_x
_atom_site_fract_y
_atom_site_fract_z
Si Si1 0.669033 0.552616 0.847738
Si Si2 0.702115 0.039828 0.702077
Si Si3 0.128670 0.398579 0.460664
Si Si4 0.439455 0.750854 0.432636
Si Si5 0.798701 0.838227 0.508081
O O1 0.500000 0.542778 0.750000
O O2 0.719487 0.435450 0.925952
O O3 0.809754 0.591819 0.718524
O O4 0.648155 0.644489 0.984505
O O5 0.500000 0.012518 0.750000
O O6 0.804012 0.932077 0.639596
O O7 0.680565 0.138061 0.572978
O O8 0.793257 0.096625 0.845336
O O9 0.078869 0.269897 0.494179
O O10 0.000000 0.500000 0.500000
O O11 0.500000 0.734251 0.250000
O O12 0.606707 0.784501 0.526065
#
# Coordination Sequence:
#
# PCOD9232625 Si02
#       5
#     4   4   4   4   4
#     4  12  26  43  75 103 140 193 262 302 364 436
#     4   9  19  33  64 107 152 178 233 305 374 419
#     4  12  29  47  67 105 153 200 245 306 378 438
#     4   9  20  38  65 109 149 183 236 312 360 428
#     4  10  21  37  66 103 148 182 238 294 376 430
#
# _framework density 25.215631999999999
#
# number of rings (size 3 to 8) (size 9 to 14) (size 15 to 20)
#    0.000    2.000    2.000    3.600   11.200    0.800 
#    0.000    0.000    0.000    1.200    0.000    0.000 
#    0.000    0.000    0.000    0.000    0.000    0.000 
#
# Total GULP energy -112018.382757 kJ/mol
# GULP energy per Si atom -5600.919138 kJ/mol
# Density = 2.515824 g / cm^3
# Si number density = 25.215632 Si / 1000 Ang^3
#
#
#
# Elastic Constant Matrix: (Units=GPa)
#
#
# Indices 1 2 3 4 5 6 
#
# 1 62.8972 44.2325 26.1284 0.0000 -6.2823 0.0000
# 2 44.2325 222.9010 67.9553 0.0000 1.4340 0.0000
# 3 26.1284 67.9553 99.2946 0.0000 0.8723 0.0000
# 4 0.0000 0.0000 0.0000 45.7004 0.0000 1.5292
# 5 -6.2823 1.4340 0.8723 0.0000 10.9127 0.0000
# 6 0.0000 0.0000 0.0000 1.5292 0.0000 32.1303
#
#
#
# Elastic Compliance Matrix: (Units=1/GPa)
#
#
# Indices 1 2 3 4 5 6 
#
# 1 0.020814 -0.003169 -0.003419 0.000000 0.012672 0.000000
# 2 -0.003169 0.006154 -0.003357 0.000000 -0.002365 0.000000
# 3 -0.003419 -0.003357 0.013291 0.000000 -0.002590 0.000000
# 4 0.000000 0.000000 0.000000 0.021917 0.000000 -0.001043
# 5 0.012672 -0.002365 -0.002590 0.000000 0.099449 0.000000
# 6 0.000000 0.000000 0.000000 -0.001043 0.000000 0.031173
#
#
# Mechanical properties :
#
#
# Convention : Reuss Voigt Hill
#
# Bulk Modulus (GPa) = 49.09713 73.52501 61.31107
# Shear Modulus (GPa) = 22.78136 34.20046 28.49091
#
# Velocity S-wave (km/s) = 3.00902 3.68682 3.36503
# Velocity P-wave (km/s) = 5.62010 6.88079 6.28215
#
# Compressibility (1/GPa) = 0.02036779
#
# Stress axis : x y z
#
# Youngs Moduli (GPa) = 48.04461 162.50047 75.23981
#
# Poissons Ratio (x) = 0.51504 0.25726
# Poissons Ratio (y) = 0.15227 0.25256
# Poissons Ratio (z) = 0.16427 0.54548
#
# Static dielectric constant tensor:
#      x y z
#    x 2.156590 0.000000 0.001810 
#    y 0.000000 1.989550 0.000000 
#    z 0.001810 0.000000 1.952960 
# 
# From -- ./inp_files/11684.got.cif
#   From: 2010.05.17/outbox.cif.g08.bks.cpg/sg13_6_cif.got.tgz:11684.got - 2010.06.03 16:44:36.
