data_PCOD9232271
_publ_section_title
;
Structure prediction by ZEFSAII (Michael W. Deem and Ramdas Pophale) SiO2 
 PCOD9232271
Probable space group: P 2/C
;
_chemical_formula_sum "Si O2"
_cell_formula_units_Z 20
_cell_length_a 11.214588
_cell_length_b 5.261885
_cell_length_c 13.812206
_cell_angle_alpha 90.000000
_cell_angle_beta 115.324721
_cell_angle_gamma 90.000000
_cell_volume 736.728015
_symmetry_space_group_name_H-M "P 2/C"
_symmetry_group_IT_number 13
_symmetry_cell_setting 'monoclinic'
loop_
_space_group_symop_operation_xyz
x,y,z
-x,y,1/2-z
-x,-y,-z
x,-y,1/2+z
loop_
_atom_site_type_symbol
_atom_site_label
_atom_site_fract_x
_atom_site_fract_y
_atom_site_fract_z
Si Si1 0.952115 0.077954 0.088549
Si Si2 0.395070 0.614555 0.624841
Si Si3 0.237758 0.222847 0.245238
Si Si4 0.488155 0.896997 0.363195
Si Si5 0.863698 0.576565 0.143037
O O1 0.860233 0.851335 0.094684
O O2 0.090695 0.109650 0.194380
O O3 0.881267 0.350350 0.070734
O O4 0.000000 0.000000 0.000000
O O5 0.500000 0.622747 0.750000
O O6 0.267193 0.668510 0.647229
O O7 0.425870 0.862173 0.572089
O O8 0.436064 0.361393 0.582108
O O9 0.339112 0.006230 0.315624
O O10 0.242454 0.463794 0.319025
O O11 0.500000 0.877530 0.250000
O O12 0.000000 0.582520 0.250000
#
# Coordination Sequence:
#
# PCOD9232271 Si02
#       5
#     4   4   4   4   4
#     4  11  23  37  53  82 118 154 191 227 282 354
#     4   8  15  26  45  78 103 126 170 226 278 321
#     4   9  19  35  58  81 114 147 183 244 283 319
#     4   8  15  26  45  78 103 126 170 226 278 321
#     4  10  21  36  56  81 108 149 199 237 276 329
#
# _framework density 27.147058000000001
#
# number of rings (size 3 to 8) (size 9 to 14) (size 15 to 20)
#    0.000    3.200    0.000    2.400    0.000   19.200 
#    0.000    0.000    0.000    0.000    0.000   72.800 
#    0.000    0.000    0.000    0.000    0.000    0.000 
#
# Total GULP energy -111639.064669 kJ/mol
# GULP energy per Si atom -5581.953233 kJ/mol
# Density = 2.708527 g / cm^3
# Si number density = 27.147058 Si / 1000 Ang^3
#
#
#
# Elastic Constant Matrix: (Units=GPa)
#
#
# Indices 1 2 3 4 5 6 
#
# 1 135.9506 61.7329 39.0756 0.0000 -10.8792 0.0000
# 2 61.7329 277.5888 31.7207 0.0000 -19.1595 0.0000
# 3 39.0756 31.7207 66.1571 0.0000 1.6707 0.0000
# 4 0.0000 0.0000 0.0000 8.5348 0.0000 7.9869
# 5 -10.8792 -19.1595 1.6707 0.0000 43.0607 0.0000
# 6 0.0000 0.0000 0.0000 7.9869 0.0000 -39.3072
#
#
#
# Elastic Compliance Matrix: (Units=1/GPa)
#
#
# Indices 1 2 3 4 5 6 
#
# 1 0.009611 -0.001424 -0.005045 0.000000 0.001991 0.000000
# 2 -0.001424 0.004162 -0.001193 0.000000 0.001538 0.000000
# 3 -0.005045 -0.001193 0.018731 0.000000 -0.002532 0.000000
# 4 0.000000 0.000000 0.000000 0.098448 0.000000 0.020004
# 5 0.001991 0.001538 -0.002532 0.000000 0.024509 0.000000
# 6 0.000000 0.000000 0.000000 0.020004 0.000000 -0.021376
#
#
# Mechanical properties :
#
#
# Convention : Reuss Voigt Hill
#
# Bulk Modulus (GPa) = 58.20380 82.75054 70.47717
# Shear Modulus (GPa) = 32.23003 25.60213 28.91608
#
# Velocity S-wave (km/s) = 3.44937 3.07431 3.26723
# Velocity P-wave (km/s) = 6.11154 6.56889 6.34434
#
# Compressibility (1/GPa) = 0.01718101
#
# Stress axis : x y z
#
# Youngs Moduli (GPa) = 104.04448 240.29275 53.38669
#
# Poissons Ratio (x) = 0.34208 0.26931
# Poissons Ratio (y) = 0.14812 0.06371
# Poissons Ratio (z) = 0.52486 0.28676
#
# Static dielectric constant tensor:
#      x y z
#    x 2.425790 0.000000 -0.288600 
#    y 0.000000 2.253940 0.000000 
#    z -0.288600 0.000000 2.506280 
# 
# From -- ./inp_files/48591.got.cif
#   From: 2010.05.17/outbox.cif.g08.bks.cpg/sg13_25_cif.got.tgz:48591.got - 2010.06.03 16:44:36.
