data_PCOD9232105
_publ_section_title
;
Structure prediction by ZEFSAII (Michael W. Deem and Ramdas Pophale) SiO2 
 PCOD9232105
Probable space group: P 2/C
;
_chemical_formula_sum "Si O2"
_cell_formula_units_Z 24
_cell_length_a 21.357303
_cell_length_b 11.631250
_cell_length_c 9.070331
_cell_angle_alpha 90.000000
_cell_angle_beta 143.817358
_cell_angle_gamma 90.000000
_cell_volume 1330.190124
_symmetry_space_group_name_H-M "P 2/C"
_symmetry_group_IT_number 13
_symmetry_cell_setting 'monoclinic'
loop_
_space_group_symop_operation_xyz
x,y,z
-x,y,1/2-z
-x,-y,-z
x,-y,1/2+z
loop_
_atom_site_type_symbol
_atom_site_label
_atom_site_fract_x
_atom_site_fract_y
_atom_site_fract_z
Si Si1 0.288622 0.737929 0.135545
Si Si2 0.424819 0.452161 0.731248
Si Si3 0.898202 0.358085 0.353208
Si Si4 0.323153 0.690335 0.532260
Si Si5 0.503114 0.123451 0.430981
Si Si6 0.867152 0.600008 0.136473
O O1 0.338461 0.627214 0.145221
O O2 0.275124 0.734325 0.286847
O O3 0.385113 0.825822 0.301969
O O4 0.173750 0.746032 0.842216
O O5 0.500000 0.396046 0.750000
O O6 0.374615 0.569898 0.575782
O O7 0.500000 0.500000 0.000000
O O8 0.877848 0.467541 0.208073
O O9 0.864372 0.392024 0.454897
O O10 0.024381 0.339992 0.601423
O O11 0.410076 0.778444 0.766802
O O12 0.234859 0.657145 0.483349
O O13 0.500000 0.104850 0.250000
O O14 0.500000 0.000000 0.500000
#
# Coordination Sequence:
#
# PCOD9232105 Si02
#       6
#     4   4   4   4   4   4
#     4  11  22  35  55  79 111 144 179 222 270 324
#     4  12  21  32  48  78 114 143 176 215 266 329
#     4  10  21  34  50  79 112 149 184 219 264 320
#     4  11  21  36  54  79 112 144 177 223 270 322
#     4  10  23  41  57  80 109 140 181 227 275 323
#     4  10  21  34  51  77 114 148 183 221 264 319
#
# _framework density 18.042532999999999
#
# number of rings (size 3 to 8) (size 9 to 14) (size 15 to 20)
#    0.000    1.333    5.000    1.500    2.333    4.000 
#    0.000    0.000    0.000    1.000    0.000    0.000 
#    0.000    0.000    0.000    0.000    0.000    0.000 
#
# Total GULP energy -133727.586085 kJ/mol
# GULP energy per Si atom -5571.982754 kJ/mol
# Density = 1.800147 g / cm^3
# Si number density = 18.042533 Si / 1000 Ang^3
#
#
#
# Elastic Constant Matrix: (Units=GPa)
#
#
# Indices 1 2 3 4 5 6 
#
# 1 68.4170 8.1300 8.3278 0.0000 9.1792 0.0000
# 2 8.1300 65.2282 28.8523 0.0000 5.7047 0.0000
# 3 8.3278 28.8523 95.0610 0.0000 5.6145 0.0000
# 4 0.0000 0.0000 0.0000 12.4679 0.0000 -6.5855
# 5 9.1792 5.7047 5.6145 0.0000 22.0164 0.0000
# 6 0.0000 0.0000 0.0000 -6.5855 0.0000 20.1909
#
#
#
# Elastic Compliance Matrix: (Units=1/GPa)
#
#
# Indices 1 2 3 4 5 6 
#
# 1 0.015645 -0.001123 -0.000672 0.000000 -0.006060 0.000000
# 2 -0.001123 0.018023 -0.005202 0.000000 -0.002875 0.000000
# 3 -0.000672 -0.005202 0.012246 0.000000 -0.001495 0.000000
# 4 0.000000 0.000000 0.000000 0.096900 0.000000 0.031605
# 5 -0.006060 -0.002875 -0.001495 0.000000 0.049074 0.000000
# 6 0.000000 0.000000 0.000000 0.031605 0.000000 0.059836
#
#
# Mechanical properties :
#
#
# Convention : Reuss Voigt Hill
#
# Bulk Modulus (GPa) = 31.32828 35.48070 33.40449
# Shear Modulus (GPa) = 18.09262 23.16145 20.62704
#
# Velocity S-wave (km/s) = 3.17010 3.58678 3.38486
# Velocity P-wave (km/s) = 5.54983 6.07133 5.81643
#
# Compressibility (1/GPa) = 0.03192004
#
# Stress axis : x y z
#
# Youngs Moduli (GPa) = 63.92005 55.48388 81.66178
#
# Poissons Ratio (x) = 0.06229 0.05486
# Poissons Ratio (y) = 0.07176 0.42482
# Poissons Ratio (z) = 0.04294 0.28863
#
# Static dielectric constant tensor:
#      x y z
#    x 1.664490 0.000000 0.032360 
#    y 0.000000 1.709580 0.000000 
#    z 0.032360 0.000000 1.660900 
# 
# From -- ./inp_files/15849.got.cif
#   From: 2010.05.17/outbox.cif.g08.bks.cpg/sg13_8_cif.got.tgz:15849.got - 2010.06.03 16:44:36.
