data_PCOD9232306
_publ_section_title
;
Structure prediction by ZEFSAII (Michael W. Deem and Ramdas Pophale) SiO2 
 PCOD9232306
Probable space group: P 2/C
;
_chemical_formula_sum "Si O2"
_cell_formula_units_Z 18
_cell_length_a 5.543380
_cell_length_b 18.069332
_cell_length_c 9.907818
_cell_angle_alpha 90.000000
_cell_angle_beta 123.379266
_cell_angle_gamma 90.000000
_cell_volume 828.715947
_symmetry_space_group_name_H-M "P 2/C"
_symmetry_group_IT_number 13
_symmetry_cell_setting 'monoclinic'
loop_
_space_group_symop_operation_xyz
x,y,z
-x,y,1/2-z
-x,-y,-z
x,-y,1/2+z
loop_
_atom_site_type_symbol
_atom_site_label
_atom_site_fract_x
_atom_site_fract_y
_atom_site_fract_z
Si Si1 0.500000 0.345549 0.250000
Si Si2 0.820059 0.971894 0.320782
Si Si3 0.800552 0.542381 0.049789
Si Si4 0.178723 0.793757 0.178011
Si Si5 0.798681 0.205353 0.299907
O O1 0.679922 0.390673 0.417394
O O2 0.693879 0.287124 0.224394
O O3 0.500000 0.998638 0.250000
O O4 0.798977 0.882858 0.299215
O O5 0.000000 0.999482 0.250000
O O6 0.000000 0.000000 0.500000
O O7 0.000000 0.554392 0.250000
O O8 0.500000 0.500000 0.000000
O O9 0.000000 0.500000 0.000000
O O10 0.500000 0.764142 0.250000
O O11 0.000000 0.763693 0.250000
O O12 0.987291 0.782767 0.988811
O O13 0.500000 0.166192 0.250000
O O14 0.000000 0.169904 0.250000
#
# Coordination Sequence:
#
# PCOD9232306 Si02
#       5
#     2   4   4   4   4
#     4  10  26  42  66  94 134 146 228 240 316 374
#     4  10  21  36  57  88 121 158 203 256 304 368
#     4  12  24  43  69  93 126 166 199 254 312 368
#     4  10  21  39  61  86 121 160 206 252 308 365
#     4  10  23  40  61  85 122 157 199 253 297 359
#
# _framework density 21.720351000000001
#
# number of rings (size 3 to 8) (size 9 to 14) (size 15 to 20)
#    0.667    0.889    2.222    2.000    3.111    2.667 
#    0.000    0.000    0.000    0.000    0.000    0.000 
#    0.000    0.000    0.000    0.000    0.000    0.000 
#
# Total GULP energy -100246.335154 kJ/mol
# GULP energy per Si atom -5569.240842 kJ/mol
# Density = 2.167091 g / cm^3
# Si number density = 21.720351 Si / 1000 Ang^3
#
#
#
# Elastic Constant Matrix: (Units=GPa)
#
#
# Indices 1 2 3 4 5 6 
#
# 1 216.1074 24.1176 72.5799 0.0000 13.1137 0.0000
# 2 24.1176 66.6936 -2.4822 0.0000 3.2775 0.0000
# 3 72.5799 -2.4822 157.4472 0.0000 8.7790 0.0000
# 4 0.0000 0.0000 0.0000 32.1539 0.0000 -12.9520
# 5 13.1137 3.2775 8.7790 0.0000 50.2141 0.0000
# 6 0.0000 0.0000 0.0000 -12.9520 0.0000 -57.0776
#
#
#
# Elastic Compliance Matrix: (Units=1/GPa)
#
#
# Indices 1 2 3 4 5 6 
#
# 1 0.005819 -0.002159 -0.002665 0.000000 -0.000913 0.000000
# 2 -0.002159 0.015856 0.001284 0.000000 -0.000696 0.000000
# 3 -0.002665 0.001284 0.007641 0.000000 -0.000724 0.000000
# 4 0.000000 0.000000 0.000000 0.028496 0.000000 -0.006466
# 5 -0.000913 -0.000696 -0.000724 0.000000 0.020325 0.000000
# 6 0.000000 0.000000 0.000000 -0.006466 0.000000 -0.016053
#
#
# Mechanical properties :
#
#
# Convention : Reuss Voigt Hill
#
# Bulk Modulus (GPa) = 44.97310 69.85319 57.41315
# Shear Modulus (GPa) = 65.29442 28.12694 46.71068
#
# Velocity S-wave (km/s) = 5.48878 3.60246 4.64243
# Velocity P-wave (km/s) = 7.80508 7.03802 7.43145
#
# Compressibility (1/GPa) = 0.02223551
#
# Stress axis : x y z
#
# Youngs Moduli (GPa) = 171.85632 63.06569 130.87889
#
# Poissons Ratio (x) = 0.13613 0.34886
# Poissons Ratio (y) = 0.37096 -0.16802
# Poissons Ratio (z) = 0.45808 -0.08096
#
# Static dielectric constant tensor:
#      x y z
#    x 1.814600 0.000000 0.013090 
#    y 0.000000 1.807270 0.000000 
#    z 0.013090 0.000000 1.744740 
# 
# From -- ./inp_files/10140.got.cif
#   From: 2010.05.17/outbox.cif.g08.bks.cpg/sg13_6_cif.got.tgz:10140.got - 2010.06.03 16:44:36.
