data_PCOD9232411
_publ_section_title
;
Structure prediction by ZEFSAII (Michael W. Deem and Ramdas Pophale) SiO2 
 PCOD9232411
Probable space group: P 2/C
;
_chemical_formula_sum "Si O2"
_cell_formula_units_Z 24
_cell_length_a 12.995943
_cell_length_b 11.817062
_cell_length_c 8.169197
_cell_angle_alpha 90.000000
_cell_angle_beta 105.812739
_cell_angle_gamma 90.000000
_cell_volume 1207.098805
_symmetry_space_group_name_H-M "P 2/C"
_symmetry_group_IT_number 13
_symmetry_cell_setting 'monoclinic'
loop_
_space_group_symop_operation_xyz
x,y,z
-x,y,1/2-z
-x,-y,-z
x,-y,1/2+z
loop_
_atom_site_type_symbol
_atom_site_label
_atom_site_fract_x
_atom_site_fract_y
_atom_site_fract_z
Si Si1 0.951616 0.275000 0.045066
Si Si2 0.721552 0.103191 0.261729
Si Si3 0.820595 0.325581 0.451168
Si Si4 0.119863 0.459512 0.720791
Si Si5 0.421553 0.932349 0.086539
Si Si6 0.082534 0.065480 0.646362
O O1 0.000000 0.264162 0.250000
O O2 0.060762 0.274723 0.989940
O O3 0.895668 0.388655 0.954869
O O4 0.880884 0.171673 0.947630
O O5 0.750168 0.218570 0.369191
O O6 0.648078 0.024112 0.344195
O O7 0.823522 0.021772 0.265742
O O8 0.658187 0.132967 0.068313
O O9 0.808654 0.389090 0.619432
O O10 0.829699 0.421672 0.313866
O O11 0.000000 0.473330 0.750000
O O12 0.500000 0.870903 0.250000
O O13 0.500000 0.000000 0.000000
O O14 0.000000 0.101788 0.750000
O O15 0.000000 0.000000 0.500000
#
# Coordination Sequence:
#
# PCOD9232411 Si02
#       6
#     4   4   4   4   4   4
#     4  11  22  35  53  74 127 180 212 245 286 342
#     4  11  23  36  66  92 122 161 204 248 322 380
#     4  11  21  37  55  84 119 167 217 249 288 351
#     4  10  21  37  55  75 122 178 226 248 281 333
#     4   9  21  44  64  90 119 148 200 265 327 390
#     4  12  23  34  50  89 137 169 195 240 304 378
#
# _framework density 19.882382
#
# number of rings (size 3 to 8) (size 9 to 14) (size 15 to 20)
#    0.000    1.333    1.667    6.500    4.667    0.667 
#    0.000    0.000    0.000    0.000    0.000   15.167 
#    0.000    0.000    0.000    0.000    0.000    0.000 
#
# Total GULP energy -133715.749395 kJ/mol
# GULP energy per Si atom -5571.489558 kJ/mol
# Density = 1.983713 g / cm^3
# Si number density = 19.882382 Si / 1000 Ang^3
#
#
#
# Elastic Constant Matrix: (Units=GPa)
#
#
# Indices 1 2 3 4 5 6 
#
# 1 62.0864 16.7070 24.7171 0.0000 0.7593 0.0000
# 2 16.7070 110.4845 56.3840 0.0000 7.2946 0.0000
# 3 24.7171 56.3840 142.9397 0.0000 11.5741 0.0000
# 4 0.0000 0.0000 0.0000 36.2491 0.0000 -1.8666
# 5 0.7593 7.2946 11.5741 0.0000 34.1529 0.0000
# 6 0.0000 0.0000 0.0000 -1.8666 0.0000 9.6616
#
#
#
# Elastic Compliance Matrix: (Units=1/GPa)
#
#
# Indices 1 2 3 4 5 6 
#
# 1 0.017483 -0.001402 -0.002532 0.000000 0.000769 0.000000
# 2 -0.001402 0.011474 -0.004203 0.000000 -0.000995 0.000000
# 3 -0.002532 -0.004203 0.009269 0.000000 -0.002187 0.000000
# 4 0.000000 0.000000 0.000000 0.027864 0.000000 0.005383
# 5 0.000769 -0.000995 -0.002187 0.000000 0.030217 0.000000
# 6 0.000000 0.000000 0.000000 0.005383 0.000000 0.104542
#
#
# Mechanical properties :
#
#
# Convention : Reuss Voigt Hill
#
# Bulk Modulus (GPa) = 45.55698 56.79187 51.17442
# Shear Modulus (GPa) = 22.27772 30.52622 26.40197
#
# Velocity S-wave (km/s) = 3.35098 3.92259 3.64800
# Velocity P-wave (km/s) = 6.15915 7.01010 6.59836
#
# Compressibility (1/GPa) = 0.02195053
#
# Stress axis : x y z
#
# Youngs Moduli (GPa) = 57.19974 87.15632 107.88883
#
# Poissons Ratio (x) = 0.12220 0.27320
# Poissons Ratio (y) = 0.08020 0.45344
# Poissons Ratio (z) = 0.14485 0.36631
#
# Static dielectric constant tensor:
#      x y z
#    x 1.830440 0.000000 -0.196370 
#    y 0.000000 1.807000 0.000000 
#    z -0.196370 0.000000 1.994270 
# 
# From -- ./inp_files/18619.got.cif
#   From: 2010.05.17/outbox.cif.g08.bks.cpg/sg13_10_cif.got.tgz:18619.got - 2010.06.03 16:44:36.
