data_PCOD9232051
_publ_section_title
;
Structure prediction by ZEFSAII (Michael W. Deem and Ramdas Pophale) SiO2 
 PCOD9232051
Probable space group: P 2/C
;
_chemical_formula_sum "Si O2"
_cell_formula_units_Z 18
_cell_length_a 9.915970
_cell_length_b 11.051614
_cell_length_c 8.093255
_cell_angle_alpha 90.000000
_cell_angle_beta 55.922208
_cell_angle_gamma 90.000000
_cell_volume 734.615421
_symmetry_space_group_name_H-M "P 2/C"
_symmetry_group_IT_number 13
_symmetry_cell_setting 'monoclinic'
loop_
_space_group_symop_operation_xyz
x,y,z
-x,y,1/2-z
-x,-y,-z
x,-y,1/2+z
loop_
_atom_site_type_symbol
_atom_site_label
_atom_site_fract_x
_atom_site_fract_y
_atom_site_fract_z
Si Si1 0.500000 0.949276 0.250000
Si Si2 0.010303 0.733577 0.568773
Si Si3 0.261553 0.375771 0.428280
Si Si4 0.663545 0.354772 0.741740
Si Si5 0.688965 0.854968 0.805960
O O1 0.426139 0.880927 0.459008
O O2 0.357105 0.039179 0.287785
O O3 0.199413 0.744341 0.400627
O O4 0.000000 0.661988 0.750000
O O5 0.925917 0.661791 0.477186
O O6 0.885501 0.844534 0.689202
O O7 0.328168 0.360349 0.566269
O O8 0.283220 0.511711 0.353968
O O9 0.344524 0.277217 0.249245
O O10 0.500000 0.335924 0.750000
#
# Coordination Sequence:
#
# PCOD9232051 Si02
#       5
#     2   4   4   4   4
#     4  10  20  54  78 116 136 208 250 364 374 464
#     4  10  23  47  70 111 157 212 245 316 382 473
#     4  10  24  44  72 116 157 215 252 319 378 477
#     4  12  24  43  75 113 167 210 255 304 384 471
#     4   9  24  43  83 107 160 185 271 315 417 441
#
# _framework density 24.502616
#
# number of rings (size 3 to 8) (size 9 to 14) (size 15 to 20)
#    1.333    0.444    0.000    3.333    1.556    1.778 
#   10.000    1.111    4.889    0.000    0.000    0.000 
#    0.000    0.000    0.000    0.000    0.000    0.000 
#
# Total GULP energy -100465.697277 kJ/mol
# GULP energy per Si atom -5581.427627 kJ/mol
# Density = 2.444685 g / cm^3
# Si number density = 24.502616 Si / 1000 Ang^3
#
#
#
# Elastic Constant Matrix: (Units=GPa)
#
#
# Indices 1 2 3 4 5 6 
#
# 1 224.1965 26.6464 60.3605 0.0000 -5.5614 0.0000
# 2 26.6464 81.6822 29.7012 0.0000 -3.4320 0.0000
# 3 60.3605 29.7012 110.0676 0.0000 10.7847 0.0000
# 4 0.0000 0.0000 0.0000 28.6904 0.0000 7.1767
# 5 -5.5614 -3.4320 10.7847 0.0000 50.4376 0.0000
# 6 0.0000 0.0000 0.0000 7.1767 0.0000 32.1130
#
#
#
# Elastic Compliance Matrix: (Units=1/GPa)
#
#
# Indices 1 2 3 4 5 6 
#
# 1 0.005338 -0.000651 -0.002865 0.000000 0.001157 0.000000
# 2 -0.000651 0.013806 -0.003527 0.000000 0.001622 0.000000
# 3 -0.002865 -0.003527 0.011912 0.000000 -0.003103 0.000000
# 4 0.000000 0.000000 0.000000 0.036919 0.000000 -0.008251
# 5 0.001157 0.001622 -0.003103 0.000000 0.020728 0.000000
# 6 0.000000 0.000000 0.000000 -0.008251 0.000000 0.032984
#
#
# Mechanical properties :
#
#
# Convention : Reuss Voigt Hill
#
# Bulk Modulus (GPa) = 58.92968 72.15140 65.54054
# Shear Modulus (GPa) = 35.35340 42.19741 38.77541
#
# Velocity S-wave (km/s) = 3.80260 4.15439 3.98238
# Velocity P-wave (km/s) = 6.58652 7.24723 6.92476
#
# Compressibility (1/GPa) = 0.01696938
#
# Stress axis : x y z
#
# Youngs Moduli (GPa) = 187.34476 72.43402 83.94688
#
# Poissons Ratio (x) = 0.04715 0.24050
# Poissons Ratio (y) = 0.12195 0.29611
# Poissons Ratio (z) = 0.53672 0.25550
#
# Static dielectric constant tensor:
#      x y z
#    x 2.013530 0.000000 -0.025480 
#    y 0.000000 1.956290 0.000000 
#    z -0.025480 0.000000 2.006720 
# 
# From -- ./inp_files/15739.got.cif
#   From: 2010.05.17/outbox.cif.g08.bks.cpg/sg13_8_cif.got.tgz:15739.got - 2010.06.03 16:44:36.
