data_PCOD9232373
_publ_section_title
;
Structure prediction by ZEFSAII (Michael W. Deem and Ramdas Pophale) SiO2 
 PCOD9232373
Probable space group: P 2/C
;
_chemical_formula_sum "Si O2"
_cell_formula_units_Z 24
_cell_length_a 9.797458
_cell_length_b 9.589836
_cell_length_c 23.033015
_cell_angle_alpha 90.000000
_cell_angle_beta 146.453202
_cell_angle_gamma 90.000000
_cell_volume 1195.915048
_symmetry_space_group_name_H-M "P 2/C"
_symmetry_group_IT_number 13
_symmetry_cell_setting 'monoclinic'
loop_
_space_group_symop_operation_xyz
x,y,z
-x,y,1/2-z
-x,-y,-z
x,-y,1/2+z
loop_
_atom_site_type_symbol
_atom_site_label
_atom_site_fract_x
_atom_site_fract_y
_atom_site_fract_z
Si Si1 0.818895 0.292524 0.928682
Si Si2 0.775706 0.977365 0.333884
Si Si3 0.720403 0.147127 0.002739
Si Si4 0.747933 0.013836 0.195151
Si Si5 0.963126 0.303301 0.300286
Si Si6 0.768598 0.419186 0.348727
O O1 0.815827 0.154116 0.889483
O O2 0.747066 0.423084 0.863750
O O3 0.663534 0.259737 0.932070
O O4 0.078735 0.337538 0.048518
O O5 0.500000 0.034704 0.250000
O O6 0.762111 0.936111 0.261717
O O7 0.018896 0.074612 0.423937
O O8 0.793101 0.222305 0.088646
O O9 0.498025 0.037283 0.924352
O O10 0.000000 0.985449 0.250000
O O11 0.765704 0.178025 0.218774
O O12 0.886889 0.400528 0.326876
O O13 0.000000 0.369352 0.250000
O O14 0.500000 0.356595 0.250000
#
# Coordination Sequence:
#
# PCOD9232373 Si02
#       6
#     4   4   4   4   4   4
#     4  10  21  38  59  88 119 155 196 254 299 353
#     4  11  21  34  61  92 123 157 198 249 307 363
#     4  10  21  36  62  89 127 152 201 251 310 363
#     4  10  22  37  56  90 123 160 196 245 307 363
#     4   9  21  38  58  85 117 158 197 247 296 357
#     4  10  22  38  61  84 117 158 206 246 295 353
#
# _framework density 20.068314999999998
#
# number of rings (size 3 to 8) (size 9 to 14) (size 15 to 20)
#    0.000    2.000    1.667    1.000    2.333   10.667 
#    0.000    0.833    0.000    3.000    0.000    0.000 
#    0.000    0.000    0.000    0.000    0.000    0.000 
#
# Total GULP energy -133717.783927 kJ/mol
# GULP energy per Si atom -5571.574330 kJ/mol
# Density = 2.002264 g / cm^3
# Si number density = 20.068315 Si / 1000 Ang^3
#
#
#
# Elastic Constant Matrix: (Units=GPa)
#
#
# Indices 1 2 3 4 5 6 
#
# 1 113.3171 22.6152 57.4130 0.0000 -19.5658 0.0000
# 2 22.6152 57.3819 37.2888 0.0000 -8.1785 0.0000
# 3 57.4130 37.2888 120.0431 0.0000 3.6642 0.0000
# 4 0.0000 0.0000 0.0000 2.3572 0.0000 -9.5171
# 5 -19.5658 -8.1785 3.6642 0.0000 39.6982 0.0000
# 6 0.0000 0.0000 0.0000 -9.5171 0.0000 16.7539
#
#
#
# Elastic Compliance Matrix: (Units=1/GPa)
#
#
# Indices 1 2 3 4 5 6 
#
# 1 0.013445 0.000073 -0.006675 0.000000 0.007258 0.000000
# 2 0.000073 0.022933 -0.007324 0.000000 0.005436 0.000000
# 3 -0.006675 -0.007324 0.013984 0.000000 -0.006089 0.000000
# 4 0.000000 0.000000 0.000000 -0.327978 0.000000 -0.186309
# 5 0.007258 0.005436 -0.006089 0.000000 0.030449 0.000000
# 6 0.000000 0.000000 0.000000 -0.186309 0.000000 -0.046145
#
#
# Mechanical properties :
#
#
# Convention : Reuss Voigt Hill
#
# Bulk Modulus (GPa) = 44.42593 58.37514 51.40053
# Shear Modulus (GPa) = -19.38303 23.32355 1.97026
#
# Velocity S-wave (km/s) = -3.11119 3.41282 0.99192
# Velocity P-wave (km/s) = 3.04621 6.68439 5.19425
#
# Compressibility (1/GPa) = 0.02250938
#
# Stress axis : x y z
#
# Youngs Moduli (GPa) = 74.37650 43.60555 71.51238
#
# Poissons Ratio (x) = -0.00317 0.47731
# Poissons Ratio (y) = -0.00542 0.52378
# Poissons Ratio (z) = 0.49643 0.31938
#
# Static dielectric constant tensor:
#      x y z
#    x 1.796070 0.000000 -0.014490 
#    y 0.000000 1.752110 0.000000 
#    z -0.014490 0.000000 1.775150 
# 
# From -- ./inp_files/85244.got.cif
#   From: 2010.05.17/outbox.cif.g08.bks.cpg/sg13_43_cif.got.tgz:85244.got - 2010.06.03 16:44:36.
