data_PCOD9232397
_publ_section_title
;
Structure prediction by ZEFSAII (Michael W. Deem and Ramdas Pophale) SiO2 
 PCOD9232397
Probable space group: P 2/C
;
_chemical_formula_sum "Si O2"
_cell_formula_units_Z 20
_cell_length_a 17.671210
_cell_length_b 8.641927
_cell_length_c 12.316145
_cell_angle_alpha 90.000000
_cell_angle_beta 31.867841
_cell_angle_gamma 90.000000
_cell_volume 993.011153
_symmetry_space_group_name_H-M "P 2/C"
_symmetry_group_IT_number 13
_symmetry_cell_setting 'monoclinic'
loop_
_space_group_symop_operation_xyz
x,y,z
-x,y,1/2-z
-x,-y,-z
x,-y,1/2+z
loop_
_atom_site_type_symbol
_atom_site_label
_atom_site_fract_x
_atom_site_fract_y
_atom_site_fract_z
Si Si1 0.332286 0.732835 0.433029
Si Si2 0.070669 0.836952 0.886970
Si Si3 0.211067 0.685879 0.350326
Si Si4 0.140509 0.354783 0.513494
Si Si5 0.667148 0.362129 0.029894
O O1 0.500000 0.764314 0.250000
O O2 0.220836 0.831519 0.640158
O O3 0.291849 0.755701 0.355709
O O4 0.306473 0.549598 0.494713
O O5 0.095872 0.756945 0.972042
O O6 0.952300 0.742852 0.961798
O O7 0.000000 0.000000 0.000000
O O8 0.211732 0.502963 0.371875
O O9 0.282496 0.705746 0.145927
O O10 0.246011 0.289009 0.476053
O O11 0.000000 0.407112 0.750000
O O12 0.500000 0.339254 0.250000
#
# Coordination Sequence:
#
# PCOD9232397 Si02
#       5
#     4   4   4   4   4
#     4  10  23  40  66  97 128 162 207 264 325 374
#     4  12  25  42  63  90 128 173 215 256 307 378
#     4  11  21  41  65  93 128 163 211 262 316 374
#     4  11  21  37  66  92 122 159 217 263 310 373
#     4  10  21  36  66 103 127 158 204 271 324 368
#
# _framework density 20.140761000000001
#
# number of rings (size 3 to 8) (size 9 to 14) (size 15 to 20)
#    0.000    1.200    4.000    3.600    2.800    4.000 
#    0.000    2.000    0.000    0.000    0.000    0.000 
#    0.000    0.000    0.000    0.000    0.000    0.000 
#
# Total GULP energy -111744.230980 kJ/mol
# GULP energy per Si atom -5587.211549 kJ/mol
# Density = 2.009492 g / cm^3
# Si number density = 20.140761 Si / 1000 Ang^3
#
#
#
# Elastic Constant Matrix: (Units=GPa)
#
#
# Indices 1 2 3 4 5 6 
#
# 1 191.5061 26.2506 75.8325 0.0000 5.8516 0.0000
# 2 26.2506 32.9741 21.2692 0.0000 9.5218 0.0000
# 3 75.8325 21.2692 112.2869 0.0000 -10.1849 0.0000
# 4 0.0000 0.0000 0.0000 9.4609 0.0000 2.5126
# 5 5.8516 9.5218 -10.1849 0.0000 32.7295 0.0000
# 6 0.0000 0.0000 0.0000 2.5126 0.0000 -7.3099
#
#
#
# Elastic Compliance Matrix: (Units=1/GPa)
#
#
# Indices 1 2 3 4 5 6 
#
# 1 0.007516 -0.002211 -0.004858 0.000000 -0.002212 0.000000
# 2 -0.002211 0.040937 -0.007517 0.000000 -0.013853 0.000000
# 3 -0.004858 -0.007517 0.014291 0.000000 0.007502 0.000000
# 4 0.000000 0.000000 0.000000 0.096856 0.000000 0.033293
# 5 -0.002212 -0.013853 0.007502 0.000000 0.037314 0.000000
# 6 0.000000 0.000000 0.000000 0.033293 0.000000 -0.125358
#
#
# Mechanical properties :
#
#
# Convention : Reuss Voigt Hill
#
# Bulk Modulus (GPa) = 29.78786 64.83021 47.30904
# Shear Modulus (GPa) = 44.67530 21.20377 32.93953
#
# Velocity S-wave (km/s) = 4.71484 3.24818 4.04848
# Velocity P-wave (km/s) = 6.66795 6.80632 6.73749
#
# Compressibility (1/GPa) = 0.03357072
#
# Stress axis : x y z
#
# Youngs Moduli (GPa) = 133.04911 24.42806 69.97519
#
# Poissons Ratio (x) = 0.05402 0.33992
# Poissons Ratio (y) = 0.29422 0.52602
# Poissons Ratio (z) = 0.64631 0.18363
#
# Static dielectric constant tensor:
#      x y z
#    x 1.641830 0.000000 0.080570 
#    y 0.000000 1.720020 0.000000 
#    z 0.080570 0.000000 1.614040 
# 
# From -- ./inp_files/28120.got.cif
#   From: 2010.05.17/outbox.cif.g08.bks.cpg/sg13_15_cif.got.tgz:28120.got - 2010.06.03 16:44:36.
