data_PCOD9232185
_publ_section_title
;
Structure prediction by ZEFSAII (Michael W. Deem and Ramdas Pophale) SiO2 
 PCOD9232185
Probable space group: P 2/C
;
_chemical_formula_sum "Si O2"
_cell_formula_units_Z 28
_cell_length_a 18.472026
_cell_length_b 14.028022
_cell_length_c 7.689919
_cell_angle_alpha 90.000000
_cell_angle_beta 48.178856
_cell_angle_gamma 90.000000
_cell_volume 1484.988365
_symmetry_space_group_name_H-M "P 2/C"
_symmetry_group_IT_number 13
_symmetry_cell_setting 'monoclinic'
loop_
_space_group_symop_operation_xyz
x,y,z
-x,y,1/2-z
-x,-y,-z
x,-y,1/2+z
loop_
_atom_site_type_symbol
_atom_site_label
_atom_site_fract_x
_atom_site_fract_y
_atom_site_fract_z
Si Si1 0.739290 0.555501 0.272753
Si Si2 0.679338 0.862913 0.240396
Si Si3 0.068357 0.574247 0.987419
Si Si4 0.604098 0.053622 0.182827
Si Si5 0.516393 0.774861 0.018895
Si Si6 0.217697 0.297335 0.099911
Si Si7 0.668922 0.374834 0.252664
O O1 0.656882 0.477165 0.364488
O O2 0.725790 0.604477 0.481548
O O3 0.837335 0.489867 0.111705
O O4 0.743761 0.629729 0.108930
O O5 0.685430 0.902586 0.425157
O O6 0.588885 0.789624 0.395048
O O7 0.640729 0.953343 0.194037
O O8 0.765058 0.806720 0.008279
O O9 0.000000 0.611042 0.250000
O O10 0.110596 0.662517 0.811331
O O11 0.000000 0.500000 0.000000
O O12 0.500000 0.041257 0.250000
O O13 0.579536 0.132028 0.367992
O O14 0.500000 0.769186 0.250000
O O15 0.571588 0.681703 0.867392
O O16 0.275494 0.310871 0.189835
#
# Coordination Sequence:
#
# PCOD9232185 Si02
#       7
#     4   4   4   4   4   4   4
#     4  11  21  39  54  84 116 148 187 237 284 339
#     4  11  21  37  56  83 113 151 197 243 291 326
#     4  11  19  36  62  84 111 143 182 228 288 342
#     4  10  21  35  58  81 109 152 201 246 291 327
#     4  11  20  35  54  77 111 156 199 240 272 333
#     4  11  22  36  58  84 119 146 186 243 282 345
#     4  11  21  35  56  76 117 156 193 236 279 332
#
# _framework density 18.855366
#
# number of rings (size 3 to 8) (size 9 to 14) (size 15 to 20)
#    0.000    1.143    5.714    4.714    0.000    0.000 
#    0.000    2.857    0.000    0.000    0.000    1.000 
#    0.000    0.000    0.000    0.000    0.000    0.000 
#
# Total GULP energy -156210.439565 kJ/mol
# GULP energy per Si atom -5578.944270 kJ/mol
# Density = 1.881245 g / cm^3
# Si number density = 18.855366 Si / 1000 Ang^3
#
#
#
# Elastic Constant Matrix: (Units=GPa)
#
#
# Indices 1 2 3 4 5 6 
#
# 1 28.5045 18.8432 21.4620 0.0000 -1.0794 0.0000
# 2 18.8432 95.4089 66.2412 0.0000 -12.2303 0.0000
# 3 21.4620 66.2412 140.6896 0.0000 12.6792 0.0000
# 4 0.0000 0.0000 0.0000 41.5351 0.0000 -8.0782
# 5 -1.0794 -12.2303 12.6792 0.0000 22.6055 0.0000
# 6 0.0000 0.0000 0.0000 -8.0782 0.0000 12.9846
#
#
#
# Elastic Compliance Matrix: (Units=1/GPa)
#
#
# Indices 1 2 3 4 5 6 
#
# 1 0.041625 -0.005275 -0.003990 0.000000 0.001371 0.000000
# 2 -0.005275 0.021166 -0.010712 0.000000 0.017208 0.000000
# 3 -0.003990 -0.010712 0.014007 0.000000 -0.013842 0.000000
# 4 0.000000 0.000000 0.000000 0.027390 0.000000 0.017040
# 5 0.001371 0.017208 -0.013842 0.000000 0.061377 0.000000
# 6 0.000000 0.000000 0.000000 0.017040 0.000000 0.087616
#
#
# Mechanical properties :
#
#
# Convention : Reuss Voigt Hill
#
# Bulk Modulus (GPa) = 27.14036 53.07732 40.10884
# Shear Modulus (GPa) = 16.37110 25.96212 21.16661
#
# Velocity S-wave (km/s) = 2.94980 3.71470 3.35412
# Velocity P-wave (km/s) = 5.10166 6.82711 6.02646
#
# Compressibility (1/GPa) = 0.03684550
#
# Stress axis : x y z
#
# Youngs Moduli (GPa) = 24.02379 47.24607 71.39097
#
# Poissons Ratio (x) = 0.24923 0.28483
# Poissons Ratio (y) = 0.12673 0.76471
# Poissons Ratio (z) = 0.09585 0.50608
#
# Static dielectric constant tensor:
#      x y z
#    x 1.720630 0.000000 0.035310 
#    y 0.000000 1.676690 0.000000 
#    z 0.035310 0.000000 1.768100 
# 
# From -- ./inp_files/23206.got.cif
#   From: 2010.05.17/outbox.cif.g08.bks.cpg/sg13_12_cif.got.tgz:23206.got - 2010.06.03 16:44:36.
