data_PCOD9232516
_publ_section_title
;
Structure prediction by ZEFSAII (Michael W. Deem and Ramdas Pophale) SiO2 
 PCOD9232516
Probable space group: P 2/C
;
_chemical_formula_sum "Si O2"
_cell_formula_units_Z 12
_cell_length_a 6.985140
_cell_length_b 13.498332
_cell_length_c 8.170489
_cell_angle_alpha 90.000000
_cell_angle_beta 140.381856
_cell_angle_gamma 90.000000
_cell_volume 491.244686
_symmetry_space_group_name_H-M "P 2/C"
_symmetry_group_IT_number 13
_symmetry_cell_setting 'monoclinic'
loop_
_space_group_symop_operation_xyz
x,y,z
-x,y,1/2-z
-x,-y,-z
x,-y,1/2+z
loop_
_atom_site_type_symbol
_atom_site_label
_atom_site_fract_x
_atom_site_fract_y
_atom_site_fract_z
Si Si1 0.636807 0.397942 0.158645
Si Si2 0.859016 0.690107 0.333870
Si Si3 0.140898 0.900560 0.020125
O O1 0.500000 0.382756 0.250000
O O2 0.988235 0.382234 0.430601
O O3 0.500000 0.500000 0.000000
O O4 0.494575 0.320156 0.936816
O O5 0.936089 0.802202 0.428355
O O6 0.000000 0.664501 0.250000
O O7 0.500000 0.910479 0.250000
O O8 0.000000 0.886407 0.750000
O O9 0.000000 0.000000 0.000000
#
# Coordination Sequence:
#
# PCOD9232516 Si02
#       3
#     4   4   4
#     4  10  21  37  60  89 124 165 209 261 315 370
#     4  10  22  41  62  89 126 166 210 263 318 374
#     4  12  26  44  68  98 129 169 215 268 327 390
#
# _framework density 24.427748000000001
#
# number of rings (size 3 to 8) (size 9 to 14) (size 15 to 20)
#    0.000    1.333    0.000    5.000    0.000    8.000 
#    0.000    0.000    0.000    0.000    0.000    0.000 
#    0.000    0.000    0.000    0.000    0.000    0.000 
#
# Total GULP energy -67144.241366 kJ/mol
# GULP energy per Si atom -5595.353447 kJ/mol
# Density = 2.437215 g / cm^3
# Si number density = 24.427748 Si / 1000 Ang^3
#
#
#
# Elastic Constant Matrix: (Units=GPa)
#
#
# Indices 1 2 3 4 5 6 
#
# 1 51.9503 -12.3261 56.5609 0.0000 4.8683 0.0000
# 2 -12.3261 142.7713 73.8106 0.0000 -17.5053 0.0000
# 3 56.5609 73.8106 274.0425 0.0000 -9.5509 0.0000
# 4 0.0000 0.0000 0.0000 56.5669 0.0000 -13.4306
# 5 4.8683 -17.5053 -9.5509 0.0000 45.3948 0.0000
# 6 0.0000 0.0000 0.0000 -13.4306 0.0000 41.4032
#
#
#
# Elastic Compliance Matrix: (Units=1/GPa)
#
#
# Indices 1 2 3 4 5 6 
#
# 1 0.029574 0.006342 -0.007895 0.000000 -0.002387 0.000000
# 2 0.006342 0.009839 -0.003879 0.000000 0.002298 0.000000
# 3 -0.007895 -0.003879 0.006347 0.000000 0.000686 0.000000
# 4 0.000000 0.000000 0.000000 0.019153 0.000000 0.006213
# 5 -0.002387 0.002298 0.000686 0.000000 0.023315 0.000000
# 6 0.000000 0.000000 0.000000 0.006213 0.000000 0.026168
#
#
# Mechanical properties :
#
#
# Convention : Reuss Voigt Hill
#
# Bulk Modulus (GPa) = 28.65662 78.31722 53.48692
# Shear Modulus (GPa) = 36.52503 52.05424 44.28963
#
# Velocity S-wave (km/s) = 3.87101 4.62123 4.26266
# Velocity P-wave (km/s) = 5.63350 7.78490 6.79489
#
# Compressibility (1/GPa) = 0.03489595
#
# Stress axis : x y z
#
# Youngs Moduli (GPa) = 33.81389 101.63798 157.54777
#
# Poissons Ratio (x) = -0.64462 1.24388
# Poissons Ratio (y) = -0.21446 0.61112
# Poissons Ratio (z) = 0.26697 0.39425
#
# Static dielectric constant tensor:
#      x y z
#    x 1.993690 0.000000 0.088860 
#    y 0.000000 1.956330 0.000000 
#    z 0.088860 0.000000 1.946260 
# 
# From -- ./inp_files/8457.got.cif
#   From: 2010.05.17/outbox.cif.g08.bks.cpg/sg13_5_cif.got.tgz:8457.got - 2010.06.03 16:44:36.
