data_PCOD9232308
_publ_section_title
;
Structure prediction by ZEFSAII (Michael W. Deem and Ramdas Pophale) SiO2 
 PCOD9232308
Probable space group: P 2/C
;
_chemical_formula_sum "Si O2"
_cell_formula_units_Z 30
_cell_length_a 8.123823
_cell_length_b 23.761187
_cell_length_c 12.050037
_cell_angle_alpha 90.000000
_cell_angle_beta 42.971050
_cell_angle_gamma 90.000000
_cell_volume 1585.494934
_symmetry_space_group_name_H-M "P 2/C"
_symmetry_group_IT_number 13
_symmetry_cell_setting 'monoclinic'
loop_
_space_group_symop_operation_xyz
x,y,z
-x,y,1/2-z
-x,-y,-z
x,-y,1/2+z
loop_
_atom_site_type_symbol
_atom_site_label
_atom_site_fract_x
_atom_site_fract_y
_atom_site_fract_z
Si Si1 0.363965 0.548449 0.703558
Si Si2 0.263711 0.962357 0.128103
Si Si3 0.742129 0.568992 0.322956
Si Si4 0.262785 0.228977 0.617056
Si Si5 0.548299 0.321472 0.598996
Si Si6 0.255634 0.131690 0.805537
Si Si7 0.270516 0.135590 0.437961
Si Si8 0.000000 0.372267 0.250000
O O1 0.500000 0.563715 0.750000
O O2 0.571700 0.551813 0.508947
O O3 0.258280 0.484948 0.758372
O O4 0.157355 0.589315 0.756943
O O5 0.276904 0.929000 0.237319
O O6 0.000000 0.991578 0.250000
O O7 0.259775 0.913599 0.035952
O O8 0.500000 0.000000 0.000000
O O9 0.620343 0.623282 0.328749
O O10 0.000000 0.580456 0.250000
O O11 0.457172 0.273374 0.560338
O O12 0.243391 0.178841 0.716236
O O13 0.304370 0.195797 0.482216
O O14 0.000000 0.257638 0.750000
O O15 0.500000 0.301957 0.750000
O O16 0.813359 0.338448 0.421905
O O17 0.500000 0.142248 0.750000
O O18 0.991717 0.134960 0.992249
O O19 0.500000 0.124561 0.250000
#
# Coordination Sequence:
#
# PCOD9232308 Si02
#       8
#     4   4   4   4   4   4   4   2
#     4  10  21  38  60  82 119 157 185 248 296 343
#     4   9  19  34  53  79 120 157 193 239 286 344
#     4  10  21  36  57  90 111 147 205 231 288 374
#     4   9  19  40  59  80 110 144 193 241 292 360
#     4  11  23  40  61  86 117 156 189 246 306 348
#     4   9  18  35  58  80 108 149 192 237 292 348
#     4   9  19  37  58  84 113 153 196 247 300 354
#     4  10  24  44  56  92 126 146 206 246 284 382
#
# _framework density 18.921534999999999
#
# number of rings (size 3 to 8) (size 9 to 14) (size 15 to 20)
#    0.000    2.400    0.667    2.800    1.867    2.133 
#    7.200    4.667    0.000    0.000    0.000    0.000 
#    0.000    0.000    0.000    0.000    0.000    0.000 
#
# Total GULP energy -167139.991927 kJ/mol
# GULP energy per Si atom -5571.333064 kJ/mol
# Density = 1.887847 g / cm^3
# Si number density = 18.921535 Si / 1000 Ang^3
#
#
#
# Elastic Constant Matrix: (Units=GPa)
#
#
# Indices 1 2 3 4 5 6 
#
# 1 117.2600 20.5277 50.0693 0.0000 -23.6313 0.0000
# 2 20.5277 57.9989 23.7224 0.0000 -17.7453 0.0000
# 3 50.0693 23.7224 91.4146 0.0000 -32.4843 0.0000
# 4 0.0000 0.0000 0.0000 26.3004 0.0000 -7.5282
# 5 -23.6313 -17.7453 -32.4843 0.0000 35.9031 0.0000
# 6 0.0000 0.0000 0.0000 -7.5282 0.0000 -3.8999
#
#
#
# Elastic Compliance Matrix: (Units=1/GPa)
#
#
# Indices 1 2 3 4 5 6 
#
# 1 0.011382 -0.001250 -0.005110 0.000000 0.002250 0.000000
# 2 -0.001250 0.020850 -0.001999 0.000000 0.007674 0.000000
# 3 -0.005110 -0.001999 0.018734 0.000000 0.012598 0.000000
# 4 0.000000 0.000000 0.000000 0.024490 0.000000 -0.047275
# 5 0.002250 0.007674 0.012598 0.000000 0.044525 0.000000
# 6 0.000000 0.000000 0.000000 -0.047275 0.000000 -0.165159
#
#
# Mechanical properties :
#
#
# Convention : Reuss Voigt Hill
#
# Bulk Modulus (GPa) = 29.19951 50.59023 39.89487
# Shear Modulus (GPa) = -293.37407 23.15099 -135.11154
#
# Velocity S-wave (km/s) = -12.46532 3.50169 -8.45939
# Velocity P-wave (km/s) = 13.84607 6.56841 8.61887
#
# Compressibility (1/GPa) = 0.03424715
#
# Stress axis : x y z
#
# Youngs Moduli (GPa) = 87.85441 47.96259 53.37967
#
# Poissons Ratio (x) = 0.05995 0.27279
# Poissons Ratio (y) = 0.10981 0.10671
# Poissons Ratio (z) = 0.44896 0.09588
#
# Static dielectric constant tensor:
#      x y z
#    x 1.693110 0.000000 -0.007950 
#    y 0.000000 1.660730 0.000000 
#    z -0.007950 0.000000 1.671350 
# 
# From -- ./inp_files/30851.got.cif
#   From: 2010.05.17/outbox.cif.g08.bks.cpg/sg13_16_cif.got.tgz:30851.got - 2010.06.03 16:44:36.
