data_PCOD9232927
_publ_section_title
;
Structure prediction by ZEFSAII (Michael W. Deem and Ramdas Pophale) SiO2 
 PCOD9232927
Probable space group: P 2/C
;
_chemical_formula_sum "Si O2"
_cell_formula_units_Z 30
_cell_length_a 5.255243
_cell_length_b 8.573132
_cell_length_c 31.800835
_cell_angle_alpha 90.000000
_cell_angle_beta 109.609375
_cell_angle_gamma 90.000000
_cell_volume 1349.655460
_symmetry_space_group_name_H-M "P 2/C"
_symmetry_group_IT_number 13
_symmetry_cell_setting 'monoclinic'
loop_
_space_group_symop_operation_xyz
x,y,z
-x,y,1/2-z
-x,-y,-z
x,-y,1/2+z
loop_
_atom_site_type_symbol
_atom_site_label
_atom_site_fract_x
_atom_site_fract_y
_atom_site_fract_z
Si Si1 0.277426 0.113405 0.470465
Si Si2 0.327496 0.387749 0.617888
Si Si3 0.075241 0.616264 0.665122
Si Si4 0.808677 0.372562 0.706292
Si Si5 0.291939 0.421943 0.520432
Si Si6 0.500000 0.614463 0.750000
Si Si7 0.330836 0.872093 0.878875
Si Si8 0.126792 0.950461 0.106547
O O1 0.243991 0.247814 0.501779
O O2 0.380792 0.173373 0.430481
O O3 0.992110 0.979675 0.556831
O O4 0.500000 0.000000 0.500000
O O5 0.199746 0.549317 0.628864
O O6 0.561565 0.325384 0.662535
O O7 0.406421 0.421624 0.574198
O O8 0.138274 0.235365 0.605065
O O9 0.294772 0.700164 0.707247
O O10 0.007035 0.455219 0.684594
O O11 0.807224 0.719540 0.648352
O O12 0.672327 0.505404 0.728113
O O13 0.000000 0.278341 0.750000
O O14 0.500000 0.500000 0.500000
O O15 0.000000 0.500000 0.500000
O O16 0.589698 0.956956 0.873785
O O17 0.084141 0.996000 0.869376
#
# Coordination Sequence:
#
# PCOD9232927 Si02
#       8
#     4   4   4   4   4   2   4   4
#     4  10  25  45  67  88 136 182 232 268 333 405
#     4  11  25  41  69  97 137 180 233 278 343 410
#     4  10  21  38  72  98 134 172 228 286 340 407
#     4   9  20  38  69 101 132 166 226 278 347 402
#     4  12  30  43  65 103 140 176 231 292 339 391
#     4   8  18  38  60 108 126 170 208 288 334 418
#     4  10  24  41  66  95 133 174 229 275 337 395
#     4  10  26  43  65  95 133 185 224 274 339 410
#
# _framework density 22.227895
#
# number of rings (size 3 to 8) (size 9 to 14) (size 15 to 20)
#    0.800    1.067    0.000    1.600   13.067    1.067 
#    0.000    0.000    2.933    0.000    0.000    0.000 
#    0.000    0.000    0.000    0.000    0.000    0.000 
#
# Total GULP energy -167242.129483 kJ/mol
# GULP energy per Si atom -5574.737649 kJ/mol
# Density = 2.217730 g / cm^3
# Si number density = 22.227895 Si / 1000 Ang^3
#
#
#
# Elastic Constant Matrix: (Units=GPa)
#
#
# Indices 1 2 3 4 5 6 
#
# 1 115.1709 29.0262 31.8360 0.0000 19.4284 0.0000
# 2 29.0262 77.9986 32.6934 0.0000 14.3376 0.0000
# 3 31.8360 32.6934 112.7608 0.0000 11.1779 0.0000
# 4 0.0000 0.0000 0.0000 15.3653 0.0000 10.6012
# 5 19.4284 14.3376 11.1779 0.0000 31.6250 0.0000
# 6 0.0000 0.0000 0.0000 10.6012 0.0000 28.7517
#
#
#
# Elastic Compliance Matrix: (Units=1/GPa)
#
#
# Indices 1 2 3 4 5 6 
#
# 1 0.010580 -0.002277 -0.001850 0.000000 -0.004814 0.000000
# 2 -0.002277 0.015998 -0.003539 0.000000 -0.004603 0.000000
# 3 -0.001850 -0.003539 0.010513 0.000000 -0.000975 0.000000
# 4 0.000000 0.000000 0.000000 0.087287 0.000000 -0.032184
# 5 -0.004814 -0.004603 -0.000975 0.000000 0.037009 0.000000
# 6 0.000000 0.000000 0.000000 -0.032184 0.000000 0.046647
#
#
# Mechanical properties :
#
#
# Convention : Reuss Voigt Hill
#
# Bulk Modulus (GPa) = 45.95760 54.78238 50.36999
# Shear Modulus (GPa) = 21.68081 29.30673 25.49377
#
# Velocity S-wave (km/s) = 3.12651 3.63501 3.39030
# Velocity P-wave (km/s) = 5.80981 6.50515 6.16729
#
# Compressibility (1/GPa) = 0.02175919
#
# Stress axis : x y z
#
# Youngs Moduli (GPa) = 94.51856 62.50912 95.11730
#
# Poissons Ratio (x) = 0.14234 0.17594
# Poissons Ratio (y) = 0.21522 0.33663
# Poissons Ratio (z) = 0.17483 0.22123
#
# Static dielectric constant tensor:
#      x y z
#    x 1.891560 0.000000 0.005600 
#    y 0.000000 1.803970 0.000000 
#    z 0.005600 0.000000 2.048620 
# 
# From -- ./inp_files/94918.got.cif
#   From: 2010.05.17/outbox.cif.g08.bks.cpg/sg13_48_cif.got.tgz:94918.got - 2010.06.03 16:44:36.
