data_PCOD9232410
_publ_section_title
;
Structure prediction by ZEFSAII (Michael W. Deem and Ramdas Pophale) SiO2 
 PCOD9232410
Probable space group: P 2/C
;
_chemical_formula_sum "Si O2"
_cell_formula_units_Z 28
_cell_length_a 12.360701
_cell_length_b 12.745426
_cell_length_c 9.143975
_cell_angle_alpha 90.000000
_cell_angle_beta 90.622796
_cell_angle_gamma 90.000000
_cell_volume 1440.478663
_symmetry_space_group_name_H-M "P 2/C"
_symmetry_group_IT_number 13
_symmetry_cell_setting 'monoclinic'
loop_
_space_group_symop_operation_xyz
x,y,z
-x,y,1/2-z
-x,-y,-z
x,-y,1/2+z
loop_
_atom_site_type_symbol
_atom_site_label
_atom_site_fract_x
_atom_site_fract_y
_atom_site_fract_z
Si Si1 0.205042 0.712839 0.653480
Si Si2 0.000000 0.749260 0.250000
Si Si3 0.132042 0.933502 0.756579
Si Si4 0.753017 0.664257 0.529065
Si Si5 0.007092 0.377987 0.019847
Si Si6 0.353382 0.565235 0.493078
Si Si7 0.188452 0.868678 0.089872
Si Si8 0.500000 0.501797 0.250000
O O1 0.166975 0.832823 0.659856
O O2 0.271479 0.689108 0.802337
O O3 0.091849 0.650162 0.645718
O O4 0.274961 0.661931 0.525146
O O5 0.916662 0.820219 0.334347
O O6 0.052772 0.675543 0.372963
O O7 0.000000 0.946927 0.750000
O O8 0.202167 0.029807 0.692902
O O9 0.161555 0.908679 0.925490
O O10 0.705839 0.549376 0.491959
O O11 0.730922 0.768383 0.430723
O O12 0.883831 0.658726 0.531379
O O13 0.000000 0.500000 0.000000
O O14 0.409198 0.567250 0.335660
O O15 0.444735 0.564156 0.620131
#
# Coordination Sequence:
#
# PCOD9232410 Si02
#       8
#     4   2   4   4   4   4   4   2
#     4  11  22  35  56  86 120 163 196 237 288 350
#     4  10  22  34  46  74 112 170 214 238 264 320
#     4  11  21  37  54  80 120 168 208 240 270 338
#     4  10  21  37  54  87 122 159 195 239 284 354
#     4  11  22  31  51  82 125 164 197 226 284 351
#     4  11  21  41  63  88 120 145 200 244 309 374
#     4  10  22  35  54  77 114 162 208 238 281 318
#     4  10  24  40  64  88 110 152 190 258 314 358
#
# _framework density 19.437984
#
# number of rings (size 3 to 8) (size 9 to 14) (size 15 to 20)
#    0.000    1.429    3.571    3.429    4.000    2.286 
#    0.000    0.000    0.000    0.000    0.000    6.000 
#    0.000    0.000    0.000    0.000    0.000    0.000 
#
# Total GULP energy -155950.367811 kJ/mol
# GULP energy per Si atom -5569.655993 kJ/mol
# Density = 1.939374 g / cm^3
# Si number density = 19.437984 Si / 1000 Ang^3
#
#
#
# Elastic Constant Matrix: (Units=GPa)
#
#
# Indices 1 2 3 4 5 6 
#
# 1 43.5618 9.5050 19.9086 0.0000 -15.8638 0.0000
# 2 9.5050 126.3561 36.6212 0.0000 -18.6171 0.0000
# 3 19.9086 36.6212 86.5451 0.0000 -21.4386 0.0000
# 4 0.0000 0.0000 0.0000 28.6721 0.0000 -7.6376
# 5 -15.8638 -18.6171 -21.4386 0.0000 36.5330 0.0000
# 6 0.0000 0.0000 0.0000 -7.6376 0.0000 12.0531
#
#
#
# Elastic Compliance Matrix: (Units=1/GPa)
#
#
# Indices 1 2 3 4 5 6 
#
# 1 0.028484 0.000597 -0.004289 0.000000 0.010156 0.000000
# 2 0.000597 0.009277 -0.003308 0.000000 0.003045 0.000000
# 3 -0.004289 -0.003308 0.015284 0.000000 0.005421 0.000000
# 4 0.000000 0.000000 0.000000 0.041960 0.000000 0.026589
# 5 0.010156 0.003045 0.005421 0.000000 0.036515 0.000000
# 6 0.000000 0.000000 0.000000 0.026589 0.000000 0.099815
#
#
# Mechanical properties :
#
#
# Convention : Reuss Voigt Hill
#
# Bulk Modulus (GPa) = 25.61238 43.17026 34.39132
# Shear Modulus (GPa) = 19.35349 28.14684 23.75017
#
# Velocity S-wave (km/s) = 3.15882 3.80943 3.49928
# Velocity P-wave (km/s) = 5.14871 6.45031 5.83591
#
# Compressibility (1/GPa) = 0.03904362
#
# Stress axis : x y z
#
# Youngs Moduli (GPa) = 35.10693 107.79623 65.42761
#
# Poissons Ratio (x) = -0.06433 0.28063
# Poissons Ratio (y) = -0.02095 0.21646
# Poissons Ratio (z) = 0.15058 0.35663
#
# Static dielectric constant tensor:
#      x y z
#    x 1.719340 0.000000 -0.010610 
#    y 0.000000 1.646920 0.000000 
#    z -0.010610 0.000000 1.736820 
# 
# From -- ./inp_files/18580.got.cif
#   From: 2010.05.17/outbox.cif.g08.bks.cpg/sg13_10_cif.got.tgz:18580.got - 2010.06.03 16:44:36.
