data_PCOD9232560
_publ_section_title
;
Structure prediction by ZEFSAII (Michael W. Deem and Ramdas Pophale) SiO2 
 PCOD9232560
Probable space group: P 2/C
;
_chemical_formula_sum "Si O2"
_cell_formula_units_Z 26
_cell_length_a 22.680321
_cell_length_b 9.175913
_cell_length_c 11.741611
_cell_angle_alpha 90.000000
_cell_angle_beta 151.526808
_cell_angle_gamma 90.000000
_cell_volume 1164.969660
_symmetry_space_group_name_H-M "P 2/C"
_symmetry_group_IT_number 13
_symmetry_cell_setting 'monoclinic'
loop_
_space_group_symop_operation_xyz
x,y,z
-x,y,1/2-z
-x,-y,-z
x,-y,1/2+z
loop_
_atom_site_type_symbol
_atom_site_label
_atom_site_fract_x
_atom_site_fract_y
_atom_site_fract_z
Si Si1 0.371367 0.816648 0.181578
Si Si2 0.143404 0.231425 0.616912
Si Si3 0.798533 0.095731 0.549013
Si Si4 0.303434 0.434437 0.731787
Si Si5 0.047406 0.538295 0.706038
Si Si6 0.000000 0.007186 0.250000
Si Si7 0.358381 0.253957 0.403825
O O1 0.370786 0.693002 0.277902
O O2 0.517307 0.839795 0.407271
O O3 0.286870 0.953302 0.073433
O O4 0.324324 0.758045 0.978956
O O5 0.229246 0.354324 0.707378
O O6 0.003793 0.296159 0.379822
O O7 0.121650 0.092387 0.500840
O O8 0.198075 0.185442 0.828804
O O9 0.743138 0.188294 0.351617
O O10 0.942291 0.071740 0.760572
O O11 0.192992 0.482170 0.459524
O O12 0.374811 0.575441 0.898318
O O13 0.000000 0.476035 0.750000
O O14 0.000000 0.500000 0.500000
#
# Coordination Sequence:
#
# PCOD9232560 Si02
#       7
#     4   4   4   4   4   2   4
#     4  11  25  48  72  97 148 181 242 304 343 425
#     4  11  22  43  66 102 141 186 226 284 360 423
#     4  12  25  45  75 102 144 188 244 287 358 429
#     4  11  23  45  71  97 146 183 234 294 360 427
#     4  10  21  37  61  96 139 177 225 280 351 428
#     4  12  22  46  66 104 138 190 228 292 354 424
#     4  11  27  45  71 108 135 189 244 291 363 413
#
# _framework density 22.318178
#
# number of rings (size 3 to 8) (size 9 to 14) (size 15 to 20)
#    0.000    0.923    3.846    3.231    6.462    1.231 
#    5.538    0.000    0.000    0.000    0.000    0.000 
#    0.000    0.000    0.000    0.000    0.000    0.000 
#
# Total GULP energy -144999.971446 kJ/mol
# GULP energy per Si atom -5576.921979 kJ/mol
# Density = 2.226738 g / cm^3
# Si number density = 22.318178 Si / 1000 Ang^3
#
#
#
# Elastic Constant Matrix: (Units=GPa)
#
#
# Indices 1 2 3 4 5 6 
#
# 1 76.3216 40.3199 19.3188 0.0000 -10.5845 0.0000
# 2 40.3199 85.1463 14.5669 0.0000 -6.5930 0.0000
# 3 19.3188 14.5669 58.7576 0.0000 -14.7356 0.0000
# 4 0.0000 0.0000 0.0000 27.6846 0.0000 -4.2667
# 5 -10.5845 -6.5930 -14.7356 0.0000 43.7580 0.0000
# 6 0.0000 0.0000 0.0000 -4.2667 0.0000 33.5395
#
#
#
# Elastic Compliance Matrix: (Units=1/GPa)
#
#
# Indices 1 2 3 4 5 6 
#
# 1 0.018522 -0.007997 -0.003589 0.000000 0.002067 0.000000
# 2 -0.007997 0.015750 -0.001273 0.000000 0.000010 0.000000
# 3 -0.003589 -0.001273 0.019932 0.000000 0.005652 0.000000
# 4 0.000000 0.000000 0.000000 0.036843 0.000000 0.004687
# 5 0.002067 0.000010 0.005652 0.000000 0.025258 0.000000
# 6 0.000000 0.000000 0.000000 0.004687 0.000000 0.030412
#
#
# Mechanical properties :
#
#
# Convention : Reuss Voigt Hill
#
# Bulk Modulus (GPa) = 35.10401 40.95965 38.03183
# Shear Modulus (GPa) = 27.48301 30.73107 29.10704
#
# Velocity S-wave (km/s) = 3.51296 3.71476 3.61527
# Velocity P-wave (km/s) = 5.67605 6.06561 5.87406
#
# Compressibility (1/GPa) = 0.02848678
#
# Stress axis : x y z
#
# Youngs Moduli (GPa) = 53.98913 63.49260 50.17013
#
# Poissons Ratio (x) = 0.50775 0.18006
# Poissons Ratio (y) = 0.43175 0.06386
# Poissons Ratio (z) = 0.19377 0.08081
#
# Static dielectric constant tensor:
#      x y z
#    x 1.946030 0.000000 0.001970 
#    y 0.000000 1.950210 0.000000 
#    z 0.001970 0.000000 1.821130 
# 
# From -- ./inp_files/41686.got.cif
#   From: 2010.05.17/outbox.cif.g08.bks.cpg/sg13_21_cif.got.tgz:41686.got - 2010.06.03 16:44:36.
