data_PCOD9232697
_publ_section_title
;
Structure prediction by ZEFSAII (Michael W. Deem and Ramdas Pophale) SiO2 
 PCOD9232697
Probable space group: P 2/C
;
_chemical_formula_sum "Si O2"
_cell_formula_units_Z 20
_cell_length_a 8.100690
_cell_length_b 5.030493
_cell_length_c 23.716699
_cell_angle_alpha 90.000000
_cell_angle_beta 77.237796
_cell_angle_gamma 90.000000
_cell_volume 942.590222
_symmetry_space_group_name_H-M "P 2/C"
_symmetry_group_IT_number 13
_symmetry_cell_setting 'monoclinic'
loop_
_space_group_symop_operation_xyz
x,y,z
-x,y,1/2-z
-x,-y,-z
x,-y,1/2+z
loop_
_atom_site_type_symbol
_atom_site_label
_atom_site_fract_x
_atom_site_fract_y
_atom_site_fract_z
Si Si1 0.614869 0.074644 0.686794
Si Si2 0.833824 0.670117 0.024925
Si Si3 0.185902 0.753551 0.600008
Si Si4 0.033856 0.227734 0.867569
Si Si5 0.453091 0.427947 0.382445
O O1 0.500000 0.042594 0.750000
O O2 0.621775 0.796032 0.653247
O O3 0.804361 0.185055 0.684377
O O4 0.532678 0.297460 0.652721
O O5 0.885889 0.837657 0.076201
O O6 0.677883 0.488925 0.057204
O O7 0.793070 0.805855 0.968772
O O8 0.000000 0.500000 0.000000
O O9 0.366202 0.666882 0.609703
O O10 0.049257 0.518189 0.621630
O O11 0.112314 0.018113 0.633119
#
# Coordination Sequence:
#
# PCOD9232697 Si02
#       5
#     4   4   4   4   4
#     4  11  23  43  62  80 110 155 199 241 285 340
#     4   9  19  36  59  86 120 158 187 221 281 352
#     4  11  21  37  58  90 123 148 182 240 288 337
#     4  10  21  38  59  84 116 157 195 225 279 351
#     4  11  23  38  60  90 115 146 195 241 286 338
#
# _framework density 21.218129000000001
#
# number of rings (size 3 to 8) (size 9 to 14) (size 15 to 20)
#    0.000    1.600    0.000    6.600    0.000    4.800 
#    0.000   16.000    0.000    0.000    0.000    0.000 
#    0.000    0.000    0.000    0.000    0.000    0.000 
#
# Total GULP energy -111739.926149 kJ/mol
# GULP energy per Si atom -5586.996307 kJ/mol
# Density = 2.116984 g / cm^3
# Si number density = 21.218129 Si / 1000 Ang^3
#
#
#
# Elastic Constant Matrix: (Units=GPa)
#
#
# Indices 1 2 3 4 5 6 
#
# 1 106.4474 -5.4303 14.5898 0.0000 -23.8765 0.0000
# 2 -5.4303 67.4175 3.4664 0.0000 -11.0768 0.0000
# 3 14.5898 3.4664 46.2606 0.0000 -38.7327 0.0000
# 4 0.0000 0.0000 0.0000 17.4867 0.0000 2.5838
# 5 -23.8765 -11.0768 -38.7327 0.0000 32.6159 0.0000
# 6 0.0000 0.0000 0.0000 2.5838 0.0000 39.4570
#
#
#
# Elastic Compliance Matrix: (Units=1/GPa)
#
#
# Indices 1 2 3 4 5 6 
#
# 1 0.003413 -0.006066 -0.044625 0.000000 -0.052556 0.000000
# 2 -0.006066 0.007352 -0.046438 0.000000 -0.057090 0.000000
# 3 -0.044625 -0.046438 -0.242766 0.000000 -0.336733 0.000000
# 4 0.000000 0.000000 0.000000 0.057745 0.000000 -0.003781
# 5 -0.052556 -0.057090 -0.336733 0.000000 -0.427085 0.000000
# 6 0.000000 0.000000 0.000000 -0.003781 0.000000 0.025592
#
#
# Mechanical properties :
#
#
# Convention : Reuss Voigt Hill
#
# Bulk Modulus (GPa) = -2.34599 27.26414 12.45908
# Shear Modulus (GPa) = -9.54967 31.74523 11.09778
#
# Velocity S-wave (km/s) = -2.12379 3.87219 2.28947
# Velocity P-wave (km/s) = 2.66871 5.73316 3.58797
#
# Compressibility (1/GPa) = -0.42625919
#
# Stress axis : x y z
#
# Youngs Moduli (GPa) = 293.01452 136.01566 -4.11919
#
# Poissons Ratio (x) = 0.82502 -0.18382
# Poissons Ratio (y) = 1.77732 -0.19129
# Poissons Ratio (z) = 13.07592 6.31627
#
# Static dielectric constant tensor:
#      x y z
#    x 1.777440 0.000000 -0.004440 
#    y 0.000000 1.751570 0.000000 
#    z -0.004440 0.000000 1.789870 
# 
# From -- ./inp_files/74521.got.cif
#   From: 2010.05.17/outbox.cif.g08.bks.cpg/sg13_38_cif.got.tgz:74521.got - 2010.06.03 16:44:36.
