data_PCOD9232692
_publ_section_title
;
Structure prediction by ZEFSAII (Michael W. Deem and Ramdas Pophale) SiO2 
 PCOD9232692
Probable space group: P 2/C
;
_chemical_formula_sum "Si O2"
_cell_formula_units_Z 28
_cell_length_a 6.216269
_cell_length_b 12.131332
_cell_length_c 20.510478
_cell_angle_alpha 90.000000
_cell_angle_beta 75.490566
_cell_angle_gamma 90.000000
_cell_volume 1497.397699
_symmetry_space_group_name_H-M "P 2/C"
_symmetry_group_IT_number 13
_symmetry_cell_setting 'monoclinic'
loop_
_space_group_symop_operation_xyz
x,y,z
-x,y,1/2-z
-x,-y,-z
x,-y,1/2+z
loop_
_atom_site_type_symbol
_atom_site_label
_atom_site_fract_x
_atom_site_fract_y
_atom_site_fract_z
Si Si1 0.033348 0.714505 0.932777
Si Si2 0.276286 0.975064 0.720372
Si Si3 0.201300 0.732079 0.684825
Si Si4 0.561197 0.891471 0.405405
Si Si5 0.597814 0.657522 0.038334
Si Si6 0.553135 0.417899 0.094111
Si Si7 0.776194 0.935891 0.529060
O O1 0.199539 0.615876 0.904598
O O2 0.177318 0.818710 0.943132
O O3 0.903646 0.750439 0.878416
O O4 0.856914 0.677686 0.000938
O O5 0.500000 0.995862 0.750000
O O6 0.314037 0.847443 0.696096
O O7 0.000000 0.971271 0.750000
O O8 0.290686 0.072367 0.665924
O O9 0.379229 0.634999 0.658067
O O10 0.000000 0.705967 0.750000
O O11 0.484465 0.765999 0.418062
O O12 0.669670 0.916465 0.466924
O O13 0.365366 0.981514 0.416503
O O14 0.544486 0.548133 0.083086
O O15 0.490372 0.636727 0.974534
O O16 0.000000 0.000000 0.500000
#
# Coordination Sequence:
#
# PCOD9232692 Si02
#       7
#     4   4   4   4   4   4   4
#     4  11  20  36  61  93 125 160 203 263 327 385
#     4  11  27  44  67  93 133 176 216 267 326 390
#     4  10  24  39  61  90 121 167 214 261 315 380
#     4  11  23  38  60  91 126 164 209 261 324 391
#     4  10  21  38  58  94 122 161 201 260 330 376
#     4  10  21  38  61  86 127 157 208 263 315 386
#     4  11  21  33  60  94 124 154 199 264 324 384
#
# _framework density 18.699106
#
# number of rings (size 3 to 8) (size 9 to 14) (size 15 to 20)
#    0.000    1.429    2.857    2.143   14.000    0.000 
#    0.000    0.714    3.143    0.000    0.000    0.000 
#    0.000    0.000    0.000    0.000    0.000    0.000 
#
# Total GULP energy -155906.077959 kJ/mol
# GULP energy per Si atom -5568.074213 kJ/mol
# Density = 1.865655 g / cm^3
# Si number density = 18.699106 Si / 1000 Ang^3
#
#
#
# Elastic Constant Matrix: (Units=GPa)
#
#
# Indices 1 2 3 4 5 6 
#
# 1 60.3320 40.3343 17.6547 0.0000 -12.7885 0.0000
# 2 40.3343 141.5872 57.8729 0.0000 -21.3199 0.0000
# 3 17.6547 57.8729 72.4905 0.0000 -19.2530 0.0000
# 4 0.0000 0.0000 0.0000 30.2347 0.0000 2.0381
# 5 -12.7885 -21.3199 -19.2530 0.0000 23.8002 0.0000
# 6 0.0000 0.0000 0.0000 2.0381 0.0000 17.7152
#
#
#
# Elastic Compliance Matrix: (Units=1/GPa)
#
#
# Indices 1 2 3 4 5 6 
#
# 1 0.021490 -0.005439 0.001122 0.000000 0.007583 0.000000
# 2 -0.005439 0.012073 -0.007919 0.000000 0.001486 0.000000
# 3 0.001122 -0.007919 0.023078 0.000000 0.012178 0.000000
# 4 0.000000 0.000000 0.000000 0.033333 0.000000 -0.003835
# 5 0.007583 0.001486 0.012178 0.000000 0.057274 0.000000
# 6 0.000000 0.000000 0.000000 -0.003835 0.000000 0.056890
#
#
# Mechanical properties :
#
#
# Convention : Reuss Voigt Hill
#
# Bulk Modulus (GPa) = 31.08492 56.23705 43.66099
# Shear Modulus (GPa) = 20.89146 24.91986 22.90566
#
# Velocity S-wave (km/s) = 3.34615 3.65454 3.50374
# Velocity P-wave (km/s) = 5.62039 6.92442 6.30620
#
# Compressibility (1/GPa) = 0.03216994
#
# Stress axis : x y z
#
# Youngs Moduli (GPa) = 46.53338 82.83095 43.33096
#
# Poissons Ratio (x) = 0.45050 -0.04863
# Poissons Ratio (y) = 0.25309 0.34314
# Poissons Ratio (z) = -0.05222 0.65594
#
# Static dielectric constant tensor:
#      x y z
#    x 1.731770 0.000000 -0.001410 
#    y 0.000000 1.818810 0.000000 
#    z -0.001410 0.000000 1.723720 
# 
# From -- ./inp_files/73601.got.cif
#   From: 2010.05.17/outbox.cif.g08.bks.cpg/sg13_37_cif.got.tgz:73601.got - 2010.06.03 16:44:36.
