data_PCOD9232189
_publ_section_title
;
Structure prediction by ZEFSAII (Michael W. Deem and Ramdas Pophale) SiO2 
 PCOD9232189
Probable space group: P 2/C
;
_chemical_formula_sum "Si O2"
_cell_formula_units_Z 28
_cell_length_a 16.784674
_cell_length_b 10.645048
_cell_length_c 13.802939
_cell_angle_alpha 90.000000
_cell_angle_beta 145.679540
_cell_angle_gamma 90.000000
_cell_volume 1390.507569
_symmetry_space_group_name_H-M "P 2/C"
_symmetry_group_IT_number 13
_symmetry_cell_setting 'monoclinic'
loop_
_space_group_symop_operation_xyz
x,y,z
-x,y,1/2-z
-x,-y,-z
x,-y,1/2+z
loop_
_atom_site_type_symbol
_atom_site_label
_atom_site_fract_x
_atom_site_fract_y
_atom_site_fract_z
Si Si1 0.861841 0.254530 0.161635
Si Si2 0.506975 0.171202 0.972750
Si Si3 0.405672 0.304474 0.058625
Si Si4 0.841494 0.155282 0.629736
Si Si5 0.247767 0.044271 0.601954
Si Si6 0.820910 0.054075 0.271714
Si Si7 0.408401 0.411177 0.560672
O O1 0.890203 0.175443 0.289050
O O2 0.000000 0.308521 0.250000
O O3 0.806502 0.150348 0.027746
O O4 0.746479 0.359459 0.067759
O O5 0.389992 0.098013 0.792455
O O6 0.529729 0.307397 0.948596
O O7 0.455409 0.202119 0.029474
O O8 0.655945 0.098837 0.114457
O O9 0.500000 0.296437 0.250000
O O10 0.413045 0.446905 0.027702
O O11 0.244003 0.277076 0.925196
O O12 0.000000 0.173235 0.750000
O O13 0.745927 0.082152 0.454527
O O14 0.842295 0.060350 0.720361
O O15 0.147259 0.001289 0.590136
O O16 0.500000 0.408250 0.750000
#
# Coordination Sequence:
#
# PCOD9232189 Si02
#       7
#     4   4   4   4   4   4   4
#     4  10  22  37  59  89 117 159 200 237 294 354
#     4  11  21  38  63  92 113 153 203 246 298 342
#     4  11  24  41  63  86 120 154 201 248 296 344
#     4  11  25  38  55  92 126 158 193 235 298 359
#     4  11  20  36  61  85 124 153 192 239 295 359
#     4  10  21  35  58  88 121 150 195 238 296 345
#     4  10  21  41  63  87 114 156 201 254 288 339
#
# _framework density 20.136531999999999
#
# number of rings (size 3 to 8) (size 9 to 14) (size 15 to 20)
#    0.000    1.429    2.857    3.429    2.000    2.857 
#    0.000    0.000    0.000    0.857    0.000    0.000 
#    0.000    0.000    0.000    0.000    0.000    0.000 
#
# Total GULP energy -156295.706425 kJ/mol
# GULP energy per Si atom -5581.989515 kJ/mol
# Density = 2.009070 g / cm^3
# Si number density = 20.136532 Si / 1000 Ang^3
#
#
#
# Elastic Constant Matrix: (Units=GPa)
#
#
# Indices 1 2 3 4 5 6 
#
# 1 98.4498 18.9686 25.3894 0.0000 7.0627 0.0000
# 2 18.9686 71.8087 33.3691 0.0000 9.3480 0.0000
# 3 25.3894 33.3691 67.0084 0.0000 9.1141 0.0000
# 4 0.0000 0.0000 0.0000 -39.8457 0.0000 17.4905
# 5 7.0627 9.3480 9.1141 0.0000 32.4358 0.0000
# 6 0.0000 0.0000 0.0000 17.4905 0.0000 29.9751
#
#
#
# Elastic Compliance Matrix: (Units=1/GPa)
#
#
# Indices 1 2 3 4 5 6 
#
# 1 0.011389 -0.001207 -0.003561 0.000000 -0.001132 0.000000
# 2 -0.001207 0.018493 -0.008383 0.000000 -0.002711 0.000000
# 3 -0.003561 -0.008383 0.020809 0.000000 -0.002656 0.000000
# 4 0.000000 0.000000 0.000000 -0.019979 0.000000 0.011658
# 5 -0.001132 -0.002711 -0.002656 0.000000 0.032604 0.000000
# 6 0.000000 0.000000 0.000000 0.011658 0.000000 0.026559
#
#
# Mechanical properties :
#
#
# Convention : Reuss Voigt Hill
#
# Bulk Modulus (GPa) = 41.00034 43.63566 42.31800
# Shear Modulus (GPa) = 40.22337 15.14902 27.68620
#
# Velocity S-wave (km/s) = 4.47422 2.74581 3.71202
# Velocity P-wave (km/s) = 6.86272 5.63645 6.27959
#
# Compressibility (1/GPa) = 0.02439004
#
# Stress axis : x y z
#
# Youngs Moduli (GPa) = 87.80104 54.07362 48.05707
#
# Poissons Ratio (x) = 0.06525 0.17111
# Poissons Ratio (y) = 0.10594 0.40288
# Poissons Ratio (z) = 0.31262 0.45332
#
# Static dielectric constant tensor:
#      x y z
#    x 1.772090 0.000000 -0.002730 
#    y 0.000000 1.683660 0.000000 
#    z -0.002730 0.000000 1.738640 
# 
# From -- ./inp_files/53539.got.cif
#   From: 2010.05.17/outbox.cif.g08.bks.cpg/sg13_27_cif.got.tgz:53539.got - 2010.06.03 16:44:36.
