data_PCOD9232958
_publ_section_title
;
Structure prediction by ZEFSAII (Michael W. Deem and Ramdas Pophale) SiO2 
 PCOD9232958
Probable space group: P 2/C
;
_chemical_formula_sum "Si O2"
_cell_formula_units_Z 26
_cell_length_a 13.222495
_cell_length_b 5.407839
_cell_length_c 30.285188
_cell_angle_alpha 90.000000
_cell_angle_beta 149.648730
_cell_angle_gamma 90.000000
_cell_volume 1094.250489
_symmetry_space_group_name_H-M "P 2/C"
_symmetry_group_IT_number 13
_symmetry_cell_setting 'monoclinic'
loop_
_space_group_symop_operation_xyz
x,y,z
-x,y,1/2-z
-x,-y,-z
x,-y,1/2+z
loop_
_atom_site_type_symbol
_atom_site_label
_atom_site_fract_x
_atom_site_fract_y
_atom_site_fract_z
Si Si1 0.500000 0.597461 0.250000
Si Si2 0.765446 0.485526 0.077298
Si Si3 0.486839 0.019016 0.669604
Si Si4 0.110370 0.009703 0.837783
Si Si5 0.820271 0.308655 0.275961
Si Si6 0.210918 0.630489 0.576550
Si Si7 0.490643 0.410383 0.604131
O O1 0.447975 0.773391 0.271652
O O2 0.684241 0.448376 0.338466
O O3 0.767995 0.749802 0.101995
O O4 0.986794 0.465104 0.137263
O O5 0.768807 0.249501 0.111777
O O6 0.597197 0.447123 0.977279
O O7 0.504946 0.128372 0.627069
O O8 0.634163 0.789005 0.733644
O O9 0.260572 0.922783 0.591740
O O10 0.000000 0.043967 0.750000
O O11 0.928337 0.945650 0.802309
O O12 0.704081 0.458342 0.193524
O O13 0.327962 0.524937 0.577389
O O14 0.000000 0.500000 0.500000
#
# Coordination Sequence:
#
# PCOD9232958 Si02
#       7
#     2   4   4   4   4   4   4
#     4  10  22  38  58  86 122 170 214 260 326 372
#     4  10  23  39  68  94 126 171 209 257 323 378
#     4  10  21  39  60  86 129 165 216 268 313 385
#     4  10  22  43  66  95 130 168 211 261 318 385
#     4   9  22  38  66  89 128 166 208 267 315 383
#     4  10  23  37  58  86 125 164 215 269 318 378
#     4  10  22  39  61  94 123 164 218 260 318 384
#
# _framework density 23.760556999999999
#
# number of rings (size 3 to 8) (size 9 to 14) (size 15 to 20)
#    0.923    1.231    0.000    1.846    4.308    9.846 
#    0.000    1.538    0.000    0.000    0.000    0.000 
#    0.000    0.000    0.000    0.000    0.000    0.000 
#
# Total GULP energy -144906.448564 kJ/mol
# GULP energy per Si atom -5573.324945 kJ/mol
# Density = 2.370648 g / cm^3
# Si number density = 23.760557 Si / 1000 Ang^3
#
#
#
# Elastic Constant Matrix: (Units=GPa)
#
#
# Indices 1 2 3 4 5 6 
#
# 1 38.6547 16.8257 25.1788 0.0000 7.7660 0.0000
# 2 16.8257 141.5541 60.2758 0.0000 -8.1896 0.0000
# 3 25.1788 60.2758 168.5699 0.0000 -8.0044 0.0000
# 4 0.0000 0.0000 0.0000 15.7421 0.0000 -7.7390
# 5 7.7660 -8.1896 -8.0044 0.0000 34.9520 0.0000
# 6 0.0000 0.0000 0.0000 -7.7390 0.0000 21.5297
#
#
#
# Elastic Compliance Matrix: (Units=1/GPa)
#
#
# Indices 1 2 3 4 5 6 
#
# 1 0.031387 -0.002424 -0.004226 0.000000 -0.008510 0.000000
# 2 -0.002424 0.008578 -0.002613 0.000000 0.001950 0.000000
# 3 -0.004226 -0.002613 0.007596 0.000000 0.002066 0.000000
# 4 0.000000 0.000000 0.000000 0.077159 0.000000 0.027735
# 5 -0.008510 0.001950 0.002066 0.000000 0.031432 0.000000
# 6 0.000000 0.000000 0.000000 0.027735 0.000000 0.056417
#
#
# Mechanical properties :
#
#
# Convention : Reuss Voigt Hill
#
# Bulk Modulus (GPa) = 34.43903 61.48214 47.96059
# Shear Modulus (GPa) = 20.76662 30.87799 25.82231
#
# Velocity S-wave (km/s) = 2.95955 3.60884 3.30020
# Velocity P-wave (km/s) = 5.11901 6.58003 5.89496
#
# Compressibility (1/GPa) = 0.02903682
#
# Stress axis : x y z
#
# Youngs Moduli (GPa) = 31.86011 116.57964 131.65336
#
# Poissons Ratio (x) = 0.28257 0.55631
# Poissons Ratio (y) = 0.07722 0.34395
# Poissons Ratio (z) = 0.13463 0.30457
#
# Static dielectric constant tensor:
#      x y z
#    x 2.031720 0.000000 0.044280 
#    y 0.000000 1.982660 0.000000 
#    z 0.044280 0.000000 1.868480 
# 
# From -- ./inp_files/96894.got.cif
#   From: 2010.05.17/outbox.cif.g08.bks.cpg/sg13_49_cif.got.tgz:96894.got - 2010.06.03 16:44:36.
