data_PCOD9232321
_publ_section_title
;
Structure prediction by ZEFSAII (Michael W. Deem and Ramdas Pophale) SiO2 
 PCOD9232321
Probable space group: P 2/C
;
_chemical_formula_sum "Si O2"
_cell_formula_units_Z 26
_cell_length_a 25.585619
_cell_length_b 5.877414
_cell_length_c 23.379241
_cell_angle_alpha 90.000000
_cell_angle_beta 158.056840
_cell_angle_gamma 90.000000
_cell_volume 1313.772435
_symmetry_space_group_name_H-M "P 2/C"
_symmetry_group_IT_number 13
_symmetry_cell_setting 'monoclinic'
loop_
_space_group_symop_operation_xyz
x,y,z
-x,y,1/2-z
-x,-y,-z
x,-y,1/2+z
loop_
_atom_site_type_symbol
_atom_site_label
_atom_site_fract_x
_atom_site_fract_y
_atom_site_fract_z
Si Si1 0.906716 0.692799 0.934800
Si Si2 0.544554 0.593739 0.697546
Si Si3 0.938928 0.088018 0.349101
Si Si4 0.539990 0.015061 0.105883
Si Si5 0.500000 0.930303 0.750000
Si Si6 0.771575 0.330162 0.869464
Si Si7 0.660064 0.210537 0.004539
O O1 0.876326 0.849521 0.848771
O O2 0.785065 0.545406 0.840205
O O3 0.000000 0.500000 0.000000
O O4 0.993551 0.839247 0.069743
O O5 0.532746 0.737912 0.627318
O O6 0.571886 0.770903 0.775791
O O7 0.674380 0.420599 0.822418
O O8 0.396518 0.468519 0.558877
O O9 0.069761 0.245439 0.462721
O O10 0.816160 0.139055 0.179739
O O11 0.689122 0.890046 0.262956
O O12 0.432691 0.873468 0.035926
O O13 0.500000 0.000000 0.000000
O O14 0.608109 0.082855 0.895090
#
# Coordination Sequence:
#
# PCOD9232321 Si02
#       7
#     4   4   4   4   2   4   4
#     4   9  20  33  55  84 132 168 194 240 300 371
#     4  10  22  41  63  86 120 161 208 265 318 369
#     4  10  21  36  58  91 126 161 209 248 304 382
#     4  10  23  34  58  91 128 161 206 253 307 379
#     4  10  22  44  64  86 114 154 220 272 308 366
#     4  10  21  36  58  88 126 168 197 249 314 371
#     4  10  23  38  65  90 118 164 209 263 318 363
#
# _framework density 19.790337000000001
#
# number of rings (size 3 to 8) (size 9 to 14) (size 15 to 20)
#    0.000    2.154    0.000    1.385   10.769    4.923 
#    0.000    0.000    0.000   37.846    0.000    0.000 
#    0.000    0.000    0.000    0.000    0.000    0.000 
#
# Total GULP energy -144826.686707 kJ/mol
# GULP energy per Si atom -5570.257181 kJ/mol
# Density = 1.974529 g / cm^3
# Si number density = 19.790337 Si / 1000 Ang^3
#
#
#
# Elastic Constant Matrix: (Units=GPa)
#
#
# Indices 1 2 3 4 5 6 
#
# 1 60.1156 25.4482 48.3673 0.0000 -17.1886 0.0000
# 2 25.4482 97.9991 43.4679 0.0000 -11.8814 0.0000
# 3 48.3673 43.4679 149.9626 0.0000 -14.4443 0.0000
# 4 0.0000 0.0000 0.0000 10.5015 0.0000 9.7858
# 5 -17.1886 -11.8814 -14.4443 0.0000 31.3567 0.0000
# 6 0.0000 0.0000 0.0000 9.7858 0.0000 41.7222
#
#
#
# Elastic Compliance Matrix: (Units=1/GPa)
#
#
# Indices 1 2 3 4 5 6 
#
# 1 0.025995 -0.002559 -0.006659 0.000000 0.010213 0.000000
# 2 -0.002559 0.012239 -0.002523 0.000000 0.002073 0.000000
# 3 -0.006659 -0.002523 0.009526 0.000000 -0.000218 0.000000
# 4 0.000000 0.000000 0.000000 0.121859 0.000000 -0.028582
# 5 0.010213 0.002073 -0.000218 0.000000 0.038174 0.000000
# 6 0.000000 0.000000 0.000000 -0.028582 0.000000 0.030672
#
#
# Mechanical properties :
#
#
# Convention : Reuss Voigt Hill
#
# Bulk Modulus (GPa) = 41.18597 60.29379 50.73988
# Shear Modulus (GPa) = 18.51581 29.43568 23.97574
#
# Velocity S-wave (km/s) = 3.06207 3.86084 3.48442
# Velocity P-wave (km/s) = 5.77564 7.09980 6.47168
#
# Compressibility (1/GPa) = 0.02428011
#
# Stress axis : x y z
#
# Youngs Moduli (GPa) = 38.46821 81.70717 104.97295
#
# Poissons Ratio (x) = 0.20906 0.69901
# Poissons Ratio (y) = 0.09843 0.26481
# Poissons Ratio (z) = 0.25616 0.20612
#
# Static dielectric constant tensor:
#      x y z
#    x 1.712420 0.000000 0.027520 
#    y 0.000000 1.669010 0.000000 
#    z 0.027520 0.000000 1.705010 
# 
# From -- ./inp_files/89447.got.cif
#   From: 2010.05.17/outbox.cif.g08.bks.cpg/sg13_45_cif.got.tgz:89447.got - 2010.06.03 16:44:36.
