data_PCOD9232811
_publ_section_title
;
Structure prediction by ZEFSAII (Michael W. Deem and Ramdas Pophale) SiO2 
 PCOD9232811
Probable space group: P 2/C
;
_chemical_formula_sum "Si O2"
_cell_formula_units_Z 26
_cell_length_a 8.810287
_cell_length_b 22.670519
_cell_length_c 9.211417
_cell_angle_alpha 90.000000
_cell_angle_beta 132.465416
_cell_angle_gamma 90.000000
_cell_volume 1357.215809
_symmetry_space_group_name_H-M "P 2/C"
_symmetry_group_IT_number 13
_symmetry_cell_setting 'monoclinic'
loop_
_space_group_symop_operation_xyz
x,y,z
-x,y,1/2-z
-x,-y,-z
x,-y,1/2+z
loop_
_atom_site_type_symbol
_atom_site_label
_atom_site_fract_x
_atom_site_fract_y
_atom_site_fract_z
Si Si1 0.500000 0.888149 0.250000
Si Si2 0.158872 0.178285 0.069062
Si Si3 0.659077 0.482309 0.230019
Si Si4 0.870698 0.718229 0.315542
Si Si5 0.443132 0.197877 0.983925
Si Si6 0.053822 0.059919 0.453245
Si Si7 0.969382 0.587423 0.409875
O O1 0.516148 0.846620 0.120028
O O2 0.704818 0.926600 0.382202
O O3 0.348479 0.199653 0.290231
O O4 0.070427 0.115435 0.059953
O O5 0.259065 0.175903 0.972371
O O6 0.980024 0.227131 0.966616
O O7 0.500000 0.466463 0.250000
O O8 0.793442 0.541131 0.337998
O O9 0.833350 0.431315 0.364424
O O10 0.500000 0.500000 0.000000
O O11 0.641148 0.739860 0.130459
O O12 0.897286 0.653710 0.397774
O O13 0.000000 0.713969 0.250000
O O14 0.000000 0.055028 0.250000
O O15 0.000000 0.000000 0.500000
O O16 0.000000 0.581588 0.250000
#
# Coordination Sequence:
#
# PCOD9232811 Si02
#       7
#     2   4   4   4   4   4   4
#     4  12  24  42  68  90 126 166 204 250 324 368
#     4  10  21  42  64  92 126 162 205 258 315 377
#     4  11  22  39  63  88 128 172 214 267 322 372
#     4   9  19  37  64  94 125 161 208 261 315 378
#     4  10  21  38  68  90 123 164 203 251 317 382
#     4  12  28  44  66  96 128 164 212 261 314 377
#     4  10  21  38  62  94 126 166 219 266 315 387
#
# _framework density 19.156866000000001
#
# number of rings (size 3 to 8) (size 9 to 14) (size 15 to 20)
#    0.000    1.538    4.615    0.000    2.154    3.077 
#    4.154    0.000    6.769    0.000    0.000    0.000 
#    0.000    0.000    0.000    0.000    0.000    0.000 
#
# Total GULP energy -144883.648818 kJ/mol
# GULP energy per Si atom -5572.448031 kJ/mol
# Density = 1.911326 g / cm^3
# Si number density = 19.156866 Si / 1000 Ang^3
#
#
#
# Elastic Constant Matrix: (Units=GPa)
#
#
# Indices 1 2 3 4 5 6 
#
# 1 51.0362 40.5007 31.9096 0.0000 23.6971 0.0000
# 2 40.5007 170.0373 48.9502 0.0000 16.0609 0.0000
# 3 31.9096 48.9502 114.5502 0.0000 19.2256 0.0000
# 4 0.0000 0.0000 0.0000 25.4054 0.0000 0.5602
# 5 23.6971 16.0609 19.2256 0.0000 34.8959 0.0000
# 6 0.0000 0.0000 0.0000 0.5602 0.0000 20.1317
#
#
#
# Elastic Compliance Matrix: (Units=1/GPa)
#
#
# Indices 1 2 3 4 5 6 
#
# 1 0.035537 -0.005390 -0.004366 0.000000 -0.019247 0.000000
# 2 -0.005390 0.007612 -0.001959 0.000000 0.001236 0.000000
# 3 -0.004366 -0.001959 0.011167 0.000000 -0.002286 0.000000
# 4 0.000000 0.000000 0.000000 0.039386 0.000000 -0.001096
# 5 -0.019247 0.001236 -0.002286 0.000000 0.042417 0.000000
# 6 0.000000 0.000000 0.000000 -0.001096 0.000000 0.049703
#
#
# Mechanical properties :
#
#
# Convention : Reuss Voigt Hill
#
# Bulk Modulus (GPa) = 32.37607 64.26051 48.31829
# Shear Modulus (GPa) = 22.77413 30.37082 26.57247
#
# Velocity S-wave (km/s) = 3.45167 3.98600 3.72842
# Velocity P-wave (km/s) = 5.72910 7.40280 6.61906
#
# Compressibility (1/GPa) = 0.03088701
#
# Stress axis : x y z
#
# Youngs Moduli (GPa) = 28.13934 131.37144 89.55187
#
# Poissons Ratio (x) = 0.70806 0.39098
# Poissons Ratio (y) = 0.15166 0.17542
# Poissons Ratio (z) = 0.12286 0.25733
#
# Static dielectric constant tensor:
#      x y z
#    x 1.653700 0.000000 -0.028390 
#    y 0.000000 1.647430 0.000000 
#    z -0.028390 0.000000 1.689600 
# 
# From -- ./inp_files/13665.got.cif
#   From: 2010.05.17/outbox.cif.g08.bks.cpg/sg13_7_cif.got.tgz:13665.got - 2010.06.03 16:44:36.
