data_PCOD9232536
_publ_section_title
;
Structure prediction by ZEFSAII (Michael W. Deem and Ramdas Pophale) SiO2 
 PCOD9232536
Probable space group: P 2/C
;
_chemical_formula_sum "Si O2"
_cell_formula_units_Z 28
_cell_length_a 14.930858
_cell_length_b 12.152218
_cell_length_c 9.291915
_cell_angle_alpha 90.000000
_cell_angle_beta 121.363060
_cell_angle_gamma 90.000000
_cell_volume 1439.612824
_symmetry_space_group_name_H-M "P 2/C"
_symmetry_group_IT_number 13
_symmetry_cell_setting 'monoclinic'
loop_
_space_group_symop_operation_xyz
x,y,z
-x,y,1/2-z
-x,-y,-z
x,-y,1/2+z
loop_
_atom_site_type_symbol
_atom_site_label
_atom_site_fract_x
_atom_site_fract_y
_atom_site_fract_z
Si Si1 0.120302 0.308489 0.396047
Si Si2 0.413538 0.917868 0.300828
Si Si3 0.077758 0.545462 0.440562
Si Si4 0.117253 0.083268 0.886176
Si Si5 0.445983 0.169658 0.358934
Si Si6 0.220742 0.739509 0.683738
Si Si7 0.178695 0.882830 0.116691
O O1 0.138083 0.437960 0.431404
O O2 0.186520 0.257186 0.321435
O O3 0.137745 0.239794 0.555601
O O4 0.000000 0.297660 0.250000
O O5 0.500000 0.922368 0.250000
O O6 0.458637 0.827935 0.448808
O O7 0.297205 0.887917 0.159093
O O8 0.405100 0.043824 0.350179
O O9 0.160832 0.632975 0.569306
O O10 0.000000 0.588675 0.250000
O O11 0.000000 0.500000 0.500000
O O12 0.175621 0.082568 0.781089
O O13 0.000000 0.120681 0.750000
O O14 0.175715 0.161435 0.048499
O O15 0.112390 0.965810 0.962006
O O16 0.500000 0.177761 0.250000
O O17 0.346889 0.250029 0.285468
#
# Coordination Sequence:
#
# PCOD9232536 Si02
#       7
#     4   4   4   4   4   4   4
#     4  11  23  40  62  92 127 164 205 256 312 385
#     4  10  21  37  61  85 123 161 211 255 304 373
#     4  11  23  43  66  95 124 165 212 259 310 379
#     4  12  25  38  57  90 130 170 200 256 320 385
#     4  10  21  38  60  89 119 160 210 260 308 365
#     4  12  22  40  68  89 126 165 211 263 319 371
#     4  12  24  39  60  91 128 168 208 252 322 383
#
# _framework density 19.449673000000001
#
# number of rings (size 3 to 8) (size 9 to 14) (size 15 to 20)
#    0.000    0.857    4.286    4.714    6.000    0.000 
#    0.000    0.000    0.000    4.286    0.000    0.000 
#    0.000    0.000    0.000    0.000    0.000    0.000 
#
# Total GULP energy -156343.249939 kJ/mol
# GULP energy per Si atom -5583.687498 kJ/mol
# Density = 1.940540 g / cm^3
# Si number density = 19.449673 Si / 1000 Ang^3
#
#
#
# Elastic Constant Matrix: (Units=GPa)
#
#
# Indices 1 2 3 4 5 6 
#
# 1 79.8837 11.4514 13.5726 0.0000 -8.2918 0.0000
# 2 11.4514 65.7102 17.7239 0.0000 0.1587 0.0000
# 3 13.5726 17.7239 72.4898 0.0000 -16.0410 0.0000
# 4 0.0000 0.0000 0.0000 26.7899 0.0000 3.9400
# 5 -8.2918 0.1587 -16.0410 0.0000 31.1871 0.0000
# 6 0.0000 0.0000 0.0000 3.9400 0.0000 39.5518
#
#
#
# Elastic Compliance Matrix: (Units=1/GPa)
#
#
# Indices 1 2 3 4 5 6 
#
# 1 0.013329 -0.001955 -0.001389 0.000000 0.002839 0.000000
# 2 -0.001955 0.016741 -0.004357 0.000000 -0.002846 0.000000
# 3 -0.001389 -0.004357 0.016976 0.000000 0.008384 0.000000
# 4 0.000000 0.000000 0.000000 0.037883 0.000000 -0.003774
# 5 0.002839 -0.002846 0.008384 0.000000 0.037146 0.000000
# 6 0.000000 0.000000 0.000000 -0.003774 0.000000 0.025659
#
#
# Mechanical properties :
#
#
# Convention : Reuss Voigt Hill
#
# Bulk Modulus (GPa) = 31.60218 33.73105 32.66661
# Shear Modulus (GPa) = 28.78779 31.19480 29.99129
#
# Velocity S-wave (km/s) = 3.85140 4.00918 3.93108
# Velocity P-wave (km/s) = 6.00510 6.22991 6.11854
#
# Compressibility (1/GPa) = 0.03164338
#
# Stress axis : x y z
#
# Youngs Moduli (GPa) = 75.02315 59.73319 58.90737
#
# Poissons Ratio (x) = 0.11678 0.08185
# Poissons Ratio (y) = 0.14667 0.25666
# Poissons Ratio (z) = 0.10424 0.26025
#
# Static dielectric constant tensor:
#      x y z
#    x 1.671950 0.000000 -0.007660 
#    y 0.000000 1.710750 0.000000 
#    z -0.007660 0.000000 1.675780 
# 
# From -- ./inp_files/18826.got.cif
#   From: 2010.05.17/outbox.cif.g08.bks.cpg/sg13_10_cif.got.tgz:18826.got - 2010.06.03 16:44:36.
