data_PCOD9232279
_publ_section_title
;
Structure prediction by ZEFSAII (Michael W. Deem and Ramdas Pophale) SiO2 
 PCOD9232279
Probable space group: P 2/C
;
_chemical_formula_sum "Si O2"
_cell_formula_units_Z 24
_cell_length_a 14.764475
_cell_length_b 9.369905
_cell_length_c 18.403624
_cell_angle_alpha 90.000000
_cell_angle_beta 28.817864
_cell_angle_gamma 90.000000
_cell_volume 1227.235181
_symmetry_space_group_name_H-M "P 2/C"
_symmetry_group_IT_number 13
_symmetry_cell_setting 'monoclinic'
loop_
_space_group_symop_operation_xyz
x,y,z
-x,y,1/2-z
-x,-y,-z
x,-y,1/2+z
loop_
_atom_site_type_symbol
_atom_site_label
_atom_site_fract_x
_atom_site_fract_y
_atom_site_fract_z
Si Si1 0.041424 0.929187 0.638851
Si Si2 0.635054 0.918452 0.849968
Si Si3 0.301742 0.120450 0.354629
Si Si4 0.039692 0.599029 0.641203
Si Si5 0.817158 0.436202 0.087677
Si Si6 0.372286 0.591056 0.642108
O O1 0.105436 0.763614 0.599346
O O2 0.000000 0.980489 0.750000
O O3 0.844413 0.928003 0.734829
O O4 0.187556 0.023889 0.491393
O O5 0.651905 0.961130 0.753468
O O6 0.565339 0.754778 0.897450
O O7 0.500000 0.000000 0.000000
O O8 0.500000 0.165087 0.250000
O O9 0.184499 0.264127 0.418017
O O10 0.178998 0.506343 0.494088
O O11 0.000000 0.544471 0.750000
O O12 0.836742 0.596367 0.744842
O O13 0.647754 0.469163 0.262202
O O14 0.000000 0.500000 0.000000
O O15 0.500000 0.500000 0.500000
#
# Coordination Sequence:
#
# PCOD9232279 Si02
#       6
#     4   4   4   4   4   4
#     4  10  21  39  59  84 118 154 197 245 291 348
#     4  10  21  36  56  83 114 151 192 237 288 346
#     4  11  23  38  58  88 120 152 196 248 296 352
#     4   9  19  35  55  78 106 144 187 229 280 339
#     4   9  20  38  56  79 112 151 192 235 289 353
#     4   9  19  34  52  76 107 138 179 230 275 330
#
# _framework density 19.556152999999998
#
# number of rings (size 3 to 8) (size 9 to 14) (size 15 to 20)
#    0.000    2.333    0.000    2.500    0.000    7.333 
#    0.000    0.833    0.000    0.000    0.000    0.000 
#    0.000    0.000    0.000    0.000    0.000    0.000 
#
# Total GULP energy -133821.196075 kJ/mol
# GULP energy per Si atom -5575.883170 kJ/mol
# Density = 1.951164 g / cm^3
# Si number density = 19.556153 Si / 1000 Ang^3
#
#
#
# Elastic Constant Matrix: (Units=GPa)
#
#
# Indices 1 2 3 4 5 6 
#
# 1 83.9656 16.5058 37.7035 0.0000 34.0994 0.0000
# 2 16.5058 70.4830 81.2494 0.0000 25.3548 0.0000
# 3 37.7035 81.2494 152.4324 0.0000 56.4978 0.0000
# 4 0.0000 0.0000 0.0000 28.5485 0.0000 16.5791
# 5 34.0994 25.3548 56.4978 0.0000 54.5927 0.0000
# 6 0.0000 0.0000 0.0000 16.5791 0.0000 22.0940
#
#
#
# Elastic Compliance Matrix: (Units=1/GPa)
#
#
# Indices 1 2 3 4 5 6 
#
# 1 0.015979 0.000449 -0.000673 0.000000 -0.009492 0.000000
# 2 0.000449 0.037745 -0.022109 0.000000 0.005070 0.000000
# 3 -0.000673 -0.022109 0.023603 0.000000 -0.013738 0.000000
# 4 0.000000 0.000000 0.000000 0.062082 0.000000 -0.046585
# 5 -0.009492 0.005070 -0.013738 0.000000 0.036109 0.000000
# 6 0.000000 0.000000 0.000000 -0.046585 0.000000 0.080218
#
#
# Mechanical properties :
#
#
# Convention : Reuss Voigt Hill
#
# Bulk Modulus (GPa) = 30.61843 64.19982 47.40913
# Shear Modulus (GPa) = 16.06220 32.47520 24.26870
#
# Velocity S-wave (km/s) = 2.86901 4.07948 3.52657
# Velocity P-wave (km/s) = 5.16387 7.42222 6.39355
#
# Compressibility (1/GPa) = 0.03266007
#
# Stress axis : x y z
#
# Youngs Moduli (GPa) = 62.58360 26.49350 42.36693
#
# Poissons Ratio (x) = -0.01189 0.02853
# Poissons Ratio (y) = -0.02809 0.93669
# Poissons Ratio (z) = 0.04214 0.58575
#
# Static dielectric constant tensor:
#      x y z
#    x 1.737310 0.000000 0.022370 
#    y 0.000000 1.681610 0.000000 
#    z 0.022370 0.000000 1.674140 
# 
# From -- ./inp_files/68075.got.cif
#   From: 2010.05.17/outbox.cif.g08.bks.cpg/sg13_35_cif.got.tgz:68075.got - 2010.06.03 16:44:36.
