data_PCOD9232972
_publ_section_title
;
Structure prediction by ZEFSAII (Michael W. Deem and Ramdas Pophale) SiO2 
 PCOD9232972
Probable space group: P 2/C
;
_chemical_formula_sum "Si O2"
_cell_formula_units_Z 28
_cell_length_a 23.139790
_cell_length_b 5.178186
_cell_length_c 10.930625
_cell_angle_alpha 90.000000
_cell_angle_beta 53.541085
_cell_angle_gamma 90.000000
_cell_volume 1053.394490
_symmetry_space_group_name_H-M "P 2/C"
_symmetry_group_IT_number 13
_symmetry_cell_setting 'monoclinic'
loop_
_space_group_symop_operation_xyz
x,y,z
-x,y,1/2-z
-x,-y,-z
x,-y,1/2+z
loop_
_atom_site_type_symbol
_atom_site_label
_atom_site_fract_x
_atom_site_fract_y
_atom_site_fract_z
Si Si1 0.102649 0.016320 0.845411
Si Si2 0.178258 0.704550 0.938530
Si Si3 0.544924 0.786358 0.310193
Si Si4 0.065292 0.513057 0.759505
Si Si5 0.739059 0.990898 0.473465
Si Si6 0.705876 0.508406 0.884967
Si Si7 0.411603 0.286900 0.155797
O O1 0.118126 0.898343 0.959318
O O2 0.061653 0.796819 0.820600
O O3 0.069672 0.295636 0.860251
O O4 0.182344 0.017400 0.688648
O O5 0.218893 0.534840 0.785278
O O6 0.138269 0.527839 0.088159
O O7 0.240832 0.879239 0.919606
O O8 0.500000 0.873825 0.250000
O O9 0.576907 0.501618 0.254876
O O10 0.487000 0.752214 0.490914
O O11 0.602664 0.003383 0.272820
O O12 0.000000 0.467878 0.750000
O O13 0.695946 0.775660 0.450900
O O14 0.711811 0.277935 0.484430
O O15 0.643613 0.596881 0.871582
#
# Coordination Sequence:
#
# PCOD9232972 Si02
#       7
#     4   4   4   4   4   4   4
#     4  10  22  40  60  85 114 149 193 237 289 349
#     4  10  22  39  61  82 117 154 186 238 295 340
#     4  10  21  39  61  84 118 157 191 235 287 334
#     4  11  24  40  60  87 115 149 196 241 287 350
#     4  10  22  38  58  85 116 150 190 236 285 346
#     4  11  23  38  59  88 117 150 194 237 286 343
#     4  10  22  38  58  88 118 149 196 240 277 341
#
# _framework density 26.580734
#
# number of rings (size 3 to 8) (size 9 to 14) (size 15 to 20)
#    0.000    1.714    0.000    5.143    0.000   13.714 
#    0.000    0.000    0.000    0.000    0.000    0.000 
#    0.000    0.000    0.000    0.000    0.000    0.000 
#
# Total GULP energy -156986.058091 kJ/mol
# GULP energy per Si atom -5606.644932 kJ/mol
# Density = 2.652024 g / cm^3
# Si number density = 26.580734 Si / 1000 Ang^3
#
#
#
# Elastic Constant Matrix: (Units=GPa)
#
#
# Indices 1 2 3 4 5 6 
#
# 1 125.6898 24.4099 -8.8686 0.0000 9.2090 0.0000
# 2 24.4099 107.0005 15.4937 0.0000 -3.0749 0.0000
# 3 -8.8686 15.4937 80.3877 0.0000 -14.9410 0.0000
# 4 0.0000 0.0000 0.0000 -7.6262 0.0000 14.8310
# 5 9.2090 -3.0749 -14.9410 0.0000 41.0099 0.0000
# 6 0.0000 0.0000 0.0000 14.8310 0.0000 45.1954
#
#
#
# Elastic Compliance Matrix: (Units=1/GPa)
#
#
# Indices 1 2 3 4 5 6 
#
# 1 0.008574 -0.002156 0.001044 0.000000 -0.001706 0.000000
# 2 -0.002156 0.010156 -0.002106 0.000000 0.000478 0.000000
# 3 0.001044 -0.002106 0.013824 0.000000 0.004644 0.000000
# 4 0.000000 0.000000 0.000000 -0.080045 0.000000 0.026267
# 5 -0.001706 0.000478 0.004644 0.000000 0.026495 0.000000
# 6 0.000000 0.000000 0.000000 0.026267 0.000000 0.013507
#
#
# Mechanical properties :
#
#
# Convention : Reuss Voigt Hill
#
# Bulk Modulus (GPa) = 38.28884 41.68312 39.98598
# Shear Modulus (GPa) = 653.30352 34.51870 343.91111
#
# Velocity S-wave (km/s) = 15.69441 3.60757 11.38703
# Velocity P-wave (km/s) = 18.51635 5.75052 13.70992
#
# Compressibility (1/GPa) = 0.02611727
#
# Stress axis : x y z
#
# Youngs Moduli (GPa) = 116.63791 98.46023 72.33765
#
# Poissons Ratio (x) = 0.21229 -0.07554
# Poissons Ratio (y) = 0.25149 0.15238
# Poissons Ratio (z) = -0.12180 0.20741
#
# Static dielectric constant tensor:
#      x y z
#    x 2.064780 0.000000 -0.022560 
#    y 0.000000 2.062630 0.000000 
#    z -0.022560 0.000000 2.155990 
# 
# From -- ./inp_files/39831.got.cif
#   From: 2010.05.17/outbox.cif.g08.bks.cpg/sg13_20_cif.got.tgz:39831.got - 2010.06.03 16:44:36.
