data_PCOD9232702
_publ_section_title
;
Structure prediction by ZEFSAII (Michael W. Deem and Ramdas Pophale) SiO2 
 PCOD9232702
Probable space group: P 2/C
;
_chemical_formula_sum "Si O2"
_cell_formula_units_Z 30
_cell_length_a 10.081583
_cell_length_b 16.580044
_cell_length_c 12.863675
_cell_angle_alpha 90.000000
_cell_angle_beta 144.885529
_cell_angle_gamma 90.000000
_cell_volume 1236.822303
_symmetry_space_group_name_H-M "P 2/C"
_symmetry_group_IT_number 13
_symmetry_cell_setting 'monoclinic'
loop_
_space_group_symop_operation_xyz
x,y,z
-x,y,1/2-z
-x,-y,-z
x,-y,1/2+z
loop_
_atom_site_type_symbol
_atom_site_label
_atom_site_fract_x
_atom_site_fract_y
_atom_site_fract_z
Si Si1 0.773772 0.218768 0.811591
Si Si2 0.472274 0.903025 0.488318
Si Si3 0.000000 0.717999 0.250000
Si Si4 0.750897 0.040879 0.458832
Si Si5 0.665495 0.579113 0.058542
Si Si6 0.137010 0.575759 0.754773
Si Si7 0.724366 0.399807 0.834286
Si Si8 0.037040 0.887724 0.614161
O O1 0.617723 0.145389 0.668251
O O2 0.674944 0.305644 0.776655
O O3 0.935077 0.236327 0.813991
O O4 0.889877 0.189278 0.991958
O O5 0.297020 0.900618 0.474388
O O6 0.723424 0.870355 0.677101
O O7 0.500000 0.000000 0.500000
O O8 0.792347 0.655723 0.093216
O O9 0.500000 0.021022 0.250000
O O10 0.891572 0.081297 0.455818
O O11 0.888917 0.959017 0.571234
O O12 0.779784 0.493532 0.102974
O O13 0.735411 0.567092 0.224827
O O14 0.394406 0.595492 0.878905
O O15 0.000000 0.632537 0.750000
O O16 0.964224 0.581672 0.545463
O O17 0.500000 0.431877 0.750000
#
# Coordination Sequence:
#
# PCOD9232702 Si02
#       8
#     4   4   2   4   4   4   4   4
#     4  11  24  40  61  91 133 172 219 276 341 410
#     4  11  23  39  62  90 118 164 220 274 338 405
#     4  10  22  42  66  94 138 180 220 276 354 408
#     4   9  18  35  61  86 116 151 207 273 332 394
#     4  10  22  42  68 103 136 173 231 280 332 402
#     4  11  21  41  73 100 135 178 230 282 330 398
#     4  11  24  42  62  94 136 180 220 273 342 401
#     4  10  21  38  59  85 117 157 205 265 330 396
#
# _framework density 24.255709
#
# number of rings (size 3 to 8) (size 9 to 14) (size 15 to 20)
#    0.000    1.600    2.000    3.600    0.000    5.333 
#    0.000    5.333    0.000    0.000    0.000    0.000 
#    0.000    0.000    0.000    0.000    0.000    0.000 
#
# Total GULP energy -167283.518625 kJ/mol
# GULP energy per Si atom -5576.117287 kJ/mol
# Density = 2.420050 g / cm^3
# Si number density = 24.255709 Si / 1000 Ang^3
#
#
#
# Elastic Constant Matrix: (Units=GPa)
#
#
# Indices 1 2 3 4 5 6 
#
# 1 52.4483 -6.2672 31.7065 0.0000 -4.4511 0.0000
# 2 -6.2672 62.1445 28.0576 0.0000 -3.5998 0.0000
# 3 31.7065 28.0576 152.8272 0.0000 6.8229 0.0000
# 4 0.0000 0.0000 0.0000 12.1324 0.0000 5.1032
# 5 -4.4511 -3.5998 6.8229 0.0000 35.6100 0.0000
# 6 0.0000 0.0000 0.0000 5.1032 0.0000 28.7287
#
#
#
# Elastic Compliance Matrix: (Units=1/GPa)
#
#
# Indices 1 2 3 4 5 6 
#
# 1 0.023842 0.005458 -0.006159 0.000000 0.004712 0.000000
# 2 0.005458 0.019003 -0.004778 0.000000 0.003519 0.000000
# 3 -0.006159 -0.004778 0.008830 0.000000 -0.002945 0.000000
# 4 0.000000 0.000000 0.000000 0.089080 0.000000 -0.015824
# 5 0.004712 0.003519 -0.002945 0.000000 0.029591 0.000000
# 6 0.000000 0.000000 0.000000 -0.015824 0.000000 0.037619
#
#
# Mechanical properties :
#
#
# Convention : Reuss Voigt Hill
#
# Bulk Modulus (GPa) = 24.56006 41.60151 33.08079
# Shear Modulus (GPa) = 21.50590 29.55575 25.53082
#
# Velocity S-wave (km/s) = 2.98087 3.49450 3.24785
# Velocity P-wave (km/s) = 4.68987 5.78537 5.26618
#
# Compressibility (1/GPa) = 0.04071651
#
# Stress axis : x y z
#
# Youngs Moduli (GPa) = 41.94348 52.62294 113.25334
#
# Poissons Ratio (x) = -0.28721 0.69750
# Poissons Ratio (y) = -0.22893 0.54115
# Poissons Ratio (z) = 0.25832 0.25144
#
# Static dielectric constant tensor:
#      x y z
#    x 1.964470 0.000000 -0.009050 
#    y 0.000000 2.122070 0.000000 
#    z -0.009050 0.000000 1.981710 
# 
# From -- ./inp_files/51617.got.cif
#   From: 2010.05.17/outbox.cif.g08.bks.cpg/sg13_26_cif.got.tgz:51617.got - 2010.06.03 16:44:36.
