data_PCOD9232274
_publ_section_title
;
Structure prediction by ZEFSAII (Michael W. Deem and Ramdas Pophale) SiO2 
 PCOD9232274
Probable space group: P 2/C
;
_chemical_formula_sum "Si O2"
_cell_formula_units_Z 18
_cell_length_a 7.430276
_cell_length_b 7.696888
_cell_length_c 20.146305
_cell_angle_alpha 90.000000
_cell_angle_beta 47.523888
_cell_angle_gamma 90.000000
_cell_volume 849.791242
_symmetry_space_group_name_H-M "P 2/C"
_symmetry_group_IT_number 13
_symmetry_cell_setting 'monoclinic'
loop_
_space_group_symop_operation_xyz
x,y,z
-x,y,1/2-z
-x,-y,-z
x,-y,1/2+z
loop_
_atom_site_type_symbol
_atom_site_label
_atom_site_fract_x
_atom_site_fract_y
_atom_site_fract_z
Si Si1 0.754521 0.912322 0.293489
Si Si2 0.352443 0.162616 0.065788
Si Si3 0.753354 0.716619 0.048083
Si Si4 0.280516 0.687916 0.929111
Si Si5 0.500000 0.104300 0.250000
O O1 0.496510 0.814781 0.371071
O O2 0.000000 0.805406 0.250000
O O3 0.781656 0.071396 0.339269
O O4 0.711527 0.986296 0.230495
O O5 0.546084 0.288416 0.051347
O O6 0.220640 0.258343 0.038231
O O7 0.500000 0.000000 0.000000
O O8 0.736499 0.518123 0.076107
O O9 0.017138 0.774276 0.009498
O O10 0.394258 0.781462 0.836501
#
# Coordination Sequence:
#
# PCOD9232274 Si02
#       5
#     4   4   4   4   2
#     4  10  21  36  56  82 112 148 188 230 274 324
#     4   9  19  35  57  81 107 144 185 226 270 323
#     4  10  21  37  60  84 110 147 187 229 275 329
#     4  10  21  38  58  84 114 145 183 228 281 330
#     4  10  22  38  56  82 116 148 182 230 278 328
#
# _framework density 21.181671999999999
#
# number of rings (size 3 to 8) (size 9 to 14) (size 15 to 20)
#    0.000    2.222    0.000    2.000    0.000   12.444 
#    0.000   11.111    0.000    0.000    0.000    0.000 
#    0.000    0.000    0.000    0.000    0.000    0.000 
#
# Total GULP energy -100264.280682 kJ/mol
# GULP energy per Si atom -5570.237816 kJ/mol
# Density = 2.113346 g / cm^3
# Si number density = 21.181672 Si / 1000 Ang^3
#
#
#
# Elastic Constant Matrix: (Units=GPa)
#
#
# Indices 1 2 3 4 5 6 
#
# 1 73.2960 -5.2212 7.7070 0.0000 -1.8780 0.0000
# 2 -5.2212 42.3798 15.6075 0.0000 -2.1428 0.0000
# 3 7.7070 15.6075 55.8682 0.0000 -8.0670 0.0000
# 4 0.0000 0.0000 0.0000 15.3400 0.0000 1.4428
# 5 -1.8780 -2.1428 -8.0670 0.0000 37.7353 0.0000
# 6 0.0000 0.0000 0.0000 1.4428 0.0000 30.2093
#
#
#
# Elastic Compliance Matrix: (Units=1/GPa)
#
#
# Indices 1 2 3 4 5 6 
#
# 1 0.014127 0.002739 -0.002673 0.000000 0.000287 0.000000
# 2 0.002739 0.026834 -0.007878 0.000000 -0.000024 0.000000
# 3 -0.002673 -0.007878 0.021034 0.000000 0.003916 0.000000
# 4 0.000000 0.000000 0.000000 0.065483 0.000000 -0.003127
# 5 0.000287 -0.000024 0.003916 0.000000 0.027351 0.000000
# 6 0.000000 0.000000 0.000000 -0.003127 0.000000 0.033252
#
#
# Mechanical properties :
#
#
# Convention : Reuss Voigt Hill
#
# Bulk Modulus (GPa) = 21.56449 23.08118 22.32283
# Shear Modulus (GPa) = 22.81442 26.88695 24.85069
#
# Velocity S-wave (km/s) = 3.28546 3.56666 3.42894
# Velocity P-wave (km/s) = 4.95935 5.28032 5.12235
#
# Compressibility (1/GPa) = 0.04637253
#
# Stress axis : x y z
#
# Youngs Moduli (GPa) = 70.78739 37.26679 47.54167
#
# Poissons Ratio (x) = -0.10208 0.12706
# Poissons Ratio (y) = -0.19390 0.37452
# Poissons Ratio (z) = 0.18918 0.29357
#
# Static dielectric constant tensor:
#      x y z
#    x 1.777440 0.000000 -0.046100 
#    y 0.000000 1.506180 0.000000 
#    z -0.046100 0.000000 1.851050 
# 
# From -- ./inp_files/60362.got.cif
#   From: 2010.05.17/outbox.cif.g08.bks.cpg/sg13_31_cif.got.tgz:60362.got - 2010.06.03 16:44:36.
