data_PCOD9232196
_publ_section_title
;
Structure prediction by ZEFSAII (Michael W. Deem and Ramdas Pophale) SiO2 
 PCOD9232196
Probable space group: P 2/C
;
_chemical_formula_sum "Si O2"
_cell_formula_units_Z 30
_cell_length_a 5.065133
_cell_length_b 11.212502
_cell_length_c 26.046494
_cell_angle_alpha 90.000000
_cell_angle_beta 95.681645
_cell_angle_gamma 90.000000
_cell_volume 1471.986611
_symmetry_space_group_name_H-M "P 2/C"
_symmetry_group_IT_number 13
_symmetry_cell_setting 'monoclinic'
loop_
_space_group_symop_operation_xyz
x,y,z
-x,y,1/2-z
-x,-y,-z
x,-y,1/2+z
loop_
_atom_site_type_symbol
_atom_site_label
_atom_site_fract_x
_atom_site_fract_y
_atom_site_fract_z
Si Si1 0.479031 0.686552 0.899428
Si Si2 0.652629 0.623983 0.492207
Si Si3 0.252785 0.913695 0.559607
Si Si4 0.128354 0.321158 0.300187
Si Si5 0.787751 0.490368 0.851420
Si Si6 0.755609 0.065779 0.563127
Si Si7 0.126833 0.679407 0.426389
Si Si8 0.500000 0.512286 0.250000
O O1 0.696090 0.785937 0.915013
O O2 0.316699 0.732268 0.846964
O O3 0.589843 0.553507 0.888305
O O4 0.323632 0.678339 0.950340
O O5 0.500000 0.500000 0.500000
O O6 0.937390 0.639582 0.470556
O O7 0.435229 0.678672 0.449105
O O8 0.272000 0.903053 0.498123
O O9 0.477674 0.012738 0.577316
O O10 0.966334 0.959976 0.568963
O O11 0.294822 0.425478 0.275120
O O12 0.000000 0.250232 0.250000
O O13 0.910721 0.391168 0.328683
O O14 0.014982 0.410211 0.881167
O O15 0.643652 0.424704 0.800840
O O16 0.894337 0.182381 0.589755
#
# Coordination Sequence:
#
# PCOD9232196 Si02
#       8
#     4   4   4   4   4   4   4   2
#     4  11  22  34  57  86 115 153 193 237 295 347
#     4  12  24  35  51  87 128 155 182 228 294 356
#     4  10  22  37  56  76 111 154 201 238 273 326
#     4   9  19  36  58  83 118 143 187 234 296 356
#     4  10  21  35  59  86 116 152 185 241 297 358
#     4  10  22  39  53  77 111 159 202 235 269 328
#     4  12  24  38  56  84 121 157 195 235 282 347
#     4   8  18  38  52  86 114 144 188 228 292 362
#
# _framework density 20.380617999999998
#
# number of rings (size 3 to 8) (size 9 to 14) (size 15 to 20)
#    0.000    1.600    2.667    2.000    9.333    0.000 
#    0.000    0.000    0.000    0.000    3.467    0.000 
#    0.000    0.000    0.000    0.000    0.000    0.000 
#
# Total GULP energy -167182.711274 kJ/mol
# GULP energy per Si atom -5572.757042 kJ/mol
# Density = 2.033423 g / cm^3
# Si number density = 20.380618 Si / 1000 Ang^3
#
#
#
# Elastic Constant Matrix: (Units=GPa)
#
#
# Indices 1 2 3 4 5 6 
#
# 1 69.0719 -1.7354 27.3621 0.0000 10.2239 0.0000
# 2 -1.7354 58.4692 20.4014 0.0000 15.1809 0.0000
# 3 27.3621 20.4014 113.3457 0.0000 21.9951 0.0000
# 4 0.0000 0.0000 0.0000 4.8987 0.0000 6.8937
# 5 10.2239 15.1809 21.9951 0.0000 31.9633 0.0000
# 6 0.0000 0.0000 0.0000 6.8937 0.0000 23.4280
#
#
#
# Elastic Compliance Matrix: (Units=1/GPa)
#
#
# Indices 1 2 3 4 5 6 
#
# 1 0.016638 0.002865 -0.003734 0.000000 -0.004113 0.000000
# 2 0.002865 0.020394 -0.002660 0.000000 -0.008772 0.000000
# 3 -0.003734 -0.002660 0.011225 0.000000 -0.005266 0.000000
# 4 0.000000 0.000000 0.000000 0.348405 0.000000 -0.102519
# 5 -0.004113 -0.008772 -0.005266 0.000000 0.040392 0.000000
# 6 0.000000 0.000000 0.000000 -0.102519 0.000000 0.072850
#
#
# Mechanical properties :
#
#
# Convention : Reuss Voigt Hill
#
# Bulk Modulus (GPa) = 24.27352 36.99366 30.63359
# Shear Modulus (GPa) = 9.42162 25.04858 17.23510
#
# Velocity S-wave (km/s) = 2.15241 3.50957 2.91118
# Velocity P-wave (km/s) = 4.25595 5.88333 5.13452
#
# Compressibility (1/GPa) = 0.04119716
#
# Stress axis : x y z
#
# Youngs Moduli (GPa) = 60.10507 49.03475 89.08931
#
# Poissons Ratio (x) = -0.14046 0.33265
# Poissons Ratio (y) = -0.17217 0.23698
# Poissons Ratio (z) = 0.22442 0.13043
#
# Static dielectric constant tensor:
#      x y z
#    x 1.896500 0.000000 -0.013980 
#    y 0.000000 1.774080 0.000000 
#    z -0.013980 0.000000 1.835250 
# 
# From -- ./inp_files/83735.got.cif
#   From: 2010.05.17/outbox.cif.g08.bks.cpg/sg13_42_cif.got.tgz:83735.got - 2010.06.03 16:44:36.
