data_PCOD9232834
_publ_section_title
;
Structure prediction by ZEFSAII (Michael W. Deem and Ramdas Pophale) SiO2 
 PCOD9232834
Probable space group: P 2/C
;
_chemical_formula_sum "Si O2"
_cell_formula_units_Z 26
_cell_length_a 6.653490
_cell_length_b 7.761778
_cell_length_c 24.142735
_cell_angle_alpha 90.000000
_cell_angle_beta 81.416511
_cell_angle_gamma 90.000000
_cell_volume 1232.836265
_symmetry_space_group_name_H-M "P 2/C"
_symmetry_group_IT_number 13
_symmetry_cell_setting 'monoclinic'
loop_
_space_group_symop_operation_xyz
x,y,z
-x,y,1/2-z
-x,-y,-z
x,-y,1/2+z
loop_
_atom_site_type_symbol
_atom_site_label
_atom_site_fract_x
_atom_site_fract_y
_atom_site_fract_z
Si Si1 0.786380 0.688427 0.552112
Si Si2 0.057082 0.150554 0.134315
Si Si3 0.386897 0.852526 0.537814
Si Si4 0.154158 0.504862 0.694270
Si Si5 0.889518 0.706403 0.047426
Si Si6 0.500000 0.656434 0.250000
Si Si7 0.119304 0.184458 0.830407
O O1 0.549799 0.723145 0.557164
O O2 0.849079 0.493067 0.561516
O O3 0.883957 0.799190 0.597078
O O4 0.887962 0.732668 0.488323
O O5 0.242743 0.073457 0.091358
O O6 0.141180 0.329035 0.155881
O O7 0.968318 0.005090 0.178374
O O8 0.252001 0.755700 0.498089
O O9 0.500000 0.000000 0.500000
O O10 0.374066 0.458003 0.710626
O O11 0.000000 0.550296 0.750000
O O12 0.051434 0.331581 0.673463
O O13 0.844507 0.808847 0.104968
O O14 0.677195 0.765130 0.211626
#
# Coordination Sequence:
#
# PCOD9232834 Si02
#       7
#     4   4   4   4   4   2   4
#     4  10  21  39  61  96 131 177 215 257 320 393
#     4  11  24  42  69  95 132 174 216 267 332 390
#     4  11  23  37  58 101 136 173 220 260 315 398
#     4  10  24  46  66  94 127 166 221 282 332 392
#     4  10  21  38  63  92 135 174 211 266 320 384
#     4  10  26  46  72  96 130 170 228 282 344 398
#     4  11  23  44  68  97 132 173 216 279 334 389
#
# _framework density 21.089580000000002
#
# number of rings (size 3 to 8) (size 9 to 14) (size 15 to 20)
#    0.000    1.538    1.538    2.308    2.154    8.000 
#    0.000    3.846    0.000    0.000    0.000    0.000 
#    0.000    0.000    0.000    0.000    0.000    0.000 
#
# Total GULP energy -145244.216710 kJ/mol
# GULP energy per Si atom -5586.316027 kJ/mol
# Density = 2.104158 g / cm^3
# Si number density = 21.089580 Si / 1000 Ang^3
#
#
#
# Elastic Constant Matrix: (Units=GPa)
#
#
# Indices 1 2 3 4 5 6 
#
# 1 112.2810 34.9647 29.5654 0.0000 0.5671 0.0000
# 2 34.9647 121.1323 32.9185 0.0000 -6.7529 0.0000
# 3 29.5654 32.9185 66.3912 0.0000 -0.0542 0.0000
# 4 0.0000 0.0000 0.0000 6.9014 0.0000 -9.1431
# 5 0.5671 -6.7529 -0.0542 0.0000 20.2387 0.0000
# 6 0.0000 0.0000 0.0000 -9.1431 0.0000 11.2245
#
#
#
# Elastic Compliance Matrix: (Units=1/GPa)
#
#
# Indices 1 2 3 4 5 6 
#
# 1 0.010526 -0.002104 -0.003645 0.000000 -0.001007 0.000000
# 2 -0.002104 0.010169 -0.004103 0.000000 0.003441 0.000000
# 3 -0.003645 -0.004103 0.018719 0.000000 -0.001217 0.000000
# 4 0.000000 0.000000 0.000000 -1.830723 0.000000 -1.491245
# 5 -0.001007 0.003441 -0.001217 0.000000 0.050583 0.000000
# 6 0.000000 0.000000 0.000000 -1.491245 0.000000 -1.125627
#
#
# Mechanical properties :
#
#
# Convention : Reuss Voigt Hill
#
# Bulk Modulus (GPa) = 50.73293 54.96686 52.84990
# Shear Modulus (GPa) = -1.76052 21.16332 9.70140
#
# Velocity S-wave (km/s) = -0.91465 3.17124 2.14711
# Velocity P-wave (km/s) = 4.79507 6.28722 5.59114
#
# Compressibility (1/GPa) = 0.01971106
#
# Stress axis : x y z
#
# Youngs Moduli (GPa) = 94.99996 98.33364 53.42254
#
# Poissons Ratio (x) = 0.20689 0.19474
# Poissons Ratio (y) = 0.19987 0.21917
# Poissons Ratio (z) = 0.34630 0.40342
#
# Static dielectric constant tensor:
#      x y z
#    x 2.119130 0.000000 0.088080 
#    y 0.000000 1.807420 0.000000 
#    z 0.088080 0.000000 1.796790 
# 
# From -- ./inp_files/90223.got.cif
#   From: 2010.05.17/outbox.cif.g08.bks.cpg/sg13_46_cif.got.tgz:90223.got - 2010.06.03 16:44:36.
