data_PCOD9232154
_publ_section_title
;
Structure prediction by ZEFSAII (Michael W. Deem and Ramdas Pophale) SiO2 
 PCOD9232154
Probable space group: P 2/C
;
_chemical_formula_sum "Si O2"
_cell_formula_units_Z 20
_cell_length_a 6.878349
_cell_length_b 26.131980
_cell_length_c 5.358155
_cell_angle_alpha 90.000000
_cell_angle_beta 103.358350
_cell_angle_gamma 90.000000
_cell_volume 937.043343
_symmetry_space_group_name_H-M "P 2/C"
_symmetry_group_IT_number 13
_symmetry_cell_setting 'monoclinic'
loop_
_space_group_symop_operation_xyz
x,y,z
-x,y,1/2-z
-x,-y,-z
x,-y,1/2+z
loop_
_atom_site_type_symbol
_atom_site_label
_atom_site_fract_x
_atom_site_fract_y
_atom_site_fract_z
Si Si1 0.131644 0.368700 0.537445
Si Si2 0.134614 0.746165 0.039737
Si Si3 0.500000 0.888277 0.750000
Si Si4 0.500000 0.821997 0.250000
Si Si5 0.270892 0.478255 0.671004
Si Si6 0.770451 0.020028 0.403766
O O1 0.221722 0.311734 0.544703
O O2 0.266073 0.418795 0.597847
O O3 0.000000 0.368666 0.750000
O O4 0.000000 0.375137 0.250000
O O5 0.309723 0.786639 0.130318
O O6 0.000000 0.747929 0.250000
O O7 0.000000 0.755055 0.750000
O O8 0.471353 0.855627 0.490929
O O9 0.302016 0.924566 0.712069
O O10 0.500000 0.495902 0.750000
O O11 0.184052 0.511485 0.418912
O O12 0.690329 0.015993 0.660196
O O13 0.000000 0.000000 0.500000
#
# Coordination Sequence:
#
# PCOD9232154 Si02
#       6
#     4   4   2   2   4   4
#     4  10  21  37  61  85 113 161 206 253 319 385
#     4  10  23  46  66  95 133 168 224 277 324 401
#     4  12  24  43  66 104 134 165 232 258 308 400
#     4  12  26  45  70 102 132 181 212 280 338 362
#     4  10  21  35  52  83 120 153 199 258 314 380
#     4  10  21  41  65  94 132 174 208 256 310 367
#
# _framework density 21.343727000000001
#
# number of rings (size 3 to 8) (size 9 to 14) (size 15 to 20)
#    0.000    1.600    0.000    4.200    1.400    2.400 
#   21.600    0.000    0.000    0.000    0.000    0.000 
#    0.000    0.000    0.000    0.000    0.000    0.000 
#
# Total GULP energy -111493.507753 kJ/mol
# GULP energy per Si atom -5574.675388 kJ/mol
# Density = 2.129515 g / cm^3
# Si number density = 21.343727 Si / 1000 Ang^3
#
#
#
# Elastic Constant Matrix: (Units=GPa)
#
#
# Indices 1 2 3 4 5 6 
#
# 1 61.7622 31.8073 39.7739 0.0000 16.4964 0.0000
# 2 31.8073 135.9512 67.8681 0.0000 19.7105 0.0000
# 3 39.7739 67.8681 210.9690 0.0000 0.7180 0.0000
# 4 0.0000 0.0000 0.0000 50.3581 0.0000 2.7015
# 5 16.4964 19.7105 0.7180 0.0000 38.0829 0.0000
# 6 0.0000 0.0000 0.0000 2.7015 0.0000 33.4724
#
#
#
# Elastic Compliance Matrix: (Units=1/GPa)
#
#
# Indices 1 2 3 4 5 6 
#
# 1 0.021670 -0.002214 -0.003345 0.000000 -0.008178 0.000000
# 2 -0.002214 0.009827 -0.002730 0.000000 -0.004076 0.000000
# 3 -0.003345 -0.002730 0.006240 0.000000 0.002744 0.000000
# 4 0.000000 0.000000 0.000000 0.019944 0.000000 -0.001610
# 5 -0.008178 -0.004076 0.002744 0.000000 0.031859 0.000000
# 6 0.000000 0.000000 0.000000 -0.001610 0.000000 0.030005
#
#
# Mechanical properties :
#
#
# Convention : Reuss Voigt Hill
#
# Bulk Modulus (GPa) = 47.26419 76.39789 61.83104
# Shear Modulus (GPa) = 34.92180 42.33157 38.62668
#
# Velocity S-wave (km/s) = 4.04934 4.45829 4.25872
# Velocity P-wave (km/s) = 6.63741 7.89769 7.29482
#
# Compressibility (1/GPa) = 0.02115767
#
# Stress axis : x y z
#
# Youngs Moduli (GPa) = 46.14670 101.75564 160.26559
#
# Poissons Ratio (x) = 0.22532 0.53613
# Poissons Ratio (y) = 0.10219 0.43754
# Poissons Ratio (z) = 0.15437 0.27781
#
# Static dielectric constant tensor:
#      x y z
#    x 1.816900 0.000000 -0.017990 
#    y 0.000000 1.773880 0.000000 
#    z -0.017990 0.000000 1.785290 
# 
# From -- ./inp_files/2174.got.cif
#   From: 2010.05.17/outbox.cif.g08.bks.cpg/sg13_2_cif.got.tgz:2174.got - 2010.06.03 16:44:36.
