data_PCOD9232143
_publ_section_title
;
Structure prediction by ZEFSAII (Michael W. Deem and Ramdas Pophale) SiO2 
 PCOD9232143
Probable space group: P 2/C
;
_chemical_formula_sum "Si O2"
_cell_formula_units_Z 28
_cell_length_a 5.354699
_cell_length_b 13.617944
_cell_length_c 20.228227
_cell_angle_alpha 90.000000
_cell_angle_beta 67.282179
_cell_angle_gamma 90.000000
_cell_volume 1360.605436
_symmetry_space_group_name_H-M "P 2/C"
_symmetry_group_IT_number 13
_symmetry_cell_setting 'monoclinic'
loop_
_space_group_symop_operation_xyz
x,y,z
-x,y,1/2-z
-x,-y,-z
x,-y,1/2+z
loop_
_atom_site_type_symbol
_atom_site_label
_atom_site_fract_x
_atom_site_fract_y
_atom_site_fract_z
Si Si1 0.175297 0.110132 0.664202
Si Si2 0.525234 0.058068 0.324243
Si Si3 0.659824 0.676166 0.663259
Si Si4 0.034311 0.048063 0.066976
Si Si5 0.633355 0.445519 0.663139
Si Si6 0.133678 0.336972 0.662564
Si Si7 0.228794 0.212503 0.120717
O O1 0.190509 0.222878 0.643080
O O2 0.000000 0.102292 0.750000
O O3 0.080739 0.040391 0.614263
O O4 0.448258 0.055418 0.658235
O O5 0.500000 0.066667 0.250000
O O6 0.770523 0.125360 0.324274
O O7 0.253406 0.095176 0.385439
O O8 0.500000 0.689227 0.750000
O O9 0.687251 0.560116 0.647163
O O10 0.472579 0.720260 0.623382
O O11 0.957419 0.723413 0.642354
O O12 0.246359 0.138293 0.055243
O O13 0.000000 0.000000 0.000000
O O14 0.500000 0.437988 0.750000
O O15 0.409170 0.399095 0.637929
O O16 0.909996 0.383888 0.637643
O O17 0.000000 0.339908 0.750000
#
# Coordination Sequence:
#
# PCOD9232143 Si02
#       7
#     4   4   4   4   4   4   4
#     4  10  21  34  60  90 120 161 205 247 298 362
#     4  11  22  37  62  88 125 156 206 248 299 356
#     4  11  21  33  56  86 121 157 198 244 302 359
#     4  11  25  42  60  89 127 161 203 252 300 356
#     4   9  18  32  49  81 120 153 187 244 303 350
#     4   9  18  31  52  80 117 153 192 240 299 354
#     4  11  23  36  56  82 118 162 198 239 294 357
#
# _framework density 20.579073999999999
#
# number of rings (size 3 to 8) (size 9 to 14) (size 15 to 20)
#    0.000    1.714    2.857    1.714    4.000    5.143 
#    0.000    0.000    0.000    0.000    0.000    6.000 
#    0.000    0.000    0.000    0.000    0.000    0.000 
#
# Total GULP energy -156031.488405 kJ/mol
# GULP energy per Si atom -5572.553157 kJ/mol
# Density = 2.053224 g / cm^3
# Si number density = 20.579074 Si / 1000 Ang^3
#
#
#
# Elastic Constant Matrix: (Units=GPa)
#
#
# Indices 1 2 3 4 5 6 
#
# 1 136.6159 80.7283 7.8344 0.0000 10.4801 0.0000
# 2 80.7283 179.9612 6.5375 0.0000 11.0972 0.0000
# 3 7.8344 6.5375 29.8722 0.0000 13.4860 0.0000
# 4 0.0000 0.0000 0.0000 -8.9858 0.0000 -7.3819
# 5 10.4801 11.0972 13.4860 0.0000 14.1581 0.0000
# 6 0.0000 0.0000 0.0000 -7.3819 0.0000 39.2517
#
#
#
# Elastic Compliance Matrix: (Units=1/GPa)
#
#
# Indices 1 2 3 4 5 6 
#
# 1 0.010189 -0.004308 0.000265 0.000000 -0.004418 0.000000
# 2 -0.004308 0.007693 0.001279 0.000000 -0.004059 0.000000
# 3 0.000265 0.001279 0.059068 0.000000 -0.057463 0.000000
# 4 0.000000 0.000000 0.000000 -0.096394 0.000000 -0.018128
# 5 -0.004418 -0.004059 -0.057463 0.000000 0.131818 0.000000
# 6 0.000000 0.000000 0.000000 -0.018128 0.000000 0.022067
#
#
# Mechanical properties :
#
#
# Convention : Reuss Voigt Hill
#
# Bulk Modulus (GPa) = 14.00118 59.62774 36.81446
# Shear Modulus (GPa) = 30.52931 25.64141 28.08536
#
# Velocity S-wave (km/s) = 3.85582 3.53369 3.69826
# Velocity P-wave (km/s) = 5.16154 6.75923 6.01368
#
# Compressibility (1/GPa) = 0.07142253
#
# Stress axis : x y z
#
# Youngs Moduli (GPa) = 98.14395 129.98716 16.92951
#
# Poissons Ratio (x) = 0.55997 -0.00449
# Poissons Ratio (y) = 0.42279 -0.02165
# Poissons Ratio (z) = -0.02603 -0.16621
#
# Static dielectric constant tensor:
#      x y z
#    x 1.804610 0.000000 0.001800 
#    y 0.000000 1.761030 0.000000 
#    z 0.001800 0.000000 1.738620 
# 
# From -- ./inp_files/73586.got.cif
#   From: 2010.05.17/outbox.cif.g08.bks.cpg/sg13_37_cif.got.tgz:73586.got - 2010.06.03 16:44:36.
