data_PCOD9232272
_publ_section_title
;
Structure prediction by ZEFSAII (Michael W. Deem and Ramdas Pophale) SiO2 
 PCOD9232272
Probable space group: P 2/C
;
_chemical_formula_sum "Si O2"
_cell_formula_units_Z 28
_cell_length_a 8.939494
_cell_length_b 19.750226
_cell_length_c 14.917924
_cell_angle_alpha 90.000000
_cell_angle_beta 150.687154
_cell_angle_gamma 90.000000
_cell_volume 1289.481919
_symmetry_space_group_name_H-M "P 2/C"
_symmetry_group_IT_number 13
_symmetry_cell_setting 'monoclinic'
loop_
_space_group_symop_operation_xyz
x,y,z
-x,y,1/2-z
-x,-y,-z
x,-y,1/2+z
loop_
_atom_site_type_symbol
_atom_site_label
_atom_site_fract_x
_atom_site_fract_y
_atom_site_fract_z
Si Si1 0.313337 0.104337 0.376534
Si Si2 0.711565 0.660569 0.647206
Si Si3 0.815254 0.039057 0.747076
Si Si4 0.753120 0.147531 0.458786
Si Si5 0.238825 0.295864 0.037367
Si Si6 0.756982 0.459765 0.311947
Si Si7 0.786635 0.406695 0.725674
O O1 0.489448 0.071956 0.553668
O O2 0.558270 0.146928 0.449430
O O3 0.000000 0.134962 0.250000
O O4 0.232543 0.041025 0.267666
O O5 0.451016 0.703010 0.560262
O O6 0.814052 0.603937 0.775644
O O7 0.521177 0.627641 0.467580
O O8 0.000000 0.693927 0.750000
O O9 0.000000 0.043082 0.750000
O O10 0.009007 0.085461 0.914941
O O11 0.500000 0.140655 0.250000
O O12 0.907448 0.221460 0.529743
O O13 0.500000 0.301273 0.250000
O O14 0.990298 0.356503 0.896065
O O15 0.500000 0.441690 0.250000
O O16 0.675300 0.521753 0.204754
O O17 0.000000 0.500000 0.500000
O O18 0.000000 0.418284 0.750000
#
# Coordination Sequence:
#
# PCOD9232272 Si02
#       7
#     4   4   4   4   4   4   4
#     4   9  17  32  55  81 109 143 185 228 268 323
#     4  11  22  37  57  84 113 140 183 235 275 319
#     4   8  16  32  54  79 110 148 185 221 270 331
#     4  10  21  36  56  81 112 148 183 227 280 333
#     4  10  22  41  58  77 110 151 190 225 276 339
#     4  12  22  35  57  84 114 147 178 220 282 334
#     4  10  21  37  57  79 107 145 188 229 270 324
#
# _framework density 21.714146
#
# number of rings (size 3 to 8) (size 9 to 14) (size 15 to 20)
#    0.000    2.000    0.000    5.571    0.000    6.286 
#    0.000    0.714    0.000    3.429    0.000    0.000 
#    0.000    0.000    0.000    0.000    0.000    0.000 
#
# Total GULP energy -155952.973746 kJ/mol
# GULP energy per Si atom -5569.749062 kJ/mol
# Density = 2.166472 g / cm^3
# Si number density = 21.714146 Si / 1000 Ang^3
#
#
#
# Elastic Constant Matrix: (Units=GPa)
#
#
# Indices 1 2 3 4 5 6 
#
# 1 27.2170 0.8872 7.9400 0.0000 10.1546 0.0000
# 2 0.8872 114.7693 12.1477 0.0000 -10.9199 0.0000
# 3 7.9400 12.1477 57.3644 0.0000 -0.0308 0.0000
# 4 0.0000 0.0000 0.0000 -28.7272 0.0000 -3.8339
# 5 10.1546 -10.9199 -0.0308 0.0000 32.5854 0.0000
# 6 0.0000 0.0000 0.0000 -3.8339 0.0000 12.5777
#
#
#
# Elastic Compliance Matrix: (Units=1/GPa)
#
#
# Indices 1 2 3 4 5 6 
#
# 1 0.043691 -0.001050 -0.005833 0.000000 -0.013973 0.000000
# 2 -0.001050 0.009238 -0.001809 0.000000 0.003421 0.000000
# 3 -0.005833 -0.001809 0.018623 0.000000 0.001229 0.000000
# 4 0.000000 0.000000 0.000000 -0.033449 0.000000 -0.010196
# 5 -0.013973 0.003421 0.001229 0.000000 0.036191 0.000000
# 6 0.000000 0.000000 0.000000 -0.010196 0.000000 0.076398
#
#
# Mechanical properties :
#
#
# Convention : Reuss Voigt Hill
#
# Bulk Modulus (GPa) = 18.46062 26.81113 22.63587
# Shear Modulus (GPa) = 26.86283 15.17891 21.02087
#
# Velocity S-wave (km/s) = 3.52108 2.64679 3.11476
# Velocity P-wave (km/s) = 5.00507 4.65991 4.83557
#
# Compressibility (1/GPa) = 0.05416937
#
# Stress axis : x y z
#
# Youngs Moduli (GPa) = 22.88817 108.24542 53.69561
#
# Poissons Ratio (x) = 0.11364 0.31318
# Poissons Ratio (y) = 0.02403 0.09714
# Poissons Ratio (z) = 0.13350 0.19584
#
# Static dielectric constant tensor:
#      x y z
#    x 1.458180 0.000000 -0.011350 
#    y 0.000000 1.879110 0.000000 
#    z -0.011350 0.000000 1.861600 
# 
# From -- ./inp_files/48268.got.cif
#   From: 2010.05.17/outbox.cif.g08.bks.cpg/sg13_25_cif.got.tgz:48268.got - 2010.06.03 16:44:36.
