data_PCOD9232576
_publ_section_title
;
Structure prediction by ZEFSAII (Michael W. Deem and Ramdas Pophale) SiO2 
 PCOD9232576
Probable space group: P 2/C
;
_chemical_formula_sum "Si O2"
_cell_formula_units_Z 28
_cell_length_a 24.402273
_cell_length_b 8.083340
_cell_length_c 19.988468
_cell_angle_alpha 90.000000
_cell_angle_beta 18.259700
_cell_angle_gamma 90.000000
_cell_volume 1235.364473
_symmetry_space_group_name_H-M "P 2/C"
_symmetry_group_IT_number 13
_symmetry_cell_setting 'monoclinic'
loop_
_space_group_symop_operation_xyz
x,y,z
-x,y,1/2-z
-x,-y,-z
x,-y,1/2+z
loop_
_atom_site_type_symbol
_atom_site_label
_atom_site_fract_x
_atom_site_fract_y
_atom_site_fract_z
Si Si1 0.351493 0.732537 0.667500
Si Si2 0.783702 0.928126 0.310267
Si Si3 0.748596 0.980585 0.498900
Si Si4 0.000000 0.292477 0.750000
Si Si5 0.000000 0.759458 0.750000
Si Si6 0.862006 0.527120 0.017100
Si Si7 0.033522 0.261127 0.436618
Si Si8 0.567688 0.038577 0.841251
O O1 0.211717 0.699489 0.770162
O O2 0.320471 0.899553 0.748790
O O3 0.532977 0.790060 0.421289
O O4 0.313439 0.572503 0.757897
O O5 0.702074 0.923761 0.478767
O O6 0.625973 0.961385 0.442420
O O7 0.918217 0.082496 0.151023
O O8 0.888397 0.771017 0.161931
O O9 0.832484 0.822262 0.436721
O O10 0.625295 0.057608 0.698148
O O11 0.896473 0.120576 0.320750
O O12 0.017622 0.391160 0.660329
O O13 0.135428 0.656852 0.547578
O O14 0.958343 0.614605 0.968182
#
# Coordination Sequence:
#
# PCOD9232576 Si02
#       8
#     4   4   4   2   2   4   4   4
#     4  10  21  38  61  91 129 170 212 268 334 394
#     4  10  21  37  62  95 123 168 215 273 327 400
#     4  11  20  40  61  91 124 173 215 276 322 409
#     4  10  22  34  68  92 124 166 224 268 344 378
#     4  10  24  34  64  94 124 164 224 280 334 382
#     4  11  20  40  60  99 126 165 219 287 326 394
#     4  10  21  37  63  92 129 164 219 273 329 389
#     4  10  22  38  61  93 128 168 217 268 333 404
#
# _framework density 22.665375000000001
#
# number of rings (size 3 to 8) (size 9 to 14) (size 15 to 20)
#    0.000    1.714    2.857    1.714    2.000    2.286 
#    0.000    2.857    0.000    0.000    0.000    0.000 
#    0.000    0.000    0.000    0.000    0.000    0.000 
#
# Total GULP energy -155895.959281 kJ/mol
# GULP energy per Si atom -5567.712831 kJ/mol
# Density = 2.261379 g / cm^3
# Si number density = 22.665375 Si / 1000 Ang^3
#
#
#
# Elastic Constant Matrix: (Units=GPa)
#
#
# Indices 1 2 3 4 5 6 
#
# 1 132.6815 51.2575 35.5876 0.0000 33.2880 0.0000
# 2 51.2575 108.8899 33.1678 0.0000 8.2064 0.0000
# 3 35.5876 33.1678 69.0472 0.0000 33.1601 0.0000
# 4 0.0000 0.0000 0.0000 9.1232 0.0000 -28.1414
# 5 33.2880 8.2064 33.1601 0.0000 44.7634 0.0000
# 6 0.0000 0.0000 0.0000 -28.1414 0.0000 -29.1745
#
#
#
# Elastic Compliance Matrix: (Units=1/GPa)
#
#
# Indices 1 2 3 4 5 6 
#
# 1 0.011244 -0.004763 0.000138 0.000000 -0.007591 0.000000
# 2 -0.004763 0.013020 -0.006759 0.000000 0.006162 0.000000
# 3 0.000138 -0.006759 0.026563 0.000000 -0.018541 0.000000
# 4 0.000000 0.000000 0.000000 0.027572 0.000000 -0.026596
# 5 -0.007591 0.006162 -0.018541 0.000000 0.040590 0.000000
# 6 0.000000 0.000000 0.000000 -0.026596 0.000000 -0.008622
#
#
# Mechanical properties :
#
#
# Convention : Reuss Voigt Hill
#
# Bulk Modulus (GPa) = 35.63825 61.18271 48.41048
# Shear Modulus (GPa) = 35.09089 17.64945 26.37017
#
# Velocity S-wave (km/s) = 3.93901 2.79354 3.41465
# Velocity P-wave (km/s) = 6.03701 6.12027 6.07878
#
# Compressibility (1/GPa) = 0.02805974
#
# Stress axis : x y z
#
# Youngs Moduli (GPa) = 88.93412 76.80515 37.64697
#
# Poissons Ratio (x) = 0.36582 -0.00520
# Poissons Ratio (y) = 0.42359 0.25444
# Poissons Ratio (z) = -0.01228 0.51910
#
# Static dielectric constant tensor:
#      x y z
#    x 1.336060 0.000000 -0.123880 
#    y 0.000000 1.905320 0.000000 
#    z -0.123880 0.000000 1.888710 
# 
# From -- ./inp_files/82442.got.cif
#   From: 2010.05.17/outbox.cif.g08.bks.cpg/sg13_42_cif.got.tgz:82442.got - 2010.06.03 16:44:36.
