data_PCOD9232281
_publ_section_title
;
Structure prediction by ZEFSAII (Michael W. Deem and Ramdas Pophale) SiO2 
 PCOD9232281
Probable space group: P 2/C
;
_chemical_formula_sum "Si O2"
_cell_formula_units_Z 32
_cell_length_a 11.755742
_cell_length_b 16.216664
_cell_length_c 12.538335
_cell_angle_alpha 90.000000
_cell_angle_beta 147.399068
_cell_angle_gamma 90.000000
_cell_volume 1287.853664
_symmetry_space_group_name_H-M "P 2/C"
_symmetry_group_IT_number 13
_symmetry_cell_setting 'monoclinic'
loop_
_space_group_symop_operation_xyz
x,y,z
-x,y,1/2-z
-x,-y,-z
x,-y,1/2+z
loop_
_atom_site_type_symbol
_atom_site_label
_atom_site_fract_x
_atom_site_fract_y
_atom_site_fract_z
Si Si1 0.669007 0.262826 0.009633
Si Si2 0.830116 0.157548 0.471625
Si Si3 0.522062 0.401684 0.017464
Si Si4 0.281871 0.674946 0.512250
Si Si5 0.921170 0.747028 0.511953
Si Si6 0.879215 0.981359 0.293547
Si Si7 0.056560 0.592738 0.516459
Si Si8 0.440348 0.118424 0.442822
O O1 0.578433 0.354870 0.952619
O O2 0.728058 0.235279 0.937695
O O3 0.525286 0.200135 0.961894
O O4 0.881573 0.257292 0.250106
O O5 0.788011 0.230397 0.522851
O O6 0.631341 0.137866 0.236010
O O7 0.002779 0.194186 0.523594
O O8 0.926876 0.074647 0.597601
O O9 0.338181 0.357464 0.939960
O O10 0.729184 0.387784 0.251756
O O11 0.500000 0.500000 0.000000
O O12 0.500000 0.669413 0.750000
O O13 0.117356 0.616286 0.444245
O O14 0.894884 0.656799 0.440391
O O15 0.765630 0.068426 0.171361
O O16 0.661217 0.929440 0.124532
O O17 0.000000 0.000000 0.500000
O O18 0.000000 0.500000 0.500000
#
# Coordination Sequence:
#
# PCOD9232281 Si02
#       8
#     4   4   4   4   4   4   4   4
#     4   9  17  33  57  80 114 156 201 250 299 374
#     4   9  17  34  61  85 118 158 206 251 306 375
#     4  10  21  36  56  83 116 159 208 257 314 369
#     4   9  18  35  59  79 112 166 202 249 317 377
#     4   8  16  31  55  81 106 152 196 238 306 357
#     4   9  18  33  60  93 125 160 203 255 307 380
#     4   9  18  33  55  77 112 150 192 248 305 363
#     4   9  17  33  60  88 122 165 201 253 318 370
#
# _framework density 24.847543999999999
#
# number of rings (size 3 to 8) (size 9 to 14) (size 15 to 20)
#    0.000    3.000    0.000    2.250    1.750    0.000 
#    4.500    0.625    5.500   52.500    0.000    0.000 
#    0.000    0.000    0.000    0.000    0.000    0.000 
#
# Total GULP energy -178510.491713 kJ/mol
# GULP energy per Si atom -5578.452866 kJ/mol
# Density = 2.479099 g / cm^3
# Si number density = 24.847544 Si / 1000 Ang^3
#
#
#
# Elastic Constant Matrix: (Units=GPa)
#
#
# Indices 1 2 3 4 5 6 
#
# 1 76.3347 18.3666 23.8162 0.0000 -7.3268 0.0000
# 2 18.3666 119.7820 4.6091 0.0000 -1.0123 0.0000
# 3 23.8162 4.6091 138.3080 0.0000 1.8134 0.0000
# 4 0.0000 0.0000 0.0000 33.2051 0.0000 21.3797
# 5 -7.3268 -1.0123 1.8134 0.0000 37.7588 0.0000
# 6 0.0000 0.0000 0.0000 21.3797 0.0000 18.4420
#
#
#
# Elastic Compliance Matrix: (Units=1/GPa)
#
#
# Indices 1 2 3 4 5 6 
#
# 1 0.014670 -0.002129 -0.002493 0.000000 0.002909 0.000000
# 2 -0.002129 0.008670 0.000080 0.000000 -0.000184 0.000000
# 3 -0.002493 0.000080 0.007668 0.000000 -0.000850 0.000000
# 4 0.000000 0.000000 0.000000 0.118768 0.000000 -0.137688
# 5 0.002909 -0.000184 -0.000850 0.000000 0.027084 0.000000
# 6 0.000000 0.000000 0.000000 -0.137688 0.000000 0.213845
#
#
# Mechanical properties :
#
#
# Convention : Reuss Voigt Hill
#
# Bulk Modulus (GPa) = 45.61243 47.55651 46.58447
# Shear Modulus (GPa) = 12.28208 37.05669 24.66938
#
# Velocity S-wave (km/s) = 2.22569 3.86601 3.15434
# Velocity P-wave (km/s) = 5.00017 6.25371 5.66174
#
# Compressibility (1/GPa) = 0.02192385
#
# Stress axis : x y z
#
# Youngs Moduli (GPa) = 68.16853 115.33661 130.41137
#
# Poissons Ratio (x) = 0.24553 0.32515
# Poissons Ratio (y) = 0.14512 -0.01044
# Poissons Ratio (z) = 0.16996 -0.00923
#
# Static dielectric constant tensor:
#      x y z
#    x 1.983910 0.000000 0.021000 
#    y 0.000000 2.012940 0.000000 
#    z 0.021000 0.000000 2.075900 
# 
# From -- ./inp_files/51680.got.cif
#   From: 2010.05.17/outbox.cif.g08.bks.cpg/sg13_26_cif.got.tgz:51680.got - 2010.06.03 16:44:36.
