data_PCOD9232713
_publ_section_title
;
Structure prediction by ZEFSAII (Michael W. Deem and Ramdas Pophale) SiO2 
 PCOD9232713
Probable space group: P 2/C
;
_chemical_formula_sum "Si O2"
_cell_formula_units_Z 22
_cell_length_a 25.004158
_cell_length_b 5.992640
_cell_length_c 13.154702
_cell_angle_alpha 90.000000
_cell_angle_beta 150.602312
_cell_angle_gamma 90.000000
_cell_volume 967.557286
_symmetry_space_group_name_H-M "P 2/C"
_symmetry_group_IT_number 13
_symmetry_cell_setting 'monoclinic'
loop_
_space_group_symop_operation_xyz
x,y,z
-x,y,1/2-z
-x,-y,-z
x,-y,1/2+z
loop_
_atom_site_type_symbol
_atom_site_label
_atom_site_fract_x
_atom_site_fract_y
_atom_site_fract_z
Si Si1 0.067131 0.135600 0.029878
Si Si2 0.434559 0.015175 0.734217
Si Si3 0.278476 0.366138 0.367139
Si Si4 0.000000 0.452660 0.750000
Si Si5 0.650742 0.884361 0.711331
Si Si6 0.798370 0.239195 0.865213
O O1 0.994720 0.291982 0.838689
O O2 0.164256 0.294316 0.228942
O O3 0.131255 0.954818 0.069559
O O4 0.000000 0.000000 0.000000
O O5 0.500000 0.900807 0.750000
O O6 0.367839 0.221997 0.575038
O O7 0.363329 0.860226 0.691125
O O8 0.530131 0.111899 0.963636
O O9 0.270377 0.629267 0.334864
O O10 0.287942 0.283406 0.263726
O O11 0.891366 0.601001 0.564511
O O12 0.713265 0.119814 0.798768
#
# Coordination Sequence:
#
# PCOD9232713 Si02
#       6
#     4   4   4   2   4   4
#     4  10  22  38  58  88 123 158 199 249 298 351
#     4   9  18  37  59  82 116 152 189 243 300 349
#     4   9  20  36  56  86 119 153 199 242 291 358
#     4  10  22  38  60  88 122 160 202 246 296 358
#     4   9  19  38  59  82 117 153 193 246 299 352
#     4  10  21  38  59  87 121 159 200 243 297 356
#
# _framework density 22.737672
#
# number of rings (size 3 to 8) (size 9 to 14) (size 15 to 20)
#    0.000    2.545    0.000    0.545    0.000   10.182 
#    0.000   25.455    0.000    0.000    0.000    0.000 
#    0.000    0.000    0.000    0.000    0.000    0.000 
#
# Total GULP energy -122637.761085 kJ/mol
# GULP energy per Si atom -5574.443686 kJ/mol
# Density = 2.268592 g / cm^3
# Si number density = 22.737672 Si / 1000 Ang^3
#
#
#
# Elastic Constant Matrix: (Units=GPa)
#
#
# Indices 1 2 3 4 5 6 
#
# 1 104.5574 9.4147 37.1055 0.0000 -3.0801 0.0000
# 2 9.4147 45.3152 25.6828 0.0000 -7.0743 0.0000
# 3 37.1055 25.6828 96.3199 0.0000 -3.1938 0.0000
# 4 0.0000 0.0000 0.0000 38.2682 0.0000 -1.4296
# 5 -3.0801 -7.0743 -3.1938 0.0000 24.7795 0.0000
# 6 0.0000 0.0000 0.0000 -1.4296 0.0000 12.0158
#
#
#
# Elastic Compliance Matrix: (Units=1/GPa)
#
#
# Indices 1 2 3 4 5 6 
#
# 1 0.011099 0.000284 -0.004321 0.000000 0.000904 0.000000
# 2 0.000284 0.027109 -0.007111 0.000000 0.006858 0.000000
# 3 -0.004321 -0.007111 0.013917 0.000000 -0.000773 0.000000
# 4 0.000000 0.000000 0.000000 0.026248 0.000000 0.003123
# 5 0.000904 0.006858 -0.000773 0.000000 0.042327 0.000000
# 6 0.000000 0.000000 0.000000 0.003123 0.000000 0.083596
#
#
# Mechanical properties :
#
#
# Convention : Reuss Voigt Hill
#
# Bulk Modulus (GPa) = 33.52337 43.39983 38.46160
# Shear Modulus (GPa) = 21.13862 26.61199 23.87530
#
# Velocity S-wave (km/s) = 3.05236 3.42481 3.24394
# Velocity P-wave (km/s) = 5.21518 5.89642 5.56623
#
# Compressibility (1/GPa) = 0.02982993
#
# Stress axis : x y z
#
# Youngs Moduli (GPa) = 90.10021 36.88778 71.85364
#
# Poissons Ratio (x) = -0.01049 0.31051
# Poissons Ratio (y) = -0.02563 0.51092
# Poissons Ratio (z) = 0.38937 0.26229
#
# Static dielectric constant tensor:
#      x y z
#    x 1.880130 0.000000 -0.057990 
#    y 0.000000 1.902090 0.000000 
#    z -0.057990 0.000000 2.084350 
# 
# From -- ./inp_files/54358.got.cif
#   From: 2010.05.17/outbox.cif.g08.bks.cpg/sg13_28_cif.got.tgz:54358.got - 2010.06.03 16:44:36.
