data_PCOD9232911
_publ_section_title
;
Structure prediction by ZEFSAII (Michael W. Deem and Ramdas Pophale) SiO2 
 PCOD9232911
Probable space group: P 2/C
;
_chemical_formula_sum "Si O2"
_cell_formula_units_Z 18
_cell_length_a 14.264546
_cell_length_b 5.264772
_cell_length_c 19.174736
_cell_angle_alpha 90.000000
_cell_angle_beta 29.336833
_cell_angle_gamma 90.000000
_cell_volume 705.525057
_symmetry_space_group_name_H-M "P 2/C"
_symmetry_group_IT_number 13
_symmetry_cell_setting 'monoclinic'
loop_
_space_group_symop_operation_xyz
x,y,z
-x,y,1/2-z
-x,-y,-z
x,-y,1/2+z
loop_
_atom_site_type_symbol
_atom_site_label
_atom_site_fract_x
_atom_site_fract_y
_atom_site_fract_z
Si Si1 0.221943 0.632630 0.977687
Si Si2 0.282710 0.869953 0.362453
Si Si3 0.568554 0.512484 0.341433
Si Si4 0.000000 0.142276 0.750000
Si Si5 0.324844 0.192939 0.107691
O O1 0.184416 0.356639 0.970009
O O2 0.443137 0.624697 0.862944
O O3 0.195619 0.857711 0.937947
O O4 0.093420 0.695377 0.127695
O O5 0.500000 0.880761 0.250000
O O6 0.312784 0.748796 0.266531
O O7 0.699346 0.329496 0.302568
O O8 0.402287 0.606284 0.501222
O O9 0.847718 0.960958 0.811896
O O10 0.500000 0.000000 0.000000
#
# Coordination Sequence:
#
# PCOD9232911 Si02
#       5
#     4   4   4   2   4
#     4  11  23  39  67 101 132 182 223 282 345 408
#     4  10  21  38  68  98 134 177 226 278 345 411
#     4  10  23  43  70 104 139 183 239 286 348 422
#     4  12  24  44  70  98 144 180 240 290 352 414
#     4  11  24  44  70 103 140 188 234 292 348 413
#
# _framework density 25.512913999999999
#
# number of rings (size 3 to 8) (size 9 to 14) (size 15 to 20)
#    0.000    1.333    2.222    4.667    3.111    3.556 
#    0.000    2.222    0.000    0.000    0.000    0.000 
#    0.000    0.000    0.000    0.000    0.000    0.000 
#
# Total GULP energy -100874.809291 kJ/mol
# GULP energy per Si atom -5604.156072 kJ/mol
# Density = 2.545485 g / cm^3
# Si number density = 25.512914 Si / 1000 Ang^3
#
#
#
# Elastic Constant Matrix: (Units=GPa)
#
#
# Indices 1 2 3 4 5 6 
#
# 1 85.8431 27.1774 25.8424 0.0000 3.1621 0.0000
# 2 27.1774 127.6238 23.9488 0.0000 4.0706 0.0000
# 3 25.8424 23.9488 85.5458 0.0000 10.3284 0.0000
# 4 0.0000 0.0000 0.0000 34.1598 0.0000 13.9687
# 5 3.1621 4.0706 10.3284 0.0000 50.0849 0.0000
# 6 0.0000 0.0000 0.0000 13.9687 0.0000 41.6939
#
#
#
# Elastic Compliance Matrix: (Units=1/GPa)
#
#
# Indices 1 2 3 4 5 6 
#
# 1 0.013378 -0.002207 -0.003429 0.000000 0.000042 0.000000
# 2 -0.002207 0.008636 -0.001726 0.000000 -0.000207 0.000000
# 3 -0.003429 -0.001726 0.013502 0.000000 -0.002428 0.000000
# 4 0.000000 0.000000 0.000000 0.033921 0.000000 -0.011365
# 5 0.000042 -0.000207 -0.002428 0.000000 0.020481 0.000000
# 6 0.000000 0.000000 0.000000 -0.011365 0.000000 0.027792
#
#
# Mechanical properties :
#
#
# Convention : Reuss Voigt Hill
#
# Bulk Modulus (GPa) = 48.09331 50.32779 49.21055
# Shear Modulus (GPa) = 35.87712 39.99065 37.93388
#
# Velocity S-wave (km/s) = 3.75405 3.96342 3.86015
# Velocity P-wave (km/s) = 6.13857 6.38076 6.26084
#
# Compressibility (1/GPa) = 0.02079291
#
# Stress axis : x y z
#
# Youngs Moduli (GPa) = 74.74687 115.79480 74.06461
#
# Poissons Ratio (x) = 0.25554 0.25395
# Poissons Ratio (y) = 0.16496 0.12784
# Poissons Ratio (z) = 0.25629 0.19987
#
# Static dielectric constant tensor:
#      x y z
#    x 2.023270 0.000000 0.058410 
#    y 0.000000 2.104890 0.000000 
#    z 0.058410 0.000000 2.005730 
# 
# From -- ./inp_files/62481.got.cif
#   From: 2010.05.17/outbox.cif.g08.bks.cpg/sg13_32_cif.got.tgz:62481.got - 2010.06.03 16:44:36.
