data_PCOD9232374
_publ_section_title
;
Structure prediction by ZEFSAII (Michael W. Deem and Ramdas Pophale) SiO2 
 PCOD9232374
Probable space group: P 2/C
;
_chemical_formula_sum "Si O2"
_cell_formula_units_Z 22
_cell_length_a 11.101945
_cell_length_b 16.101007
_cell_length_c 5.086980
_cell_angle_alpha 90.000000
_cell_angle_beta 77.352907
_cell_angle_gamma 90.000000
_cell_volume 887.247888
_symmetry_space_group_name_H-M "P 2/C"
_symmetry_group_IT_number 13
_symmetry_cell_setting 'monoclinic'
loop_
_space_group_symop_operation_xyz
x,y,z
-x,y,1/2-z
-x,-y,-z
x,-y,1/2+z
loop_
_atom_site_type_symbol
_atom_site_label
_atom_site_fract_x
_atom_site_fract_y
_atom_site_fract_z
Si Si1 0.202711 0.678423 0.833496
Si Si2 0.133106 0.148955 0.587488
Si Si3 0.422578 0.645669 0.043827
Si Si4 0.654788 0.796261 0.124057
Si Si5 0.664027 0.054391 0.291756
Si Si6 0.000000 0.442202 0.250000
O O1 0.296332 0.722921 0.587676
O O2 0.117927 0.616590 0.716553
O O3 0.125315 0.756503 0.982569
O O4 0.280495 0.631440 0.024577
O O5 0.231688 0.158961 0.777721
O O6 0.196735 0.089648 0.338609
O O7 0.000000 0.120816 0.750000
O O8 0.500000 0.607813 0.250000
O O9 0.585587 0.744808 0.385268
O O10 0.500000 0.626898 0.750000
O O11 0.601211 0.865818 0.955673
O O12 0.637073 0.984107 0.521069
O O13 0.000000 0.500000 0.500000
#
# Coordination Sequence:
#
# PCOD9232374 Si02
#       6
#     4   4   4   4   4   2
#     4  10  23  43  70 101 141 178 231 271 340 407
#     4  10  21  36  62  89 127 179 226 284 343 396
#     4  11  22  39  72 106 128 168 236 303 336 387
#     4  10  21  40  64  94 126 179 220 295 336 399
#     4  11  22  38  55  85 131 180 228 283 349 410
#     4  12  30  46  74 110 150 186 214 264 326 416
#
# _framework density 24.795774000000002
#
# number of rings (size 3 to 8) (size 9 to 14) (size 15 to 20)
#    0.000    1.455    3.636    1.091    6.364    2.909 
#    0.000    0.000    0.000    6.545    0.000    0.000 
#    0.000    0.000    0.000    0.000    0.000    0.000 
#
# Total GULP energy -122839.555786 kJ/mol
# GULP energy per Si atom -5583.616172 kJ/mol
# Density = 2.473934 g / cm^3
# Si number density = 24.795774 Si / 1000 Ang^3
#
#
#
# Elastic Constant Matrix: (Units=GPa)
#
#
# Indices 1 2 3 4 5 6 
#
# 1 72.1321 38.9460 29.2232 0.0000 24.7760 0.0000
# 2 38.9460 75.3914 37.6415 0.0000 15.9638 0.0000
# 3 29.2232 37.6415 169.1800 0.0000 18.8826 0.0000
# 4 0.0000 0.0000 0.0000 29.2630 0.0000 16.6839
# 5 24.7760 15.9638 18.8826 0.0000 42.7423 0.0000
# 6 0.0000 0.0000 0.0000 16.6839 0.0000 15.9311
#
#
#
# Elastic Compliance Matrix: (Units=1/GPa)
#
#
# Indices 1 2 3 4 5 6 
#
# 1 0.022277 -0.009181 -0.000785 0.000000 -0.009137 0.000000
# 2 -0.009181 0.019504 -0.002666 0.000000 -0.000785 0.000000
# 3 -0.000785 -0.002666 0.006814 0.000000 -0.001559 0.000000
# 4 0.000000 0.000000 0.000000 0.084813 0.000000 -0.088821
# 5 -0.009137 -0.000785 -0.001559 0.000000 0.029674 0.000000
# 6 0.000000 0.000000 0.000000 -0.088821 0.000000 0.155789
#
#
# Mechanical properties :
#
#
# Convention : Reuss Voigt Hill
#
# Bulk Modulus (GPa) = 42.86349 58.70275 50.78312
# Shear Modulus (GPa) = 14.20800 31.64678 22.92739
#
# Velocity S-wave (km/s) = 2.39634 3.57641 3.04410
# Velocity P-wave (km/s) = 4.99807 6.38593 5.73415
#
# Compressibility (1/GPa) = 0.02332988
#
# Stress axis : x y z
#
# Youngs Moduli (GPa) = 44.88877 51.27084 146.76219
#
# Poissons Ratio (x) = 0.47073 0.11528
# Poissons Ratio (y) = 0.41213 0.39128
# Poissons Ratio (z) = 0.03526 0.13669
#
# Static dielectric constant tensor:
#      x y z
#    x 2.165680 0.000000 0.014270 
#    y 0.000000 1.941910 0.000000 
#    z 0.014270 0.000000 2.010670 
# 
# From -- ./inp_files/3308.got.cif
#   From: 2010.05.17/outbox.cif.g08.bks.cpg/sg13_2_cif.got.tgz:3308.got - 2010.06.03 16:44:36.
