data_PCOD9232028
_publ_section_title
;
Structure prediction by ZEFSAII (Michael W. Deem and Ramdas Pophale) SiO2 
 PCOD9232028
Probable space group: P 2/C
;
_chemical_formula_sum "Si O2"
_cell_formula_units_Z 22
_cell_length_a 20.688449
_cell_length_b 10.659132
_cell_length_c 13.130104
_cell_angle_alpha 90.000000
_cell_angle_beta 161.800835
_cell_angle_gamma 90.000000
_cell_volume 904.313947
_symmetry_space_group_name_H-M "P 2/C"
_symmetry_group_IT_number 13
_symmetry_cell_setting 'monoclinic'
loop_
_space_group_symop_operation_xyz
x,y,z
-x,y,1/2-z
-x,-y,-z
x,-y,1/2+z
loop_
_atom_site_type_symbol
_atom_site_label
_atom_site_fract_x
_atom_site_fract_y
_atom_site_fract_z
Si Si1 0.592458 0.446518 0.241097
Si Si2 0.500000 0.023755 0.250000
Si Si3 0.401973 0.882211 0.296295
Si Si4 0.756620 0.765022 0.252459
Si Si5 0.190074 0.723840 0.577912
Si Si6 0.867082 0.377743 0.281512
O O1 0.788695 0.371792 0.486770
O O2 0.672464 0.562686 0.429062
O O3 0.500000 0.500000 0.000000
O O4 0.415454 0.349028 0.015944
O O5 0.662930 0.118211 0.547825
O O6 0.622997 0.932925 0.355492
O O7 0.236696 0.815737 0.121662
O O8 0.591940 0.788644 0.588807
O O9 0.500000 0.000000 0.500000
O O10 0.977907 0.715719 0.545794
O O11 0.173199 0.674975 0.667033
O O12 0.000000 0.807056 0.250000
O O13 0.000000 0.500000 0.500000
#
# Coordination Sequence:
#
# PCOD9232028 Si02
#       6
#     4   2   4   4   4   4
#     4  11  25  44  68 105 152 192 231 291 358 435
#     4  10  20  44  74 100 132 188 238 304 368 410
#     4   9  22  44  73  98 133 186 239 297 367 418
#     4  10  23  42  74 104 141 189 237 297 354 438
#     4  11  24  43  68 104 143 181 242 303 349 432
#     4  12  24  42  72 110 144 191 236 284 363 437
#
# _framework density 24.327835
#
# number of rings (size 3 to 8) (size 9 to 14) (size 15 to 20)
#    0.000    1.455    1.818    2.182    5.091    5.091 
#    0.000    3.636   24.000    0.000    0.000    0.000 
#    0.000    0.000    0.000    0.000    0.000    0.000 
#
# Total GULP energy -122766.889927 kJ/mol
# GULP energy per Si atom -5580.313179 kJ/mol
# Density = 2.427246 g / cm^3
# Si number density = 24.327835 Si / 1000 Ang^3
#
#
#
# Elastic Constant Matrix: (Units=GPa)
#
#
# Indices 1 2 3 4 5 6 
#
# 1 161.2176 77.4323 49.9162 0.0000 -0.4978 0.0000
# 2 77.4323 85.5317 51.3094 0.0000 -9.5604 0.0000
# 3 49.9162 51.3094 141.6835 0.0000 -15.7741 0.0000
# 4 0.0000 0.0000 0.0000 -0.1543 0.0000 -23.2137
# 5 -0.4978 -9.5604 -15.7741 0.0000 26.6260 0.0000
# 6 0.0000 0.0000 0.0000 -23.2137 0.0000 35.0139
#
#
#
# Elastic Compliance Matrix: (Units=1/GPa)
#
#
# Indices 1 2 3 4 5 6 
#
# 1 0.011351 -0.010288 -0.000708 0.000000 -0.003901 0.000000
# 2 -0.010288 0.024394 -0.004557 0.000000 0.005867 0.000000
# 3 -0.000708 -0.004557 0.009393 0.000000 0.003916 0.000000
# 4 0.000000 0.000000 0.000000 -0.064331 0.000000 -0.042650
# 5 -0.003901 0.005867 0.003916 0.000000 0.041911 0.000000
# 6 0.000000 0.000000 0.000000 -0.042650 0.000000 0.000284
#
#
# Mechanical properties :
#
#
# Convention : Reuss Voigt Hill
#
# Bulk Modulus (GPa) = 71.25142 82.86094 77.05618
# Shear Modulus (GPa) = 85.05654 26.28210 55.66932
#
# Velocity S-wave (km/s) = 5.91934 3.29040 4.78880
# Velocity P-wave (km/s) = 8.72179 6.96920 7.89428
#
# Compressibility (1/GPa) = 0.01403481
#
# Stress axis : x y z
#
# Youngs Moduli (GPa) = 88.09809 40.99337 106.45774
#
# Poissons Ratio (x) = 0.42172 0.07535
# Poissons Ratio (y) = 0.90631 0.48508
# Poissons Ratio (z) = 0.06236 0.18679
#
# Static dielectric constant tensor:
#      x y z
#    x 1.718520 0.000000 -0.024670 
#    y 0.000000 2.214150 0.000000 
#    z -0.024670 0.000000 2.019650 
# 
# From -- ./inp_files/41887.got.cif
#   From: 2010.05.17/outbox.cif.g08.bks.cpg/sg13_21_cif.got.tgz:41887.got - 2010.06.03 16:44:36.
