data_PCOD9232758
_publ_section_title
;
Structure prediction by ZEFSAII (Michael W. Deem and Ramdas Pophale) SiO2 
 PCOD9232758
Probable space group: P 2/C
;
_chemical_formula_sum "Si O2"
_cell_formula_units_Z 22
_cell_length_a 18.529098
_cell_length_b 5.101357
_cell_length_c 26.486096
_cell_angle_alpha 90.000000
_cell_angle_beta 158.966701
_cell_angle_gamma 90.000000
_cell_volume 898.553759
_symmetry_space_group_name_H-M "P 2/C"
_symmetry_group_IT_number 13
_symmetry_cell_setting 'monoclinic'
loop_
_space_group_symop_operation_xyz
x,y,z
-x,y,1/2-z
-x,-y,-z
x,-y,1/2+z
loop_
_atom_site_type_symbol
_atom_site_label
_atom_site_fract_x
_atom_site_fract_y
_atom_site_fract_z
Si Si1 0.802194 0.953064 0.705913
Si Si2 0.663619 0.478179 0.961427
Si Si3 0.676205 0.421662 0.678177
Si Si4 0.000000 0.694419 0.750000
Si Si5 0.257452 0.028682 0.043443
Si Si6 0.029229 0.247668 0.983332
O O1 0.726639 0.705585 0.688971
O O2 0.832881 0.871989 0.668078
O O3 0.668177 0.208793 0.628044
O O4 0.031902 0.003073 0.873675
O O5 0.625998 0.760729 0.913675
O O6 0.885200 0.468938 0.132088
O O7 0.654393 0.258588 0.911081
O O8 0.509660 0.428301 0.905719
O O9 0.856874 0.308993 0.830151
O O10 0.222548 0.159655 0.075616
O O11 0.000000 0.500000 0.000000
O O12 0.000000 0.000000 0.000000
#
# Coordination Sequence:
#
# PCOD9232758 Si02
#       6
#     4   4   4   2   4   4
#     4  10  21  38  61  85 121 155 197 240 290 350
#     4  11  23  39  61  86 123 155 195 242 295 349
#     4  11  23  40  59  89 121 153 192 253 298 332
#     4  10  22  38  62  88 114 164 200 230 288 362
#     4  10  21  40  60  85 120 158 188 243 305 345
#     4  11  21  38  63  85 111 153 199 234 286 359
#
# _framework density 24.483789000000002
#
# number of rings (size 3 to 8) (size 9 to 14) (size 15 to 20)
#    0.000    1.455    0.000    8.727    0.000    8.000 
#    0.000    5.455    0.000    0.000    0.000    0.000 
#    0.000    0.000    0.000    0.000    0.000    0.000 
#
# Total GULP energy -123006.174119 kJ/mol
# GULP energy per Si atom -5591.189733 kJ/mol
# Density = 2.442806 g / cm^3
# Si number density = 24.483789 Si / 1000 Ang^3
#
#
#
# Elastic Constant Matrix: (Units=GPa)
#
#
# Indices 1 2 3 4 5 6 
#
# 1 112.8899 26.7839 10.5398 0.0000 21.2546 0.0000
# 2 26.7839 148.6518 8.3324 0.0000 6.7662 0.0000
# 3 10.5398 8.3324 42.3041 0.0000 -0.2175 0.0000
# 4 0.0000 0.0000 0.0000 9.4557 0.0000 9.2416
# 5 21.2546 6.7662 -0.2175 0.0000 39.1795 0.0000
# 6 0.0000 0.0000 0.0000 9.2416 0.0000 57.1365
#
#
#
# Elastic Compliance Matrix: (Units=1/GPa)
#
#
# Indices 1 2 3 4 5 6 
#
# 1 0.010455 -0.001506 -0.002336 0.000000 -0.005425 0.000000
# 2 -0.001506 0.007074 -0.001020 0.000000 -0.000410 0.000000
# 3 -0.002336 -0.001020 0.024429 0.000000 0.001579 0.000000
# 4 0.000000 0.000000 0.000000 0.125614 0.000000 -0.020317
# 5 -0.005425 -0.000410 0.001579 0.000000 0.028546 0.000000
# 6 0.000000 0.000000 0.000000 -0.020317 0.000000 0.020788
#
#
# Mechanical properties :
#
#
# Convention : Reuss Voigt Hill
#
# Bulk Modulus (GPa) = 31.02297 43.90644 37.46470
# Shear Modulus (GPa) = 21.06363 38.36698 29.71531
#
# Velocity S-wave (km/s) = 2.93629 3.96288 3.48756
# Velocity P-wave (km/s) = 4.91874 6.23787 5.61716
#
# Compressibility (1/GPa) = 0.03223418
#
# Stress axis : x y z
#
# Youngs Moduli (GPa) = 95.64890 141.35607 40.93418
#
# Poissons Ratio (x) = 0.21287 0.09562
# Poissons Ratio (y) = 0.14404 0.04177
# Poissons Ratio (z) = 0.22344 0.14423
#
# Static dielectric constant tensor:
#      x y z
#    x 2.005990 0.000000 -0.050790 
#    y 0.000000 1.980930 0.000000 
#    z -0.050790 0.000000 2.003290 
# 
# From -- ./inp_files/87023.got.cif
#   From: 2010.05.17/outbox.cif.g08.bks.cpg/sg13_44_cif.got.tgz:87023.got - 2010.06.03 16:44:36.
