data_PCOD9232953
_publ_section_title
;
Structure prediction by ZEFSAII (Michael W. Deem and Ramdas Pophale) SiO2 
 PCOD9232953
Probable space group: P 2/C
;
_chemical_formula_sum "Si O2"
_cell_formula_units_Z 26
_cell_length_a 12.128018
_cell_length_b 6.183882
_cell_length_c 18.927547
_cell_angle_alpha 90.000000
_cell_angle_beta 57.626932
_cell_angle_gamma 90.000000
_cell_volume 1198.908386
_symmetry_space_group_name_H-M "P 2/C"
_symmetry_group_IT_number 13
_symmetry_cell_setting 'monoclinic'
loop_
_space_group_symop_operation_xyz
x,y,z
-x,y,1/2-z
-x,-y,-z
x,-y,1/2+z
loop_
_atom_site_type_symbol
_atom_site_label
_atom_site_fract_x
_atom_site_fract_y
_atom_site_fract_z
Si Si1 0.837239 0.933368 0.622445
Si Si2 0.209307 0.219889 0.213530
Si Si3 0.232133 0.165614 0.613518
Si Si4 0.442131 0.466283 0.598561
Si Si5 0.088813 0.307356 0.000174
Si Si6 0.294860 0.368603 0.448589
Si Si7 0.000000 0.452413 0.750000
O O1 0.786091 0.928309 0.719063
O O2 0.756660 0.760540 0.602312
O O3 0.988676 0.855675 0.571256
O O4 0.840306 0.166474 0.584614
O O5 0.339615 0.351918 0.155510
O O6 0.092503 0.390740 0.263573
O O7 0.191946 0.071768 0.150963
O O8 0.352058 0.252318 0.621826
O O9 0.283795 0.197231 0.516505
O O10 0.102388 0.308479 0.671287
O O11 0.500000 0.500000 0.500000
O O12 0.566413 0.512313 0.605412
O O13 0.198128 0.436792 0.004366
O O14 0.000000 0.500000 0.000000
#
# Coordination Sequence:
#
# PCOD9232953 Si02
#       7
#     4   4   4   4   4   4   2
#     4  10  22  37  59  90 121 155 194 249 309 358
#     4  11  23  39  60  90 124 153 200 256 303 365
#     4  10  22  38  61  87 116 159 201 246 301 360
#     4   9  22  41  60  84 116 157 202 246 292 352
#     4   9  20  37  59  84 118 155 196 244 301 368
#     4  10  21  39  60  82 115 159 203 241 293 359
#     4  10  22  38  60  88 120 152 196 248 306 360
#
# _framework density 21.686395000000001
#
# number of rings (size 3 to 8) (size 9 to 14) (size 15 to 20)
#    0.000    2.154    0.000    1.385    0.000   20.308 
#    0.000    0.000    0.000    0.000    0.000    0.000 
#    0.000    0.000    0.000    0.000    0.000    0.000 
#
# Total GULP energy -145073.952569 kJ/mol
# GULP energy per Si atom -5579.767406 kJ/mol
# Density = 2.163704 g / cm^3
# Si number density = 21.686395 Si / 1000 Ang^3
#
#
#
# Elastic Constant Matrix: (Units=GPa)
#
#
# Indices 1 2 3 4 5 6 
#
# 1 97.0344 13.4638 15.0834 0.0000 -27.2374 0.0000
# 2 13.4638 28.9816 -17.7756 0.0000 -5.0486 0.0000
# 3 15.0834 -17.7756 49.4634 0.0000 -2.6371 0.0000
# 4 0.0000 0.0000 0.0000 27.1319 0.0000 6.0927
# 5 -27.2374 -5.0486 -2.6371 0.0000 30.1909 0.0000
# 6 0.0000 0.0000 0.0000 6.0927 0.0000 14.6775
#
#
#
# Elastic Compliance Matrix: (Units=1/GPa)
#
#
# Indices 1 2 3 4 5 6 
#
# 1 0.016522 -0.010509 -0.008152 0.000000 0.012436 0.000000
# 2 -0.010509 0.053420 0.022477 0.000000 0.001416 0.000000
# 3 -0.008152 0.022477 0.030732 0.000000 -0.000911 0.000000
# 4 0.000000 0.000000 0.000000 0.040646 0.000000 -0.016872
# 5 0.012436 0.001416 -0.000911 0.000000 0.044499 0.000000
# 6 0.000000 0.000000 0.000000 -0.016872 0.000000 0.075135
#
#
# Mechanical properties :
#
#
# Convention : Reuss Voigt Hill
#
# Bulk Modulus (GPa) = 9.23299 21.89139 15.56219
# Shear Modulus (GPa) = 17.27583 25.38057 21.32820
#
# Velocity S-wave (km/s) = 2.82551 3.42474 3.13946
# Velocity P-wave (km/s) = 3.86153 5.07493 4.50923
#
# Compressibility (1/GPa) = 0.10830727
#
# Stress axis : x y z
#
# Youngs Moduli (GPa) = 60.52672 18.71970 32.53949
#
# Poissons Ratio (x) = 0.19672 0.26525
# Poissons Ratio (y) = 0.63606 -0.73140
# Poissons Ratio (z) = 0.49339 -0.42077
#
# Static dielectric constant tensor:
#      x y z
#    x 1.840850 0.000000 0.012350 
#    y 0.000000 1.855240 0.000000 
#    z 0.012350 0.000000 1.777350 
# 
# From -- ./inp_files/77431.got.cif
#   From: 2010.05.17/outbox.cif.g08.bks.cpg/sg13_39_cif.got.tgz:77431.got - 2010.06.03 16:44:36.
