data_PCOD9232743
_publ_section_title
;
Structure prediction by ZEFSAII (Michael W. Deem and Ramdas Pophale) SiO2 
 PCOD9232743
Probable space group: P 2/C
;
_chemical_formula_sum "Si O2"
_cell_formula_units_Z 32
_cell_length_a 11.682638
_cell_length_b 15.772445
_cell_length_c 13.655979
_cell_angle_alpha 90.000000
_cell_angle_beta 139.473357
_cell_angle_gamma 90.000000
_cell_volume 1635.097069
_symmetry_space_group_name_H-M "P 2/C"
_symmetry_group_IT_number 13
_symmetry_cell_setting 'monoclinic'
loop_
_space_group_symop_operation_xyz
x,y,z
-x,y,1/2-z
-x,-y,-z
x,-y,1/2+z
loop_
_atom_site_type_symbol
_atom_site_label
_atom_site_fract_x
_atom_site_fract_y
_atom_site_fract_z
Si Si1 0.184934 0.793560 0.309411
Si Si2 0.391038 0.370083 0.906025
Si Si3 0.339767 0.349056 0.589057
Si Si4 0.003195 0.232434 0.142149
Si Si5 0.334377 0.678221 0.758413
Si Si6 0.019740 0.096590 0.544425
Si Si7 0.790617 0.493773 0.851149
Si Si8 0.667690 0.832961 0.896709
O O1 0.253284 0.707770 0.301957
O O2 0.162135 0.868239 0.215351
O O3 0.327014 0.816485 0.484839
O O4 0.000000 0.778718 0.250000
O O5 0.564504 0.370056 0.950051
O O6 0.281368 0.453093 0.798923
O O7 0.482249 0.349433 0.069648
O O8 0.500000 0.302390 0.750000
O O9 0.161768 0.296381 0.468882
O O10 0.291708 0.432309 0.620392
O O11 0.000000 0.197785 0.250000
O O12 0.184590 0.282387 0.233900
O O13 0.974948 0.158407 0.045508
O O14 0.270399 0.589239 0.675852
O O15 0.334507 0.748228 0.672317
O O16 0.840848 0.117314 0.484285
O O17 0.000000 0.000000 0.500000
O O18 0.000000 0.500000 0.000000
O O19 0.500000 0.883370 0.750000
#
# Coordination Sequence:
#
# PCOD9232743 Si02
#       8
#     4   4   4   4   4   4   4   4
#     4  10  22  42  68  92 125 171 212 261 327 390
#     4  11  22  40  61  92 124 167 223 270 320 376
#     4  10  21  38  60  87 125 167 217 268 317 375
#     4  11  21  39  65  90 122 171 211 259 329 388
#     4  11  22  39  62  89 127 169 223 266 318 381
#     4  10  23  42  65  95 131 161 204 260 326 399
#     4  11  23  37  57  87 131 172 219 271 321 376
#     4  10  21  40  67  93 124 166 217 264 314 384
#
# _framework density 19.570702000000001
#
# number of rings (size 3 to 8) (size 9 to 14) (size 15 to 20)
#    0.000    1.500    3.750    1.875    3.500    3.000 
#    2.250    3.125    0.000    0.000    0.000    0.000 
#    0.000    0.000    0.000    0.000    0.000    0.000 
#
# Total GULP energy -178226.426139 kJ/mol
# GULP energy per Si atom -5569.575817 kJ/mol
# Density = 1.952616 g / cm^3
# Si number density = 19.570702 Si / 1000 Ang^3
#
#
#
# Elastic Constant Matrix: (Units=GPa)
#
#
# Indices 1 2 3 4 5 6 
#
# 1 67.7981 21.2172 12.5505 0.0000 -5.4474 0.0000
# 2 21.2172 80.2253 13.4565 0.0000 -1.4390 0.0000
# 3 12.5505 13.4565 100.7835 0.0000 -1.8984 0.0000
# 4 0.0000 0.0000 0.0000 16.6367 0.0000 -2.5991
# 5 -5.4474 -1.4390 -1.8984 0.0000 33.1374 0.0000
# 6 0.0000 0.0000 0.0000 -2.5991 0.0000 4.6601
#
#
#
# Elastic Compliance Matrix: (Units=1/GPa)
#
#
# Indices 1 2 3 4 5 6 
#
# 1 0.016492 -0.004072 -0.001464 0.000000 0.002450 0.000000
# 2 -0.004072 0.013763 -0.001333 0.000000 -0.000148 0.000000
# 3 -0.001464 -0.001333 0.010288 0.000000 0.000291 0.000000
# 4 0.000000 0.000000 0.000000 0.065845 0.000000 0.036725
# 5 0.002450 -0.000148 0.000291 0.000000 0.030590 0.000000
# 6 0.000000 0.000000 0.000000 0.036725 0.000000 0.235073
#
#
# Mechanical properties :
#
#
# Convention : Reuss Voigt Hill
#
# Bulk Modulus (GPa) = 37.30756 38.13948 37.72352
# Shear Modulus (GPa) = 12.66704 24.32568 18.49636
#
# Velocity S-wave (km/s) = 2.54686 3.52939 3.07759
# Velocity P-wave (km/s) = 5.26811 6.01159 5.65209
#
# Compressibility (1/GPa) = 0.02680422
#
# Stress axis : x y z
#
# Youngs Moduli (GPa) = 60.63586 72.65947 97.20009
#
# Poissons Ratio (x) = 0.29588 0.14229
# Poissons Ratio (y) = 0.24692 0.12960
# Poissons Ratio (z) = 0.08876 0.09688
#
# Static dielectric constant tensor:
#      x y z
#    x 1.908060 0.000000 0.268390 
#    y 0.000000 1.706080 0.000000 
#    z 0.268390 0.000000 2.288770 
# 
# From -- ./inp_files/51490.got.cif
#   From: 2010.05.17/outbox.cif.g08.bks.cpg/sg13_26_cif.got.tgz:51490.got - 2010.06.03 16:44:36.
