data_PCOD9232695
_publ_section_title
;
Structure prediction by ZEFSAII (Michael W. Deem and Ramdas Pophale) SiO2 
 PCOD9232695
Probable space group: P 2/C
;
_chemical_formula_sum "Si O2"
_cell_formula_units_Z 20
_cell_length_a 11.415776
_cell_length_b 17.501314
_cell_length_c 14.148648
_cell_angle_alpha 90.000000
_cell_angle_beta 20.321408
_cell_angle_gamma 90.000000
_cell_volume 981.699091
_symmetry_space_group_name_H-M "P 2/C"
_symmetry_group_IT_number 13
_symmetry_cell_setting 'monoclinic'
loop_
_space_group_symop_operation_xyz
x,y,z
-x,y,1/2-z
-x,-y,-z
x,-y,1/2+z
loop_
_atom_site_type_symbol
_atom_site_label
_atom_site_fract_x
_atom_site_fract_y
_atom_site_fract_z
Si Si1 0.024556 0.170116 0.433597
Si Si2 0.722918 0.569782 0.871711
Si Si3 0.764994 0.341934 0.631903
Si Si4 0.879966 0.012604 0.483250
Si Si5 0.209344 0.129304 0.679314
O O1 0.890608 0.255368 0.525350
O O2 0.874533 0.104215 0.478335
O O3 0.942908 0.151549 0.604650
O O4 0.417229 0.159323 0.115304
O O5 0.000000 0.555206 0.750000
O O6 0.929350 0.602674 0.626552
O O7 0.500000 0.500000 0.000000
O O8 0.450144 0.632879 0.114333
O O9 0.500000 0.354030 0.750000
O O10 0.500000 0.983428 0.750000
O O11 0.000000 0.000000 0.500000
O O12 0.157177 0.963143 0.217316
O O13 0.000000 0.160488 0.750000
#
# Coordination Sequence:
#
# PCOD9232695 Si02
#       5
#     4   4   4   4   4
#     4  11  22  38  60  86 115 156 203 251 299 360
#     4  10  21  40  65  92 124 159 194 238 293 358
#     4  10  21  39  62  90 122 154 195 250 302 346
#     4  10  21  38  59  84 114 155 205 252 299 351
#     4  11  22  39  56  80 119 162 203 253 308 353
#
# _framework density 20.372841000000001
#
# number of rings (size 3 to 8) (size 9 to 14) (size 15 to 20)
#    0.000    1.600    0.000    6.000    0.000    1.600 
#    0.000   13.000    0.000    0.000    0.000    0.000 
#    0.000    0.000    0.000    0.000    0.000    0.000 
#
# Total GULP energy -111418.359340 kJ/mol
# GULP energy per Si atom -5570.917967 kJ/mol
# Density = 2.032647 g / cm^3
# Si number density = 20.372841 Si / 1000 Ang^3
#
#
#
# Elastic Constant Matrix: (Units=GPa)
#
#
# Indices 1 2 3 4 5 6 
#
# 1 -15.5736 -39.4820 9.8931 0.0000 14.9130 0.0000
# 2 -39.4820 82.7030 41.7209 0.0000 -2.3737 0.0000
# 3 9.8931 41.7209 214.4786 0.0000 5.6091 0.0000
# 4 0.0000 0.0000 0.0000 44.9171 0.0000 8.1156
# 5 14.9130 -2.3737 5.6091 0.0000 31.4573 0.0000
# 6 0.0000 0.0000 0.0000 8.1156 0.0000 5.5173
#
#
#
# Elastic Compliance Matrix: (Units=1/GPa)
#
#
# Indices 1 2 3 4 5 6 
#
# 1 -0.022614 -0.012125 0.003160 0.000000 0.009243 0.000000
# 2 -0.012125 0.006976 -0.000966 0.000000 0.006447 0.000000
# 3 0.003160 -0.000966 0.004768 0.000000 -0.002421 0.000000
# 4 0.000000 0.000000 0.000000 0.030322 0.000000 -0.044602
# 5 0.009243 0.006447 -0.002421 0.000000 0.028326 0.000000
# 6 0.000000 0.000000 0.000000 -0.044602 0.000000 0.246856
#
#
# Mechanical properties :
#
#
# Convention : Reuss Voigt Hill
#
# Bulk Modulus (GPa) = -32.53809 33.98578 0.72385
# Shear Modulus (GPa) = 16.43384 34.34340 25.38862
#
# Velocity S-wave (km/s) = 2.84325 4.11024 3.53398
# Velocity P-wave (km/s) = 2.28631 6.26446 4.12409
#
# Compressibility (1/GPa) = -0.03073322
#
# Stress axis : x y z
#
# Youngs Moduli (GPa) = -44.21942 143.35775 209.73246
#
# Poissons Ratio (x) = 1.73820 -0.66275
# Poissons Ratio (y) = -0.53616 0.20265
# Poissons Ratio (z) = 0.13973 0.13851
#
# Static dielectric constant tensor:
#      x y z
#    x 1.767830 0.000000 0.013060 
#    y 0.000000 1.751030 0.000000 
#    z 0.013060 0.000000 1.779290 
# 
# From -- ./inp_files/51587.got.cif
#   From: 2010.05.17/outbox.cif.g08.bks.cpg/sg13_26_cif.got.tgz:51587.got - 2010.06.03 16:44:36.
