data_PCOD9232567
_publ_section_title
;
Structure prediction by ZEFSAII (Michael W. Deem and Ramdas Pophale) SiO2 
 PCOD9232567
Probable space group: P 2/C
;
_chemical_formula_sum "Si O2"
_cell_formula_units_Z 30
_cell_length_a 23.916002
_cell_length_b 8.149009
_cell_length_c 15.897312
_cell_angle_alpha 90.000000
_cell_angle_beta 29.607166
_cell_angle_gamma 90.000000
_cell_volume 1530.694482
_symmetry_space_group_name_H-M "P 2/C"
_symmetry_group_IT_number 13
_symmetry_cell_setting 'monoclinic'
loop_
_space_group_symop_operation_xyz
x,y,z
-x,y,1/2-z
-x,-y,-z
x,-y,1/2+z
loop_
_atom_site_type_symbol
_atom_site_label
_atom_site_fract_x
_atom_site_fract_y
_atom_site_fract_z
Si Si1 0.608949 0.270770 0.668263
Si Si2 0.582430 0.580688 0.824672
Si Si3 0.416209 0.106856 0.280062
Si Si4 0.000000 0.212824 0.750000
Si Si5 0.827755 0.215808 0.272526
Si Si6 0.936061 0.345659 0.544145
Si Si7 0.828184 0.860777 0.332222
Si Si8 0.820131 0.606903 0.602760
O O1 0.500000 0.272964 0.750000
O O2 0.599822 0.433886 0.735446
O O3 0.727777 0.283249 0.462327
O O4 0.602751 0.086834 0.719163
O O5 0.540308 0.755133 0.841895
O O6 0.701335 0.617430 0.713070
O O7 0.500000 0.500000 0.000000
O O8 0.500000 0.105183 0.250000
O O9 0.293337 0.175255 0.468781
O O10 0.080837 0.119525 0.711100
O O11 0.082766 0.322302 0.584407
O O12 0.816024 0.288732 0.194548
O O13 0.811462 0.022794 0.298909
O O14 0.958341 0.243237 0.129440
O O15 0.873318 0.267566 0.705434
O O16 0.851115 0.420187 0.587383
O O17 0.000000 0.500000 0.500000
#
# Coordination Sequence:
#
# PCOD9232567 Si02
#       8
#     4   4   4   2   4   4   4   4
#     4  10  23  45  68  93 127 170 222 267 319 391
#     4  12  26  42  66 100 130 169 215 277 330 381
#     4  10  24  44  69  94 128 175 218 270 324 386
#     4  12  22  40  62  94 138 162 204 282 318 376
#     4  10  22  42  66  91 123 176 217 257 315 407
#     4  10  21  37  62  89 123 170 206 254 316 395
#     4  11  22  42  67  91 129 169 217 263 328 386
#     4  11  25  39  63  95 133 165 212 268 325 377
#
# _framework density 19.598946999999999
#
# number of rings (size 3 to 8) (size 9 to 14) (size 15 to 20)
#    0.000    1.333    4.000    1.600    7.467    0.533 
#    7.200    0.000    0.000    0.000    0.000    0.000 
#    0.000    0.000    0.000    0.000    0.000    0.000 
#
# Total GULP energy -167251.991807 kJ/mol
# GULP energy per Si atom -5575.066394 kJ/mol
# Density = 1.955434 g / cm^3
# Si number density = 19.598947 Si / 1000 Ang^3
#
#
#
# Elastic Constant Matrix: (Units=GPa)
#
#
# Indices 1 2 3 4 5 6 
#
# 1 86.7856 27.0429 9.9866 0.0000 -5.0888 0.0000
# 2 27.0429 70.2813 21.4353 0.0000 28.7215 0.0000
# 3 9.9866 21.4353 63.2400 0.0000 10.4203 0.0000
# 4 0.0000 0.0000 0.0000 -29.1266 0.0000 -39.0155
# 5 -5.0888 28.7215 10.4203 0.0000 29.6630 0.0000
# 6 0.0000 0.0000 0.0000 -39.0155 0.0000 1.8019
#
#
#
# Elastic Compliance Matrix: (Units=1/GPa)
#
#
# Indices 1 2 3 4 5 6 
#
# 1 0.016217 -0.011960 -0.000927 0.000000 0.014688 0.000000
# 2 -0.011960 0.033627 -0.004040 0.000000 -0.033192 0.000000
# 3 -0.000927 -0.004040 0.017737 0.000000 -0.002478 0.000000
# 4 0.000000 0.000000 0.000000 -0.001144 0.000000 -0.024777
# 5 0.014688 -0.033192 -0.002478 0.000000 0.069241 0.000000
# 6 0.000000 0.000000 0.000000 -0.024777 0.000000 0.018497
#
#
# Mechanical properties :
#
#
# Convention : Reuss Voigt Hill
#
# Bulk Modulus (GPa) = 29.64994 37.47073 33.56033
# Shear Modulus (GPa) = 25.09129 11.25714 18.17422
#
# Velocity S-wave (km/s) = 3.58192 2.39921 3.04847
# Velocity P-wave (km/s) = 5.68050 5.18027 5.43614
#
# Compressibility (1/GPa) = 0.03372689
#
# Stress axis : x y z
#
# Youngs Moduli (GPa) = 61.66221 29.73776 56.37952
#
# Poissons Ratio (x) = 0.35566 0.05229
# Poissons Ratio (y) = 0.73747 0.22778
# Poissons Ratio (z) = 0.05719 0.12014
#
# Static dielectric constant tensor:
#      x y z
#    x 1.703580 0.000000 0.002480 
#    y 0.000000 1.759940 0.000000 
#    z 0.002480 0.000000 1.502360 
# 
# From -- ./inp_files/58690.got.cif
#   From: 2010.05.17/outbox.cif.g08.bks.cpg/sg13_30_cif.got.tgz:58690.got - 2010.06.03 16:44:36.
