data_PCOD9232465
_publ_section_title
;
Structure prediction by ZEFSAII (Michael W. Deem and Ramdas Pophale) SiO2 
 PCOD9232465
Probable space group: P 2/C
;
_chemical_formula_sum "Si O2"
_cell_formula_units_Z 28
_cell_length_a 17.870369
_cell_length_b 11.263219
_cell_length_c 21.047169
_cell_angle_alpha 90.000000
_cell_angle_beta 19.596151
_cell_angle_gamma 90.000000
_cell_volume 1420.815297
_symmetry_space_group_name_H-M "P 2/C"
_symmetry_group_IT_number 13
_symmetry_cell_setting 'monoclinic'
loop_
_space_group_symop_operation_xyz
x,y,z
-x,y,1/2-z
-x,-y,-z
x,-y,1/2+z
loop_
_atom_site_type_symbol
_atom_site_label
_atom_site_fract_x
_atom_site_fract_y
_atom_site_fract_z
Si Si1 0.040619 0.770196 0.902875
Si Si2 0.173185 0.808294 0.197698
Si Si3 0.282210 0.984123 0.217985
Si Si4 0.527966 0.639578 0.973450
Si Si5 0.428445 0.225141 0.680005
Si Si6 0.181975 0.855587 0.548827
Si Si7 0.699999 0.869870 0.542590
O O1 0.240759 0.677624 0.743872
O O2 0.941043 0.801006 0.913183
O O3 0.150278 0.895565 0.837888
O O4 0.818971 0.723137 0.113982
O O5 0.149117 0.896942 0.277246
O O6 0.917795 0.790136 0.382774
O O7 0.318853 0.698284 0.104567
O O8 0.307700 0.860962 0.028725
O O9 0.367408 0.910732 0.210018
O O10 0.500000 0.000000 0.000000
O O11 0.500000 0.500000 0.000000
O O12 0.536518 0.706534 0.034673
O O13 0.601423 0.215635 0.599288
O O14 0.000000 0.857702 0.750000
O O15 0.248320 0.992104 0.483924
O O16 0.500000 0.834921 0.750000
#
# Coordination Sequence:
#
# PCOD9232465 Si02
#       7
#     4   4   4   4   4   4   4
#     4  12  22  38  62  95 128 160 202 255 304 371
#     4  10  21  37  58  88 124 155 201 238 301 371
#     4  11  18  36  56  92 131 161 190 238 312 375
#     4  11  26  46  64  82 115 167 218 266 304 344
#     4  11  24  37  63  94 125 163 206 248 310 369
#     4  12  20  37  59  94 134 163 191 240 308 384
#     4  11  21  34  58  94 132 159 183 235 307 383
#
# _framework density 19.706994999999999
#
# number of rings (size 3 to 8) (size 9 to 14) (size 15 to 20)
#    0.000    0.857    7.143    2.571    0.000    2.857 
#    0.000    2.857    0.000    0.000    0.000    0.000 
#    0.000    0.000    0.000    0.000    0.000    0.000 
#
# Total GULP energy -156226.902536 kJ/mol
# GULP energy per Si atom -5579.532233 kJ/mol
# Density = 1.966214 g / cm^3
# Si number density = 19.706995 Si / 1000 Ang^3
#
#
#
# Elastic Constant Matrix: (Units=GPa)
#
#
# Indices 1 2 3 4 5 6 
#
# 1 55.4816 9.3030 -0.8480 0.0000 -13.7006 0.0000
# 2 9.3030 77.6058 20.7375 0.0000 -22.7299 0.0000
# 3 -0.8480 20.7375 122.5702 0.0000 -6.0144 0.0000
# 4 0.0000 0.0000 0.0000 10.8687 0.0000 -0.8649
# 5 -13.7006 -22.7299 -6.0144 0.0000 31.1140 0.0000
# 6 0.0000 0.0000 0.0000 -0.8649 0.0000 7.5079
#
#
#
# Elastic Compliance Matrix: (Units=1/GPa)
#
#
# Indices 1 2 3 4 5 6 
#
# 1 0.020265 0.000081 0.000573 0.000000 0.009093 0.000000
# 2 0.000081 0.017007 -0.002287 0.000000 0.012018 0.000000
# 3 0.000573 -0.002287 0.008561 0.000000 0.000236 0.000000
# 4 0.000000 0.000000 0.000000 0.092858 0.000000 0.010697
# 5 0.009093 0.012018 0.000236 0.000000 0.044969 0.000000
# 6 0.000000 0.000000 0.000000 0.010697 0.000000 0.134425
#
#
# Mechanical properties :
#
#
# Convention : Reuss Voigt Hill
#
# Bulk Modulus (GPa) = 23.49304 34.89363 29.19333
# Shear Modulus (GPa) = 14.90133 24.99580 19.94857
#
# Velocity S-wave (km/s) = 2.75279 3.56529 3.18505
# Velocity P-wave (km/s) = 4.69583 5.89008 5.32653
#
# Compressibility (1/GPa) = 0.04256580
#
# Stress axis : x y z
#
# Youngs Moduli (GPa) = 49.34712 58.79943 116.80751
#
# Poissons Ratio (x) = -0.00476 -0.06689
# Poissons Ratio (y) = -0.00400 0.26715
# Poissons Ratio (z) = -0.02826 0.13448
#
# Static dielectric constant tensor:
#      x y z
#    x 1.775700 0.000000 0.005050 
#    y 0.000000 1.668640 0.000000 
#    z 0.005050 0.000000 1.792390 
# 
# From -- ./inp_files/81046.got.cif
#   From: 2010.05.17/outbox.cif.g08.bks.cpg/sg13_41_cif.got.tgz:81046.got - 2010.06.03 16:44:36.
