data_PCOD9232753
_publ_section_title
;
Structure prediction by ZEFSAII (Michael W. Deem and Ramdas Pophale) SiO2 
 PCOD9232753
Probable space group: P 2/C
;
_chemical_formula_sum "Si O2"
_cell_formula_units_Z 32
_cell_length_a 11.181247
_cell_length_b 9.094574
_cell_length_c 25.249594
_cell_angle_alpha 90.000000
_cell_angle_beta 144.576759
_cell_angle_gamma 90.000000
_cell_volume 1488.209920
_symmetry_space_group_name_H-M "P 2/C"
_symmetry_group_IT_number 13
_symmetry_cell_setting 'monoclinic'
loop_
_space_group_symop_operation_xyz
x,y,z
-x,y,1/2-z
-x,-y,-z
x,-y,1/2+z
loop_
_atom_site_type_symbol
_atom_site_label
_atom_site_fract_x
_atom_site_fract_y
_atom_site_fract_z
Si Si1 0.441568 0.418980 0.119694
Si Si2 0.292905 0.917653 0.443540
Si Si3 0.112396 0.588763 0.694563
Si Si4 0.407136 0.918634 0.605423
Si Si5 0.263422 0.111206 0.648405
Si Si6 0.702631 0.575287 0.050831
Si Si7 0.126312 0.063177 0.201537
Si Si8 0.830565 0.561396 0.398491
O O1 0.684241 0.438049 0.197131
O O2 0.406774 0.250268 0.125435
O O3 0.317071 0.436653 0.020381
O O4 0.375605 0.527960 0.142446
O O5 0.304870 0.926561 0.511561
O O6 0.295517 0.745107 0.431727
O O7 0.500000 0.000000 0.500000
O O8 0.077475 0.989209 0.347716
O O9 0.083419 0.763615 0.681224
O O10 0.159780 0.524257 0.653228
O O11 0.909635 0.508058 0.641779
O O12 0.651837 0.958139 0.689650
O O13 0.287576 0.022770 0.602711
O O14 0.500000 0.145960 0.750000
O O15 0.146113 0.265071 0.601830
O O16 0.168023 0.009103 0.659272
O O17 0.500000 0.500000 0.000000
O O18 0.000000 0.500000 0.500000
#
# Coordination Sequence:
#
# PCOD9232753 Si02
#       8
#     4   4   4   4   4   4   4   4
#     4  10  22  42  63  87 123 163 201 246 305 363
#     4  11  24  41  62  87 119 159 201 253 300 355
#     4  11  22  41  64  89 122 162 201 248 304 366
#     4   9  22  41  63  88 120 159 200 248 300 360
#     4  10  21  38  60  91 123 156 200 249 299 358
#     4  11  24  43  63  89 122 156 208 253 300 365
#     4  10  22  40  64  90 119 157 202 248 301 357
#     4  12  23  35  59  94 128 159 195 247 301 360
#
# _framework density 21.502344000000001
#
# number of rings (size 3 to 8) (size 9 to 14) (size 15 to 20)
#    0.000    1.500    1.250    3.375    3.500    5.500 
#    0.000    5.000    0.000    0.000    0.000    0.000 
#    0.000    0.000    0.000    0.000    0.000    0.000 
#
# Total GULP energy -178980.897175 kJ/mol
# GULP energy per Si atom -5593.153037 kJ/mol
# Density = 2.145340 g / cm^3
# Si number density = 21.502344 Si / 1000 Ang^3
#
#
#
# Elastic Constant Matrix: (Units=GPa)
#
#
# Indices 1 2 3 4 5 6 
#
# 1 32.6975 13.7201 0.8215 0.0000 22.7488 0.0000
# 2 13.7201 102.2575 38.0269 0.0000 17.4125 0.0000
# 3 0.8215 38.0269 89.8301 0.0000 27.2834 0.0000
# 4 0.0000 0.0000 0.0000 32.8689 0.0000 10.3748
# 5 22.7488 17.4125 27.2834 0.0000 36.4509 0.0000
# 6 0.0000 0.0000 0.0000 10.3748 0.0000 35.9387
#
#
#
# Elastic Compliance Matrix: (Units=1/GPa)
#
#
# Indices 1 2 3 4 5 6 
#
# 1 0.072320 -0.007398 0.019550 0.000000 -0.056234 0.000000
# 2 -0.007398 0.012530 -0.006239 0.000000 0.003302 0.000000
# 3 0.019550 -0.006239 0.021219 0.000000 -0.025103 0.000000
# 4 0.000000 0.000000 0.000000 0.033474 0.000000 -0.009663
# 5 -0.056234 0.003302 -0.025103 0.000000 0.079741 0.000000
# 6 0.000000 0.000000 0.000000 -0.009663 0.000000 0.030615
#
#
# Mechanical properties :
#
#
# Convention : Reuss Voigt Hill
#
# Bulk Modulus (GPa) = 8.48221 36.65800 22.57011
# Shear Modulus (GPa) = 18.02635 32.53278 25.27957
#
# Velocity S-wave (km/s) = 2.89856 3.89393 3.43252
# Velocity P-wave (km/s) = 3.89301 6.10756 5.12142
#
# Compressibility (1/GPa) = 0.11789385
#
# Stress axis : x y z
#
# Youngs Moduli (GPa) = 13.82741 79.80948 47.12813
#
# Poissons Ratio (x) = 0.59042 -0.92134
# Poissons Ratio (y) = 0.10229 0.29404
# Poissons Ratio (z) = -0.27032 0.49795
#
# Static dielectric constant tensor:
#      x y z
#    x 1.756590 0.000000 0.019070 
#    y 0.000000 1.741350 0.000000 
#    z 0.019070 0.000000 1.794480 
# 
# From -- ./inp_files/96699.got.cif
#   From: 2010.05.17/outbox.cif.g08.bks.cpg/sg13_49_cif.got.tgz:96699.got - 2010.06.03 16:44:36.
