data_PCOD9232956
_publ_section_title
;
Structure prediction by ZEFSAII (Michael W. Deem and Ramdas Pophale) SiO2 
 PCOD9232956
Probable space group: P 2/C
;
_chemical_formula_sum "Si O2"
_cell_formula_units_Z 28
_cell_length_a 9.141872
_cell_length_b 18.270236
_cell_length_c 16.575074
_cell_angle_alpha 90.000000
_cell_angle_beta 34.009208
_cell_angle_gamma 90.000000
_cell_volume 1548.459600
_symmetry_space_group_name_H-M "P 2/C"
_symmetry_group_IT_number 13
_symmetry_cell_setting 'monoclinic'
loop_
_space_group_symop_operation_xyz
x,y,z
-x,y,1/2-z
-x,-y,-z
x,-y,1/2+z
loop_
_atom_site_type_symbol
_atom_site_label
_atom_site_fract_x
_atom_site_fract_y
_atom_site_fract_z
Si Si1 0.244998 0.041886 0.028104
Si Si2 0.096758 0.371882 0.299026
Si Si3 0.679566 0.932911 0.815079
Si Si4 0.554012 0.352121 0.629705
Si Si5 0.721580 0.519877 0.333843
Si Si6 0.332175 0.194230 0.907050
Si Si7 0.269902 0.221504 0.289870
O O1 0.280178 0.051433 0.108400
O O2 0.935831 0.034294 0.154255
O O3 0.345657 0.118584 0.947714
O O4 0.413982 0.975285 0.916393
O O5 0.253898 0.447548 0.232612
O O6 0.252156 0.298946 0.252012
O O7 0.000000 0.365067 0.250000
O O8 0.843856 0.377806 0.471968
O O9 0.681731 0.847345 0.791775
O O10 0.500000 0.353015 0.750000
O O11 0.357224 0.406885 0.676284
O O12 0.551771 0.266980 0.603483
O O13 0.500000 0.500000 0.500000
O O14 0.000000 0.529083 0.250000
O O15 0.500000 0.186112 0.750000
O O16 0.020839 0.210077 0.038745
O O17 0.500000 0.222166 0.250000
#
# Coordination Sequence:
#
# PCOD9232956 Si02
#       7
#     4   4   4   4   4   4   4
#     4   9  18  34  57  80 108 148 191 226 278 332
#     4  10  21  39  63  83 114 155 194 232 284 350
#     4   9  19  33  56  82 109 146 187 234 274 333
#     4  10  21  39  60  85 118 152 191 235 289 346
#     4  11  21  40  62  88 115 150 195 238 283 344
#     4   9  20  38  58  77 112 153 184 224 288 337
#     4  10  22  37  57  87 113 144 193 237 278 334
#
# _framework density 18.082487
#
# number of rings (size 3 to 8) (size 9 to 14) (size 15 to 20)
#    0.000    2.286    2.857    0.000    6.000    2.857 
#    7.714    2.857    6.286    0.000    0.000    0.000 
#    0.000    0.000    0.000    0.000    0.000    0.000 
#
# Total GULP energy -156009.334388 kJ/mol
# GULP energy per Si atom -5571.761942 kJ/mol
# Density = 1.804133 g / cm^3
# Si number density = 18.082487 Si / 1000 Ang^3
#
#
#
# Elastic Constant Matrix: (Units=GPa)
#
#
# Indices 1 2 3 4 5 6 
#
# 1 41.0185 27.0031 14.9745 0.0000 -16.0337 0.0000
# 2 27.0031 125.5311 62.5360 0.0000 -23.4320 0.0000
# 3 14.9745 62.5360 106.6905 0.0000 -6.4213 0.0000
# 4 0.0000 0.0000 0.0000 38.9799 0.0000 24.6640
# 5 -16.0337 -23.4320 -6.4213 0.0000 17.7243 0.0000
# 6 0.0000 0.0000 0.0000 24.6640 0.0000 142.3574
#
#
#
# Elastic Compliance Matrix: (Units=1/GPa)
#
#
# Indices 1 2 3 4 5 6 
#
# 1 0.038922 -0.000619 -0.003098 0.000000 0.033269 0.000000
# 2 -0.000619 0.015033 -0.007731 0.000000 0.016513 0.000000
# 3 -0.003098 -0.007731 0.013857 0.000000 -0.008002 0.000000
# 4 0.000000 0.000000 0.000000 0.028813 0.000000 -0.004992
# 5 0.033269 0.016513 -0.008002 0.000000 0.105447 0.000000
# 6 0.000000 0.000000 0.000000 -0.004992 0.000000 0.007889
#
#
# Mechanical properties :
#
#
# Convention : Reuss Voigt Hill
#
# Bulk Modulus (GPa) = 22.26318 53.58528 37.92423
# Shear Modulus (GPa) = 20.17516 51.06076 35.61796
#
# Velocity S-wave (km/s) = 3.34388 5.31968 4.44300
# Velocity P-wave (km/s) = 5.21991 8.21158 6.88032
#
# Compressibility (1/GPa) = 0.04491720
#
# Stress axis : x y z
#
# Youngs Moduli (GPa) = 25.69226 66.52050 72.16390
#
# Poissons Ratio (x) = 0.04121 0.22353
# Poissons Ratio (y) = 0.01592 0.55788
# Poissons Ratio (z) = 0.07958 0.51425
#
# Static dielectric constant tensor:
#      x y z
#    x 1.614600 0.000000 -0.011170 
#    y 0.000000 1.631180 0.000000 
#    z -0.011170 0.000000 1.627490 
# 
# From -- ./inp_files/48076.got.cif
#   From: 2010.05.17/outbox.cif.g08.bks.cpg/sg13_25_cif.got.tgz:48076.got - 2010.06.03 16:44:36.
