data_PCOD9232854
_publ_section_title
;
Structure prediction by ZEFSAII (Michael W. Deem and Ramdas Pophale) SiO2 
 PCOD9232854
Probable space group: P 2/C
;
_chemical_formula_sum "Si O2"
_cell_formula_units_Z 30
_cell_length_a 32.327095
_cell_length_b 7.928854
_cell_length_c 13.514855
_cell_angle_alpha 90.000000
_cell_angle_beta 152.873061
_cell_angle_gamma 90.000000
_cell_volume 1579.495838
_symmetry_space_group_name_H-M "P 2/C"
_symmetry_group_IT_number 13
_symmetry_cell_setting 'monoclinic'
loop_
_space_group_symop_operation_xyz
x,y,z
-x,y,1/2-z
-x,-y,-z
x,-y,1/2+z
loop_
_atom_site_type_symbol
_atom_site_label
_atom_site_fract_x
_atom_site_fract_y
_atom_site_fract_z
Si Si1 0.059973 0.647073 0.676510
Si Si2 0.500000 0.981330 0.250000
Si Si3 0.063220 0.113011 0.480605
Si Si4 0.367100 0.410512 0.005497
Si Si5 0.384611 0.238055 0.654281
Si Si6 0.841893 0.426362 0.912527
Si Si7 0.534539 0.735704 0.958750
Si Si8 0.824312 0.769228 0.751324
O O1 0.144770 0.693310 0.787970
O O2 0.000000 0.500000 0.500000
O O3 0.001075 0.816700 0.568941
O O4 0.094207 0.583163 0.855703
O O5 0.441202 0.094044 0.048462
O O6 0.566056 0.881610 0.318353
O O7 0.125213 0.277512 0.590021
O O8 0.000000 0.086833 0.250000
O O9 0.118979 0.941277 0.613401
O O10 0.378507 0.587442 0.083256
O O11 0.411291 0.403929 0.990139
O O12 0.428710 0.289693 0.206132
O O13 0.260667 0.378998 0.775670
O O14 0.282199 0.189807 0.466322
O O15 0.441612 0.258717 0.876636
O O16 0.844295 0.613429 0.869737
#
# Coordination Sequence:
#
# PCOD9232854 Si02
#       8
#     4   2   4   4   4   4   4   4
#     4  11  22  41  65  89 126 164 207 259 316 371
#     4  10  22  38  58  88 126 164 198 246 314 366
#     4  10  23  39  64  86 123 164 202 253 313 366
#     4   9  20  37  62  86 118 160 207 248 311 362
#     4  11  22  40  61  92 124 159 208 256 303 375
#     4  10  22  41  60  91 125 161 201 265 305 368
#     4  10  21  38  64  86 122 167 199 255 310 375
#     4  11  24  40  65  93 123 163 211 255 312 377
#
# _framework density 18.993403000000001
#
# number of rings (size 3 to 8) (size 9 to 14) (size 15 to 20)
#    0.000    1.867    1.333    2.800    5.600    0.000 
#    0.000    2.667    0.000    0.000    0.000    0.000 
#    0.000    0.000    0.000    0.000    0.000    0.000 
#
# Total GULP energy -167256.548383 kJ/mol
# GULP energy per Si atom -5575.218279 kJ/mol
# Density = 1.895017 g / cm^3
# Si number density = 18.993403 Si / 1000 Ang^3
#
#
#
# Elastic Constant Matrix: (Units=GPa)
#
#
# Indices 1 2 3 4 5 6 
#
# 1 111.6613 36.7667 27.6319 0.0000 8.4796 0.0000
# 2 36.7667 75.8384 36.7220 0.0000 -0.0746 0.0000
# 3 27.6319 36.7220 57.8287 0.0000 7.2353 0.0000
# 4 0.0000 0.0000 0.0000 22.4425 0.0000 2.1718
# 5 8.4796 -0.0746 7.2353 0.0000 27.3316 0.0000
# 6 0.0000 0.0000 0.0000 2.1718 0.0000 37.0940
#
#
#
# Elastic Compliance Matrix: (Units=1/GPa)
#
#
# Indices 1 2 3 4 5 6 
#
# 1 0.011150 -0.004337 -0.002213 0.000000 -0.002886 0.000000
# 2 -0.004337 0.021031 -0.011851 0.000000 0.004540 0.000000
# 3 -0.002213 -0.011851 0.026677 0.000000 -0.006408 0.000000
# 4 0.000000 0.000000 0.000000 0.044812 0.000000 -0.002624
# 5 -0.002886 0.004540 -0.006408 0.000000 0.039192 0.000000
# 6 0.000000 0.000000 0.000000 -0.002624 0.000000 0.027112
#
#
# Mechanical properties :
#
#
# Convention : Reuss Voigt Hill
#
# Bulk Modulus (GPa) = 45.33670 49.72996 47.53333
# Shear Modulus (GPa) = 23.35040 26.98745 25.16893
#
# Velocity S-wave (km/s) = 3.51008 3.77355 3.64420
# Velocity P-wave (km/s) = 6.35209 6.72502 6.54121
#
# Compressibility (1/GPa) = 0.02205719
#
# Stress axis : x y z
#
# Youngs Moduli (GPa) = 89.68246 47.54786 37.48551
#
# Poissons Ratio (x) = 0.20622 0.08295
# Poissons Ratio (y) = 0.38897 0.44424
# Poissons Ratio (z) = 0.19845 0.56349
#
# Static dielectric constant tensor:
#      x y z
#    x 1.693140 0.000000 0.039040 
#    y 0.000000 1.708610 0.000000 
#    z 0.039040 0.000000 1.645500 
# 
# From -- ./inp_files/42711.got.cif
#   From: 2010.05.17/outbox.cif.g08.bks.cpg/sg13_22_cif.got.tgz:42711.got - 2010.06.03 16:44:36.
