data_PCOD9232553
_publ_section_title
;
Structure prediction by ZEFSAII (Michael W. Deem and Ramdas Pophale) SiO2 
 PCOD9232553
Probable space group: P 2/C
;
_chemical_formula_sum "Si O2"
_cell_formula_units_Z 20
_cell_length_a 11.739321
_cell_length_b 11.000681
_cell_length_c 9.053481
_cell_angle_alpha 90.000000
_cell_angle_beta 127.322262
_cell_angle_gamma 90.000000
_cell_volume 929.769403
_symmetry_space_group_name_H-M "P 2/C"
_symmetry_group_IT_number 13
_symmetry_cell_setting 'monoclinic'
loop_
_space_group_symop_operation_xyz
x,y,z
-x,y,1/2-z
-x,-y,-z
x,-y,1/2+z
loop_
_atom_site_type_symbol
_atom_site_label
_atom_site_fract_x
_atom_site_fract_y
_atom_site_fract_z
Si Si1 0.705159 0.762764 0.586930
Si Si2 0.115758 0.989010 0.218570
Si Si3 0.229165 0.248827 0.702741
Si Si4 0.463964 0.370892 0.047806
Si Si5 0.040294 0.623403 0.610139
O O1 0.704311 0.737388 0.409941
O O2 0.550119 0.740046 0.535237
O O3 0.797002 0.665129 0.754292
O O4 0.794515 0.888320 0.675139
O O5 0.230611 0.886608 0.266927
O O6 0.000000 0.952745 0.250000
O O7 0.000000 0.000000 0.000000
O O8 0.062144 0.278243 0.545837
O O9 0.300703 0.339682 0.875770
O O10 0.500000 0.374471 0.250000
O O11 0.500000 0.500000 0.000000
O O12 0.000000 0.615998 0.750000
O O13 0.000000 0.500000 0.500000
#
# Coordination Sequence:
#
# PCOD9232553 Si02
#       5
#     4   4   4   4   4
#     4  11  23  44  67  95 136 178 223 278 336 399
#     4  12  23  43  71 104 140 177 221 282 339 398
#     4  11  24  43  68  96 135 181 222 277 337 398
#     4  12  28  47  69  98 136 180 228 280 339 405
#     4  10  21  37  61  93 124 166 220 273 330 392
#
# _framework density 21.510711000000001
#
# number of rings (size 3 to 8) (size 9 to 14) (size 15 to 20)
#    0.000    0.800    4.000    3.600    2.800    6.400 
#    0.000    0.000    0.000    0.000    0.000    0.000 
#    0.000    0.000    0.000    0.000    0.000    0.000 
#
# Total GULP energy -111582.497721 kJ/mol
# GULP energy per Si atom -5579.124886 kJ/mol
# Density = 2.146175 g / cm^3
# Si number density = 21.510711 Si / 1000 Ang^3
#
#
#
# Elastic Constant Matrix: (Units=GPa)
#
#
# Indices 1 2 3 4 5 6 
#
# 1 54.5632 -1.3264 20.2277 0.0000 -7.8656 0.0000
# 2 -1.3264 96.4970 34.7940 0.0000 -4.3486 0.0000
# 3 20.2277 34.7940 152.2450 0.0000 -19.6923 0.0000
# 4 0.0000 0.0000 0.0000 23.7822 0.0000 1.5536
# 5 -7.8656 -4.3486 -19.6923 0.0000 31.8718 0.0000
# 6 0.0000 0.0000 0.0000 1.5536 0.0000 33.1014
#
#
#
# Elastic Compliance Matrix: (Units=1/GPa)
#
#
# Indices 1 2 3 4 5 6 
#
# 1 0.019786 0.001323 -0.002474 0.000000 0.003535 0.000000
# 2 0.001323 0.011382 -0.002754 0.000000 0.000178 0.000000
# 3 -0.002474 -0.002754 0.008042 0.000000 0.003982 0.000000
# 4 0.000000 0.000000 0.000000 0.042178 0.000000 -0.001980
# 5 0.003535 0.000178 0.003982 0.000000 0.034733 0.000000
# 6 0.000000 0.000000 0.000000 -0.001980 0.000000 0.030303
#
#
# Mechanical properties :
#
#
# Convention : Reuss Voigt Hill
#
# Bulk Modulus (GPa) = 31.84660 45.63286 38.73973
# Shear Modulus (GPa) = 30.35820 34.39174 32.37497
#
# Velocity S-wave (km/s) = 3.76081 4.00286 3.88372
# Velocity P-wave (km/s) = 5.80477 6.52870 6.17735
#
# Compressibility (1/GPa) = 0.03140052
#
# Stress axis : x y z
#
# Youngs Moduli (GPa) = 50.54000 87.85589 124.35376
#
# Poissons Ratio (x) = -0.11626 0.30766
# Poissons Ratio (y) = -0.06688 0.34248
# Poissons Ratio (z) = 0.12504 0.24196
#
# Static dielectric constant tensor:
#      x y z
#    x 1.757480 0.000000 0.049630 
#    y 0.000000 1.591320 0.000000 
#    z 0.049630 0.000000 1.729820 
# 
# From -- ./inp_files/11765.got.cif
#   From: 2010.05.17/outbox.cif.g08.bks.cpg/sg13_6_cif.got.tgz:11765.got - 2010.06.03 16:44:36.
