data_PCOD9232278
_publ_section_title
;
Structure prediction by ZEFSAII (Michael W. Deem and Ramdas Pophale) SiO2 
 PCOD9232278
Probable space group: P 2/C
;
_chemical_formula_sum "Si O2"
_cell_formula_units_Z 28
_cell_length_a 8.807918
_cell_length_b 19.362126
_cell_length_c 12.506609
_cell_angle_alpha 90.000000
_cell_angle_beta 39.228085
_cell_angle_gamma 90.000000
_cell_volume 1348.850999
_symmetry_space_group_name_H-M "P 2/C"
_symmetry_group_IT_number 13
_symmetry_cell_setting 'monoclinic'
loop_
_space_group_symop_operation_xyz
x,y,z
-x,y,1/2-z
-x,-y,-z
x,-y,1/2+z
loop_
_atom_site_type_symbol
_atom_site_label
_atom_site_fract_x
_atom_site_fract_y
_atom_site_fract_z
Si Si1 0.629679 0.786977 0.792894
Si Si2 0.227047 0.927848 0.700218
Si Si3 0.373491 0.068389 0.704886
Si Si4 0.232776 0.646333 0.699381
Si Si5 0.769896 0.791432 0.301079
Si Si6 0.738107 0.498146 0.193505
Si Si7 0.759662 0.358514 0.807167
O O1 0.500000 0.781250 0.750000
O O2 0.754899 0.861471 0.733169
O O3 0.785529 0.717567 0.723574
O O4 0.447118 0.789385 0.994035
O O5 0.445427 0.930304 0.495583
O O6 0.000000 0.919228 0.750000
O O7 0.217378 0.000021 0.768791
O O8 0.500000 0.061113 0.750000
O O9 0.249671 0.143181 0.765336
O O10 0.250211 0.573675 0.749947
O O11 0.499498 0.649178 0.503633
O O12 0.000000 0.643992 0.750000
O O13 0.788473 0.716364 0.234711
O O14 0.000000 0.800548 0.250000
O O15 0.500000 0.496196 0.250000
O O16 0.732692 0.570079 0.259984
O O17 0.000000 0.500000 0.000000
O O18 0.000000 0.364121 0.750000
#
# Coordination Sequence:
#
# PCOD9232278 Si02
#       7
#     4   4   4   4   4   4   4
#     4  10  21  37  58  85 115 149 193 242 291 347
#     4  10  21  37  56  82 116 150 190 237 289 343
#     4  10  21  36  56  83 114 149 191 236 283 341
#     4  11  22  39  60  83 116 156 194 237 296 355
#     4   9  20  37  57  82 112 151 191 234 288 346
#     4  12  24  38  59  89 117 147 195 245 292 350
#     4  10  21  40  60  80 114 156 192 234 294 351
#
# _framework density 20.758407999999999
#
# number of rings (size 3 to 8) (size 9 to 14) (size 15 to 20)
#    0.000    1.714    0.000    4.286    0.000    4.571 
#    0.000    1.429    0.000    0.000    0.000    0.000 
#    0.000    0.000    0.000    0.000    0.000    0.000 
#
# Total GULP energy -156054.137074 kJ/mol
# GULP energy per Si atom -5573.362038 kJ/mol
# Density = 2.071116 g / cm^3
# Si number density = 20.758408 Si / 1000 Ang^3
#
#
#
# Elastic Constant Matrix: (Units=GPa)
#
#
# Indices 1 2 3 4 5 6 
#
# 1 147.7472 99.5454 14.6148 0.0000 -23.2754 0.0000
# 2 99.5454 231.7328 25.9993 0.0000 -5.2727 0.0000
# 3 14.6148 25.9993 49.9268 0.0000 -17.7539 0.0000
# 4 0.0000 0.0000 0.0000 -31.3744 0.0000 -32.3283
# 5 -23.2754 -5.2727 -17.7539 0.0000 31.9999 0.0000
# 6 0.0000 0.0000 0.0000 -32.3283 0.0000 39.9583
#
#
#
# Elastic Compliance Matrix: (Units=1/GPa)
#
#
# Indices 1 2 3 4 5 6 
#
# 1 0.011173 -0.004865 0.002326 0.000000 0.008616 0.000000
# 2 -0.004865 0.006714 -0.003659 0.000000 -0.004462 0.000000
# 3 0.002326 -0.003659 0.026960 0.000000 0.016047 0.000000
# 4 0.000000 0.000000 0.000000 -0.017382 0.000000 -0.014063
# 5 0.008616 -0.004462 0.016047 0.000000 0.045685 0.000000
# 6 0.000000 0.000000 0.000000 -0.014063 0.000000 0.013648
#
#
# Mechanical properties :
#
#
# Convention : Reuss Voigt Hill
#
# Bulk Modulus (GPa) = 30.81410 78.85841 54.83625
# Shear Modulus (GPa) = 45.45062 27.39992 36.42527
#
# Velocity S-wave (km/s) = 4.68429 3.63704 4.19349
# Velocity P-wave (km/s) = 6.64328 7.46382 7.06547
#
# Compressibility (1/GPa) = 0.03245268
#
# Stress axis : x y z
#
# Youngs Moduli (GPa) = 89.50115 148.94286 37.09200
#
# Poissons Ratio (x) = 0.72454 -0.08629
# Poissons Ratio (y) = 0.43538 0.13572
# Poissons Ratio (z) = -0.20822 0.54498
#
# Static dielectric constant tensor:
#      x y z
#    x 1.690270 0.000000 0.007600 
#    y 0.000000 1.905690 0.000000 
#    z 0.007600 0.000000 1.756230 
# 
# From -- ./inp_files/48079.got.cif
#   From: 2010.05.17/outbox.cif.g08.bks.cpg/sg13_25_cif.got.tgz:48079.got - 2010.06.03 16:44:36.
