data_PCOD9232609
_publ_section_title
;
Structure prediction by ZEFSAII (Michael W. Deem and Ramdas Pophale) SiO2 
 PCOD9232609
Probable space group: P 2/C
;
_chemical_formula_sum "Si O2"
_cell_formula_units_Z 28
_cell_length_a 26.696168
_cell_length_b 8.110492
_cell_length_c 9.552269
_cell_angle_alpha 90.000000
_cell_angle_beta 149.476211
_cell_angle_gamma 90.000000
_cell_volume 1050.455160
_symmetry_space_group_name_H-M "P 2/C"
_symmetry_group_IT_number 13
_symmetry_cell_setting 'monoclinic'
loop_
_space_group_symop_operation_xyz
x,y,z
-x,y,1/2-z
-x,-y,-z
x,-y,1/2+z
loop_
_atom_site_type_symbol
_atom_site_label
_atom_site_fract_x
_atom_site_fract_y
_atom_site_fract_z
Si Si1 0.193142 0.672155 0.585895
Si Si2 0.821195 0.301308 0.984840
Si Si3 0.624671 0.559516 0.290023
Si Si4 0.500000 0.572800 0.750000
Si Si5 0.878868 0.895411 0.892564
Si Si6 0.673845 0.961632 0.026969
Si Si7 0.644027 0.199424 0.190538
Si Si8 0.000000 0.183145 0.250000
O O1 0.184115 0.493182 0.497350
O O2 0.100828 0.761532 0.434508
O O3 0.241143 0.783761 0.580127
O O4 0.272815 0.630758 0.904520
O O5 0.859721 0.200025 0.206888
O O6 0.907760 0.286079 0.079409
O O7 0.718611 0.210461 0.697041
O O8 0.565944 0.531503 0.295604
O O9 0.628226 0.383853 0.215746
O O10 0.568412 0.663063 0.032375
O O11 0.776099 0.964392 0.710315
O O12 0.949922 0.046449 0.030077
O O13 0.616193 0.091690 0.985421
O O14 0.614307 0.912575 0.747644
#
# Coordination Sequence:
#
# PCOD9232609 Si02
#       8
#     4   4   4   2   4   4   4   2
#     4  11  23  37  70 103 128 166 241 292 321 391
#     4  11  21  39  62  95 129 174 222 283 336 395
#     4  11  21  42  67 106 137 177 222 282 337 412
#     4  10  24  40  68 104 144 180 206 282 364 400
#     4  10  22  40  62  91 129 179 223 276 338 400
#     4  10  21  37  64  93 130 173 223 279 329 399
#     4  11  21  40  63 102 132 171 228 278 334 400
#     4  10  24  42  60  88 140 182 218 264 358 418
#
# _framework density 26.655113
#
# number of rings (size 3 to 8) (size 9 to 14) (size 15 to 20)
#    0.000    1.429    4.286    1.286    0.000    0.571 
#    0.000    1.429    0.000    2.571    0.000    0.000 
#    0.000    0.000    0.000    0.000    0.000    0.000 
#
# Total GULP energy -155976.574994 kJ/mol
# GULP energy per Si atom -5570.591964 kJ/mol
# Density = 2.659444 g / cm^3
# Si number density = 26.655113 Si / 1000 Ang^3
#
#
#
# Elastic Constant Matrix: (Units=GPa)
#
#
# Indices 1 2 3 4 5 6 
#
# 1 133.6522 26.0121 29.7683 0.0000 -10.5148 0.0000
# 2 26.0121 79.0074 -1.8350 0.0000 -4.0123 0.0000
# 3 29.7683 -1.8350 67.4673 0.0000 -16.1033 0.0000
# 4 0.0000 0.0000 0.0000 -14.5182 0.0000 24.6225
# 5 -10.5148 -4.0123 -16.1033 0.0000 42.4141 0.0000
# 6 0.0000 0.0000 0.0000 24.6225 0.0000 -29.0815
#
#
#
# Elastic Compliance Matrix: (Units=1/GPa)
#
#
# Indices 1 2 3 4 5 6 
#
# 1 0.008984 -0.003027 -0.003940 0.000000 0.000445 0.000000
# 2 -0.003027 0.013768 0.002025 0.000000 0.001321 0.000000
# 3 -0.003940 0.002025 0.018065 0.000000 0.006074 0.000000
# 4 0.000000 0.000000 0.000000 0.158005 0.000000 0.133779
# 5 0.000445 0.001321 0.006074 0.000000 0.026118 0.000000
# 6 0.000000 0.000000 0.000000 0.133779 0.000000 0.078880
#
#
# Mechanical properties :
#
#
# Convention : Reuss Voigt Hill
#
# Bulk Modulus (GPa) = 32.32728 43.11308 37.72018
# Shear Modulus (GPa) = 15.43139 14.84163 15.13651
#
# Velocity S-wave (km/s) = 2.40870 2.36223 2.38558
# Velocity P-wave (km/s) = 4.45983 4.86309 4.66582
#
# Compressibility (1/GPa) = 0.03093362
#
# Stress axis : x y z
#
# Youngs Moduli (GPa) = 111.31236 72.63405 55.35516
#
# Poissons Ratio (x) = 0.21984 0.21810
# Poissons Ratio (y) = 0.33691 -0.11211
# Poissons Ratio (z) = 0.43857 -0.14710
#
# Static dielectric constant tensor:
#      x y z
#    x 2.091950 0.000000 0.037190 
#    y 0.000000 2.201880 0.000000 
#    z 0.037190 0.000000 2.292570 
# 
# From -- ./inp_files/24643.got.cif
#   From: 2010.05.17/outbox.cif.g08.bks.cpg/sg13_13_cif.got.tgz:24643.got - 2010.06.03 16:44:36.
