data_PCOD9232544
_publ_section_title
;
Structure prediction by ZEFSAII (Michael W. Deem and Ramdas Pophale) SiO2 
 PCOD9232544
Probable space group: P 2/C
;
_chemical_formula_sum "Si O2"
_cell_formula_units_Z 28
_cell_length_a 29.130628
_cell_length_b 9.002450
_cell_length_c 8.836459
_cell_angle_alpha 90.000000
_cell_angle_beta 35.199652
_cell_angle_gamma 90.000000
_cell_volume 1335.775314
_symmetry_space_group_name_H-M "P 2/C"
_symmetry_group_IT_number 13
_symmetry_cell_setting 'monoclinic'
loop_
_space_group_symop_operation_xyz
x,y,z
-x,y,1/2-z
-x,-y,-z
x,-y,1/2+z
loop_
_atom_site_type_symbol
_atom_site_label
_atom_site_fract_x
_atom_site_fract_y
_atom_site_fract_z
Si Si1 0.677005 0.657957 0.263194
Si Si2 0.985253 0.160493 0.970472
Si Si3 0.432648 0.835175 0.737472
Si Si4 0.846150 0.658507 0.957650
Si Si5 0.411190 0.632051 0.512381
Si Si6 0.614789 0.152023 0.690293
Si Si7 0.075218 0.393640 0.943713
O O1 0.602934 0.708214 0.563507
O O2 0.651109 0.495436 0.273234
O O3 0.680498 0.789243 0.129692
O O4 0.755129 0.655142 0.154015
O O5 0.000000 0.168790 0.750000
O O6 0.040584 0.270227 0.922779
O O7 0.894842 0.205715 0.253944
O O8 0.000000 0.000000 0.000000
O O9 0.421052 0.767246 0.602544
O O10 0.526931 0.858017 0.505037
O O11 0.382436 0.987701 0.888050
O O12 0.887185 0.518388 0.763233
O O13 0.862617 0.656054 0.093433
O O14 0.500000 0.567663 0.250000
O O15 0.387253 0.715076 0.423973
O O16 0.000000 0.446192 0.250000
#
# Coordination Sequence:
#
# PCOD9232544 Si02
#       7
#     4   4   4   4   4   4   4
#     4  12  24  37  58  94 132 155 216 262 332 369
#     4  11  22  45  73  99 126 166 216 257 303 380
#     4  10  21  40  62  85 120 170 220 261 324 387
#     4  11  24  39  63  98 125 174 203 264 324 379
#     4  10  21  37  61  89 120 167 220 267 317 374
#     4  10  21  40  63  84 119 173 216 267 318 388
#     4  10  21  42  67  91 128 167 219 249 306 391
#
# _framework density 20.96161
#
# number of rings (size 3 to 8) (size 9 to 14) (size 15 to 20)
#    0.000    1.429    0.000    7.286    4.000    4.571 
#    5.143    0.000    0.000    0.000    0.000    0.000 
#    0.000    0.000    0.000    0.000    0.000    0.000 
#
# Total GULP energy -156276.961781 kJ/mol
# GULP energy per Si atom -5581.320064 kJ/mol
# Density = 2.091390 g / cm^3
# Si number density = 20.961610 Si / 1000 Ang^3
#
#
#
# Elastic Constant Matrix: (Units=GPa)
#
#
# Indices 1 2 3 4 5 6 
#
# 1 140.6907 31.5766 22.6254 0.0000 -0.9984 0.0000
# 2 31.5766 105.2486 25.7154 0.0000 -8.7408 0.0000
# 3 22.6254 25.7154 17.4391 0.0000 7.5126 0.0000
# 4 0.0000 0.0000 0.0000 11.7773 0.0000 9.3471
# 5 -0.9984 -8.7408 7.5126 0.0000 35.7747 0.0000
# 6 0.0000 0.0000 0.0000 9.3471 0.0000 22.6284
#
#
#
# Elastic Compliance Matrix: (Units=1/GPa)
#
#
# Indices 1 2 3 4 5 6 
#
# 1 0.009387 0.001415 -0.015972 0.000000 0.003962 0.000000
# 2 0.001415 0.018311 -0.033843 0.000000 0.011620 0.000000
# 3 -0.015972 -0.033843 0.144824 0.000000 -0.039127 0.000000
# 4 0.000000 0.000000 0.000000 0.126321 0.000000 -0.052180
# 5 0.003962 0.011620 -0.039127 0.000000 0.039119 0.000000
# 6 0.000000 0.000000 0.000000 -0.052180 0.000000 0.065746
#
#
# Mechanical properties :
#
#
# Convention : Reuss Voigt Hill
#
# Bulk Modulus (GPa) = 13.20606 47.02368 30.11487
# Shear Modulus (GPa) = 9.51026 26.26681 17.88854
#
# Velocity S-wave (km/s) = 2.13233 3.54374 2.92446
# Velocity P-wave (km/s) = 3.51799 6.26307 5.07949
#
# Compressibility (1/GPa) = 0.07572282
#
# Stress axis : x y z
#
# Youngs Moduli (GPa) = 106.53209 54.61346 6.90492
#
# Poissons Ratio (x) = -0.07729 0.11029
# Poissons Ratio (y) = -0.15077 0.23368
# Poissons Ratio (z) = 1.70155 1.84826
#
# Static dielectric constant tensor:
#      x y z
#    x 1.786150 0.000000 0.022110 
#    y 0.000000 1.763930 0.000000 
#    z 0.022110 0.000000 1.749690 
# 
# From -- ./inp_files/24511.got.cif
#   From: 2010.05.17/outbox.cif.g08.bks.cpg/sg13_13_cif.got.tgz:24511.got - 2010.06.03 16:44:36.
