data_PCOD9232391
_publ_section_title
;
Structure prediction by ZEFSAII (Michael W. Deem and Ramdas Pophale) SiO2 
 PCOD9232391
Probable space group: P 2/C
;
_chemical_formula_sum "Si O2"
_cell_formula_units_Z 26
_cell_length_a 14.536087
_cell_length_b 11.295228
_cell_length_c 21.074873
_cell_angle_alpha 90.000000
_cell_angle_beta 22.274673
_cell_angle_gamma 90.000000
_cell_volume 1311.597890
_symmetry_space_group_name_H-M "P 2/C"
_symmetry_group_IT_number 13
_symmetry_cell_setting 'monoclinic'
loop_
_space_group_symop_operation_xyz
x,y,z
-x,y,1/2-z
-x,-y,-z
x,-y,1/2+z
loop_
_atom_site_type_symbol
_atom_site_label
_atom_site_fract_x
_atom_site_fract_y
_atom_site_fract_z
Si Si1 0.537600 0.775097 0.357646
Si Si2 0.229685 0.339774 0.395746
Si Si3 0.500000 0.643045 0.250000
Si Si4 0.956768 0.459478 0.113858
Si Si5 0.787125 0.308984 0.334845
Si Si6 0.944543 0.072565 0.354378
Si Si7 0.976469 0.087052 0.955349
O O1 0.568730 0.710953 0.270585
O O2 0.458636 0.695307 0.467861
O O3 0.764907 0.856167 0.225193
O O4 0.304282 0.857609 0.496084
O O5 0.500000 0.363079 0.250000
O O6 0.182171 0.405469 0.358764
O O7 0.190930 0.199084 0.419717
O O8 0.010196 0.400470 0.576245
O O9 0.238632 0.585130 0.434005
O O10 0.815824 0.407156 0.263246
O O11 0.854738 0.177817 0.263359
O O12 0.000000 0.331756 0.250000
O O13 0.000000 0.015734 0.250000
O O14 0.909547 0.986539 0.435583
O O15 0.000000 0.000000 0.000000
#
# Coordination Sequence:
#
# PCOD9232391 Si02
#       7
#     4   4   2   4   4   4   4
#     4  10  21  36  64  95 119 166 226 260 312 400
#     4  11  26  41  62  98 132 164 220 268 324 388
#     4  12  16  36  70  90 122 160 214 266 310 384
#     4  11  21  42  69  90 127 171 202 274 334 375
#     4   9  18  38  65  95 120 160 221 263 320 394
#     4   9  20  37  57  86 121 163 210 259 314 383
#     4  12  24  39  60  91 129 169 217 266 323 384
#
# _framework density 19.823148
#
# number of rings (size 3 to 8) (size 9 to 14) (size 15 to 20)
#    0.000    1.846    5.385    1.846    2.154    2.462 
#    2.769    1.538    0.000    0.000    0.000    0.000 
#    0.000    0.000    0.000    0.000    0.000    0.000 
#
# Total GULP energy -144912.825378 kJ/mol
# GULP energy per Si atom -5573.570207 kJ/mol
# Density = 1.977803 g / cm^3
# Si number density = 19.823148 Si / 1000 Ang^3
#
#
#
# Elastic Constant Matrix: (Units=GPa)
#
#
# Indices 1 2 3 4 5 6 
#
# 1 87.5441 53.9756 22.7279 0.0000 17.6607 0.0000
# 2 53.9756 95.2773 20.4329 0.0000 18.6246 0.0000
# 3 22.7279 20.4329 81.6696 0.0000 16.5820 0.0000
# 4 0.0000 0.0000 0.0000 24.8069 0.0000 7.7020
# 5 17.6607 18.6246 16.5820 0.0000 28.9835 0.0000
# 6 0.0000 0.0000 0.0000 7.7020 0.0000 28.7793
#
#
#
# Elastic Compliance Matrix: (Units=1/GPa)
#
#
# Indices 1 2 3 4 5 6 
#
# 1 0.018466 -0.009216 -0.001981 0.000000 -0.004196 0.000000
# 2 -0.009216 0.016797 -0.000663 0.000000 -0.004798 0.000000
# 3 -0.001981 -0.000663 0.014290 0.000000 -0.006542 0.000000
# 4 0.000000 0.000000 0.000000 0.043964 0.000000 -0.011766
# 5 -0.004196 -0.004798 -0.006542 0.000000 0.043886 0.000000
# 6 0.000000 0.000000 0.000000 -0.011766 0.000000 0.037896
#
#
# Mechanical properties :
#
#
# Convention : Reuss Voigt Hill
#
# Bulk Modulus (GPa) = 38.71202 50.97376 44.84289
# Shear Modulus (GPa) = 24.08125 27.67090 25.87608
#
# Velocity S-wave (km/s) = 3.48919 3.74021 3.61688
# Velocity P-wave (km/s) = 5.98362 6.66501 6.33348
#
# Compressibility (1/GPa) = 0.02583177
#
# Stress axis : x y z
#
# Youngs Moduli (GPa) = 54.15419 59.53501 69.97872
#
# Poissons Ratio (x) = 0.54867 0.13864
# Poissons Ratio (y) = 0.49908 0.04643
# Poissons Ratio (z) = 0.10729 0.03950
#
# Static dielectric constant tensor:
#      x y z
#    x 1.743890 0.000000 0.014380 
#    y 0.000000 1.772740 0.000000 
#    z 0.014380 0.000000 1.737720 
# 
# From -- ./inp_files/80166.got.cif
#   From: 2010.05.17/outbox.cif.g08.bks.cpg/sg13_41_cif.got.tgz:80166.got - 2010.06.03 16:44:36.
