data_PCOD9232165
_publ_section_title
;
Structure prediction by ZEFSAII (Michael W. Deem and Ramdas Pophale) SiO2 
 PCOD9232165
Probable space group: P 2/C
;
_chemical_formula_sum "Si O2"
_cell_formula_units_Z 32
_cell_length_a 11.601715
_cell_length_b 5.359992
_cell_length_c 20.079603
_cell_angle_alpha 90.000000
_cell_angle_beta 103.071323
_cell_angle_gamma 90.000000
_cell_volume 1216.298645
_symmetry_space_group_name_H-M "P 2/C"
_symmetry_group_IT_number 13
_symmetry_cell_setting 'monoclinic'
loop_
_space_group_symop_operation_xyz
x,y,z
-x,y,1/2-z
-x,-y,-z
x,-y,1/2+z
loop_
_atom_site_type_symbol
_atom_site_label
_atom_site_fract_x
_atom_site_fract_y
_atom_site_fract_z
Si Si1 0.907215 0.391461 0.697093
Si Si2 0.413597 0.390604 0.147173
Si Si3 0.326362 0.358357 0.988003
Si Si4 0.326383 0.415268 0.346340
Si Si5 0.065214 0.793922 0.641439
Si Si6 0.127979 0.420559 0.540602
Si Si7 0.181723 0.018714 0.412617
Si Si8 0.266447 0.104606 0.653649
O O1 0.781136 0.468315 0.710843
O O2 0.000000 0.230434 0.750000
O O3 0.994704 0.611515 0.682859
O O4 0.862658 0.233040 0.629538
O O5 0.554395 0.382388 0.178977
O O6 0.348370 0.643618 0.165542
O O7 0.356756 0.125583 0.159593
O O8 0.403473 0.391046 0.064040
O O9 0.363241 0.425743 0.917756
O O10 0.275321 0.079198 0.978428
O O11 0.216075 0.535257 0.991411
O O12 0.257534 0.179784 0.369917
O O13 0.142204 0.621011 0.602431
O O14 0.948915 0.887797 0.585172
O O15 0.160815 0.984902 0.685860
O O16 0.172686 0.169841 0.581282
O O17 0.000000 0.500000 0.500000
#
# Coordination Sequence:
#
# PCOD9232165 Si02
#       8
#     4   4   4   4   4   4   4   4
#     4  10  23  44  68  99 125 157 215 280 356 398
#     4  11  25  38  63  92 138 183 224 254 309 391
#     4  10  21  35  54  93 131 181 221 256 313 373
#     4  10  23  41  60  94 130 175 218 274 321 390
#     4  11  21  39  62  92 129 164 217 272 326 384
#     4  11  21  34  56  90 132 180 221 267 308 380
#     4  10  22  35  63  92 132 171 217 277 324 386
#     4  11  23  40  59  95 125 182 221 260 316 375
#
# _framework density 26.309325999999999
#
# number of rings (size 3 to 8) (size 9 to 14) (size 15 to 20)
#    0.000    1.500    2.500    4.125    8.750    3.500 
#    0.000    0.000    0.000    0.750    3.250    0.000 
#    0.000    0.000    0.000    0.000    0.000    0.000 
#
# Total GULP energy -178251.579767 kJ/mol
# GULP energy per Si atom -5570.361868 kJ/mol
# Density = 2.624945 g / cm^3
# Si number density = 26.309326 Si / 1000 Ang^3
#
#
#
# Elastic Constant Matrix: (Units=GPa)
#
#
# Indices 1 2 3 4 5 6 
#
# 1 213.6098 89.8333 23.5578 0.0000 24.2018 0.0000
# 2 89.8333 141.5305 17.7671 0.0000 2.7620 0.0000
# 3 23.5578 17.7671 46.4346 0.0000 7.4757 0.0000
# 4 0.0000 0.0000 0.0000 2.9920 0.0000 -1.3184
# 5 24.2018 2.7620 7.4757 0.0000 34.7370 0.0000
# 6 0.0000 0.0000 0.0000 -1.3184 0.0000 30.3285
#
#
#
# Elastic Compliance Matrix: (Units=1/GPa)
#
#
# Indices 1 2 3 4 5 6 
#
# 1 0.007108 -0.004267 -0.001275 0.000000 -0.004339 0.000000
# 2 -0.004267 0.009984 -0.002078 0.000000 0.002626 0.000000
# 3 -0.001275 -0.002078 0.023627 0.000000 -0.004031 0.000000
# 4 0.000000 0.000000 0.000000 0.340756 0.000000 0.014813
# 5 -0.004339 0.002626 -0.004031 0.000000 0.032469 0.000000
# 6 0.000000 0.000000 0.000000 0.014813 0.000000 0.033616
#
#
# Mechanical properties :
#
#
# Convention : Reuss Voigt Hill
#
# Bulk Modulus (GPa) = 39.24907 73.76567 56.50737
# Shear Modulus (GPa) = 10.60912 31.63928 21.12420
#
# Velocity S-wave (km/s) = 2.01028 3.47160 2.83665
# Velocity P-wave (km/s) = 4.50988 6.64590 5.67922
#
# Compressibility (1/GPa) = 0.02547831
#
# Stress axis : x y z
#
# Youngs Moduli (GPa) = 140.68512 100.16440 42.32510
#
# Poissons Ratio (x) = 0.42740 0.05396
# Poissons Ratio (y) = 0.60030 0.08795
# Poissons Ratio (z) = 0.17937 0.20814
#
# Static dielectric constant tensor:
#      x y z
#    x 2.160640 0.000000 0.083550 
#    y 0.000000 2.324960 0.000000 
#    z 0.083550 0.000000 2.255060 
# 
# From -- ./inp_files/85860.got.cif
#   From: 2010.05.17/outbox.cif.g08.bks.cpg/sg13_43_cif.got.tgz:85860.got - 2010.06.03 16:44:36.
