data_PCOD9232807
_publ_section_title
;
Structure prediction by ZEFSAII (Michael W. Deem and Ramdas Pophale) SiO2 
 PCOD9232807
Probable space group: P 2/C
;
_chemical_formula_sum "Si O2"
_cell_formula_units_Z 16
_cell_length_a 8.231457
_cell_length_b 18.854503
_cell_length_c 7.781095
_cell_angle_alpha 90.000000
_cell_angle_beta 34.866898
_cell_angle_gamma 90.000000
_cell_volume 690.366008
_symmetry_space_group_name_H-M "P 2/C"
_symmetry_group_IT_number 13
_symmetry_cell_setting 'monoclinic'
loop_
_space_group_symop_operation_xyz
x,y,z
-x,y,1/2-z
-x,-y,-z
x,-y,1/2+z
loop_
_atom_site_type_symbol
_atom_site_label
_atom_site_fract_x
_atom_site_fract_y
_atom_site_fract_z
Si Si1 0.702917 0.555705 0.420936
Si Si2 0.223939 0.161877 0.903638
Si Si3 0.717098 0.951642 0.419327
Si Si4 0.288014 0.713089 0.095837
O O1 0.500000 0.500000 0.500000
O O2 0.750977 0.632519 0.294101
O O3 0.000000 0.529035 0.250000
O O4 0.500000 0.576912 0.750000
O O5 0.500000 0.127888 0.750000
O O6 0.142588 0.108414 0.822567
O O7 0.327232 0.233259 0.718014
O O8 0.000000 0.174517 0.250000
O O9 0.000000 0.989818 0.250000
O O10 0.500000 0.000000 0.500000
O O11 0.500000 0.920445 0.750000
O O12 0.000000 0.731371 0.250000
O O13 0.500000 0.719586 0.750000
#
# Coordination Sequence:
#
# PCOD9232807 Si02
#       4
#     4   4   4   4
#     4  10  21  38  62  92 130 170 216 269 327 392
#     4  12  25  43  67 100 132 168 220 275 325 385
#     4  12  26  46  71  99 136 178 217 267 326 393
#     4  10  21  41  65  91 126 174 220 267 329 392
#
# _framework density 23.176113000000001
#
# number of rings (size 3 to 8) (size 9 to 14) (size 15 to 20)
#    0.000    1.000    0.000    6.750    0.000    3.000 
#    0.000    2.500    0.000    0.000    0.000    0.000 
#    0.000    0.000    0.000    0.000    0.000    0.000 
#
# Total GULP energy -89232.650228 kJ/mol
# GULP energy per Si atom -5577.040639 kJ/mol
# Density = 2.312336 g / cm^3
# Si number density = 23.176113 Si / 1000 Ang^3
#
#
#
# Elastic Constant Matrix: (Units=GPa)
#
#
# Indices 1 2 3 4 5 6 
#
# 1 103.8242 58.2991 58.0424 0.0000 -18.8372 0.0000
# 2 58.2991 101.4403 15.2897 0.0000 14.3408 0.0000
# 3 58.0424 15.2897 172.0833 0.0000 -3.2330 0.0000
# 4 0.0000 0.0000 0.0000 23.7139 0.0000 4.2021
# 5 -18.8372 14.3408 -3.2330 0.0000 61.1289 0.0000
# 6 0.0000 0.0000 0.0000 4.2021 0.0000 75.4807
#
#
#
# Elastic Compliance Matrix: (Units=1/GPa)
#
#
# Indices 1 2 3 4 5 6 
#
# 1 0.022231 -0.013211 -0.006144 0.000000 0.009625 0.000000
# 2 -0.013211 0.018205 0.002684 0.000000 -0.008200 0.000000
# 3 -0.006144 0.002684 0.007605 0.000000 -0.002121 0.000000
# 4 0.000000 0.000000 0.000000 0.042589 0.000000 -0.002371
# 5 0.009625 -0.008200 -0.002121 0.000000 0.021136 0.000000
# 6 0.000000 0.000000 0.000000 -0.002371 0.000000 0.013380
#
#
# Mechanical properties :
#
#
# Convention : Reuss Voigt Hill
#
# Bulk Modulus (GPa) = 68.02528 71.17890 69.60209
# Shear Modulus (GPa) = 30.60209 48.44581 39.52395
#
# Velocity S-wave (km/s) = 3.63769 4.57698 4.13410
# Velocity P-wave (km/s) = 6.85995 7.66228 7.27219
#
# Compressibility (1/GPa) = 0.01470042
#
# Stress axis : x y z
#
# Youngs Moduli (GPa) = 44.98292 54.92952 131.49278
#
# Poissons Ratio (x) = 0.72567 0.80784
# Poissons Ratio (y) = 0.59427 -0.35297
# Poissons Ratio (z) = 0.27636 -0.14745
#
# Static dielectric constant tensor:
#      x y z
#    x 2.040470 0.000000 0.036210 
#    y 0.000000 2.043390 0.000000 
#    z 0.036210 0.000000 1.818760 
# 
# From -- ./inp_files/12959.got.cif
#   From: 2010.05.17/outbox.cif.g08.bks.cpg/sg13_7_cif.got.tgz:12959.got - 2010.06.03 16:44:36.
