data_PCOD9232029
_publ_section_title
;
Structure prediction by ZEFSAII (Michael W. Deem and Ramdas Pophale) SiO2 
 PCOD9232029
Probable space group: P 2/C
;
_chemical_formula_sum "Si O2"
_cell_formula_units_Z 26
_cell_length_a 32.098558
_cell_length_b 5.262445
_cell_length_c 14.199282
_cell_angle_alpha 90.000000
_cell_angle_beta 153.701989
_cell_angle_gamma 90.000000
_cell_volume 1062.631005
_symmetry_space_group_name_H-M "P 2/C"
_symmetry_group_IT_number 13
_symmetry_cell_setting 'monoclinic'
loop_
_space_group_symop_operation_xyz
x,y,z
-x,y,1/2-z
-x,-y,-z
x,-y,1/2+z
loop_
_atom_site_type_symbol
_atom_site_label
_atom_site_fract_x
_atom_site_fract_y
_atom_site_fract_z
Si Si1 0.611554 0.601339 0.618083
Si Si2 0.448565 0.198730 0.326253
Si Si3 0.032991 0.870173 0.714271
Si Si4 0.500000 0.954919 0.250000
Si Si5 0.137854 0.283191 0.735827
Si Si6 0.133565 0.213628 0.120717
Si Si7 0.187096 0.533345 0.531973
O O1 0.526076 0.410655 0.461061
O O2 0.631846 0.700841 0.766116
O O3 0.569771 0.802541 0.459802
O O4 0.702866 0.483156 0.757217
O O5 0.500000 0.000000 0.500000
O O6 0.432122 0.093115 0.188682
O O7 0.973966 0.745018 0.510158
O O8 0.000000 0.768505 0.750000
O O9 0.978653 0.144737 0.606010
O O10 0.133984 0.736938 0.914853
O O11 0.162746 0.557512 0.746600
O O12 0.175210 0.049698 0.747154
O O13 0.160249 0.281874 0.890433
O O14 0.163659 0.308702 0.078781
#
# Coordination Sequence:
#
# PCOD9232029 Si02
#       7
#     4   4   4   2   4   4   4
#     4  10  23  43  74 107 146 188 250 308 368 463
#     4   9  20  45  66 103 144 188 230 296 387 448
#     4  10  23  45  71  96 153 196 246 303 378 429
#     4  10  20  44  74 102 144 204 224 300 408 442
#     4  10  25  45  72 102 146 204 243 310 381 434
#     4  10  25  46  67 104 148 199 248 311 373 441
#     4  12  24  48  73 113 142 201 264 315 364 456
#
# _framework density 24.467573999999999
#
# number of rings (size 3 to 8) (size 9 to 14) (size 15 to 20)
#    0.923    0.923    1.538    0.923    2.154    4.308 
#   27.692    0.000    0.000    0.000    0.000    0.000 
#    0.000    0.000    0.000    0.000    0.000    0.000 
#
# Total GULP energy -144925.748577 kJ/mol
# GULP energy per Si atom -5574.067253 kJ/mol
# Density = 2.441188 g / cm^3
# Si number density = 24.467574 Si / 1000 Ang^3
#
#
#
# Elastic Constant Matrix: (Units=GPa)
#
#
# Indices 1 2 3 4 5 6 
#
# 1 204.4799 68.7354 47.4960 0.0000 -23.4089 0.0000
# 2 68.7354 131.5884 13.1929 0.0000 -7.5523 0.0000
# 3 47.4960 13.1929 47.0046 0.0000 3.6644 0.0000
# 4 0.0000 0.0000 0.0000 11.9467 0.0000 -9.6033
# 5 -23.4089 -7.5523 3.6644 0.0000 43.7089 0.0000
# 6 0.0000 0.0000 0.0000 -9.6033 0.0000 20.5839
#
#
#
# Elastic Compliance Matrix: (Units=1/GPa)
#
#
# Indices 1 2 3 4 5 6 
#
# 1 0.008353 -0.003313 -0.007866 0.000000 0.004561 0.000000
# 2 -0.003313 0.009239 0.000774 0.000000 -0.000243 0.000000
# 3 -0.007866 0.000774 0.029517 0.000000 -0.006554 0.000000
# 4 0.000000 0.000000 0.000000 0.133935 0.000000 0.062487
# 5 0.004561 -0.000243 -0.006554 0.000000 0.025829 0.000000
# 6 0.000000 0.000000 0.000000 0.062487 0.000000 0.077735
#
#
# Mechanical properties :
#
#
# Convention : Reuss Voigt Hill
#
# Bulk Modulus (GPa) = 38.02683 71.32462 54.67573
# Shear Modulus (GPa) = 15.91418 32.15779 24.03598
#
# Velocity S-wave (km/s) = 2.55310 3.62926 3.13766
# Velocity P-wave (km/s) = 4.92611 6.83930 5.95997
#
# Compressibility (1/GPa) = 0.02629722
#
# Stress axis : x y z
#
# Youngs Moduli (GPa) = 119.71109 108.24264 33.87868
#
# Poissons Ratio (x) = 0.35861 0.26651
# Poissons Ratio (y) = 0.39660 -0.02621
# Poissons Ratio (z) = 0.94171 -0.08373
#
# Static dielectric constant tensor:
#      x y z
#    x 1.999130 0.000000 -0.056600 
#    y 0.000000 2.055850 0.000000 
#    z -0.056600 0.000000 2.088840 
# 
# From -- ./inp_files/59786.got.cif
#   From: 2010.05.17/outbox.cif.g08.bks.cpg/sg13_30_cif.got.tgz:59786.got - 2010.06.03 16:44:36.
