data_PCOD9232386
_publ_section_title
;
Structure prediction by ZEFSAII (Michael W. Deem and Ramdas Pophale) SiO2 
 PCOD9232386
Probable space group: P 2/C
;
_chemical_formula_sum "Si O2"
_cell_formula_units_Z 28
_cell_length_a 8.833896
_cell_length_b 16.148602
_cell_length_c 19.488207
_cell_angle_alpha 90.000000
_cell_angle_beta 26.902292
_cell_angle_gamma 90.000000
_cell_volume 1257.909088
_symmetry_space_group_name_H-M "P 2/C"
_symmetry_group_IT_number 13
_symmetry_cell_setting 'monoclinic'
loop_
_space_group_symop_operation_xyz
x,y,z
-x,y,1/2-z
-x,-y,-z
x,-y,1/2+z
loop_
_atom_site_type_symbol
_atom_site_label
_atom_site_fract_x
_atom_site_fract_y
_atom_site_fract_z
Si Si1 0.428231 0.176567 0.859055
Si Si2 0.710597 0.389841 0.039689
Si Si3 0.791818 0.526466 0.263921
Si Si4 0.557568 0.003853 0.806922
Si Si5 0.306045 0.931483 0.034589
Si Si6 0.868854 0.754838 0.373208
Si Si7 0.263597 0.648912 0.415066
O O1 0.500000 0.163590 0.750000
O O2 0.204726 0.256615 0.963071
O O3 0.785534 0.209163 0.738709
O O4 0.331936 0.084508 0.920552
O O5 0.713279 0.306292 0.992321
O O6 0.946155 0.450049 0.900079
O O7 0.907498 0.382043 0.031638
O O8 0.360165 0.435599 0.185997
O O9 0.483628 0.592240 0.377182
O O10 0.000000 0.529128 0.250000
O O11 0.500000 0.986485 0.750000
O O12 0.458229 0.929573 0.896651
O O13 0.926494 0.036511 0.677587
O O14 0.332242 0.840265 0.057528
O O15 0.500000 0.000000 0.000000
O O16 0.000000 0.712944 0.250000
O O17 0.500000 0.653671 0.250000
#
# Coordination Sequence:
#
# PCOD9232386 Si02
#       7
#     4   4   4   4   4   4   4
#     4   9  15  32  58  87 113 149 210 252 288 365
#     4  11  22  39  62  89 120 163 208 264 312 372
#     4  11  22  37  59  88 123 156 206 259 315 370
#     4  10  21  36  63  93 124 167 211 262 321 376
#     4  11  22  40  61  95 129 166 213 265 321 387
#     4  11  21  36  63  90 119 163 217 255 308 381
#     4   9  17  34  59  88 117 154 207 257 304 362
#
# _framework density 22.259159
#
# number of rings (size 3 to 8) (size 9 to 14) (size 15 to 20)
#    0.000    1.714    4.286    3.857    0.000    0.000 
#    0.000    1.429    3.143    2.571    0.000    0.000 
#    0.000    0.000    0.000    0.000    0.000    0.000 
#
# Total GULP energy -156120.023635 kJ/mol
# GULP energy per Si atom -5575.715130 kJ/mol
# Density = 2.220850 g / cm^3
# Si number density = 22.259159 Si / 1000 Ang^3
#
#
#
# Elastic Constant Matrix: (Units=GPa)
#
#
# Indices 1 2 3 4 5 6 
#
# 1 105.7217 34.4777 6.7923 0.0000 -16.1896 0.0000
# 2 34.4777 102.0440 20.3146 0.0000 -3.0133 0.0000
# 3 6.7923 20.3146 26.9875 0.0000 -5.2246 0.0000
# 4 0.0000 0.0000 0.0000 23.5404 0.0000 6.8459
# 5 -16.1896 -3.0133 -5.2246 0.0000 21.0566 0.0000
# 6 0.0000 0.0000 0.0000 6.8459 0.0000 19.2649
#
#
#
# Elastic Compliance Matrix: (Units=1/GPa)
#
#
# Indices 1 2 3 4 5 6 
#
# 1 0.012112 -0.004197 0.001888 0.000000 0.009180 0.000000
# 2 -0.004197 0.012987 -0.009438 0.000000 -0.003710 0.000000
# 3 0.001888 -0.009438 0.045908 0.000000 0.011492 0.000000
# 4 0.000000 0.000000 0.000000 0.047376 0.000000 -0.016835
# 5 0.009180 -0.003710 0.011492 0.000000 0.056870 0.000000
# 6 0.000000 0.000000 0.000000 -0.016835 0.000000 0.057890
#
#
# Mechanical properties :
#
#
# Convention : Reuss Voigt Hill
#
# Bulk Modulus (GPa) = 21.04655 39.76916 30.40785
# Shear Modulus (GPa) = 18.35029 24.31694 21.33362
#
# Velocity S-wave (km/s) = 2.87434 3.30880 3.09919
# Velocity P-wave (km/s) = 4.52676 5.70112 5.14754
#
# Compressibility (1/GPa) = 0.04751372
#
# Stress axis : x y z
#
# Youngs Moduli (GPa) = 82.56229 76.99957 21.78265
#
# Poissons Ratio (x) = 0.32318 -0.04113
# Poissons Ratio (y) = 0.34652 0.20558
# Poissons Ratio (z) = -0.15590 0.72671
#
# Static dielectric constant tensor:
#      x y z
#    x 2.051740 0.000000 0.130250 
#    y 0.000000 1.932670 0.000000 
#    z 0.130250 0.000000 1.937900 
# 
# From -- ./inp_files/76706.got.cif
#   From: 2010.05.17/outbox.cif.g08.bks.cpg/sg13_39_cif.got.tgz:76706.got - 2010.06.03 16:44:36.
