data_PCOD9232479
_publ_section_title
;
Structure prediction by ZEFSAII (Michael W. Deem and Ramdas Pophale) SiO2 
 PCOD9232479
Probable space group: P 2/C
;
_chemical_formula_sum "Si O2"
_cell_formula_units_Z 22
_cell_length_a 6.226318
_cell_length_b 6.098294
_cell_length_c 26.573048
_cell_angle_alpha 90.000000
_cell_angle_beta 90.271417
_cell_angle_gamma 90.000000
_cell_volume 1008.965125
_symmetry_space_group_name_H-M "P 2/C"
_symmetry_group_IT_number 13
_symmetry_cell_setting 'monoclinic'
loop_
_space_group_symop_operation_xyz
x,y,z
-x,y,1/2-z
-x,-y,-z
x,-y,1/2+z
loop_
_atom_site_type_symbol
_atom_site_label
_atom_site_fract_x
_atom_site_fract_y
_atom_site_fract_z
Si Si1 0.566666 0.603187 0.841519
Si Si2 0.500000 0.681958 0.250000
Si Si3 0.844998 0.017800 0.292500
Si Si4 0.641037 0.191523 0.976463
Si Si5 0.087383 0.743820 0.114779
Si Si6 0.704496 0.534835 0.567866
O O1 0.445370 0.470486 0.797516
O O2 0.744401 0.435402 0.863615
O O3 0.409039 0.665329 0.886730
O O4 0.686929 0.805140 0.816429
O O5 0.699257 0.833683 0.265501
O O6 0.967999 0.903178 0.339143
O O7 0.000000 0.113091 0.250000
O O8 0.794677 0.127782 0.930559
O O9 0.474208 0.369048 0.954140
O O10 0.769458 0.307809 0.022125
O O11 0.500000 0.000000 0.000000
O O12 0.892340 0.610362 0.091066
#
# Coordination Sequence:
#
# PCOD9232479 Si02
#       6
#     4   2   4   4   4   4
#     4  10  22  38  58  85 117 153 195 243 295 352
#     4  10  22  40  58  82 118 152 192 244 296 350
#     4  11  23  38  60  87 115 155 201 243 297 358
#     4  10  21  37  59  86 116 153 197 242 293 354
#     4  10  22  38  58  87 119 153 197 244 295 354
#     4  10  21  38  58  83 118 154 192 243 297 350
#
# _framework density 21.804518000000002
#
# number of rings (size 3 to 8) (size 9 to 14) (size 15 to 20)
#    0.000    1.818    0.000    3.273    0.000    8.000 
#    0.000    0.000    0.000    0.000    0.000    0.000 
#    0.000    0.000    0.000    0.000    0.000    0.000 
#
# Total GULP energy -123022.203864 kJ/mol
# GULP energy per Si atom -5591.918357 kJ/mol
# Density = 2.175489 g / cm^3
# Si number density = 21.804518 Si / 1000 Ang^3
#
#
#
# Elastic Constant Matrix: (Units=GPa)
#
#
# Indices 1 2 3 4 5 6 
#
# 1 50.9592 11.5987 54.4541 0.0000 -2.8844 0.0000
# 2 11.5987 62.4423 50.7811 0.0000 1.0127 0.0000
# 3 54.4541 50.7811 170.7240 0.0000 -9.7947 0.0000
# 4 0.0000 0.0000 0.0000 10.8623 0.0000 -14.2981
# 5 -2.8844 1.0127 -9.7947 0.0000 28.5901 0.0000
# 6 0.0000 0.0000 0.0000 -14.2981 0.0000 22.8062
#
#
#
# Elastic Compliance Matrix: (Units=1/GPa)
#
#
# Indices 1 2 3 4 5 6 
#
# 1 0.030184 0.002988 -0.010555 0.000000 -0.000677 0.000000
# 2 0.002988 0.021669 -0.007574 0.000000 -0.003061 0.000000
# 3 -0.010555 -0.007574 0.011660 0.000000 0.003198 0.000000
# 4 0.000000 0.000000 0.000000 0.526803 0.000000 0.330273
# 5 -0.000677 -0.003061 0.003198 0.000000 0.036113 0.000000
# 6 0.000000 0.000000 0.000000 0.330273 0.000000 0.250909
#
#
# Mechanical properties :
#
#
# Convention : Reuss Voigt Hill
#
# Bulk Modulus (GPa) = 30.09189 57.53260 43.81224
# Shear Modulus (GPa) = 5.44249 23.60448 14.52348
#
# Velocity S-wave (km/s) = 1.58160 3.29378 2.58365
# Velocity P-wave (km/s) = 4.14319 6.39596 5.38861
#
# Compressibility (1/GPa) = 0.03323154
#
# Stress axis : x y z
#
# Youngs Moduli (GPa) = 33.12991 46.14892 85.75992
#
# Poissons Ratio (x) = -0.13790 0.90521
# Poissons Ratio (y) = -0.09900 0.64955
# Poissons Ratio (z) = 0.34969 0.34954
#
# Static dielectric constant tensor:
#      x y z
#    x 1.773420 0.000000 -0.010860 
#    y 0.000000 1.765660 0.000000 
#    z -0.010860 0.000000 1.818120 
# 
# From -- ./inp_files/94613.got.cif
#   From: 2010.05.17/outbox.cif.g08.bks.cpg/sg13_48_cif.got.tgz:94613.got - 2010.06.03 16:44:36.
