data_PCOD9232920
_publ_section_title
;
Structure prediction by ZEFSAII (Michael W. Deem and Ramdas Pophale) SiO2 
 PCOD9232920
Probable space group: P 2/C
;
_chemical_formula_sum "Si O2"
_cell_formula_units_Z 30
_cell_length_a 10.499229
_cell_length_b 9.045138
_cell_length_c 28.367485
_cell_angle_alpha 90.000000
_cell_angle_beta 148.305079
_cell_angle_gamma 90.000000
_cell_volume 1415.403908
_symmetry_space_group_name_H-M "P 2/C"
_symmetry_group_IT_number 13
_symmetry_cell_setting 'monoclinic'
loop_
_space_group_symop_operation_xyz
x,y,z
-x,y,1/2-z
-x,-y,-z
x,-y,1/2+z
loop_
_atom_site_type_symbol
_atom_site_label
_atom_site_fract_x
_atom_site_fract_y
_atom_site_fract_z
Si Si1 0.169753 0.396317 0.941591
Si Si2 0.308516 0.611921 0.912639
Si Si3 0.977706 0.062207 0.611287
Si Si4 0.390153 0.193640 0.530861
Si Si5 0.778344 0.068842 0.399584
Si Si6 0.300431 0.034819 0.802599
Si Si7 0.014656 0.380684 0.046445
Si Si8 0.000000 0.789928 0.750000
O O1 0.203643 0.459373 0.899737
O O2 0.985432 0.509367 0.908692
O O3 0.084455 0.230199 0.920850
O O4 0.456265 0.405123 0.046927
O O5 0.085021 0.692599 0.819552
O O6 0.393311 0.710633 0.984250
O O7 0.083558 0.063465 0.697445
O O8 0.177403 0.992993 0.638976
O O9 0.745503 0.957489 0.528357
O O10 0.629345 0.155045 0.635722
O O11 0.221190 0.281768 0.514960
O O12 0.793386 0.248718 0.402636
O O13 0.537654 0.005554 0.347235
O O14 0.000000 0.000000 0.500000
O O15 0.223550 0.891529 0.807122
O O16 0.000000 0.500000 0.000000
#
# Coordination Sequence:
#
# PCOD9232920 Si02
#       8
#     4   4   4   4   4   4   4   2
#     4  10  23  42  68  94 137 175 213 276 332 393
#     4  10  23  46  64  96 135 183 217 270 336 398
#     4  11  22  42  69  98 133 166 225 277 325 394
#     4  10  22  43  69  95 133 172 227 270 324 395
#     4  11  22  43  70  96 132 174 222 277 327 393
#     4  12  25  41  70 102 127 175 223 284 327 383
#     4  10  21  38  69  98 126 172 217 262 340 398
#     4  12  26  40  70 100 130 178 224 274 336 398
#
# _framework density 21.195363
#
# number of rings (size 3 to 8) (size 9 to 14) (size 15 to 20)
#    0.000    1.333    4.000    2.000    3.733    1.067 
#    7.200    0.000    2.933    0.000    0.000    0.000 
#    0.000    0.000    0.000    0.000    0.000    0.000 
#
# Total GULP energy -167241.126748 kJ/mol
# GULP energy per Si atom -5574.704225 kJ/mol
# Density = 2.114712 g / cm^3
# Si number density = 21.195363 Si / 1000 Ang^3
#
#
#
# Elastic Constant Matrix: (Units=GPa)
#
#
# Indices 1 2 3 4 5 6 
#
# 1 53.5254 16.4821 11.6187 0.0000 -10.4740 0.0000
# 2 16.4821 134.0808 14.7338 0.0000 -13.6608 0.0000
# 3 11.6187 14.7338 62.7209 0.0000 -24.5398 0.0000
# 4 0.0000 0.0000 0.0000 62.4672 0.0000 -21.3351
# 5 -10.4740 -13.6608 -24.5398 0.0000 21.9395 0.0000
# 6 0.0000 0.0000 0.0000 -21.3351 0.0000 41.7965
#
#
#
# Elastic Compliance Matrix: (Units=1/GPa)
#
#
# Indices 1 2 3 4 5 6 
#
# 1 0.020949 -0.001661 0.000032 0.000000 0.009002 0.000000
# 2 -0.001661 0.008096 0.000121 0.000000 0.004383 0.000000
# 3 0.000032 0.000121 0.028352 0.000000 0.031803 0.000000
# 4 0.000000 0.000000 0.000000 0.019389 0.000000 0.009897
# 5 0.009002 0.004383 0.031803 0.000000 0.088179 0.000000
# 6 0.000000 0.000000 0.000000 0.009897 0.000000 0.028977
#
#
# Mechanical properties :
#
#
# Convention : Reuss Voigt Hill
#
# Bulk Modulus (GPa) = 18.38941 37.33292 27.86117
# Shear Modulus (GPa) = 23.24647 39.07347 31.15997
#
# Velocity S-wave (km/s) = 3.31535 4.29825 3.83839
# Velocity P-wave (km/s) = 4.83222 6.50271 5.72868
#
# Compressibility (1/GPa) = 0.05437911
#
# Stress axis : x y z
#
# Youngs Moduli (GPa) = 47.73492 123.52242 35.27029
#
# Poissons Ratio (x) = 0.20523 -0.00112
# Poissons Ratio (y) = 0.07931 -0.00426
# Poissons Ratio (z) = -0.00151 -0.01492
#
# Static dielectric constant tensor:
#      x y z
#    x 1.836240 0.000000 -0.002910 
#    y 0.000000 1.778600 0.000000 
#    z -0.002910 0.000000 1.799870 
# 
# From -- ./inp_files/96645.got.cif
#   From: 2010.05.17/outbox.cif.g08.bks.cpg/sg13_49_cif.got.tgz:96645.got - 2010.06.03 16:44:36.
