data_PCOD9232228
_publ_section_title
;
Structure prediction by ZEFSAII (Michael W. Deem and Ramdas Pophale) SiO2 
 PCOD9232228
Probable space group: P 2/C
;
_chemical_formula_sum "Si O2"
_cell_formula_units_Z 24
_cell_length_a 5.235852
_cell_length_b 27.172632
_cell_length_c 8.000609
_cell_angle_alpha 90.000000
_cell_angle_beta 57.702917
_cell_angle_gamma 90.000000
_cell_volume 962.160119
_symmetry_space_group_name_H-M "P 2/C"
_symmetry_group_IT_number 13
_symmetry_cell_setting 'monoclinic'
loop_
_space_group_symop_operation_xyz
x,y,z
-x,y,1/2-z
-x,-y,-z
x,-y,1/2+z
loop_
_atom_site_type_symbol
_atom_site_label
_atom_site_fract_x
_atom_site_fract_y
_atom_site_fract_z
Si Si1 0.638623 0.239100 0.023371
Si Si2 0.638336 0.550211 0.384353
Si Si3 0.636961 0.656525 0.387878
Si Si4 0.130420 0.093145 0.519692
Si Si5 0.140788 0.195450 0.015604
Si Si6 0.366683 0.051367 0.982544
O O1 0.500000 0.223989 0.250000
O O2 0.493020 0.203621 0.934105
O O3 0.993624 0.234867 0.939828
O O4 0.541118 0.294549 0.017902
O O5 0.500000 0.555044 0.250000
O O6 0.500000 0.500000 0.500000
O O7 0.558848 0.603131 0.494742
O O8 0.000000 0.545682 0.250000
O O9 0.500000 0.659464 0.250000
O O10 0.000000 0.657330 0.250000
O O11 0.983652 0.144104 0.511330
O O12 0.989759 0.054978 0.434151
O O13 0.000000 0.082023 0.750000
O O14 0.486962 0.090371 0.437485
O O15 0.000000 0.202035 0.250000
O O16 0.500000 0.939514 0.250000
O O17 0.500000 0.000000 0.000000
#
# Coordination Sequence:
#
# PCOD9232228 Si02
#       6
#     4   4   4   4   4   4
#     4  10  21  37  55  80 111 144 184 229 276 331
#     4  10  21  38  59  86 119 155 198 247 298 355
#     4  10  21  37  57  83 114 148 190 237 284 339
#     4  10  21  36  53  77 106 136 173 218 266 320
#     4  10  21  36  55  79 108 141 180 223 269 326
#     4  10  21  36  54  77 104 134 172 216 263 319
#
# _framework density 24.943874000000001
#
# number of rings (size 3 to 8) (size 9 to 14) (size 15 to 20)
#    0.000    2.000    0.000    3.000    0.000    4.000 
#    0.000    2.500    0.000    0.000    0.000    0.000 
#    0.000    0.000    0.000    0.000    0.000    0.000 
#
# Total GULP energy -134112.592308 kJ/mol
# GULP energy per Si atom -5588.024680 kJ/mol
# Density = 2.488710 g / cm^3
# Si number density = 24.943874 Si / 1000 Ang^3
#
#
#
# Elastic Constant Matrix: (Units=GPa)
#
#
# Indices 1 2 3 4 5 6 
#
# 1 241.1633 61.5278 45.8875 0.0000 33.8858 0.0000
# 2 61.5278 174.7634 5.6520 0.0000 32.6768 0.0000
# 3 45.8875 5.6520 58.2654 0.0000 24.4309 0.0000
# 4 0.0000 0.0000 0.0000 9.7766 0.0000 -7.1805
# 5 33.8858 32.6768 24.4309 0.0000 47.4953 0.0000
# 6 0.0000 0.0000 0.0000 -7.1805 0.0000 35.7097
#
#
#
# Elastic Compliance Matrix: (Units=1/GPa)
#
#
# Indices 1 2 3 4 5 6 
#
# 1 0.005387 -0.001627 -0.003752 0.000000 -0.000794 0.000000
# 2 -0.001627 0.007178 0.002765 0.000000 -0.005200 0.000000
# 3 -0.003752 0.002765 0.024894 0.000000 -0.012031 0.000000
# 4 0.000000 0.000000 0.000000 0.120008 0.000000 0.024131
# 5 -0.000794 -0.005200 -0.012031 0.000000 0.031388 0.000000
# 6 0.000000 0.000000 0.000000 0.024131 0.000000 0.032856
#
#
# Mechanical properties :
#
#
# Convention : Reuss Voigt Hill
#
# Bulk Modulus (GPa) = 31.02493 77.81408 54.41950
# Shear Modulus (GPa) = 21.03664 42.67133 31.85398
#
# Velocity S-wave (km/s) = 2.90721 4.14054 3.57743
# Velocity P-wave (km/s) = 4.87177 7.35678 6.23924
#
# Compressibility (1/GPa) = 0.03223214
#
# Stress axis : x y z
#
# Youngs Moduli (GPa) = 185.62926 139.32272 40.17048
#
# Poissons Ratio (x) = 0.22664 0.15071
# Poissons Ratio (y) = 0.30197 -0.11108
# Poissons Ratio (z) = 0.69643 -0.38526
#
# Static dielectric constant tensor:
#      x y z
#    x 2.060030 0.000000 -0.103660 
#    y 0.000000 2.047330 0.000000 
#    z -0.103660 0.000000 2.056940 
# 
# From -- ./inp_files/10219.got.cif
#   From: 2010.05.17/outbox.cif.g08.bks.cpg/sg13_6_cif.got.tgz:10219.got - 2010.06.03 16:44:36.
