data_PCOD9232864
_publ_section_title
;
Structure prediction by ZEFSAII (Michael W. Deem and Ramdas Pophale) SiO2 
 PCOD9232864
Probable space group: P 2/C
;
_chemical_formula_sum "Si O2"
_cell_formula_units_Z 32
_cell_length_a 14.493301
_cell_length_b 17.392338
_cell_length_c 11.551576
_cell_angle_alpha 90.000000
_cell_angle_beta 147.973826
_cell_angle_gamma 90.000000
_cell_volume 1544.164500
_symmetry_space_group_name_H-M "P 2/C"
_symmetry_group_IT_number 13
_symmetry_cell_setting 'monoclinic'
loop_
_space_group_symop_operation_xyz
x,y,z
-x,y,1/2-z
-x,-y,-z
x,-y,1/2+z
loop_
_atom_site_type_symbol
_atom_site_label
_atom_site_fract_x
_atom_site_fract_y
_atom_site_fract_z
Si Si1 0.805618 0.410564 0.561089
Si Si2 0.200514 0.977736 0.716544
Si Si3 0.802046 0.788115 0.538171
Si Si4 0.754267 0.205642 0.241806
Si Si5 0.306437 0.042092 0.579229
Si Si6 0.085003 0.758061 0.231681
Si Si7 0.477866 0.426533 0.055172
Si Si8 0.388825 0.745540 0.397798
O O1 0.848282 0.323738 0.648333
O O2 0.671161 0.408629 0.311316
O O3 0.676052 0.447359 0.517546
O O4 0.000000 0.445193 0.750000
O O5 0.214405 0.885386 0.728316
O O6 0.292466 0.006456 0.694200
O O7 0.258146 0.003573 0.908748
O O8 0.000000 0.000000 0.500000
O O9 0.722589 0.767181 0.577302
O O10 0.806355 0.880719 0.534316
O O11 0.688941 0.761372 0.310697
O O12 0.000000 0.759227 0.750000
O O13 0.924166 0.247024 0.472660
O O14 0.578928 0.221345 0.123852
O O15 0.500000 0.068228 0.750000
O O16 0.252213 0.785528 0.340033
O O17 0.000000 0.802448 0.250000
O O18 0.500000 0.500000 0.000000
O O19 0.408969 0.346224 0.930720
#
# Coordination Sequence:
#
# PCOD9232864 Si02
#       8
#     4   4   4   4   4   4   4   4
#     4   9  19  40  66  90 126 171 209 253 321 379
#     4  11  24  43  64  92 128 172 213 273 333 391
#     4  11  21  41  65  91 126 166 209 265 324 380
#     4  11  23  42  63  97 126 167 215 267 323 382
#     4  11  23  42  65  89 127 169 216 267 328 396
#     4  10  21  38  64  93 124 165 212 261 314 378
#     4  10  22  41  64  95 130 165 211 263 319 382
#     4  11  22  40  68  92 126 168 211 264 322 385
#
# _framework density 20.723179999999999
#
# number of rings (size 3 to 8) (size 9 to 14) (size 15 to 20)
#    0.000    1.500    1.250    5.625    0.000    3.000 
#    6.750    0.625    0.000    0.000    0.000    0.000 
#    0.000    0.000    0.000    0.000    0.000    0.000 
#
# Total GULP energy -178263.597113 kJ/mol
# GULP energy per Si atom -5570.737410 kJ/mol
# Density = 2.067601 g / cm^3
# Si number density = 20.723180 Si / 1000 Ang^3
#
#
#
# Elastic Constant Matrix: (Units=GPa)
#
#
# Indices 1 2 3 4 5 6 
#
# 1 128.4691 27.7256 55.7429 0.0000 8.4952 0.0000
# 2 27.7256 43.5172 28.8550 0.0000 -5.9322 0.0000
# 3 55.7429 28.8550 109.4011 0.0000 19.7603 0.0000
# 4 0.0000 0.0000 0.0000 265.3054 0.0000 -27.1246
# 5 8.4952 -5.9322 19.7603 0.0000 53.3531 0.0000
# 6 0.0000 0.0000 0.0000 -27.1246 0.0000 27.0020
#
#
#
# Elastic Compliance Matrix: (Units=1/GPa)
#
#
# Indices 1 2 3 4 5 6 
#
# 1 0.010503 -0.003983 -0.004200 0.000000 -0.000560 0.000000
# 2 -0.003983 0.031440 -0.007511 0.000000 0.006912 0.000000
# 3 -0.004200 -0.007511 0.014245 0.000000 -0.005442 0.000000
# 4 0.000000 0.000000 0.000000 0.004201 0.000000 0.004220
# 5 -0.000560 0.006912 -0.005442 0.000000 0.021616 0.000000
# 6 0.000000 0.000000 0.000000 0.004220 0.000000 0.041273
#
#
# Mechanical properties :
#
#
# Convention : Reuss Voigt Hill
#
# Bulk Modulus (GPa) = 40.32427 56.22604 48.27516
# Shear Modulus (GPa) = 30.68749 80.40303 55.54526
#
# Velocity S-wave (km/s) = 3.85233 6.23561 5.18282
# Velocity P-wave (km/s) = 6.26802 8.89014 7.69164
#
# Compressibility (1/GPa) = 0.02479896
#
# Stress axis : x y z
#
# Youngs Moduli (GPa) = 95.21148 31.80671 70.20120
#
# Poissons Ratio (x) = 0.12669 0.29484
# Poissons Ratio (y) = 0.37924 0.52731
# Poissons Ratio (z) = 0.39988 0.23891
#
# Static dielectric constant tensor:
#      x y z
#    x 1.848060 0.000000 -0.017020 
#    y 0.000000 1.718790 0.000000 
#    z -0.017020 0.000000 1.769950 
# 
# From -- ./inp_files/37715.got.cif
#   From: 2010.05.17/outbox.cif.g08.bks.cpg/sg13_19_cif.got.tgz:37715.got - 2010.06.03 16:44:36.
