data_PCOD9232107
_publ_section_title
;
Structure prediction by ZEFSAII (Michael W. Deem and Ramdas Pophale) SiO2 
 PCOD9232107
Probable space group: P 2/C
;
_chemical_formula_sum "Si O2"
_cell_formula_units_Z 30
_cell_length_a 23.595318
_cell_length_b 6.385900
_cell_length_c 7.670020
_cell_angle_alpha 90.000000
_cell_angle_beta 88.879201
_cell_angle_gamma 90.000000
_cell_volume 1155.477109
_symmetry_space_group_name_H-M "P 2/C"
_symmetry_group_IT_number 13
_symmetry_cell_setting 'monoclinic'
loop_
_space_group_symop_operation_xyz
x,y,z
-x,y,1/2-z
-x,-y,-z
x,-y,1/2+z
loop_
_atom_site_type_symbol
_atom_site_label
_atom_site_fract_x
_atom_site_fract_y
_atom_site_fract_z
Si Si1 0.103291 0.804836 0.424429
Si Si2 0.987790 0.254867 0.044440
Si Si3 0.770640 0.844882 0.141753
Si Si4 0.667745 0.177126 0.192915
Si Si5 0.241951 0.425600 0.215926
Si Si6 0.877336 0.336463 0.180135
Si Si7 0.500000 0.856322 0.250000
Si Si8 0.414826 0.106567 0.011521
O O1 0.035827 0.862153 0.425499
O O2 0.162716 0.915473 0.365130
O O3 0.106208 0.582368 0.324678
O O4 0.111804 0.754604 0.628772
O O5 0.000000 0.237287 0.250000
O O6 0.919208 0.231240 0.036676
O O7 0.000000 0.500000 0.000000
O O8 0.765688 0.673687 0.295785
O O9 0.719900 0.009155 0.177152
O O10 0.760950 0.716629 0.959286
O O11 0.701161 0.391351 0.175694
O O12 0.634452 0.210386 0.375927
O O13 0.619102 0.087530 0.073121
O O14 0.189358 0.348824 0.335961
O O15 0.452016 0.753437 0.375698
O O16 0.460916 0.004990 0.135205
#
# Coordination Sequence:
#
# PCOD9232107 Si02
#       8
#     4   4   4   4   4   4   2   4
#     4   8  14  25  40  63  92 128 172 219 271 318
#     4   8  12  20  38  59  84 120 169 221 265 317
#     4  10  21  34  51  77 112 147 181 226 276 323
#     4  11  20  35  54  85 114 143 186 214 264 323
#     4  10  21  34  51  77 112 147 181 226 276 323
#     4   8  14  25  40  63  92 128 172 219 271 318
#     4   8  16  34  56  90 114 136 184 222 256 300
#     4   9  18  32  58  86 114 141 180 222 256 313
#
# _framework density 25.963298999999999
#
# number of rings (size 3 to 8) (size 9 to 14) (size 15 to 20)
#    0.000    2.933    1.333    0.000    1.867    0.000 
#    0.000    0.000    0.000    0.800    0.000   65.333 
#    0.000    0.000    0.000    0.000    0.000    0.133 
#
# Total GULP energy -167213.928909 kJ/mol
# GULP energy per Si atom -5573.797630 kJ/mol
# Density = 2.590421 g / cm^3
# Si number density = 25.963299 Si / 1000 Ang^3
#
#
#
# Elastic Constant Matrix: (Units=GPa)
#
#
# Indices 1 2 3 4 5 6 
#
# 1 206.2616 19.9163 68.9779 0.0000 -39.8501 0.0000
# 2 19.9163 33.0488 32.1024 0.0000 -12.5561 0.0000
# 3 68.9779 32.1024 93.5428 0.0000 -14.6549 0.0000
# 4 0.0000 0.0000 0.0000 22.9165 0.0000 4.4876
# 5 -39.8501 -12.5561 -14.6549 0.0000 60.0804 0.0000
# 6 0.0000 0.0000 0.0000 4.4876 0.0000 0.9375
#
#
#
# Elastic Compliance Matrix: (Units=1/GPa)
#
#
# Indices 1 2 3 4 5 6 
#
# 1 0.007241 0.002593 -0.005606 0.000000 0.003977 0.000000
# 2 0.002593 0.048432 -0.017341 0.000000 0.007612 0.000000
# 3 -0.005606 -0.017341 0.020405 0.000000 -0.002365 0.000000
# 4 0.000000 0.000000 0.000000 0.696704 0.000000 -3.334977
# 5 0.003977 0.007612 -0.002365 0.000000 0.020296 0.000000
# 6 0.000000 0.000000 0.000000 -3.334977 0.000000 17.030510
#
#
# Mechanical properties :
#
#
# Convention : Reuss Voigt Hill
#
# Bulk Modulus (GPa) = 28.27262 63.87184 46.07223
# Shear Modulus (GPa) = 0.27970 30.91065 15.59518
#
# Velocity S-wave (km/s) = 0.32858 3.45418 2.45350
# Velocity P-wave (km/s) = 3.32521 6.36889 5.08034
#
# Compressibility (1/GPa) = 0.03536991
#
# Stress axis : x y z
#
# Youngs Moduli (GPa) = 138.09995 20.64765 49.00786
#
# Poissons Ratio (x) = -0.05354 0.27476
# Poissons Ratio (y) = -0.35812 0.84983
# Poissons Ratio (z) = 0.77424 0.35804
#
# Static dielectric constant tensor:
#      x y z
#    x 2.052860 0.000000 -0.038710 
#    y 0.000000 2.125840 0.000000 
#    z -0.038710 0.000000 2.089970 
# 
# From -- ./inp_files/23872.got.cif
#   From: 2010.05.17/outbox.cif.g08.bks.cpg/sg13_12_cif.got.tgz:23872.got - 2010.06.03 16:44:36.
