data_PCOD9232496
_publ_section_title
;
Structure prediction by ZEFSAII (Michael W. Deem and Ramdas Pophale) SiO2 
 PCOD9232496
Probable space group: P 2/C
;
_chemical_formula_sum "Si O2"
_cell_formula_units_Z 24
_cell_length_a 20.644769
_cell_length_b 5.610314
_cell_length_c 20.060620
_cell_angle_alpha 90.000000
_cell_angle_beta 155.480456
_cell_angle_gamma 90.000000
_cell_volume 964.258388
_symmetry_space_group_name_H-M "P 2/C"
_symmetry_group_IT_number 13
_symmetry_cell_setting 'monoclinic'
loop_
_space_group_symop_operation_xyz
x,y,z
-x,y,1/2-z
-x,-y,-z
x,-y,1/2+z
loop_
_atom_site_type_symbol
_atom_site_label
_atom_site_fract_x
_atom_site_fract_y
_atom_site_fract_z
Si Si1 0.816859 0.360103 0.071597
Si Si2 0.377539 0.414613 0.986518
Si Si3 0.073749 0.518568 0.142739
Si Si4 0.048151 0.977856 0.968071
Si Si5 0.657328 0.310198 0.791944
Si Si6 0.400004 0.967349 0.603002
O O1 0.723563 0.487333 0.044127
O O2 0.000000 0.392734 0.250000
O O3 0.755890 0.442885 0.941843
O O4 0.762469 0.081016 0.025521
O O5 0.259846 0.451116 0.816024
O O6 0.550395 0.523431 0.145454
O O7 0.387732 0.143408 0.018550
O O8 0.041853 0.256107 0.143974
O O9 0.000578 0.762275 0.105353
O O10 0.000000 0.500000 0.000000
O O11 0.226526 0.886637 0.130272
O O12 0.000000 0.000000 0.000000
O O13 0.525083 0.173610 0.708460
O O14 0.500000 0.810750 0.750000
#
# Coordination Sequence:
#
# PCOD9232496 Si02
#       6
#     4   4   4   4   4   4
#     4  10  21  37  59  95 135 172 226 271 340 416
#     4  11  22  38  65  92 135 177 223 279 350 409
#     4  10  24  44  69  93 130 175 231 285 334 397
#     4  10  23  46  69  95 129 175 229 287 337 395
#     4  10  22  38  65  94 134 174 222 279 345 416
#     4   9  20  37  57  92 133 171 218 266 336 412
#
# _framework density 24.889592
#
# number of rings (size 3 to 8) (size 9 to 14) (size 15 to 20)
#    0.000    2.000    0.000    3.500    9.333    0.667 
#    3.000    6.667    0.000    0.000    0.000    0.000 
#    0.000    0.000    0.000    0.000    0.000    0.000 
#
# Total GULP energy -133767.836738 kJ/mol
# GULP energy per Si atom -5573.659864 kJ/mol
# Density = 2.483294 g / cm^3
# Si number density = 24.889592 Si / 1000 Ang^3
#
#
#
# Elastic Constant Matrix: (Units=GPa)
#
#
# Indices 1 2 3 4 5 6 
#
# 1 66.0573 3.7660 20.7642 0.0000 13.8285 0.0000
# 2 3.7660 124.2705 38.8308 0.0000 10.8020 0.0000
# 3 20.7642 38.8308 187.2053 0.0000 -0.5934 0.0000
# 4 0.0000 0.0000 0.0000 36.1355 0.0000 11.5540
# 5 13.8285 10.8020 -0.5934 0.0000 42.9328 0.0000
# 6 0.0000 0.0000 0.0000 11.5540 0.0000 30.1465
#
#
#
# Elastic Compliance Matrix: (Units=1/GPa)
#
#
# Indices 1 2 3 4 5 6 
#
# 1 0.016917 0.000608 -0.002020 0.000000 -0.005630 0.000000
# 2 0.000608 0.008837 -0.001908 0.000000 -0.002446 0.000000
# 3 -0.002020 -0.001908 0.005965 0.000000 0.001213 0.000000
# 4 0.000000 0.000000 0.000000 0.031538 0.000000 -0.012088
# 5 -0.005630 -0.002446 0.001213 0.000000 0.025738 0.000000
# 6 0.000000 0.000000 0.000000 -0.012088 0.000000 0.037804
#
#
# Mechanical properties :
#
#
# Convention : Reuss Voigt Hill
#
# Bulk Modulus (GPa) = 39.87404 56.02835 47.95119
# Shear Modulus (GPa) = 35.26056 42.78777 39.02416
#
# Velocity S-wave (km/s) = 3.76796 4.15070 3.96396
# Velocity P-wave (km/s) = 5.91483 6.74765 6.34492
#
# Compressibility (1/GPa) = 0.02507897
#
# Stress axis : x y z
#
# Youngs Moduli (GPa) = 59.11081 113.15533 167.63072
#
# Poissons Ratio (x) = -0.06880 0.33868
# Poissons Ratio (y) = -0.03594 0.31989
# Poissons Ratio (z) = 0.11943 0.21593
#
# Static dielectric constant tensor:
#      x y z
#    x 2.402680 0.000000 -0.324000 
#    y 0.000000 2.134960 0.000000 
#    z -0.324000 0.000000 2.218920 
# 
# From -- ./inp_files/88796.got.cif
#   From: 2010.05.17/outbox.cif.g08.bks.cpg/sg13_45_cif.got.tgz:88796.got - 2010.06.03 16:44:36.
