data_PCOD9232946
_publ_section_title
;
Structure prediction by ZEFSAII (Michael W. Deem and Ramdas Pophale) SiO2 
 PCOD9232946
Probable space group: P 2/C
;
_chemical_formula_sum "Si O2"
_cell_formula_units_Z 30
_cell_length_a 18.899558
_cell_length_b 12.091682
_cell_length_c 9.352105
_cell_angle_alpha 90.000000
_cell_angle_beta 129.367814
_cell_angle_gamma 90.000000
_cell_volume 1652.257765
_symmetry_space_group_name_H-M "P 2/C"
_symmetry_group_IT_number 13
_symmetry_cell_setting 'monoclinic'
loop_
_space_group_symop_operation_xyz
x,y,z
-x,y,1/2-z
-x,-y,-z
x,-y,1/2+z
loop_
_atom_site_type_symbol
_atom_site_label
_atom_site_fract_x
_atom_site_fract_y
_atom_site_fract_z
Si Si1 0.111976 0.899626 0.042250
Si Si2 0.303408 0.836501 0.240664
Si Si3 0.908732 0.870587 0.823436
Si Si4 0.500000 0.009990 0.250000
Si Si5 0.618781 0.918329 0.652168
Si Si6 0.417811 0.582214 0.028747
Si Si7 0.454159 0.666897 0.538599
Si Si8 0.268763 0.752008 0.877266
O O1 0.203928 0.829947 0.187216
O O2 0.117383 0.022447 0.115477
O O3 0.104738 0.904369 0.860361
O O4 0.016932 0.849248 0.978522
O O5 0.381226 0.759953 0.407329
O O6 0.330432 0.964131 0.284472
O O7 0.295887 0.806505 0.063934
O O8 0.840446 0.769455 0.769194
O O9 0.431606 0.083636 0.259129
O O10 0.546869 0.932100 0.429236
O O11 0.688215 0.823261 0.696710
O O12 0.500000 0.582642 0.250000
O O13 0.408041 0.455066 0.969599
O O14 0.461888 0.658935 0.963532
O O15 0.321056 0.635121 0.946710
O O16 0.500000 0.679159 0.750000
#
# Coordination Sequence:
#
# PCOD9232946 Si02
#       8
#     4   4   4   2   4   4   4   4
#     4   9  18  34  54  78 109 142 175 218 264 318
#     4  11  21  35  55  78 110 142 179 223 264 320
#     4   9  18  34  54  79 108 141 178 214 264 325
#     4  10  24  32  42  64 114 138 172 210 256 310
#     4  11  22  33  46  77 104 145 176 209 259 327
#     4  10  21  39  59  74 103 144 185 223 270 319
#     4  10  23  39  55  79 102 141 188 227 266 315
#     4  11  21  35  57  77 107 146 180 217 269 322
#
# _framework density 18.156972
#
# number of rings (size 3 to 8) (size 9 to 14) (size 15 to 20)
#    0.000    1.867    4.000    0.000    5.600    0.000 
#    2.400    0.000    0.000    0.800    0.000    0.000 
#    0.000    0.000    0.000    0.000    0.000    0.000 
#
# Total GULP energy -167345.887541 kJ/mol
# GULP energy per Si atom -5578.196251 kJ/mol
# Density = 1.811565 g / cm^3
# Si number density = 18.156972 Si / 1000 Ang^3
#
#
#
# Elastic Constant Matrix: (Units=GPa)
#
#
# Indices 1 2 3 4 5 6 
#
# 1 121.6224 44.8420 29.3590 0.0000 12.4043 0.0000
# 2 44.8420 60.7355 7.0632 0.0000 17.4922 0.0000
# 3 29.3590 7.0632 41.8615 0.0000 3.9615 0.0000
# 4 0.0000 0.0000 0.0000 27.6813 0.0000 -13.9951
# 5 12.4043 17.4922 3.9615 0.0000 29.8395 0.0000
# 6 0.0000 0.0000 0.0000 -13.9951 0.0000 30.9718
#
#
#
# Elastic Compliance Matrix: (Units=1/GPa)
#
#
# Indices 1 2 3 4 5 6 
#
# 1 0.013477 -0.009281 -0.007971 0.000000 0.000897 0.000000
# 2 -0.009281 0.026417 0.003193 0.000000 -0.012051 0.000000
# 3 -0.007971 0.003193 0.029170 0.000000 -0.002431 0.000000
# 4 0.000000 0.000000 0.000000 0.046822 0.000000 0.021157
# 5 0.000897 -0.012051 -0.002431 0.000000 0.040527 0.000000
# 6 0.000000 0.000000 0.000000 0.021157 0.000000 0.041848
#
#
# Mechanical properties :
#
#
# Convention : Reuss Voigt Hill
#
# Bulk Modulus (GPa) = 24.42317 42.97198 33.69758
# Shear Modulus (GPa) = 20.83088 27.22887 24.02988
#
# Velocity S-wave (km/s) = 3.39081 3.87672 3.64187
# Velocity P-wave (km/s) = 5.36753 6.61490 6.02359
#
# Compressibility (1/GPa) = 0.04094472
#
# Stress axis : x y z
#
# Youngs Moduli (GPa) = 74.20127 37.85424 34.28207
#
# Poissons Ratio (x) = 0.35134 0.27325
# Poissons Ratio (y) = 0.68870 -0.10945
# Poissons Ratio (z) = 0.59143 -0.12085
#
# Static dielectric constant tensor:
#      x y z
#    x 1.586100 0.000000 0.082050 
#    y 0.000000 1.627840 0.000000 
#    z 0.082050 0.000000 1.599000 
# 
# From -- ./inp_files/21752.got.cif
#   From: 2010.05.17/outbox.cif.g08.bks.cpg/sg13_11_cif.got.tgz:21752.got - 2010.06.03 16:44:36.
