data_PCOD9232032
_publ_section_title
;
Structure prediction by ZEFSAII (Michael W. Deem and Ramdas Pophale) SiO2 
 PCOD9232032
Probable space group: P 2/C
;
_chemical_formula_sum "Si O2"
_cell_formula_units_Z 28
_cell_length_a 17.238349
_cell_length_b 5.187895
_cell_length_c 19.128160
_cell_angle_alpha 90.000000
_cell_angle_beta 142.395860
_cell_angle_gamma 90.000000
_cell_volume 1043.840063
_symmetry_space_group_name_H-M "P 2/C"
_symmetry_group_IT_number 13
_symmetry_cell_setting 'monoclinic'
loop_
_space_group_symop_operation_xyz
x,y,z
-x,y,1/2-z
-x,-y,-z
x,-y,1/2+z
loop_
_atom_site_type_symbol
_atom_site_label
_atom_site_fract_x
_atom_site_fract_y
_atom_site_fract_z
Si Si1 0.715611 0.678217 0.663938
Si Si2 0.117002 0.266064 0.964544
Si Si3 0.310420 0.369305 0.670555
Si Si4 0.000000 0.673840 0.250000
Si Si5 0.500000 0.941505 0.250000
Si Si6 0.765663 0.022967 0.577596
Si Si7 0.500002 0.705645 0.615316
Si Si8 0.843636 0.168267 0.819554
O O1 0.726158 0.765551 0.590478
O O2 0.802858 0.888308 0.764940
O O3 0.575614 0.734969 0.596246
O O4 0.768408 0.401248 0.725340
O O5 0.064670 0.454778 0.863237
O O6 0.176620 0.040366 0.959294
O O7 0.994043 0.208065 0.922243
O O8 0.229227 0.390834 0.087437
O O9 0.378912 0.239314 0.654386
O O10 0.430042 0.449579 0.805330
O O11 0.212273 0.196133 0.642535
O O12 0.890924 0.856402 0.204349
O O13 0.472634 0.105845 0.299233
O O14 0.647795 0.223417 0.500061
#
# Coordination Sequence:
#
# PCOD9232032 Si02
#       8
#     4   4   4   2   2   4   4   4
#     4  11  23  47  72 106 147 187 242 294 358 428
#     4  10  20  45  69 100 141 186 238 292 355 419
#     4  11  24  43  69 102 142 188 237 301 358 429
#     4   8  20  38  68  92 138 170 242 270 352 412
#     4  12  22  42  64 104 138 172 250 288 374 408
#     4  10  20  45  69 100 141 186 238 292 355 419
#     4  11  24  43  69 102 142 188 237 301 358 429
#     4  11  23  47  72 106 147 187 242 294 358 428
#
# _framework density 26.824031999999999
#
# number of rings (size 3 to 8) (size 9 to 14) (size 15 to 20)
#    0.857    0.571    2.857    3.000    0.000    0.000 
#   15.429    5.714    0.000    0.000    0.000    0.000 
#    0.000    0.000    0.000    0.000    0.000    0.000 
#
# Total GULP energy -156428.868787 kJ/mol
# GULP energy per Si atom -5586.745314 kJ/mol
# Density = 2.676298 g / cm^3
# Si number density = 26.824032 Si / 1000 Ang^3
#
#
#
# Elastic Constant Matrix: (Units=GPa)
#
#
# Indices 1 2 3 4 5 6 
#
# 1 210.8148 19.7732 38.9567 0.0000 41.4843 0.0000
# 2 19.7732 62.6947 27.7941 0.0000 10.4785 0.0000
# 3 38.9567 27.7941 117.2757 0.0000 33.0457 0.0000
# 4 0.0000 0.0000 0.0000 29.0933 0.0000 0.8756
# 5 41.4843 10.4785 33.0457 0.0000 52.1000 0.0000
# 6 0.0000 0.0000 0.0000 0.8756 0.0000 28.9830
#
#
#
# Elastic Compliance Matrix: (Units=1/GPa)
#
#
# Indices 1 2 3 4 5 6 
#
# 1 0.005721 -0.000885 -0.000557 0.000000 -0.004024 0.000000
# 2 -0.000885 0.018012 -0.003839 0.000000 -0.000483 0.000000
# 3 -0.000557 -0.003839 0.011298 0.000000 -0.005951 0.000000
# 4 0.000000 0.000000 0.000000 0.034404 0.000000 -0.001039
# 5 -0.004024 -0.000483 -0.005951 0.000000 0.026270 0.000000
# 6 0.000000 0.000000 0.000000 -0.001039 0.000000 0.034534
#
#
# Mechanical properties :
#
#
# Convention : Reuss Voigt Hill
#
# Bulk Modulus (GPa) = 40.86493 62.64814 51.75653
# Shear Modulus (GPa) = 33.56663 42.31934 37.94299
#
# Velocity S-wave (km/s) = 3.54130 3.97629 3.76508
# Velocity P-wave (km/s) = 5.65585 6.66987 6.18368
#
# Compressibility (1/GPa) = 0.02447086
#
# Stress axis : x y z
#
# Youngs Moduli (GPa) = 174.78475 55.51871 88.50756
#
# Poissons Ratio (x) = 0.04913 0.04928
# Poissons Ratio (y) = 0.15468 0.33975
# Poissons Ratio (z) = 0.09732 0.21312
#
# Static dielectric constant tensor:
#      x y z
#    x 2.174540 0.000000 -0.101100 
#    y 0.000000 2.083620 0.000000 
#    z -0.101100 0.000000 2.180940 
# 
# From -- ./inp_files/80701.got.cif
#   From: 2010.05.17/outbox.cif.g08.bks.cpg/sg13_41_cif.got.tgz:80701.got - 2010.06.03 16:44:36.
