data_PCOD9232068
_publ_section_title
;
Structure prediction by ZEFSAII (Michael W. Deem and Ramdas Pophale) SiO2 
 PCOD9232068
Probable space group: P 2/C
;
_chemical_formula_sum "Si O2"
_cell_formula_units_Z 28
_cell_length_a 23.199227
_cell_length_b 5.816045
_cell_length_c 18.391210
_cell_angle_alpha 90.000000
_cell_angle_beta 151.224644
_cell_angle_gamma 90.000000
_cell_volume 1194.528878
_symmetry_space_group_name_H-M "P 2/C"
_symmetry_group_IT_number 13
_symmetry_cell_setting 'monoclinic'
loop_
_space_group_symop_operation_xyz
x,y,z
-x,y,1/2-z
-x,-y,-z
x,-y,1/2+z
loop_
_atom_site_type_symbol
_atom_site_label
_atom_site_fract_x
_atom_site_fract_y
_atom_site_fract_z
Si Si1 0.210532 0.030370 0.660386
Si Si2 0.758767 0.736362 0.667568
Si Si3 0.792559 0.357266 0.437557
Si Si4 0.432599 0.529530 0.752306
Si Si5 0.522439 0.970683 0.360299
Si Si6 0.367801 0.585390 0.367590
Si Si7 0.008299 0.409215 0.425406
O O1 0.334682 0.150266 0.820717
O O2 0.099178 0.198548 0.533615
O O3 0.188437 0.856730 0.701762
O O4 0.218184 0.911386 0.590769
O O5 0.662092 0.908639 0.526774
O O6 0.686739 0.515180 0.618142
O O7 0.875637 0.659675 0.753658
O O8 0.711367 0.434222 0.415174
O O9 0.711370 0.469059 0.283609
O O10 0.925817 0.431652 0.562246
O O11 0.500000 0.519306 0.750000
O O12 0.456715 0.270608 0.811103
O O13 0.480500 0.773958 0.841451
O O14 0.500000 0.987646 0.250000
O O15 0.500000 0.500000 0.500000
O O16 0.000000 0.500000 0.500000
#
# Coordination Sequence:
#
# PCOD9232068 Si02
#       7
#     4   4   4   4   4   4   4
#     4  10  21  34  54  87 130 169 209 251 315 398
#     4  11  22  34  60  86 126 174 203 257 321 384
#     4  10  22  34  59  87 125 169 204 261 317 389
#     4  10  23  44  67  92 120 164 218 278 333 372
#     4  10  24  43  66  94 120 163 222 277 327 377
#     4  10  21  32  50  88 130 160 200 251 316 398
#     4  11  20  38  52  90 134 171 209 249 314 396
#
# _framework density 23.440203
#
# number of rings (size 3 to 8) (size 9 to 14) (size 15 to 20)
#    0.000    1.714    4.286    1.286   10.000    1.143 
#    0.000    0.000    0.000    3.429    0.000    0.000 
#    0.000    0.000    0.000    0.000    0.000    0.000 
#
# Total GULP energy -156038.553948 kJ/mol
# GULP energy per Si atom -5572.805498 kJ/mol
# Density = 2.338685 g / cm^3
# Si number density = 23.440203 Si / 1000 Ang^3
#
#
#
# Elastic Constant Matrix: (Units=GPa)
#
#
# Indices 1 2 3 4 5 6 
#
# 1 93.7634 25.9111 34.7096 0.0000 38.9111 0.0000
# 2 25.9111 135.1719 35.9948 0.0000 26.2648 0.0000
# 3 34.7096 35.9948 95.1047 0.0000 42.6243 0.0000
# 4 0.0000 0.0000 0.0000 36.0568 0.0000 16.0858
# 5 38.9111 26.2648 42.6243 0.0000 49.7012 0.0000
# 6 0.0000 0.0000 0.0000 16.0858 0.0000 34.9194
#
#
#
# Elastic Compliance Matrix: (Units=1/GPa)
#
#
# Indices 1 2 3 4 5 6 
#
# 1 0.015859 -0.000676 -0.000207 0.000000 -0.011881 0.000000
# 2 -0.000676 0.008490 -0.001938 0.000000 -0.002295 0.000000
# 3 -0.000207 -0.001938 0.017530 0.000000 -0.013848 0.000000
# 4 0.000000 0.000000 0.000000 0.034908 0.000000 -0.016081
# 5 -0.011881 -0.002295 -0.013848 0.000000 0.042511 0.000000
# 6 0.000000 0.000000 0.000000 -0.016081 0.000000 0.036045
#
#
# Mechanical properties :
#
#
# Convention : Reuss Voigt Hill
#
# Bulk Modulus (GPa) = 27.59628 57.47455 42.53541
# Shear Modulus (GPa) = 28.89109 39.29713 34.09411
#
# Velocity S-wave (km/s) = 3.51457 4.09893 3.81795
# Velocity P-wave (km/s) = 5.31679 6.85380 6.13363
#
# Compressibility (1/GPa) = 0.03623677
#
# Stress axis : x y z
#
# Youngs Moduli (GPa) = 63.05440 117.79184 57.04501
#
# Poissons Ratio (x) = 0.07966 0.01181
# Poissons Ratio (y) = 0.04264 0.11053
# Poissons Ratio (z) = 0.01306 0.22824
#
# Static dielectric constant tensor:
#      x y z
#    x 2.035820 0.000000 0.006510 
#    y 0.000000 2.033020 0.000000 
#    z 0.006510 0.000000 1.931190 
# 
# From -- ./inp_files/77244.got.cif
#   From: 2010.05.17/outbox.cif.g08.bks.cpg/sg13_39_cif.got.tgz:77244.got - 2010.06.03 16:44:36.
