data_PCOD9232227
_publ_section_title
;
Structure prediction by ZEFSAII (Michael W. Deem and Ramdas Pophale) SiO2 
 PCOD9232227
Probable space group: P 2/C
;
_chemical_formula_sum "Si O2"
_cell_formula_units_Z 20
_cell_length_a 10.143217
_cell_length_b 16.893814
_cell_length_c 5.668473
_cell_angle_alpha 90.000000
_cell_angle_beta 80.158734
_cell_angle_gamma 90.000000
_cell_volume 957.042892
_symmetry_space_group_name_H-M "P 2/C"
_symmetry_group_IT_number 13
_symmetry_cell_setting 'monoclinic'
loop_
_space_group_symop_operation_xyz
x,y,z
-x,y,1/2-z
-x,-y,-z
x,-y,1/2+z
loop_
_atom_site_type_symbol
_atom_site_label
_atom_site_fract_x
_atom_site_fract_y
_atom_site_fract_z
Si Si1 0.627542 0.225946 0.095092
Si Si2 0.758714 0.341663 0.436874
Si Si3 0.500000 0.656266 0.250000
Si Si4 0.146905 0.193990 0.810199
Si Si5 0.845537 0.970590 0.010807
Si Si6 0.000000 0.453498 0.250000
O O1 0.500000 0.182491 0.250000
O O2 0.701492 0.281459 0.260481
O O3 0.560479 0.286140 0.929427
O O4 0.739948 0.178692 0.921074
O O5 0.630099 0.384656 0.596030
O O6 0.829201 0.282149 0.600341
O O7 0.867130 0.399995 0.298469
O O8 0.158906 0.124684 0.998212
O O9 0.000000 0.187737 0.750000
O O10 0.787351 0.996421 0.283933
O O11 0.000000 0.000000 0.000000
O O12 0.000000 0.500000 0.500000
#
# Coordination Sequence:
#
# PCOD9232227 Si02
#       6
#     4   4   2   4   4   2
#     4   9  19  36  61  92 119 154 208 273 310 360
#     4  10  22  40  67  91 125 162 220 255 313 373
#     4   8  18  38  66  92 118 156 210 272 302 366
#     4  11  21  33  63  92 120 162 213 262 309 368
#     4  10  21  36  52  84 131 165 204 256 316 369
#     4  12  30  46  64  96 142 172 196 256 326 374
#
# _framework density 20.897703
#
# number of rings (size 3 to 8) (size 9 to 14) (size 15 to 20)
#    0.000    2.000    2.000    1.200    9.800    1.600 
#    0.000    1.000    0.000    1.200    0.000    0.000 
#    0.000    0.000    0.000    0.000    0.000    0.000 
#
# Total GULP energy -111495.118321 kJ/mol
# GULP energy per Si atom -5574.755916 kJ/mol
# Density = 2.085014 g / cm^3
# Si number density = 20.897703 Si / 1000 Ang^3
#
#
#
# Elastic Constant Matrix: (Units=GPa)
#
#
# Indices 1 2 3 4 5 6 
#
# 1 103.5505 34.1204 38.0361 0.0000 -35.8677 0.0000
# 2 34.1204 64.1757 33.9024 0.0000 -25.0615 0.0000
# 3 38.0361 33.9024 106.8278 0.0000 -13.6698 0.0000
# 4 0.0000 0.0000 0.0000 23.3201 0.0000 -12.3607
# 5 -35.8677 -25.0615 -13.6698 0.0000 50.7379 0.0000
# 6 0.0000 0.0000 0.0000 -12.3607 0.0000 -41.3528
#
#
#
# Elastic Compliance Matrix: (Units=1/GPa)
#
#
# Indices 1 2 3 4 5 6 
#
# 1 0.014577 -0.002917 -0.003242 0.000000 0.007990 0.000000
# 2 -0.002917 0.022980 -0.005247 0.000000 0.007875 0.000000
# 3 -0.003242 -0.005247 0.011968 0.000000 -0.001659 0.000000
# 4 0.000000 0.000000 0.000000 0.037017 0.000000 -0.011065
# 5 0.007990 0.007875 -0.001659 0.000000 0.028801 0.000000
# 6 0.000000 0.000000 0.000000 -0.011065 0.000000 -0.020875
#
#
# Mechanical properties :
#
#
# Convention : Reuss Voigt Hill
#
# Bulk Modulus (GPa) = 37.43384 54.07464 45.75424
# Shear Modulus (GPa) = 39.62504 17.77405 28.69954
#
# Velocity S-wave (km/s) = 4.35920 2.91954 3.70987
# Velocity P-wave (km/s) = 6.57941 6.10713 6.34766
#
# Compressibility (1/GPa) = 0.02671380
#
# Stress axis : x y z
#
# Youngs Moduli (GPa) = 68.60201 43.51590 83.55711
#
# Poissons Ratio (x) = 0.12694 0.27088
# Poissons Ratio (y) = 0.20012 0.43838
# Poissons Ratio (z) = 0.22240 0.22831
#
# Static dielectric constant tensor:
#      x y z
#    x 1.713610 0.000000 -0.113470 
#    y 0.000000 1.706800 0.000000 
#    z -0.113470 0.000000 1.652150 
# 
# From -- ./inp_files/1562.got.cif
#   From: 2010.05.17/outbox.cif.g08.bks.cpg/sg13_1_cif.got.tgz:1562.got - 2010.06.03 16:44:36.
