data_PCOD9232156
_publ_section_title
;
Structure prediction by ZEFSAII (Michael W. Deem and Ramdas Pophale) SiO2 
 PCOD9232156
Probable space group: P 2/C
;
_chemical_formula_sum "Si O2"
_cell_formula_units_Z 20
_cell_length_a 12.113652
_cell_length_b 10.021555
_cell_length_c 8.795569
_cell_angle_alpha 90.000000
_cell_angle_beta 86.357652
_cell_angle_gamma 90.000000
_cell_volume 1065.604401
_symmetry_space_group_name_H-M "P 2/C"
_symmetry_group_IT_number 13
_symmetry_cell_setting 'monoclinic'
loop_
_space_group_symop_operation_xyz
x,y,z
-x,y,1/2-z
-x,-y,-z
x,-y,1/2+z
loop_
_atom_site_type_symbol
_atom_site_label
_atom_site_fract_x
_atom_site_fract_y
_atom_site_fract_z
Si Si1 0.219327 0.132831 0.116120
Si Si2 0.917910 0.036127 0.642588
Si Si3 0.400584 0.659502 0.985321
Si Si4 0.417086 0.068509 0.622441
Si Si5 0.355861 0.614774 0.633469
O O1 0.254778 0.286657 0.110404
O O2 0.129207 0.084945 0.249336
O O3 0.324563 0.043275 0.157972
O O4 0.181793 0.099024 0.946622
O O5 0.000000 0.116517 0.750000
O O6 0.000000 0.000000 0.500000
O O7 0.374739 0.632285 0.811598
O O8 0.535222 0.660892 0.971523
O O9 0.362753 0.801433 0.051997
O O10 0.350389 0.540102 0.089200
O O11 0.500000 0.108458 0.750000
O O12 0.500000 0.000000 0.500000
#
# Coordination Sequence:
#
# PCOD9232156 Si02
#       5
#     4   4   4   4   4
#     4  11  20  35  59  86 116 153 191 241 303 355
#     4   9  20  37  58  87 113 141 194 264 313 344
#     4  10  22  35  50  77 121 162 196 229 269 335
#     4  12  23  34  53  86 124 159 196 236 283 353
#     4  10  21  35  53  77 115 162 200 230 272 347
#
# _framework density 18.768692000000001
#
# number of rings (size 3 to 8) (size 9 to 14) (size 15 to 20)
#    0.000    1.600    2.000    3.600    5.600    0.000 
#    0.000    0.000    0.000    0.000    0.000   88.200 
#    0.000    0.000    0.000    0.000    0.000    0.000 
#
# Total GULP energy -111355.147954 kJ/mol
# GULP energy per Si atom -5567.757398 kJ/mol
# Density = 1.872597 g / cm^3
# Si number density = 18.768692 Si / 1000 Ang^3
#
#
#
# Elastic Constant Matrix: (Units=GPa)
#
#
# Indices 1 2 3 4 5 6 
#
# 1 64.2939 15.7510 26.2686 0.0000 2.8167 0.0000
# 2 15.7510 104.1422 35.2335 0.0000 -0.6834 0.0000
# 3 26.2686 35.2335 103.3190 0.0000 12.8407 0.0000
# 4 0.0000 0.0000 0.0000 8.0292 0.0000 -35.2808
# 5 2.8167 -0.6834 12.8407 0.0000 37.5834 0.0000
# 6 0.0000 0.0000 0.0000 -35.2808 0.0000 -47.9768
#
#
#
# Elastic Compliance Matrix: (Units=1/GPa)
#
#
# Indices 1 2 3 4 5 6 
#
# 1 0.017509 -0.001289 -0.004017 0.000000 0.000037 0.000000
# 2 -0.001289 0.011034 -0.003626 0.000000 0.001536 0.000000
# 3 -0.004017 -0.003626 0.012435 0.000000 -0.004014 0.000000
# 4 0.000000 0.000000 0.000000 0.029435 0.000000 -0.021645
# 5 0.000037 0.001536 -0.004014 0.000000 0.028004 0.000000
# 6 0.000000 0.000000 0.000000 -0.021645 0.000000 -0.004926
#
#
# Mechanical properties :
#
#
# Convention : Reuss Voigt Hill
#
# Bulk Modulus (GPa) = 43.26181 47.36237 45.31209
# Shear Modulus (GPa) = 41.99612 12.49396 27.24504
#
# Velocity S-wave (km/s) = 4.73542 2.58288 3.81415
# Velocity P-wave (km/s) = 7.28004 5.84676 6.60241
#
# Compressibility (1/GPa) = 0.02311507
#
# Stress axis : x y z
#
# Youngs Moduli (GPa) = 57.11417 90.62866 80.41629
#
# Poissons Ratio (x) = 0.11682 0.32300
# Poissons Ratio (y) = 0.07362 0.29159
# Poissons Ratio (z) = 0.22940 0.32862
#
# Static dielectric constant tensor:
#      x y z
#    x 1.683310 0.000000 0.013500 
#    y 0.000000 1.644970 0.000000 
#    z 0.013500 0.000000 1.672220 
# 
# From -- ./inp_files/14851.got.cif
#   From: 2010.05.17/outbox.cif.g08.bks.cpg/sg13_8_cif.got.tgz:14851.got - 2010.06.03 16:44:36.
