data_PCOD9232223
_publ_section_title
;
Structure prediction by ZEFSAII (Michael W. Deem and Ramdas Pophale) SiO2 
 PCOD9232223
Probable space group: P 2/C
;
_chemical_formula_sum "Si O2"
_cell_formula_units_Z 20
_cell_length_a 8.086716
_cell_length_b 11.289750
_cell_length_c 9.062098
_cell_angle_alpha 90.000000
_cell_angle_beta 91.293563
_cell_angle_gamma 90.000000
_cell_volume 827.131532
_symmetry_space_group_name_H-M "P 2/C"
_symmetry_group_IT_number 13
_symmetry_cell_setting 'monoclinic'
loop_
_space_group_symop_operation_xyz
x,y,z
-x,y,1/2-z
-x,-y,-z
x,-y,1/2+z
loop_
_atom_site_type_symbol
_atom_site_label
_atom_site_fract_x
_atom_site_fract_y
_atom_site_fract_z
Si Si1 0.191859 0.161201 0.018300
Si Si2 0.656946 0.421966 0.054922
Si Si3 0.156220 0.580953 0.648609
Si Si4 0.227727 0.982700 0.251813
Si Si5 0.409995 0.850547 0.994539
O O1 0.147598 0.293194 0.064833
O O2 0.392426 0.150832 0.020111
O O3 0.129153 0.068571 0.138973
O O4 0.142464 0.112555 0.857693
O O5 0.693204 0.422341 0.229875
O O6 0.640841 0.285727 0.011083
O O7 0.500000 0.500000 0.000000
O O8 0.808437 0.479973 0.968888
O O9 0.000000 0.565393 0.750000
O O10 0.325226 0.074264 0.361593
O O11 0.347036 0.908707 0.144762
#
# Coordination Sequence:
#
# PCOD9232223 Si02
#       5
#     4   4   4   4   4
#     4  11  20  38  65  96 139 172 227 279 349 399
#     4  12  26  45  75 102 134 176 242 287 335 408
#     4  12  28  48  67  98 143 187 225 284 357 418
#     4  10  21  35  65 105 135 174 222 296 345 395
#     4  11  20  37  66 104 135 167 229 289 345 389
#
# _framework density 24.179949000000001
#
# number of rings (size 3 to 8) (size 9 to 14) (size 15 to 20)
#    0.000    0.800    4.000    6.000    2.800    1.600 
#    0.000    1.000    0.000    0.000    0.000    0.000 
#    0.000    0.000    0.000    0.000    0.000    0.000 
#
# Total GULP energy -112062.757997 kJ/mol
# GULP energy per Si atom -5603.137900 kJ/mol
# Density = 2.412491 g / cm^3
# Si number density = 24.179949 Si / 1000 Ang^3
#
#
#
# Elastic Constant Matrix: (Units=GPa)
#
#
# Indices 1 2 3 4 5 6 
#
# 1 77.7956 28.7468 39.8981 0.0000 -12.9091 0.0000
# 2 28.7468 192.7893 94.7626 0.0000 -12.6031 0.0000
# 3 39.8981 94.7626 185.7685 0.0000 -17.1868 0.0000
# 4 0.0000 0.0000 0.0000 49.3098 0.0000 -10.9476
# 5 -12.9091 -12.6031 -17.1868 0.0000 43.9347 0.0000
# 6 0.0000 0.0000 0.0000 -10.9476 0.0000 25.1629
#
#
#
# Elastic Compliance Matrix: (Units=1/GPa)
#
#
# Indices 1 2 3 4 5 6 
#
# 1 0.014965 -0.000785 -0.002519 0.000000 0.003186 0.000000
# 2 -0.000785 0.006981 -0.003350 0.000000 0.000461 0.000000
# 3 -0.002519 -0.003350 0.007756 0.000000 0.001333 0.000000
# 4 0.000000 0.000000 0.000000 0.022448 0.000000 0.009767
# 5 0.003186 0.000461 0.001333 0.000000 0.024351 0.000000
# 6 0.000000 0.000000 0.000000 0.009767 0.000000 0.043990
#
#
# Mechanical properties :
#
#
# Convention : Reuss Voigt Hill
#
# Bulk Modulus (GPa) = 60.99552 87.01873 74.00712
# Shear Modulus (GPa) = 35.90329 43.21120 39.55724
#
# Velocity S-wave (km/s) = 3.85754 4.23196 4.04908
# Velocity P-wave (km/s) = 6.71723 7.74244 7.24799
#
# Compressibility (1/GPa) = 0.01639465
#
# Stress axis : x y z
#
# Youngs Moduli (GPa) = 66.82347 143.25220 128.93181
#
# Poissons Ratio (x) = 0.11246 0.32475
# Poissons Ratio (y) = 0.05246 0.43187
# Poissons Ratio (z) = 0.16831 0.47984
#
# Static dielectric constant tensor:
#      x y z
#    x 2.104410 0.000000 0.054320 
#    y 0.000000 1.844680 0.000000 
#    z 0.054320 0.000000 1.912830 
# 
# From -- ./inp_files/11688.got.cif
#   From: 2010.05.17/outbox.cif.g08.bks.cpg/sg13_6_cif.got.tgz:11688.got - 2010.06.03 16:44:36.
