data_PCOD9232023
_publ_section_title
;
Structure prediction by ZEFSAII (Michael W. Deem and Ramdas Pophale) SiO2 
 PCOD9232023
Probable space group: P 2/C
;
_chemical_formula_sum "Si O2"
_cell_formula_units_Z 10
_cell_length_a 8.107598
_cell_length_b 4.625021
_cell_length_c 16.710084
_cell_angle_alpha 90.000000
_cell_angle_beta 141.942166
_cell_angle_gamma 90.000000
_cell_volume 386.266494
_symmetry_space_group_name_H-M "P 2/C"
_symmetry_group_IT_number 13
_symmetry_cell_setting 'monoclinic'
loop_
_space_group_symop_operation_xyz
x,y,z
-x,y,1/2-z
-x,-y,-z
x,-y,1/2+z
loop_
_atom_site_type_symbol
_atom_site_label
_atom_site_fract_x
_atom_site_fract_y
_atom_site_fract_z
Si Si1 0.249852 0.702910 0.112737
Si Si2 0.919527 0.915041 0.605095
Si Si3 0.000000 0.603552 0.250000
O O1 0.500000 0.556938 0.250000
O O2 0.147626 0.939861 0.136946
O O3 0.000000 0.500000 0.000000
O O4 0.305936 0.832239 0.046156
O O5 0.828328 0.158143 0.634068
O O6 0.039609 0.633742 0.694791
#
# Coordination Sequence:
#
# PCOD9232023 Si02
#       3
#     4   4   2
#     4  11  24  45  74 104 139 185 234 284 340 415
#     4  10  22  44  70  98 140 182 232 282 348 406
#     4  10  20  44  70  98 142 180 226 290 350 408
#
# _framework density 25.888860999999999
#
# number of rings (size 3 to 8) (size 9 to 14) (size 15 to 20)
#    0.000    1.600    4.000    0.000    0.000    6.400 
#    0.000   12.000    0.000    0.000    0.000    0.000 
#    0.000    0.000    0.000    0.000    0.000    0.000 
#
# Total GULP energy -55712.322382 kJ/mol
# GULP energy per Si atom -5571.232238 kJ/mol
# Density = 2.582994 g / cm^3
# Si number density = 25.888861 Si / 1000 Ang^3
#
#
#
# Elastic Constant Matrix: (Units=GPa)
#
#
# Indices 1 2 3 4 5 6 
#
# 1 91.3438 47.7460 73.1918 0.0000 -23.4838 0.0000
# 2 47.7460 185.1469 88.3059 0.0000 -12.8378 0.0000
# 3 73.1918 88.3059 241.4652 0.0000 -28.8425 0.0000
# 4 0.0000 0.0000 0.0000 53.9041 0.0000 -43.6652
# 5 -23.4838 -12.8378 -28.8425 0.0000 36.6014 0.0000
# 6 0.0000 0.0000 0.0000 -43.6652 0.0000 58.5044
#
#
#
# Elastic Compliance Matrix: (Units=1/GPa)
#
#
# Indices 1 2 3 4 5 6 
#
# 1 0.016668 -0.002179 -0.003388 0.000000 0.007260 0.000000
# 2 -0.002179 0.006834 -0.001898 0.000000 -0.000497 0.000000
# 3 -0.003388 -0.001898 0.006097 0.000000 0.001965 0.000000
# 4 0.000000 0.000000 0.000000 0.046917 0.000000 0.035017
# 5 0.007260 -0.000497 0.001965 0.000000 0.033354 0.000000
# 6 0.000000 0.000000 0.000000 0.035017 0.000000 0.043228
#
#
# Mechanical properties :
#
#
# Convention : Reuss Voigt Hill
#
# Bulk Modulus (GPa) = 68.17271 104.04925 86.11098
# Shear Modulus (GPa) = 28.91545 50.38281 39.64913
#
# Velocity S-wave (km/s) = 3.34564 4.41627 3.91770
# Velocity P-wave (km/s) = 6.42763 8.14141 7.33475
#
# Compressibility (1/GPa) = 0.01466863
#
# Stress axis : x y z
#
# Youngs Moduli (GPa) = 59.99497 146.33007 164.00737
#
# Poissons Ratio (x) = 0.31884 0.55570
# Poissons Ratio (y) = 0.13073 0.31130
# Poissons Ratio (z) = 0.20328 0.27775
#
# Static dielectric constant tensor:
#      x y z
#    x 2.133400 0.000000 -0.038490 
#    y 0.000000 2.082000 0.000000 
#    z -0.038490 0.000000 2.082740 
# 
# From -- ./inp_files/10438.got.cif
#   From: 2010.05.17/outbox.cif.g08.bks.cpg/sg13_6_cif.got.tgz:10438.got - 2010.06.03 16:44:36.
