data_PCOD9232079
_publ_section_title
;
Structure prediction by ZEFSAII (Michael W. Deem and Ramdas Pophale) SiO2 
 PCOD9232079
Probable space group: P 2/C
;
_chemical_formula_sum "Si O2"
_cell_formula_units_Z 30
_cell_length_a 11.787355
_cell_length_b 6.403393
_cell_length_c 22.370595
_cell_angle_alpha 90.000000
_cell_angle_beta 87.694942
_cell_angle_gamma 90.000000
_cell_volume 1687.145366
_symmetry_space_group_name_H-M "P 2/C"
_symmetry_group_IT_number 13
_symmetry_cell_setting 'monoclinic'
loop_
_space_group_symop_operation_xyz
x,y,z
-x,y,1/2-z
-x,-y,-z
x,-y,1/2+z
loop_
_atom_site_type_symbol
_atom_site_label
_atom_site_fract_x
_atom_site_fract_y
_atom_site_fract_z
Si Si1 0.782877 0.819490 0.387213
Si Si2 0.036190 0.548855 0.612378
Si Si3 0.500000 0.735418 0.750000
Si Si4 0.044720 0.943253 0.683712
Si Si5 0.581504 0.649458 0.322698
Si Si6 0.639767 0.120350 0.701439
Si Si7 0.858014 0.797867 0.116605
Si Si8 0.883213 0.888396 0.983997
O O1 0.871445 0.631447 0.388303
O O2 0.831048 0.965193 0.332488
O O3 0.663586 0.711263 0.375160
O O4 0.803280 0.965278 0.444708
O O5 0.072412 0.691127 0.555286
O O6 0.914777 0.432879 0.615638
O O7 0.044518 0.699112 0.669290
O O8 0.448990 0.585037 0.698862
O O9 0.596671 0.888281 0.720354
O O10 0.000000 0.992614 0.750000
O O11 0.958326 0.048446 0.637901
O O12 0.463664 0.772606 0.332437
O O13 0.641268 0.749318 0.262899
O O14 0.753983 0.153246 0.662402
O O15 0.826471 0.836628 0.048416
O O16 0.000000 0.000000 0.000000
#
# Coordination Sequence:
#
# PCOD9232079 Si02
#       8
#     4   4   2   4   4   4   4   4
#     4  10  21  35  55  78 110 144 182 228 273 328
#     4  10  21  34  56  79 109 148 179 221 274 331
#     4   8  18  36  58  78 110 148 186 220 284 340
#     4  10  21  33  50  82 114 139 175 222 279 336
#     4   9  19  38  55  81 111 141 185 225 279 335
#     4   9  20  36  59  81 110 145 181 231 275 328
#     4  11  21  35  57  80 110 141 187 229 267 329
#     4  11  20  39  55  80 109 149 188 221 275 328
#
# _framework density 17.781514000000001
#
# number of rings (size 3 to 8) (size 9 to 14) (size 15 to 20)
#    0.000    2.400    4.000    1.200    0.000   10.667 
#    0.000    0.667    0.000    1.600    0.000    0.000 
#    0.000    0.000    0.000    0.000    0.000    0.000 
#
# Total GULP energy -167003.295666 kJ/mol
# GULP energy per Si atom -5566.776522 kJ/mol
# Density = 1.774104 g / cm^3
# Si number density = 17.781514 Si / 1000 Ang^3
#
#
#
# Elastic Constant Matrix: (Units=GPa)
#
#
# Indices 1 2 3 4 5 6 
#
# 1 76.2903 24.7796 5.3398 0.0000 6.0874 0.0000
# 2 24.7796 109.9795 19.3545 0.0000 6.6852 0.0000
# 3 5.3398 19.3545 51.5163 0.0000 7.5152 0.0000
# 4 0.0000 0.0000 0.0000 8.8180 0.0000 1.2015
# 5 6.0874 6.6852 7.5152 0.0000 20.7027 0.0000
# 6 0.0000 0.0000 0.0000 1.2015 0.0000 8.4301
#
#
#
# Elastic Compliance Matrix: (Units=1/GPa)
#
#
# Indices 1 2 3 4 5 6 
#
# 1 0.014354 -0.003059 0.000141 0.000000 -0.003284 0.000000
# 2 -0.003059 0.010461 -0.003433 0.000000 -0.001232 0.000000
# 3 0.000141 -0.003433 0.021679 0.000000 -0.006802 0.000000
# 4 0.000000 0.000000 0.000000 0.115651 0.000000 -0.016483
# 5 -0.003284 -0.001232 -0.006802 0.000000 0.052135 0.000000
# 6 0.000000 0.000000 0.000000 -0.016483 0.000000 0.120972
#
#
# Mechanical properties :
#
#
# Convention : Reuss Voigt Hill
#
# Bulk Modulus (GPa) = 29.59479 37.41487 33.50483
# Shear Modulus (GPa) = 13.91911 20.14431 17.03171
#
# Velocity S-wave (km/s) = 2.80087 3.36948 3.09824
# Velocity P-wave (km/s) = 5.20956 6.01872 5.62870
#
# Compressibility (1/GPa) = 0.03378973
#
# Stress axis : x y z
#
# Youngs Moduli (GPa) = 69.66875 95.59339 46.12768
#
# Poissons Ratio (x) = 0.29244 -0.00648
# Poissons Ratio (y) = 0.21313 0.15837
# Poissons Ratio (z) = -0.00979 0.32820
#
# Static dielectric constant tensor:
#      x y z
#    x 1.627390 0.000000 0.023410 
#    y 0.000000 1.660090 0.000000 
#    z 0.023410 0.000000 1.646050 
# 
# From -- ./inp_files/85855.got.cif
#   From: 2010.05.17/outbox.cif.g08.bks.cpg/sg13_43_cif.got.tgz:85855.got - 2010.06.03 16:44:36.
