data_PCOD9232305
_publ_section_title
;
Structure prediction by ZEFSAII (Michael W. Deem and Ramdas Pophale) SiO2 
 PCOD9232305
Probable space group: P 2/C
;
_chemical_formula_sum "Si O2"
_cell_formula_units_Z 22
_cell_length_a 8.517852
_cell_length_b 16.550728
_cell_length_c 12.042554
_cell_angle_alpha 90.000000
_cell_angle_beta 145.775431
_cell_angle_gamma 90.000000
_cell_volume 954.861622
_symmetry_space_group_name_H-M "P 2/C"
_symmetry_group_IT_number 13
_symmetry_cell_setting 'monoclinic'
loop_
_space_group_symop_operation_xyz
x,y,z
-x,y,1/2-z
-x,-y,-z
x,-y,1/2+z
loop_
_atom_site_type_symbol
_atom_site_label
_atom_site_fract_x
_atom_site_fract_y
_atom_site_fract_z
Si Si1 0.043286 0.767123 0.435973
Si Si2 0.425699 0.269089 0.378527
Si Si3 0.249824 0.392036 0.687072
Si Si4 0.000000 0.168685 0.250000
Si Si5 0.798356 0.559669 0.739550
Si Si6 0.171988 0.920075 0.072990
O O1 0.275336 0.767757 0.475934
O O2 0.227106 0.749591 0.655440
O O3 0.844436 0.689451 0.307653
O O4 0.884900 0.850164 0.368800
O O5 0.265407 0.226311 0.385036
O O6 0.415786 0.365517 0.388676
O O7 0.500000 0.373383 0.750000
O O8 0.318748 0.471040 0.800638
O O9 0.993043 0.417867 0.458411
O O10 0.056045 0.114812 0.389577
O O11 0.000000 0.558257 0.750000
O O12 0.500000 0.935974 0.250000
O O13 0.000000 0.000000 0.000000
#
# Coordination Sequence:
#
# PCOD9232305 Si02
#       6
#     4   4   4   2   4   4
#     4   9  20  40  63  90 134 170 219 274 340 398
#     4   9  18  37  67  91 122 178 224 264 328 406
#     4  10  22  37  58  84 127 170 214 273 332 379
#     4  10  22  44  74 100 138 182 226 272 352 408
#     4  10  21  36  57  88 120 169 222 269 314 391
#     4  11  26  46  74 106 139 177 226 286 345 415
#
# _framework density 23.039988999999998
#
# number of rings (size 3 to 8) (size 9 to 14) (size 15 to 20)
#    0.000    2.182    0.909    0.545   12.727    1.455 
#    0.000    0.000    0.000    0.000    0.000    0.000 
#    0.000    0.000    0.000    0.000    0.000    0.000 
#
# Total GULP energy -123184.210877 kJ/mol
# GULP energy per Si atom -5599.282313 kJ/mol
# Density = 2.298755 g / cm^3
# Si number density = 23.039989 Si / 1000 Ang^3
#
#
#
# Elastic Constant Matrix: (Units=GPa)
#
#
# Indices 1 2 3 4 5 6 
#
# 1 134.7875 92.2155 30.3725 0.0000 31.6479 0.0000
# 2 92.2155 193.2180 66.5825 0.0000 31.8847 0.0000
# 3 30.3725 66.5825 94.1542 0.0000 23.5524 0.0000
# 4 0.0000 0.0000 0.0000 36.2668 0.0000 2.1019
# 5 31.6479 31.8847 23.5524 0.0000 55.1752 0.0000
# 6 0.0000 0.0000 0.0000 2.1019 0.0000 47.1622
#
#
#
# Elastic Compliance Matrix: (Units=1/GPa)
#
#
# Indices 1 2 3 4 5 6 
#
# 1 0.011776 -0.005271 0.000959 0.000000 -0.004118 0.000000
# 2 -0.005271 0.009430 -0.004883 0.000000 -0.000342 0.000000
# 3 0.000959 -0.004883 0.014774 0.000000 -0.004035 0.000000
# 4 0.000000 0.000000 0.000000 0.027645 0.000000 -0.001232
# 5 -0.004118 -0.000342 -0.004035 0.000000 0.022406 0.000000
# 6 0.000000 0.000000 0.000000 -0.001232 0.000000 0.021258
#
#
# Mechanical properties :
#
#
# Convention : Reuss Voigt Hill
#
# Bulk Modulus (GPa) = 56.85075 88.94451 72.89763
# Shear Modulus (GPa) = 38.01037 43.25345 40.63191
#
# Velocity S-wave (km/s) = 4.06613 4.33751 4.20401
# Velocity P-wave (km/s) = 6.83907 7.98583 7.43459
#
# Compressibility (1/GPa) = 0.01758992
#
# Stress axis : x y z
#
# Youngs Moduli (GPa) = 84.91684 106.04136 67.68733
#
# Poissons Ratio (x) = 0.55897 -0.06491
# Poissons Ratio (y) = 0.44762 0.33051
# Poissons Ratio (z) = -0.08143 0.51779
#
# Static dielectric constant tensor:
#      x y z
#    x 1.928770 0.000000 -0.028730 
#    y 0.000000 1.804310 0.000000 
#    z -0.028730 0.000000 1.957370 
# 
# From -- ./inp_files/48039.got.cif
#   From: 2010.05.17/outbox.cif.g08.bks.cpg/sg13_25_cif.got.tgz:48039.got - 2010.06.03 16:44:36.
