data_PCOD9232862
_publ_section_title
;
Structure prediction by ZEFSAII (Michael W. Deem and Ramdas Pophale) SiO2 
 PCOD9232862
Probable space group: P 2/C
;
_chemical_formula_sum "Si O2"
_cell_formula_units_Z 18
_cell_length_a 11.062003
_cell_length_b 4.879430
_cell_length_c 22.483560
_cell_angle_alpha 90.000000
_cell_angle_beta 34.370483
_cell_angle_gamma 90.000000
_cell_volume 685.115965
_symmetry_space_group_name_H-M "P 2/C"
_symmetry_group_IT_number 13
_symmetry_cell_setting 'monoclinic'
loop_
_space_group_symop_operation_xyz
x,y,z
-x,y,1/2-z
-x,-y,-z
x,-y,1/2+z
loop_
_atom_site_type_symbol
_atom_site_label
_atom_site_fract_x
_atom_site_fract_y
_atom_site_fract_z
Si Si1 0.153956 0.959788 0.635687
Si Si2 0.500000 0.500000 0.500000
Si Si3 0.004699 0.291570 0.421714
Si Si4 0.343173 0.988072 0.858192
Si Si5 0.664129 0.663075 0.530304
O O1 0.290949 0.705933 0.603322
O O2 0.026313 0.860866 0.628656
O O3 0.000000 0.061234 0.750000
O O4 0.311987 0.204524 0.546672
O O5 0.536199 0.404895 0.558335
O O6 0.906933 0.591879 0.450317
O O7 0.227389 0.232761 0.362235
O O8 0.831703 0.176430 0.539389
O O9 0.500000 0.141927 0.750000
O O10 0.440420 0.829156 0.875098
#
# Coordination Sequence:
#
# PCOD9232862 Si02
#       5
#     4   2   4   4   4
#     4  10  22  40  65  93 128 171 213 267 332 392
#     4  10  22  40  62  92 132 164 218 260 322 396
#     4   9  21  41  60  91 130 164 219 276 325 390
#     4  10  21  38  64  92 126 171 220 271 331 391
#     4  10  21  40  61  92 131 169 213 272 319 395
#
# _framework density 26.272925000000001
#
# number of rings (size 3 to 8) (size 9 to 14) (size 15 to 20)
#    0.000    2.222    0.000    1.333    3.111    4.444 
#    0.000    0.000    4.889    0.000    0.000    0.000 
#    0.000    0.000    0.000    0.000    0.000    0.000 
#
# Total GULP energy -100219.352197 kJ/mol
# GULP energy per Si atom -5567.741789 kJ/mol
# Density = 2.621313 g / cm^3
# Si number density = 26.272925 Si / 1000 Ang^3
#
#
#
# Elastic Constant Matrix: (Units=GPa)
#
#
# Indices 1 2 3 4 5 6 
#
# 1 149.3392 23.1744 45.6129 0.0000 14.9719 0.0000
# 2 23.1744 65.4999 20.8411 0.0000 9.8114 0.0000
# 3 45.6129 20.8411 138.5497 0.0000 45.7036 0.0000
# 4 0.0000 0.0000 0.0000 22.2268 0.0000 -2.9004
# 5 14.9719 9.8114 45.7036 0.0000 34.0567 0.0000
# 6 0.0000 0.0000 0.0000 -2.9004 0.0000 40.1171
#
#
#
# Elastic Compliance Matrix: (Units=1/GPa)
#
#
# Indices 1 2 3 4 5 6 
#
# 1 0.007691 -0.002028 -0.002340 0.000000 0.000344 0.000000
# 2 -0.002028 0.016687 -0.000988 0.000000 -0.002590 0.000000
# 3 -0.002340 -0.000988 0.013822 0.000000 -0.017236 0.000000
# 4 0.000000 0.000000 0.000000 0.045419 0.000000 0.003284
# 5 0.000344 -0.002590 -0.017236 0.000000 0.053088 0.000000
# 6 0.000000 0.000000 0.000000 0.003284 0.000000 0.025164
#
#
# Mechanical properties :
#
#
# Convention : Reuss Voigt Hill
#
# Bulk Modulus (GPa) = 36.38046 59.18285 47.78165
# Shear Modulus (GPa) = 27.51058 36.86416 32.18737
#
# Velocity S-wave (km/s) = 3.23941 3.74989 3.50396
# Velocity P-wave (km/s) = 5.27910 6.42837 5.88188
#
# Compressibility (1/GPa) = 0.02748729
#
# Stress axis : x y z
#
# Youngs Moduli (GPa) = 130.01792 59.92659 72.34613
#
# Poissons Ratio (x) = 0.12153 0.16933
# Poissons Ratio (y) = 0.26368 0.07149
# Poissons Ratio (z) = 0.30430 0.05922
#
# Static dielectric constant tensor:
#      x y z
#    x 2.456310 0.000000 -0.226700 
#    y 0.000000 2.654110 0.000000 
#    z -0.226700 0.000000 2.162640 
# 
# From -- ./inp_files/85712.got.cif
#   From: 2010.05.17/outbox.cif.g08.bks.cpg/sg13_43_cif.got.tgz:85712.got - 2010.06.03 16:44:36.
