data_PCOD9232202
_publ_section_title
;
Structure prediction by ZEFSAII (Michael W. Deem and Ramdas Pophale) SiO2 
 PCOD9232202
Probable space group: P 2/C
;
_chemical_formula_sum "Si O2"
_cell_formula_units_Z 32
_cell_length_a 13.056126
_cell_length_b 12.831441
_cell_length_c 17.074556
_cell_angle_alpha 90.000000
_cell_angle_beta 150.447828
_cell_angle_gamma 90.000000
_cell_volume 1410.835025
_symmetry_space_group_name_H-M "P 2/C"
_symmetry_group_IT_number 13
_symmetry_cell_setting 'monoclinic'
loop_
_space_group_symop_operation_xyz
x,y,z
-x,y,1/2-z
-x,-y,-z
x,-y,1/2+z
loop_
_atom_site_type_symbol
_atom_site_label
_atom_site_fract_x
_atom_site_fract_y
_atom_site_fract_z
Si Si1 0.829916 0.507111 0.766940
Si Si2 0.530173 0.019108 0.429393
Si Si3 0.627503 0.544112 0.969628
Si Si4 0.171255 0.840757 0.929099
Si Si5 0.767443 0.292392 0.780727
Si Si6 0.278780 0.907972 0.151676
Si Si7 0.250059 0.764490 0.407925
Si Si8 0.234576 0.373901 0.553922
O O1 0.607028 0.527766 0.657704
O O2 0.777489 0.498067 0.639760
O O3 0.905785 0.392346 0.846064
O O4 0.990517 0.595900 0.897209
O O5 0.649919 0.127219 0.499120
O O6 0.500000 0.000000 0.500000
O O7 0.660629 0.916085 0.496140
O O8 0.335894 0.008569 0.240732
O O9 0.674062 0.665681 0.992265
O O10 0.676328 0.476296 0.926842
O O11 0.244920 0.726972 0.005208
O O12 0.000000 0.826865 0.750000
O O13 0.115499 0.902893 0.972091
O O14 0.802966 0.178409 0.841272
O O15 0.679853 0.263110 0.635770
O O16 0.678437 0.342489 0.803091
O O17 0.500000 0.885129 0.250000
O O18 0.000000 0.771631 0.250000
#
# Coordination Sequence:
#
# PCOD9232202 Si02
#       8
#     4   4   4   4   4   4   4   4
#     4  10  21  35  59  95 134 173 226 273 341 416
#     4  11  22  40  69  95 128 173 238 295 347 412
#     4  10  22  37  60  94 134 181 222 281 344 420
#     4  10  22  39  68  95 128 174 226 279 348 411
#     4  10  21  37  66  97 131 180 220 286 342 427
#     4   9  20  38  65  98 127 168 226 289 337 406
#     4  11  23  42  66  92 136 186 232 277 364 425
#     4  11  22  40  65  97 140 176 230 290 344 417
#
# _framework density 22.681604
#
# number of rings (size 3 to 8) (size 9 to 14) (size 15 to 20)
#    0.000    1.750    1.250    3.375    5.250    2.000 
#    0.000    0.625   33.000    0.000    0.000    0.000 
#    0.000    0.000    0.000    0.000    0.000    0.000 
#
# Total GULP energy -178176.190197 kJ/mol
# GULP energy per Si atom -5568.005944 kJ/mol
# Density = 2.262998 g / cm^3
# Si number density = 22.681604 Si / 1000 Ang^3
#
#
#
# Elastic Constant Matrix: (Units=GPa)
#
#
# Indices 1 2 3 4 5 6 
#
# 1 92.0025 62.4222 48.5065 0.0000 -17.6035 0.0000
# 2 62.4222 132.1198 52.4722 0.0000 -6.4795 0.0000
# 3 48.5065 52.4722 110.9098 0.0000 -17.1633 0.0000
# 4 0.0000 0.0000 0.0000 34.7215 0.0000 -9.9321
# 5 -17.6035 -6.4795 -17.1633 0.0000 35.7423 0.0000
# 6 0.0000 0.0000 0.0000 -9.9321 0.0000 46.9477
#
#
#
# Elastic Compliance Matrix: (Units=1/GPa)
#
#
# Indices 1 2 3 4 5 6 
#
# 1 0.018938 -0.007061 -0.003994 0.000000 0.006130 0.000000
# 2 -0.007061 0.011960 -0.002995 0.000000 -0.002748 0.000000
# 3 -0.003994 -0.002995 0.012738 0.000000 0.003607 0.000000
# 4 0.000000 0.000000 0.000000 0.030656 0.000000 0.006485
# 5 0.006130 -0.002748 0.003607 0.000000 0.032231 0.000000
# 6 0.000000 0.000000 0.000000 0.006485 0.000000 0.022672
#
#
# Mechanical properties :
#
#
# Convention : Reuss Voigt Hill
#
# Bulk Modulus (GPa) = 64.36427 73.53708 68.95068
# Shear Modulus (GPa) = 30.77407 34.92438 32.84922
#
# Velocity S-wave (km/s) = 3.68745 3.92824 3.80975
# Velocity P-wave (km/s) = 6.82412 7.28469 7.05816
#
# Compressibility (1/GPa) = 0.01553657
#
# Stress axis : x y z
#
# Youngs Moduli (GPa) = 52.80249 83.61269 78.50400
#
# Poissons Ratio (x) = 0.59040 0.31351
# Poissons Ratio (y) = 0.37285 0.23515
# Poissons Ratio (z) = 0.21087 0.25045
#
# Static dielectric constant tensor:
#      x y z
#    x 1.991700 0.000000 0.094220 
#    y 0.000000 1.811890 0.000000 
#    z 0.094220 0.000000 2.095640 
# 
# From -- ./inp_files/68713.got.cif
#   From: 2010.05.17/outbox.cif.g08.bks.cpg/sg13_35_cif.got.tgz:68713.got - 2010.06.03 16:44:36.
