data_PCOD9232184
_publ_section_title
;
Structure prediction by ZEFSAII (Michael W. Deem and Ramdas Pophale) SiO2 
 PCOD9232184
Probable space group: P 2/C
;
_chemical_formula_sum "Si O2"
_cell_formula_units_Z 16
_cell_length_a 8.043287
_cell_length_b 12.601209
_cell_length_c 9.044430
_cell_angle_alpha 90.000000
_cell_angle_beta 51.086571
_cell_angle_gamma 90.000000
_cell_volume 713.280143
_symmetry_space_group_name_H-M "P 2/C"
_symmetry_group_IT_number 13
_symmetry_cell_setting 'monoclinic'
loop_
_space_group_symop_operation_xyz
x,y,z
-x,y,1/2-z
-x,-y,-z
x,-y,1/2+z
loop_
_atom_site_type_symbol
_atom_site_label
_atom_site_fract_x
_atom_site_fract_y
_atom_site_fract_z
Si Si1 0.315596 0.546357 0.257094
Si Si2 0.271830 0.636638 0.575849
Si Si3 0.212592 0.078763 0.545350
Si Si4 0.696552 0.868320 0.839807
O O1 0.500000 0.484953 0.250000
O O2 0.199819 0.614319 0.447179
O O3 0.205400 0.461496 0.216294
O O4 0.468851 0.623867 0.079019
O O5 0.227260 0.751361 0.661913
O O6 0.209498 0.095921 0.371167
O O7 0.437519 0.129785 0.472275
O O8 0.000000 0.117217 0.750000
O O9 0.239892 0.954888 0.573317
#
# Coordination Sequence:
#
# PCOD9232184 Si02
#       4
#     4   4   4   4
#     4   7  14  25  45  75 111 124 171 226 249 310
#     4   8  15  27  47  79 103 134 176 211 260 320
#     4  10  22  37  53  79 111 139 182 228 258 310
#     4  10  21  35  58  79 107 146 179 213 271 319
#
# _framework density 22.431581999999999
#
# number of rings (size 3 to 8) (size 9 to 14) (size 15 to 20)
#    1.500    1.500    0.000    0.750    3.500    8.000 
#    0.000    0.000    0.000    0.000    0.000   45.500 
#    0.000    0.000    0.000    0.000    0.000    1.000 
#
# Total GULP energy -89100.012886 kJ/mol
# GULP energy per Si atom -5568.750805 kJ/mol
# Density = 2.238053 g / cm^3
# Si number density = 22.431582 Si / 1000 Ang^3
#
#
#
# Elastic Constant Matrix: (Units=GPa)
#
#
# Indices 1 2 3 4 5 6 
#
# 1 74.9570 41.4074 70.3208 0.0000 -6.1939 0.0000
# 2 41.4074 148.1245 86.3653 0.0000 33.0022 0.0000
# 3 70.3208 86.3653 165.7666 0.0000 3.8938 0.0000
# 4 0.0000 0.0000 0.0000 7.8101 0.0000 4.9587
# 5 -6.1939 33.0022 3.8938 0.0000 50.0609 0.0000
# 6 0.0000 0.0000 0.0000 4.9587 0.0000 -22.4208
#
#
#
# Elastic Compliance Matrix: (Units=1/GPa)
#
#
# Indices 1 2 3 4 5 6 
#
# 1 0.023371 -0.002682 -0.008642 0.000000 0.005332 0.000000
# 2 -0.002682 0.012223 -0.005042 0.000000 -0.007997 0.000000
# 3 -0.008642 -0.005042 0.012295 0.000000 0.001299 0.000000
# 4 0.000000 0.000000 0.000000 0.112274 0.000000 0.024831
# 5 0.005332 -0.007997 0.001299 0.000000 0.025807 0.000000
# 6 0.000000 0.000000 0.000000 0.024831 0.000000 -0.039110
#
#
# Mechanical properties :
#
#
# Convention : Reuss Voigt Hill
#
# Bulk Modulus (GPa) = 65.98325 87.22612 76.60469
# Shear Modulus (GPa) = 27.07896 19.80702 23.44299
#
# Velocity S-wave (km/s) = 3.47822 2.97475 3.23629
# Velocity P-wave (km/s) = 6.75351 7.12521 6.94185
#
# Compressibility (1/GPa) = 0.01515536
#
# Stress axis : x y z
#
# Youngs Moduli (GPa) = 42.78828 81.81468 81.33237
#
# Poissons Ratio (x) = 0.21946 0.70287
# Poissons Ratio (y) = 0.11478 0.41010
# Poissons Ratio (z) = 0.36978 0.41254
#
# Static dielectric constant tensor:
#      x y z
#    x 1.903310 0.000000 -0.069380 
#    y 0.000000 1.746990 0.000000 
#    z -0.069380 0.000000 1.908310 
# 
# From -- ./inp_files/11499.got.cif
#   From: 2010.05.17/outbox.cif.g08.bks.cpg/sg13_6_cif.got.tgz:11499.got - 2010.06.03 16:44:36.
