data_PCOD9232307
_publ_section_title
;
Structure prediction by ZEFSAII (Michael W. Deem and Ramdas Pophale) SiO2 
 PCOD9232307
Probable space group: P 2/C
;
_chemical_formula_sum "Si O2"
_cell_formula_units_Z 30
_cell_length_a 28.710655
_cell_length_b 11.445531
_cell_length_c 10.023296
_cell_angle_alpha 90.000000
_cell_angle_beta 148.936372
_cell_angle_gamma 90.000000
_cell_volume 1699.536901
_symmetry_space_group_name_H-M "P 2/C"
_symmetry_group_IT_number 13
_symmetry_cell_setting 'monoclinic'
loop_
_space_group_symop_operation_xyz
x,y,z
-x,y,1/2-z
-x,-y,-z
x,-y,1/2+z
loop_
_atom_site_type_symbol
_atom_site_label
_atom_site_fract_x
_atom_site_fract_y
_atom_site_fract_z
Si Si1 0.678638 0.893241 0.784615
Si Si2 0.904241 0.369503 0.948169
Si Si3 0.900932 0.355090 0.445187
Si Si4 0.171097 0.237062 0.986540
Si Si5 0.066529 0.001807 0.287963
Si Si6 0.672709 0.899091 0.080553
Si Si7 0.500000 0.986535 0.250000
Si Si8 0.173401 0.242508 0.504437
O O1 0.710235 0.003949 0.774942
O O2 0.570455 0.903989 0.501068
O O3 0.732327 0.788430 0.846039
O O4 0.699686 0.907164 0.991755
O O5 0.836019 0.331644 0.896622
O O6 0.000000 0.342112 0.250000
O O7 0.900158 0.507326 0.911414
O O8 0.888416 0.296053 0.775964
O O9 0.831275 0.320502 0.391147
O O10 0.875316 0.287111 0.248155
O O11 0.000000 0.326678 0.750000
O O12 0.126950 0.115133 0.926939
O O13 0.000000 0.999829 0.250000
O O14 0.125193 0.120621 0.428890
O O15 0.000000 0.000000 0.000000
O O16 0.720067 0.783176 0.251471
O O17 0.566137 0.928500 0.828293
#
# Coordination Sequence:
#
# PCOD9232307 Si02
#       8
#     4   4   4   4   4   4   2   4
#     4  10  21  36  57  88 124 149 184 229 289 368
#     4  11  23  41  59  77 113 163 213 255 285 328
#     4  11  25  41  57  81 112 162 220 251 282 334
#     4  12  22  37  57  85 119 150 195 250 290 351
#     4  12  23  32  50  79 116 151 184 226 298 356
#     4  10  21  36  58  88 124 147 185 229 289 370
#     4   8  20  36  62  86 128 152 182 218 298 378
#     4  12  22  37  58  85 118 154 192 254 300 342
#
# _framework density 17.651866999999999
#
# number of rings (size 3 to 8) (size 9 to 14) (size 15 to 20)
#    0.800    0.267    2.667    6.000    1.867    2.133 
#    0.000    0.000    0.000    0.000    0.000    5.600 
#    0.000    0.000    0.000    0.000    0.000    0.000 
#
# Total GULP energy -167150.387902 kJ/mol
# GULP energy per Si atom -5571.679597 kJ/mol
# Density = 1.761169 g / cm^3
# Si number density = 17.651867 Si / 1000 Ang^3
#
#
#
# Elastic Constant Matrix: (Units=GPa)
#
#
# Indices 1 2 3 4 5 6 
#
# 1 112.6870 32.1699 40.2198 0.0000 -12.0020 0.0000
# 2 32.1699 66.7901 35.9728 0.0000 -0.9294 0.0000
# 3 40.2198 35.9728 78.3399 0.0000 -4.2955 0.0000
# 4 0.0000 0.0000 0.0000 20.3440 0.0000 -3.3653
# 5 -12.0020 -0.9294 -4.2955 0.0000 36.5316 0.0000
# 6 0.0000 0.0000 0.0000 -3.3653 0.0000 17.9541
#
#
#
# Elastic Compliance Matrix: (Units=1/GPa)
#
#
# Indices 1 2 3 4 5 6 
#
# 1 0.011696 -0.003255 -0.004332 0.000000 0.003250 0.000000
# 2 -0.003255 0.020810 -0.007965 0.000000 -0.001477 0.000000
# 3 -0.004332 -0.007965 0.018678 0.000000 0.000570 0.000000
# 4 0.000000 0.000000 0.000000 0.050727 0.000000 0.009508
# 5 0.003250 -0.001477 0.000570 0.000000 0.028471 0.000000
# 6 0.000000 0.000000 0.000000 0.009508 0.000000 0.057480
#
#
# Mechanical properties :
#
#
# Convention : Reuss Voigt Hill
#
# Bulk Modulus (GPa) = 49.80380 52.72689 51.26535
# Shear Modulus (GPa) = 22.15744 24.92959 23.54352
#
# Velocity S-wave (km/s) = 3.54679 3.76212 3.65604
# Velocity P-wave (km/s) = 6.71183 6.98618 6.85038
#
# Compressibility (1/GPa) = 0.02007879
#
# Stress axis : x y z
#
# Youngs Moduli (GPa) = 85.50229 48.05468 53.54001
#
# Poissons Ratio (x) = 0.15642 0.23192
# Poissons Ratio (y) = 0.27831 0.42647
# Poissons Ratio (z) = 0.37036 0.38277
#
# Static dielectric constant tensor:
#      x y z
#    x 1.632240 0.000000 0.039630 
#    y 0.000000 1.619960 0.000000 
#    z 0.039630 0.000000 1.627530 
# 
# From -- ./inp_files/24157.got.cif
#   From: 2010.05.17/outbox.cif.g08.bks.cpg/sg13_13_cif.got.tgz:24157.got - 2010.06.03 16:44:36.
