data_PCOD9232125
_publ_section_title
;
Structure prediction by ZEFSAII (Michael W. Deem and Ramdas Pophale) SiO2 
 PCOD9232125
Probable space group: P 2/C
;
_chemical_formula_sum "Si O2"
_cell_formula_units_Z 22
_cell_length_a 14.562652
_cell_length_b 6.929460
_cell_length_c 7.962103
_cell_angle_alpha 90.000000
_cell_angle_beta 88.954227
_cell_angle_gamma 90.000000
_cell_volume 803.332450
_symmetry_space_group_name_H-M "P 2/C"
_symmetry_group_IT_number 13
_symmetry_cell_setting 'monoclinic'
loop_
_space_group_symop_operation_xyz
x,y,z
-x,y,1/2-z
-x,-y,-z
x,-y,1/2+z
loop_
_atom_site_type_symbol
_atom_site_label
_atom_site_fract_x
_atom_site_fract_y
_atom_site_fract_z
Si Si1 0.802627 0.269067 0.161842
Si Si2 0.590618 0.122867 0.846765
Si Si3 0.400438 0.706673 0.780046
Si Si4 0.000000 0.723486 0.750000
Si Si5 0.787207 0.822046 0.265815
Si Si6 0.953240 0.301537 0.575674
O O1 0.705576 0.365615 0.220183
O O2 0.895741 0.362868 0.232726
O O3 0.803377 0.051208 0.236792
O O4 0.807740 0.245147 0.957752
O O5 0.500000 0.170496 0.750000
O O6 0.678945 0.200705 0.747325
O O7 0.597636 0.889935 0.846015
O O8 0.593663 0.205096 0.032815
O O9 0.500000 0.603311 0.750000
O O10 0.015781 0.832681 0.577882
O O11 0.846512 0.719695 0.119923
O O12 0.000000 0.259278 0.750000
O O13 0.000000 0.500000 0.500000
#
# Coordination Sequence:
#
# PCOD9232125 Si02
#       6
#     4   4   4   2   4   4
#     4  10  21  34  54  89 122 157 188 232 297 343
#     4   9  16  27  47  75 111 150 185 226 276 330
#     4   9  16  27  45  72 116 155 188 221 263 340
#     4  12  24  38  62  86 118 156 190 240 294 348
#     4  10  21  36  55  85 121 152 194 238 283 349
#     4  12  25  43  62  82 109 150 203 245 287 342
#
# _framework density 27.385919999999999
#
# number of rings (size 3 to 8) (size 9 to 14) (size 15 to 20)
#    0.000    1.818    2.727    3.273    1.273    5.818 
#    0.000    0.000    0.000    0.000    0.000    2.545 
#    0.000    0.000    0.000    0.000    0.000    0.000 
#
# Total GULP energy -122882.151044 kJ/mol
# GULP energy per Si atom -5585.552320 kJ/mol
# Density = 2.732359 g / cm^3
# Si number density = 27.385920 Si / 1000 Ang^3
#
#
#
# Elastic Constant Matrix: (Units=GPa)
#
#
# Indices 1 2 3 4 5 6 
#
# 1 294.1172 21.7135 78.0431 0.0000 -32.6057 0.0000
# 2 21.7135 91.6207 10.3816 0.0000 -12.7604 0.0000
# 3 78.0431 10.3816 159.4705 0.0000 -17.4570 0.0000
# 4 0.0000 0.0000 0.0000 22.1970 0.0000 -7.9650
# 5 -32.6057 -12.7604 -17.4570 0.0000 65.7359 0.0000
# 6 0.0000 0.0000 0.0000 -7.9650 0.0000 26.4999
#
#
#
# Elastic Compliance Matrix: (Units=1/GPa)
#
#
# Indices 1 2 3 4 5 6 
#
# 1 0.004079 -0.000563 -0.001802 0.000000 0.001435 0.000000
# 2 -0.000563 0.011335 -0.000260 0.000000 0.001852 0.000000
# 3 -0.001802 -0.000260 0.007278 0.000000 0.000988 0.000000
# 4 0.000000 0.000000 0.000000 0.050497 0.000000 0.015178
# 5 0.001435 0.001852 0.000988 0.000000 0.016546 0.000000
# 6 0.000000 0.000000 0.000000 0.015178 0.000000 0.042298
#
#
# Mechanical properties :
#
#
# Convention : Reuss Voigt Hill
#
# Bulk Modulus (GPa) = 57.33119 85.05386 71.19252
# Shear Modulus (GPa) = 34.94112 51.89125 43.41618
#
# Velocity S-wave (km/s) = 3.57582 4.35767 3.98596
# Velocity P-wave (km/s) = 6.16674 7.51292 6.87287
#
# Compressibility (1/GPa) = 0.01744251
#
# Stress axis : x y z
#
# Youngs Moduli (GPa) = 245.16252 88.21992 137.40139
#
# Poissons Ratio (x) = 0.04963 0.24766
# Poissons Ratio (y) = 0.13791 0.03570
# Poissons Ratio (z) = 0.44189 0.02292
#
# Static dielectric constant tensor:
#      x y z
#    x 2.168590 0.000000 0.026470 
#    y 0.000000 2.286500 0.000000 
#    z 0.026470 0.000000 2.305060 
# 
# From -- ./inp_files/18003.got.cif
#   From: 2010.05.17/outbox.cif.g08.bks.cpg/sg13_10_cif.got.tgz:18003.got - 2010.06.03 16:44:36.
