data_PCOD9232726
_publ_section_title
;
Structure prediction by ZEFSAII (Michael W. Deem and Ramdas Pophale) SiO2 
 PCOD9232726
Probable space group: P 2/C
;
_chemical_formula_sum "Si O2"
_cell_formula_units_Z 20
_cell_length_a 8.544926
_cell_length_b 8.468049
_cell_length_c 22.943805
_cell_angle_alpha 90.000000
_cell_angle_beta 148.385085
_cell_angle_gamma 90.000000
_cell_volume 870.282859
_symmetry_space_group_name_H-M "P 2/C"
_symmetry_group_IT_number 13
_symmetry_cell_setting 'monoclinic'
loop_
_space_group_symop_operation_xyz
x,y,z
-x,y,1/2-z
-x,-y,-z
x,-y,1/2+z
loop_
_atom_site_type_symbol
_atom_site_label
_atom_site_fract_x
_atom_site_fract_y
_atom_site_fract_z
Si Si1 0.185999 0.220169 0.087859
Si Si2 0.844948 0.116181 0.864693
Si Si3 0.693990 0.736856 0.057855
Si Si4 0.270844 0.427007 0.499311
Si Si5 0.663876 0.694906 0.663748
O O1 0.536541 0.225811 0.181680
O O2 0.127626 0.063944 0.106336
O O3 0.004109 0.209420 0.968684
O O4 0.037482 0.366794 0.073350
O O5 0.500000 0.159168 0.750000
O O6 0.017835 0.156877 0.859605
O O7 0.785552 0.554090 0.070791
O O8 0.478717 0.787668 0.936409
O O9 0.478419 0.718003 0.044085
O O10 0.485745 0.528788 0.608862
O O11 0.000000 0.674373 0.750000
#
# Coordination Sequence:
#
# PCOD9232726 Si02
#       5
#     4   4   4   4   4
#     4  10  21  38  60  82 118 155 192 245 284 344
#     4  10  22  39  55  84 117 156 199 230 288 349
#     4   8  19  37  55  82 120 145 182 247 279 348
#     4   9  18  37  57  86 111 151 185 238 303 325
#     4   9  18  33  56  84 113 143 190 237 287 347
#
# _framework density 22.981031999999999
#
# number of rings (size 3 to 8) (size 9 to 14) (size 15 to 20)
#    1.200    1.600    0.000    0.600    0.000    4.000 
#    0.000    4.000    0.000    1.200    0.000    0.000 
#    0.000    0.000    0.000    0.000    0.000    0.000 
#
# Total GULP energy -111346.536081 kJ/mol
# GULP energy per Si atom -5567.326804 kJ/mol
# Density = 2.292873 g / cm^3
# Si number density = 22.981032 Si / 1000 Ang^3
#
#
#
# Elastic Constant Matrix: (Units=GPa)
#
#
# Indices 1 2 3 4 5 6 
#
# 1 52.4347 27.0575 27.5453 0.0000 39.0188 0.0000
# 2 27.0575 38.8568 13.4045 0.0000 23.8284 0.0000
# 3 27.5453 13.4045 99.6352 0.0000 33.4906 0.0000
# 4 0.0000 0.0000 0.0000 19.6610 0.0000 9.4884
# 5 39.0188 23.8284 33.4906 0.0000 45.6137 0.0000
# 6 0.0000 0.0000 0.0000 9.4884 0.0000 33.2656
#
#
#
# Elastic Compliance Matrix: (Units=1/GPa)
#
#
# Indices 1 2 3 4 5 6 
#
# 1 0.057569 -0.014541 0.000054 0.000000 -0.041689 0.000000
# 2 -0.014541 0.041861 0.002068 0.000000 -0.010948 0.000000
# 3 0.000054 0.002068 0.013439 0.000000 -0.010993 0.000000
# 4 0.000000 0.000000 0.000000 0.058981 0.000000 -0.016823
# 5 -0.041689 -0.010948 -0.010993 0.000000 0.071376 0.000000
# 6 0.000000 0.000000 0.000000 -0.016823 0.000000 0.034860
#
#
# Mechanical properties :
#
#
# Convention : Reuss Voigt Hill
#
# Bulk Modulus (GPa) = 11.35967 36.32681 23.84324
# Shear Modulus (GPa) = 15.04814 27.90269 21.47541
#
# Velocity S-wave (km/s) = 2.56170 3.48826 3.06025
# Velocity P-wave (km/s) = 3.70182 5.66265 4.78378
#
# Compressibility (1/GPa) = 0.08803076
#
# Stress axis : x y z
#
# Youngs Moduli (GPa) = 17.37042 23.88850 74.41175
#
# Poissons Ratio (x) = 0.34736 -0.00399
# Poissons Ratio (y) = 0.25258 -0.15389
# Poissons Ratio (z) = -0.00093 -0.04940
#
# Static dielectric constant tensor:
#      x y z
#    x 1.961010 0.000000 0.008920 
#    y 0.000000 1.898180 0.000000 
#    z 0.008920 0.000000 1.937260 
# 
# From -- ./inp_files/95884.got.cif
#   From: 2010.05.17/outbox.cif.g08.bks.cpg/sg13_48_cif.got.tgz:95884.got - 2010.06.03 16:44:36.
