data_PCOD9232407
_publ_section_title
;
Structure prediction by ZEFSAII (Michael W. Deem and Ramdas Pophale) SiO2 
 PCOD9232407
Probable space group: P 2/C
;
_chemical_formula_sum "Si O2"
_cell_formula_units_Z 22
_cell_length_a 5.537781
_cell_length_b 21.960648
_cell_length_c 8.784014
_cell_angle_alpha 90.000000
_cell_angle_beta 96.416181
_cell_angle_gamma 90.000000
_cell_volume 1061.561464
_symmetry_space_group_name_H-M "P 2/C"
_symmetry_group_IT_number 13
_symmetry_cell_setting 'monoclinic'
loop_
_space_group_symop_operation_xyz
x,y,z
-x,y,1/2-z
-x,-y,-z
x,-y,1/2+z
loop_
_atom_site_type_symbol
_atom_site_label
_atom_site_fract_x
_atom_site_fract_y
_atom_site_fract_z
Si Si1 0.000000 0.388264 0.750000
Si Si2 0.500000 0.767397 0.750000
Si Si3 0.500000 0.979782 0.250000
Si Si4 0.000000 0.842761 0.750000
Si Si5 0.000000 0.592316 0.750000
Si Si6 0.322944 0.338521 0.037866
Si Si7 0.322328 0.555169 0.029619
Si Si8 0.177912 0.053425 0.462500
O O1 0.202907 0.431407 0.684795
O O2 0.877063 0.346279 0.610584
O O3 0.251277 0.805199 0.757448
O O4 0.564192 0.725105 0.900995
O O5 0.641575 0.939146 0.382716
O O6 0.326315 0.024876 0.332226
O O7 0.036858 0.887320 0.897273
O O8 0.197854 0.634154 0.680776
O O9 0.893339 0.552258 0.607593
O O10 0.533537 0.383430 0.999263
O O11 0.500000 0.500000 0.000000
O O12 0.000000 0.000000 0.500000
#
# Coordination Sequence:
#
# PCOD9232407 Si02
#       8
#     2   2   2   2   2   4   4   4
#     4  10  26  43  71 101 138 180 239 292 384 426
#     4  12  27  48  74 104 146 203 256 296 352 452
#     4  10  21  36  72  98 158 189 236 282 390 416
#     4  12  27  44  75 113 144 195 256 294 356 446
#     4  10  21  41  70  96 134 183 237 284 382 436
#     4  11  23  45  71  97 137 189 235 298 369 422
#     4  11  24  42  69 105 139 175 237 301 376 443
#     4  11  21  41  68 109 146 196 233 307 365 432
#
# _framework density 20.72419
#
# number of rings (size 3 to 8) (size 9 to 14) (size 15 to 20)
#    0.000    1.091    3.636    1.636    5.091    7.273 
#    0.000    4.545    0.000    0.000    0.000    0.000 
#    0.000    0.000    0.000    0.000    0.000    0.000 
#
# Total GULP energy -122940.605417 kJ/mol
# GULP energy per Si atom -5588.209337 kJ/mol
# Density = 2.067702 g / cm^3
# Si number density = 20.724190 Si / 1000 Ang^3
#
#
#
# Elastic Constant Matrix: (Units=GPa)
#
#
# Indices 1 2 3 4 5 6 
#
# 1 139.6995 72.8171 49.3032 0.0000 -18.0854 0.0000
# 2 72.8171 128.1444 50.7826 0.0000 7.6718 0.0000
# 3 49.3032 50.7826 135.2316 0.0000 8.4773 0.0000
# 4 0.0000 0.0000 0.0000 40.0195 0.0000 11.3982
# 5 -18.0854 7.6718 8.4773 0.0000 56.4223 0.0000
# 6 0.0000 0.0000 0.0000 11.3982 0.0000 47.4863
#
#
#
# Elastic Compliance Matrix: (Units=1/GPa)
#
#
# Indices 1 2 3 4 5 6 
#
# 1 0.011785 -0.006071 -0.002327 0.000000 0.004953 0.000000
# 2 -0.006071 0.012326 -0.002209 0.000000 -0.003290 0.000000
# 3 -0.002327 -0.002209 0.009187 0.000000 -0.001826 0.000000
# 4 0.000000 0.000000 0.000000 0.026821 0.000000 -0.006438
# 5 0.004953 -0.003290 -0.001826 0.000000 0.020033 0.000000
# 6 0.000000 0.000000 0.000000 -0.006438 0.000000 0.022604
#
#
# Mechanical properties :
#
#
# Convention : Reuss Voigt Hill
#
# Bulk Modulus (GPa) = 82.75726 83.20903 82.98315
# Shear Modulus (GPa) = 39.06266 44.13047 41.59657
#
# Velocity S-wave (km/s) = 4.34623 4.61957 4.48498
# Velocity P-wave (km/s) = 8.07500 8.28805 8.18222
#
# Compressibility (1/GPa) = 0.01208353
#
# Stress axis : x y z
#
# Youngs Moduli (GPa) = 84.85152 81.12965 108.84673
#
# Poissons Ratio (x) = 0.49255 0.25332
# Poissons Ratio (y) = 0.51514 0.24044
# Poissons Ratio (z) = 0.19748 0.17922
#
# Static dielectric constant tensor:
#      x y z
#    x 1.769260 0.000000 0.053260 
#    y 0.000000 1.731000 0.000000 
#    z 0.053260 0.000000 1.777220 
# 
# From -- ./inp_files/10039.got.cif
#   From: 2010.05.17/outbox.cif.g08.bks.cpg/sg13_6_cif.got.tgz:10039.got - 2010.06.03 16:44:36.
