data_PCOD9232168
_publ_section_title
;
Structure prediction by ZEFSAII (Michael W. Deem and Ramdas Pophale) SiO2 
 PCOD9232168
Probable space group: P 2/C
;
_chemical_formula_sum "Si O2"
_cell_formula_units_Z 22
_cell_length_a 6.012163
_cell_length_b 5.591460
_cell_length_c 27.446953
_cell_angle_alpha 90.000000
_cell_angle_beta 96.274697
_cell_angle_gamma 90.000000
_cell_volume 917.150408
_symmetry_space_group_name_H-M "P 2/C"
_symmetry_group_IT_number 13
_symmetry_cell_setting 'monoclinic'
loop_
_space_group_symop_operation_xyz
x,y,z
-x,y,1/2-z
-x,-y,-z
x,-y,1/2+z
loop_
_atom_site_type_symbol
_atom_site_label
_atom_site_fract_x
_atom_site_fract_y
_atom_site_fract_z
Si Si1 0.605317 0.782214 0.845730
Si Si2 0.500000 0.486474 0.250000
Si Si3 0.879801 0.844066 0.291786
Si Si4 0.796485 0.344010 0.973788
Si Si5 0.007999 0.599248 0.116317
Si Si6 0.603026 0.705540 0.563767
O O1 0.462752 0.661972 0.798867
O O2 0.722302 0.996554 0.821039
O O3 0.478753 0.857966 0.892083
O O4 0.796989 0.590767 0.865516
O O5 0.720330 0.644100 0.264533
O O6 0.000000 0.973150 0.250000
O O7 0.047937 0.735692 0.335563
O O8 0.600432 0.531207 0.956019
O O9 0.890736 0.239859 0.925458
O O10 0.703216 0.184243 0.016151
O O11 0.000000 0.500000 0.000000
O O12 0.796479 0.460259 0.090804
#
# Coordination Sequence:
#
# PCOD9232168 Si02
#       6
#     4   2   4   4   4   4
#     4  10  21  35  55  83 111 144 189 233 279 335
#     4  10  22  40  58  78 110 150 190 232 282 336
#     4  11  23  37  56  82 113 150 192 236 282 334
#     4   8  15  30  57  85 107 143 187 224 273 336
#     4   9  19  35  55  81 113 148 187 228 278 335
#     4   9  16  32  57  80 111 148 180 227 283 330
#
# _framework density 23.987342000000002
#
# number of rings (size 3 to 8) (size 9 to 14) (size 15 to 20)
#    0.000    2.545    0.000    1.636    0.000    5.818 
#    0.000    0.909    0.000   37.091    0.000    0.000 
#    0.000    0.000    0.000    0.000    0.000    0.000 
#
# Total GULP energy -122839.974081 kJ/mol
# GULP energy per Si atom -5583.635186 kJ/mol
# Density = 2.393275 g / cm^3
# Si number density = 23.987342 Si / 1000 Ang^3
#
#
#
# Elastic Constant Matrix: (Units=GPa)
#
#
# Indices 1 2 3 4 5 6 
#
# 1 74.4604 0.6093 60.3842 0.0000 10.6933 0.0000
# 2 0.6093 14.3473 16.8858 0.0000 7.4174 0.0000
# 3 60.3842 16.8858 174.1170 0.0000 -10.3455 0.0000
# 4 0.0000 0.0000 0.0000 -2.0396 0.0000 0.1654
# 5 10.6933 7.4174 -10.3455 0.0000 50.7480 0.0000
# 6 0.0000 0.0000 0.0000 0.1654 0.0000 22.8627
#
#
#
# Elastic Compliance Matrix: (Units=1/GPa)
#
#
# Indices 1 2 3 4 5 6 
#
# 1 0.022586 0.015288 -0.009850 0.000000 -0.009002 0.000000
# 2 0.015288 0.098880 -0.016137 0.000000 -0.020963 0.000000
# 3 -0.009850 -0.016137 0.011122 0.000000 0.006702 0.000000
# 4 0.000000 0.000000 0.000000 -0.490001 0.000000 0.003544
# 5 -0.009002 -0.020963 0.006702 0.000000 0.026032 0.000000
# 6 0.000000 0.000000 0.000000 0.003544 0.000000 0.043714
#
#
# Mechanical properties :
#
#
# Convention : Reuss Voigt Hill
#
# Bulk Modulus (GPa) = 8.99368 46.52038 27.75703
# Shear Modulus (GPa) = -21.81445 26.65058 2.41806
#
# Velocity S-wave (km/s) = -3.01892 3.33682 1.00511
# Velocity P-wave (km/s) = 2.89730 5.85506 3.59773
#
# Compressibility (1/GPa) = 0.11118914
#
# Stress axis : x y z
#
# Youngs Moduli (GPa) = 44.27591 10.11330 89.90831
#
# Poissons Ratio (x) = -0.15461 0.88561
# Poissons Ratio (y) = -0.67687 1.45082
# Poissons Ratio (z) = 0.43613 0.16319
#
# Static dielectric constant tensor:
#      x y z
#    x 1.918680 0.000000 -0.032860 
#    y 0.000000 1.909650 0.000000 
#    z -0.032860 0.000000 1.988500 
# 
# From -- ./inp_files/94614.got.cif
#   From: 2010.05.17/outbox.cif.g08.bks.cpg/sg13_48_cif.got.tgz:94614.got - 2010.06.03 16:44:36.
