data_PCOD9232481
_publ_section_title
;
Structure prediction by ZEFSAII (Michael W. Deem and Ramdas Pophale) SiO2 
 PCOD9232481
Probable space group: P 2/C
;
_chemical_formula_sum "Si O2"
_cell_formula_units_Z 16
_cell_length_a 7.182833
_cell_length_b 18.704149
_cell_length_c 8.499400
_cell_angle_alpha 90.000000
_cell_angle_beta 142.436588
_cell_angle_gamma 90.000000
_cell_volume 696.137138
_symmetry_space_group_name_H-M "P 2/C"
_symmetry_group_IT_number 13
_symmetry_cell_setting 'monoclinic'
loop_
_space_group_symop_operation_xyz
x,y,z
-x,y,1/2-z
-x,-y,-z
x,-y,1/2+z
loop_
_atom_site_type_symbol
_atom_site_label
_atom_site_fract_x
_atom_site_fract_y
_atom_site_fract_z
Si Si1 0.635512 0.212169 0.011016
Si Si2 0.635458 0.928505 0.014094
Si Si3 0.140056 0.428094 0.668464
Si Si4 0.354149 0.638785 0.823595
O O1 0.572593 0.281226 0.076310
O O2 0.000000 0.200749 0.250000
O O3 0.500000 0.227531 0.750000
O O4 0.471967 0.141243 0.963940
O O5 0.000000 0.932616 0.250000
O O6 0.500000 0.922148 0.750000
O O7 0.500000 0.000000 0.000000
O O8 0.000000 0.420529 0.750000
O O9 0.000000 0.500000 0.500000
O O10 0.003126 0.370195 0.454766
O O11 0.495950 0.415144 0.947507
O O12 0.500000 0.623789 0.750000
#
# Coordination Sequence:
#
# PCOD9232481 Si02
#       4
#     4   4   4   4
#     4  12  25  42  65  98 132 170 218 269 320 382
#     4  12  25  45  71 100 135 175 215 264 318 380
#     4  10  21  37  59  86 119 159 209 265 322 382
#     4  10  22  40  60  86 122 166 211 262 322 382
#
# _framework density 22.983976999999999
#
# number of rings (size 3 to 8) (size 9 to 14) (size 15 to 20)
#    0.000    1.000    0.000    6.750    0.000    6.000 
#    0.000    0.000    0.000    0.000    0.000    0.000 
#    0.000    0.000    0.000    0.000    0.000    0.000 
#
# Total GULP energy -89532.342910 kJ/mol
# GULP energy per Si atom -5595.771432 kJ/mol
# Density = 2.293166 g / cm^3
# Si number density = 22.983977 Si / 1000 Ang^3
#
#
#
# Elastic Constant Matrix: (Units=GPa)
#
#
# Indices 1 2 3 4 5 6 
#
# 1 53.1483 8.3278 68.2382 0.0000 17.6780 0.0000
# 2 8.3278 148.4981 62.4465 0.0000 -7.4193 0.0000
# 3 68.2382 62.4465 235.2895 0.0000 2.6466 0.0000
# 4 0.0000 0.0000 0.0000 37.2890 0.0000 1.1115
# 5 17.6780 -7.4193 2.6466 0.0000 44.6303 0.0000
# 6 0.0000 0.0000 0.0000 1.1115 0.0000 23.5877
#
#
#
# Elastic Compliance Matrix: (Units=1/GPa)
#
#
# Indices 1 2 3 4 5 6 
#
# 1 0.037591 0.001932 -0.011259 0.000000 -0.013901 0.000000
# 2 0.001932 0.007765 -0.002629 0.000000 0.000682 0.000000
# 3 -0.011259 -0.002629 0.008173 0.000000 0.003538 0.000000
# 4 0.000000 0.000000 0.000000 0.026855 0.000000 -0.001266
# 5 -0.013901 0.000682 0.003538 0.000000 0.027816 0.000000
# 6 0.000000 0.000000 0.000000 -0.001266 0.000000 0.042455
#
#
# Mechanical properties :
#
#
# Convention : Reuss Voigt Hill
#
# Bulk Modulus (GPa) = 33.76247 79.44007 56.60127
# Shear Modulus (GPa) = 27.10910 40.96295 34.03603
#
# Velocity S-wave (km/s) = 3.43808 4.22624 3.85237
# Velocity P-wave (km/s) = 5.52105 7.64546 6.66840
#
# Compressibility (1/GPa) = 0.02961869
#
# Stress axis : x y z
#
# Youngs Moduli (GPa) = 26.60182 128.77803 122.35157
#
# Poissons Ratio (x) = -0.24877 1.37750
# Poissons Ratio (y) = -0.05139 0.32164
# Poissons Ratio (z) = 0.29950 0.33854
#
# Static dielectric constant tensor:
#      x y z
#    x 1.908640 0.000000 0.026620 
#    y 0.000000 1.724640 0.000000 
#    z 0.026620 0.000000 1.877680 
# 
# From -- ./inp_files/12928.got.cif
#   From: 2010.05.17/outbox.cif.g08.bks.cpg/sg13_7_cif.got.tgz:12928.got - 2010.06.03 16:44:36.
