data_PCOD9232292
_publ_section_title
;
Structure prediction by ZEFSAII (Michael W. Deem and Ramdas Pophale) SiO2 
 PCOD9232292
Probable space group: P 2/C
;
_chemical_formula_sum "Si O2"
_cell_formula_units_Z 22
_cell_length_a 15.324088
_cell_length_b 11.229345
_cell_length_c 9.012423
_cell_angle_alpha 90.000000
_cell_angle_beta 133.268168
_cell_angle_gamma 90.000000
_cell_volume 1129.259287
_symmetry_space_group_name_H-M "P 2/C"
_symmetry_group_IT_number 13
_symmetry_cell_setting 'monoclinic'
loop_
_space_group_symop_operation_xyz
x,y,z
-x,y,1/2-z
-x,-y,-z
x,-y,1/2+z
loop_
_atom_site_type_symbol
_atom_site_label
_atom_site_fract_x
_atom_site_fract_y
_atom_site_fract_z
Si Si1 0.161476 0.437715 0.191412
Si Si2 0.443430 0.613802 0.018315
Si Si3 0.413356 0.164409 0.908528
Si Si4 0.000000 0.686248 0.250000
Si Si5 0.161134 0.274560 0.688028
Si Si6 0.500000 0.977602 0.250000
Si Si7 0.000000 0.314649 0.250000
O O1 0.299422 0.396088 0.353211
O O2 0.163369 0.580741 0.191196
O O3 0.091385 0.391039 0.254950
O O4 0.084352 0.388115 0.962508
O O5 0.500000 0.615848 0.250000
O O6 0.484753 0.734012 0.983318
O O7 0.500000 0.500000 0.000000
O O8 0.292287 0.227377 0.815800
O O9 0.411416 0.105186 0.742882
O O10 0.439600 0.062591 0.058680
O O11 0.907203 0.759529 0.241918
O O12 0.078930 0.239204 0.454376
#
# Coordination Sequence:
#
# PCOD9232292 Si02
#       7
#     4   4   4   2   4   2   2
#     4  11  21  35  59  92 143 167 210 246 320 410
#     4  12  26  39  63 105 139 164 207 274 342 396
#     4  11  24  45  69  92 127 169 225 275 334 383
#     4  10  23  36  58  99 132 183 206 242 327 406
#     4  11  20  37  61  91 132 166 211 256 315 398
#     4  10  26  48  66  92 116 180 230 272 332 378
#     4  10  21  36  56  93 136 181 196 246 321 410
#
# _framework density 19.481798999999999
#
# number of rings (size 3 to 8) (size 9 to 14) (size 15 to 20)
#    0.000    1.091    2.727    5.455    6.364    0.000 
#    0.000    0.000    0.000    3.273    0.000    0.000 
#    0.000    0.000    0.000    0.000    0.000    0.000 
#
# Total GULP energy -122894.993734 kJ/mol
# GULP energy per Si atom -5586.136079 kJ/mol
# Density = 1.943746 g / cm^3
# Si number density = 19.481799 Si / 1000 Ang^3
#
#
#
# Elastic Constant Matrix: (Units=GPa)
#
#
# Indices 1 2 3 4 5 6 
#
# 1 185.4203 38.8826 75.4105 0.0000 14.3637 0.0000
# 2 38.8826 51.9171 11.4137 0.0000 2.0611 0.0000
# 3 75.4105 11.4137 84.8888 0.0000 6.6351 0.0000
# 4 0.0000 0.0000 0.0000 10.6926 0.0000 5.4371
# 5 14.3637 2.0611 6.6351 0.0000 49.3546 0.0000
# 6 0.0000 0.0000 0.0000 5.4371 0.0000 1.2034
#
#
#
# Elastic Compliance Matrix: (Units=1/GPa)
#
#
# Indices 1 2 3 4 5 6 
#
# 1 0.009922 -0.005624 -0.007934 0.000000 -0.001586 0.000000
# 2 -0.005624 0.023047 0.001864 0.000000 0.000424 0.000000
# 3 -0.007934 0.001864 0.018599 0.000000 -0.000269 0.000000
# 4 0.000000 0.000000 0.000000 -0.072087 0.000000 0.325686
# 5 -0.001586 0.000424 -0.000269 0.000000 0.020742 0.000000
# 6 0.000000 0.000000 0.000000 0.325686 0.000000 -0.640491
#
#
# Mechanical properties :
#
#
# Convention : Reuss Voigt Hill
#
# Bulk Modulus (GPa) = 35.48642 63.73777 49.61209
# Shear Modulus (GPa) = -8.23063 25.35141 8.56039
#
# Velocity S-wave (km/s) = -2.05766 3.61125 2.09847
# Velocity P-wave (km/s) = 3.55098 7.08348 5.60291
#
# Compressibility (1/GPa) = 0.02817979
#
# Stress axis : x y z
#
# Youngs Moduli (GPa) = 100.78429 43.39004 53.76684
#
# Poissons Ratio (x) = 0.24402 0.42660
# Poissons Ratio (y) = 0.56679 -0.10022
# Poissons Ratio (z) = 0.79964 -0.08088
#
# Static dielectric constant tensor:
#      x y z
#    x 1.694900 0.000000 -0.035220 
#    y 0.000000 1.683890 0.000000 
#    z -0.035220 0.000000 1.692270 
# 
# From -- ./inp_files/18472.got.cif
#   From: 2010.05.17/outbox.cif.g08.bks.cpg/sg13_10_cif.got.tgz:18472.got - 2010.06.03 16:44:36.
