data_PCOD9232936
_publ_section_title
;
Structure prediction by ZEFSAII (Michael W. Deem and Ramdas Pophale) SiO2 
 PCOD9232936
Probable space group: P 2/C
;
_chemical_formula_sum "Si O2"
_cell_formula_units_Z 20
_cell_length_a 17.929283
_cell_length_b 9.149990
_cell_length_c 8.354633
_cell_angle_alpha 90.000000
_cell_angle_beta 49.970882
_cell_angle_gamma 90.000000
_cell_volume 1049.493110
_symmetry_space_group_name_H-M "P 2/C"
_symmetry_group_IT_number 13
_symmetry_cell_setting 'monoclinic'
loop_
_space_group_symop_operation_xyz
x,y,z
-x,y,1/2-z
-x,-y,-z
x,-y,1/2+z
loop_
_atom_site_type_symbol
_atom_site_label
_atom_site_fract_x
_atom_site_fract_y
_atom_site_fract_z
Si Si1 0.408952 0.596828 0.480890
Si Si2 0.305370 0.333439 0.807571
Si Si3 0.928942 0.090829 0.979754
Si Si4 0.478484 0.160369 0.465703
Si Si5 0.887587 0.197667 0.362050
O O1 0.500000 0.533499 0.250000
O O2 0.350564 0.476375 0.661061
O O3 0.336828 0.661758 0.449078
O O4 0.457616 0.720767 0.524201
O O5 0.365918 0.200545 0.648850
O O6 0.190900 0.306643 0.955197
O O7 0.875479 0.188554 0.185410
O O8 0.000000 0.164956 0.750000
O O9 0.871264 0.964868 0.962273
O O10 0.000000 0.000000 0.000000
O O11 0.500000 0.169306 0.250000
O O12 0.500000 0.000000 0.500000
O O13 0.000000 0.235034 0.250000
#
# Coordination Sequence:
#
# PCOD9232936 Si02
#       5
#     4   4   4   4   4
#     4  10  21  39  58  80 113 153 189 224 283 350
#     4  11  21  37  59  81 113 156 189 228 287 344
#     4   7  13  29  50  73 106 141 174 226 281 318
#     4  11  22  38  60  89 117 142 184 239 283 337
#     4   9  18  33  54  81 112 148 192 235 281 339
#
# _framework density 19.056819000000001
#
# number of rings (size 3 to 8) (size 9 to 14) (size 15 to 20)
#    0.000    2.800    0.000    6.000    0.000    3.200 
#    0.000   11.000    0.000    0.000    0.000    1.400 
#    0.000    0.000    0.000    0.000    0.000    0.000 
#
# Total GULP energy -111375.715817 kJ/mol
# GULP energy per Si atom -5568.785791 kJ/mol
# Density = 1.901344 g / cm^3
# Si number density = 19.056819 Si / 1000 Ang^3
#
#
#
# Elastic Constant Matrix: (Units=GPa)
#
#
# Indices 1 2 3 4 5 6 
#
# 1 71.7332 24.8498 68.1642 0.0000 -0.9791 0.0000
# 2 24.8498 82.4813 71.4907 0.0000 -7.6521 0.0000
# 3 68.1642 71.4907 146.8604 0.0000 2.9853 0.0000
# 4 0.0000 0.0000 0.0000 24.7614 0.0000 -0.6568
# 5 -0.9791 -7.6521 2.9853 0.0000 46.7382 0.0000
# 6 0.0000 0.0000 0.0000 -0.6568 0.0000 8.8701
#
#
#
# Elastic Compliance Matrix: (Units=1/GPa)
#
#
# Indices 1 2 3 4 5 6 
#
# 1 0.026116 0.005003 -0.014603 0.000000 0.002299 0.000000
# 2 0.005003 0.022743 -0.013488 0.000000 0.004690 0.000000
# 3 -0.014603 -0.013488 0.020231 0.000000 -0.003806 0.000000
# 4 0.000000 0.000000 0.000000 0.040465 0.000000 0.002996
# 5 0.002299 0.004690 -0.003806 0.000000 0.022455 0.000000
# 6 0.000000 0.000000 0.000000 0.002996 0.000000 0.112960
#
#
# Mechanical properties :
#
#
# Convention : Reuss Voigt Hill
#
# Bulk Modulus (GPa) = 43.64689 70.00935 56.82812
# Shear Modulus (GPa) = 16.73445 25.17864 20.95654
#
# Velocity S-wave (km/s) = 2.96655 3.63883 3.31975
# Velocity P-wave (km/s) = 5.88958 7.38049 6.67678
#
# Compressibility (1/GPa) = 0.02291114
#
# Stress axis : x y z
#
# Youngs Moduli (GPa) = 38.29100 43.96964 49.42970
#
# Poissons Ratio (x) = -0.21997 0.72185
# Poissons Ratio (y) = -0.19156 0.66673
# Poissons Ratio (z) = 0.55918 0.59308
#
# Static dielectric constant tensor:
#      x y z
#    x 1.674190 0.000000 0.003930 
#    y 0.000000 1.692670 0.000000 
#    z 0.003930 0.000000 1.727890 
# 
# From -- ./inp_files/21004.got.cif
#   From: 2010.05.17/outbox.cif.g08.bks.cpg/sg13_11_cif.got.tgz:21004.got - 2010.06.03 16:44:36.
