data_PCOD9232361
_publ_section_title
;
Structure prediction by ZEFSAII (Michael W. Deem and Ramdas Pophale) SiO2 
 PCOD9232361
Probable space group: P 2/C
;
_chemical_formula_sum "Si O2"
_cell_formula_units_Z 22
_cell_length_a 20.332134
_cell_length_b 4.869624
_cell_length_c 8.729354
_cell_angle_alpha 90.000000
_cell_angle_beta 124.393769
_cell_angle_gamma 90.000000
_cell_volume 713.192103
_symmetry_space_group_name_H-M "P 2/C"
_symmetry_group_IT_number 13
_symmetry_cell_setting 'monoclinic'
loop_
_space_group_symop_operation_xyz
x,y,z
-x,y,1/2-z
-x,-y,-z
x,-y,1/2+z
loop_
_atom_site_type_symbol
_atom_site_label
_atom_site_fract_x
_atom_site_fract_y
_atom_site_fract_z
Si Si1 0.733168 0.542043 0.098203
Si Si2 0.500000 0.841120 0.750000
Si Si3 0.402043 0.246151 0.396709
Si Si4 0.911878 0.436524 0.821973
Si Si5 0.084346 0.094734 0.413085
Si Si6 0.257107 0.094094 0.637469
O O1 0.651207 0.446203 0.070657
O O2 0.824903 0.462693 0.268508
O O3 0.737512 0.851065 0.172265
O O4 0.732932 0.382789 0.936761
O O5 0.541917 0.661450 0.671233
O O6 0.447068 0.043133 0.573013
O O7 0.333712 0.086417 0.210050
O O8 0.913685 0.602180 0.663394
O O9 0.911685 0.129303 0.898485
O O10 0.000000 0.500000 0.000000
O O11 0.170432 0.967695 0.485594
O O12 0.000000 0.964672 0.250000
#
# Coordination Sequence:
#
# PCOD9232361 Si02
#       6
#     4   2   4   4   4   4
#     4  10  21  36  61  91 118 159 205 245 306 369
#     4  10  24  42  66  82 120 164 200 268 320 370
#     4  11  22  44  62  86 122 159 203 255 322 366
#     4   8  14  27  49  79 113 148 188 234 284 342
#     4   8  14  27  49  77 113 150 186 234 283 340
#     4  10  21  36  61  90 119 159 202 249 303 368
#
# _framework density 30.847228999999999
#
# number of rings (size 3 to 8) (size 9 to 14) (size 15 to 20)
#    0.000    2.545    1.818    0.000    2.545    0.000 
#    0.000    5.455    0.000   28.364    0.000    0.000 
#    0.000    0.000    0.000    0.000    0.000    0.000 
#
# Total GULP energy -122643.738389 kJ/mol
# GULP energy per Si atom -5574.715381 kJ/mol
# Density = 3.077702 g / cm^3
# Si number density = 30.847229 Si / 1000 Ang^3
#
#
#
# Elastic Constant Matrix: (Units=GPa)
#
#
# Indices 1 2 3 4 5 6 
#
# 1 229.3297 8.5412 27.0048 0.0000 -8.7350 0.0000
# 2 8.5412 74.5192 23.9376 0.0000 -3.1679 0.0000
# 3 27.0048 23.9376 181.1561 0.0000 7.4374 0.0000
# 4 0.0000 0.0000 0.0000 47.5370 0.0000 -4.0736
# 5 -8.7350 -3.1679 7.4374 0.0000 57.9513 0.0000
# 6 0.0000 0.0000 0.0000 -4.0736 0.0000 37.1568
#
#
#
# Elastic Compliance Matrix: (Units=1/GPa)
#
#
# Indices 1 2 3 4 5 6 
#
# 1 0.004477 -0.000269 -0.000662 0.000000 0.000745 0.000000
# 2 -0.000269 0.014089 -0.001861 0.000000 0.000969 0.000000
# 3 -0.000662 -0.001861 0.005904 0.000000 -0.000959 0.000000
# 4 0.000000 0.000000 0.000000 0.021236 0.000000 0.002328
# 5 0.000745 0.000969 -0.000959 0.000000 0.017544 0.000000
# 6 0.000000 0.000000 0.000000 0.002328 0.000000 0.027168
#
#
# Mechanical properties :
#
#
# Convention : Reuss Voigt Hill
#
# Bulk Modulus (GPa) = 52.95130 67.10803 60.02967
# Shear Modulus (GPa) = 48.87643 56.89714 52.88679
#
# Velocity S-wave (km/s) = 3.98486 4.29940 4.14511
# Velocity P-wave (km/s) = 6.19476 6.81533 6.51244
#
# Compressibility (1/GPa) = 0.01888528
#
# Stress axis : x y z
#
# Youngs Moduli (GPa) = 223.36727 70.97602 169.37075
#
# Poissons Ratio (x) = 0.01907 0.11220
# Poissons Ratio (y) = 0.06001 0.31527
# Poissons Ratio (z) = 0.14797 0.13212
#
# Static dielectric constant tensor:
#      x y z
#    x 2.476210 0.000000 -0.203470 
#    y 0.000000 2.517230 0.000000 
#    z -0.203470 0.000000 2.598780 
# 
# From -- ./inp_files/20978.got.cif
#   From: 2010.05.17/outbox.cif.g08.bks.cpg/sg13_11_cif.got.tgz:20978.got - 2010.06.03 16:44:36.
