data_PCOD9232331
_publ_section_title
;
Structure prediction by ZEFSAII (Michael W. Deem and Ramdas Pophale) SiO2 
 PCOD9232331
Probable space group: P 2/C
;
_chemical_formula_sum "Si O2"
_cell_formula_units_Z 28
_cell_length_a 5.858505
_cell_length_b 12.643519
_cell_length_c 21.309770
_cell_angle_alpha 90.000000
_cell_angle_beta 59.111505
_cell_angle_gamma 90.000000
_cell_volume 1354.583723
_symmetry_space_group_name_H-M "P 2/C"
_symmetry_group_IT_number 13
_symmetry_cell_setting 'monoclinic'
loop_
_space_group_symop_operation_xyz
x,y,z
-x,y,1/2-z
-x,-y,-z
x,-y,1/2+z
loop_
_atom_site_type_symbol
_atom_site_label
_atom_site_fract_x
_atom_site_fract_y
_atom_site_fract_z
Si Si1 0.500000 0.185375 0.750000
Si Si2 0.247006 0.558301 0.002428
Si Si3 0.930047 0.874374 0.858587
Si Si4 0.500000 0.183046 0.250000
Si Si5 0.991262 0.746743 0.386392
Si Si6 0.255108 0.908085 0.169440
Si Si7 0.961620 0.875937 0.513625
Si Si8 0.495414 0.264938 0.117376
O O1 0.756630 0.255892 0.696104
O O2 0.525201 0.112906 0.808727
O O3 0.389593 0.632296 0.930647
O O4 0.500000 0.500000 0.000000
O O5 0.000000 0.500000 0.000000
O O6 0.117526 0.635265 0.073575
O O7 0.230532 0.885968 0.789867
O O8 0.918001 0.857436 0.934741
O O9 0.808405 0.766626 0.849238
O O10 0.770384 0.978561 0.859773
O O11 0.536868 0.256190 0.184880
O O12 0.772240 0.817655 0.379934
O O13 0.066305 0.810384 0.439676
O O14 0.000000 0.898852 0.250000
O O15 0.662352 0.832008 0.562858
O O16 0.000000 0.000000 0.500000
#
# Coordination Sequence:
#
# PCOD9232331 Si02
#       8
#     2   4   4   2   4   4   4   4
#     4  10  24  39  69  92 152 176 235 276 349 408
#     4  11  28  51  79 101 133 180 240 305 371 418
#     4  11  22  37  65 101 144 188 224 268 339 416
#     4  10  22  41  65  96 150 174 235 274 341 414
#     4  10  23  43  67 100 135 181 230 290 348 421
#     4  10  21  36  59 100 140 191 219 265 334 414
#     4  10  21  37  57  98 140 179 223 276 329 414
#     4  10  24  40  68  98 133 184 227 286 346 415
#
# _framework density 20.670556000000001
#
# number of rings (size 3 to 8) (size 9 to 14) (size 15 to 20)
#    0.000    1.714    1.429    1.286   10.000    5.714 
#    0.000    0.714    0.000    0.000    0.000    0.000 
#    0.000    0.000    0.000    0.000    0.000    0.000 
#
# Total GULP energy -156014.969914 kJ/mol
# GULP energy per Si atom -5571.963211 kJ/mol
# Density = 2.062351 g / cm^3
# Si number density = 20.670556 Si / 1000 Ang^3
#
#
#
# Elastic Constant Matrix: (Units=GPa)
#
#
# Indices 1 2 3 4 5 6 
#
# 1 111.5651 70.6355 51.8883 0.0000 5.8483 0.0000
# 2 70.6355 119.1588 49.4767 0.0000 4.2320 0.0000
# 3 51.8883 49.4767 123.6536 0.0000 4.7460 0.0000
# 4 0.0000 0.0000 0.0000 29.6366 0.0000 1.8950
# 5 5.8483 4.2320 4.7460 0.0000 32.4994 0.0000
# 6 0.0000 0.0000 0.0000 1.8950 0.0000 25.3575
#
#
#
# Elastic Compliance Matrix: (Units=1/GPa)
#
#
# Indices 1 2 3 4 5 6 
#
# 1 0.015496 -0.007748 -0.003353 0.000000 -0.001290 0.000000
# 2 -0.007748 0.013955 -0.002329 0.000000 -0.000083 0.000000
# 3 -0.003353 -0.002329 0.010450 0.000000 -0.000619 0.000000
# 4 0.000000 0.000000 0.000000 0.033904 0.000000 -0.002534
# 5 -0.001290 -0.000083 -0.000619 0.000000 0.031103 0.000000
# 6 0.000000 0.000000 0.000000 -0.002534 0.000000 0.039625
#
#
# Mechanical properties :
#
#
# Convention : Reuss Voigt Hill
#
# Bulk Modulus (GPa) = 76.68298 77.59760 77.14029
# Shear Modulus (GPa) = 28.45113 29.65717 29.05415
#
# Velocity S-wave (km/s) = 3.71402 3.79192 3.75318
# Velocity P-wave (km/s) = 7.45454 7.53613 7.49545
#
# Compressibility (1/GPa) = 0.01304070
#
# Stress axis : x y z
#
# Youngs Moduli (GPa) = 64.53426 71.65899 95.69476
#
# Poissons Ratio (x) = 0.55518 0.32085
# Poissons Ratio (y) = 0.49999 0.22292
# Poissons Ratio (z) = 0.21637 0.16693
#
# Static dielectric constant tensor:
#      x y z
#    x 1.932860 0.000000 0.019010 
#    y 0.000000 1.721620 0.000000 
#    z 0.019010 0.000000 1.716250 
# 
# From -- ./inp_files/73622.got.cif
#   From: 2010.05.17/outbox.cif.g08.bks.cpg/sg13_37_cif.got.tgz:73622.got - 2010.06.03 16:44:36.
