data_PCOD9232848
_publ_section_title
;
Structure prediction by ZEFSAII (Michael W. Deem and Ramdas Pophale) SiO2 
 PCOD9232848
Probable space group: P 2/C
;
_chemical_formula_sum "Si O2"
_cell_formula_units_Z 24
_cell_length_a 24.313039
_cell_length_b 7.296159
_cell_length_c 13.560851
_cell_angle_alpha 90.000000
_cell_angle_beta 21.167614
_cell_angle_gamma 90.000000
_cell_volume 868.650333
_symmetry_space_group_name_H-M "P 2/C"
_symmetry_group_IT_number 13
_symmetry_cell_setting 'monoclinic'
loop_
_space_group_symop_operation_xyz
x,y,z
-x,y,1/2-z
-x,-y,-z
x,-y,1/2+z
loop_
_atom_site_type_symbol
_atom_site_label
_atom_site_fract_x
_atom_site_fract_y
_atom_site_fract_z
Si Si1 0.084028 0.202357 0.767521
Si Si2 0.532466 0.346615 0.302678
Si Si3 0.979274 0.194291 0.417215
Si Si4 0.797416 0.136305 0.144148
Si Si5 0.280922 0.624679 0.389934
Si Si6 0.537143 0.940644 0.325116
O O1 0.102237 0.269651 0.848723
O O2 0.907392 0.245524 0.033403
O O3 0.170829 0.216233 0.517632
O O4 0.083344 0.979340 0.776945
O O5 0.500000 0.426996 0.250000
O O6 0.661195 0.444318 0.151579
O O7 0.378627 0.360298 0.625896
O O8 0.582284 0.135050 0.205243
O O9 0.100919 0.344761 0.177376
O O10 0.138081 0.075580 0.954775
O O11 0.619489 0.130994 0.460202
O O12 0.346585 0.778536 0.354440
O O13 0.500000 0.000000 0.500000
#
# Coordination Sequence:
#
# PCOD9232848 Si02
#       6
#     4   4   4   4   4   4
#     4   8  16  28  53  87 121 160 210 260 302 381
#     4  10  23  41  59  95 131 170 216 274 323 398
#     4   9  17  34  58  90 123 167 213 262 318 382
#     4   9  17  33  56  89 127 166 213 262 312 385
#     4  10  22  42  66  92 133 173 214 279 334 378
#     4  10  21  38  63  97 126 170 217 265 327 386
#
# _framework density 27.629069999999999
#
# number of rings (size 3 to 8) (size 9 to 14) (size 15 to 20)
#    1.000    1.667    0.000    2.000    0.000    3.333 
#    6.000    0.000    0.000    3.000    0.000    0.000 
#    0.000    0.000    0.000    0.000    0.000    0.000 
#
# Total GULP energy -134104.379267 kJ/mol
# GULP energy per Si atom -5587.682469 kJ/mol
# Density = 2.756619 g / cm^3
# Si number density = 27.629070 Si / 1000 Ang^3
#
#
#
# Elastic Constant Matrix: (Units=GPa)
#
#
# Indices 1 2 3 4 5 6 
#
# 1 158.8688 51.8858 66.8513 0.0000 7.7474 0.0000
# 2 51.8858 68.3786 31.8010 0.0000 -5.3217 0.0000
# 3 66.8513 31.8010 154.1732 0.0000 -5.0464 0.0000
# 4 0.0000 0.0000 0.0000 31.9812 0.0000 -11.3460
# 5 7.7474 -5.3217 -5.0464 0.0000 46.7059 0.0000
# 6 0.0000 0.0000 0.0000 -11.3460 0.0000 28.9356
#
#
#
# Elastic Compliance Matrix: (Units=1/GPa)
#
#
# Indices 1 2 3 4 5 6 
#
# 1 0.009710 -0.006167 -0.003025 0.000000 -0.002640 0.000000
# 2 -0.006167 0.020196 -0.001388 0.000000 0.003174 0.000000
# 3 -0.003025 -0.001388 0.008124 0.000000 0.001221 0.000000
# 4 0.000000 0.000000 0.000000 0.036321 0.000000 0.014242
# 5 -0.002640 0.003174 0.001221 0.000000 0.022342 0.000000
# 6 0.000000 0.000000 0.000000 0.014242 0.000000 0.040144
#
#
# Mechanical properties :
#
#
# Convention : Reuss Voigt Hill
#
# Bulk Modulus (GPa) = 59.27193 75.83298 67.55245
# Shear Modulus (GPa) = 30.55850 36.91670 33.73760
#
# Velocity S-wave (km/s) = 3.32931 3.65931 3.49820
# Velocity P-wave (km/s) = 6.02315 6.73502 6.38901
#
# Compressibility (1/GPa) = 0.01687139
#
# Stress axis : x y z
#
# Youngs Moduli (GPa) = 102.98528 49.51389 123.09069
#
# Poissons Ratio (x) = 0.30534 0.37233
# Poissons Ratio (y) = 0.63509 0.17085
# Poissons Ratio (z) = 0.31151 0.06872
#
# Static dielectric constant tensor:
#      x y z
#    x 2.228040 0.000000 -0.045540 
#    y 0.000000 2.277510 0.000000 
#    z -0.045540 0.000000 2.261970 
# 
# From -- ./inp_files/59868.got.cif
#   From: 2010.05.17/outbox.cif.g08.bks.cpg/sg13_30_cif.got.tgz:59868.got - 2010.06.03 16:44:36.
