data_PCOD9232971
_publ_section_title
;
Structure prediction by ZEFSAII (Michael W. Deem and Ramdas Pophale) SiO2 
 PCOD9232971
Probable space group: P 2/C
;
_chemical_formula_sum "Si O2"
_cell_formula_units_Z 18
_cell_length_a 8.078098
_cell_length_b 22.243676
_cell_length_c 5.234210
_cell_angle_alpha 90.000000
_cell_angle_beta 118.388824
_cell_angle_gamma 90.000000
_cell_volume 827.412003
_symmetry_space_group_name_H-M "P 2/C"
_symmetry_group_IT_number 13
_symmetry_cell_setting 'monoclinic'
loop_
_space_group_symop_operation_xyz
x,y,z
-x,y,1/2-z
-x,-y,-z
x,-y,1/2+z
loop_
_atom_site_type_symbol
_atom_site_label
_atom_site_fract_x
_atom_site_fract_y
_atom_site_fract_z
Si Si1 0.414715 0.567095 0.940238
Si Si2 0.724697 0.221026 0.413678
Si Si3 0.000000 0.958508 0.750000
Si Si4 0.724947 0.147389 0.916972
Si Si5 0.000000 0.674057 0.250000
Si Si6 0.000000 0.596153 0.750000
O O1 0.500000 0.596679 0.750000
O O2 0.190529 0.562262 0.805272
O O3 0.500000 0.598958 0.250000
O O4 0.500000 0.500000 0.000000
O O5 0.500000 0.228375 0.250000
O O6 0.776668 0.173421 0.676287
O O7 0.829259 0.282544 0.548804
O O8 0.775678 0.195636 0.173008
O O9 0.825283 0.913558 0.576332
O O10 0.000000 0.000000 0.500000
O O11 0.500000 0.139326 0.750000
O O12 0.952017 0.634799 0.463350
#
# Coordination Sequence:
#
# PCOD9232971 Si02
#       6
#     4   4   2   4   2   2
#     4  10  23  43  68  92 123 168 214 259 303 367
#     4  10  21  39  63  87 116 162 207 248 306 381
#     4  12  24  36  56  86 120 156 198 258 318 360
#     4  10  21  39  61  84 115 159 211 252 297 375
#     4  12  24  39  63  94 134 161 195 264 326 380
#     4  12  26  41  63 100 132 165 209 262 326 376
#
# _framework density 21.754579
#
# number of rings (size 3 to 8) (size 9 to 14) (size 15 to 20)
#    0.000    1.333    0.000    5.333    0.000    7.111 
#    0.000    0.000    0.000    0.000    0.000    0.000 
#    0.000    0.000    0.000    0.000    0.000    0.000 
#
# Total GULP energy -100644.630898 kJ/mol
# GULP energy per Si atom -5591.368383 kJ/mol
# Density = 2.170506 g / cm^3
# Si number density = 21.754579 Si / 1000 Ang^3
#
#
#
# Elastic Constant Matrix: (Units=GPa)
#
#
# Indices 1 2 3 4 5 6 
#
# 1 144.1299 46.7799 71.2788 0.0000 12.7891 0.0000
# 2 46.7799 81.5049 44.5884 0.0000 12.4523 0.0000
# 3 71.2788 44.5884 166.9821 0.0000 -15.2764 0.0000
# 4 0.0000 0.0000 0.0000 8.9164 0.0000 -13.4843
# 5 12.7891 12.4523 -15.2764 0.0000 41.4302 0.0000
# 6 0.0000 0.0000 0.0000 -13.4843 0.0000 8.5812
#
#
#
# Elastic Compliance Matrix: (Units=1/GPa)
#
#
# Indices 1 2 3 4 5 6 
#
# 1 0.010187 -0.003209 -0.003820 0.000000 -0.003589 0.000000
# 2 -0.003209 0.016941 -0.003652 0.000000 -0.005448 0.000000
# 3 -0.003820 -0.003652 0.009110 0.000000 0.005636 0.000000
# 4 0.000000 0.000000 0.000000 -0.081481 0.000000 -0.128039
# 5 -0.003589 -0.005448 0.005636 0.000000 0.028961 0.000000
# 6 0.000000 0.000000 0.000000 -0.128039 0.000000 -0.084665
#
#
# Mechanical properties :
#
#
# Convention : Reuss Voigt Hill
#
# Bulk Modulus (GPa) = 67.22166 79.76789 73.49478
# Shear Modulus (GPa) = -67.00192 27.11688 -19.94252
#
# Velocity S-wave (km/s) = -5.55571 3.53440 -3.03100
# Velocity P-wave (km/s) = 3.19177 7.30772 4.64840
#
# Compressibility (1/GPa) = 0.01487616
#
# Stress axis : x y z
#
# Youngs Moduli (GPa) = 98.16095 59.02690 109.76657
#
# Poissons Ratio (x) = 0.18941 0.41932
# Poissons Ratio (y) = 0.31499 0.40091
# Poissons Ratio (z) = 0.37498 0.21559
#
# Static dielectric constant tensor:
#      x y z
#    x 1.810190 0.000000 -0.007150 
#    y 0.000000 1.662120 0.000000 
#    z -0.007150 0.000000 1.815030 
# 
# From -- ./inp_files/1898.got.cif
#   From: 2010.05.17/outbox.cif.g08.bks.cpg/sg13_1_cif.got.tgz:1898.got - 2010.06.03 16:44:36.
