data_PCOD9232322
_publ_section_title
;
Structure prediction by ZEFSAII (Michael W. Deem and Ramdas Pophale) SiO2 
 PCOD9232322
Probable space group: P 2/C
;
_chemical_formula_sum "Si O2"
_cell_formula_units_Z 28
_cell_length_a 22.903223
_cell_length_b 4.998593
_cell_length_c 12.839117
_cell_angle_alpha 90.000000
_cell_angle_beta 65.555492
_cell_angle_gamma 90.000000
_cell_volume 1338.116377
_symmetry_space_group_name_H-M "P 2/C"
_symmetry_group_IT_number 13
_symmetry_cell_setting 'monoclinic'
loop_
_space_group_symop_operation_xyz
x,y,z
-x,y,1/2-z
-x,-y,-z
x,-y,1/2+z
loop_
_atom_site_type_symbol
_atom_site_label
_atom_site_fract_x
_atom_site_fract_y
_atom_site_fract_z
Si Si1 0.854797 0.163315 0.931933
Si Si2 0.925230 0.338355 0.295534
Si Si3 0.593572 0.649410 0.725966
Si Si4 0.764855 0.854118 0.312268
Si Si5 0.833241 0.646400 0.679690
Si Si6 0.627380 0.116771 0.825662
Si Si7 0.531839 0.290316 0.057766
O O1 0.907401 0.365239 0.845924
O O2 0.790703 0.195154 0.909528
O O3 0.883313 0.868397 0.894793
O O4 0.841924 0.251451 0.057708
O O5 0.898307 0.318350 0.198026
O O6 0.000000 0.283150 0.250000
O O7 0.606672 0.362999 0.767378
O O8 0.528826 0.776764 0.824994
O O9 0.582168 0.617842 0.611058
O O10 0.642062 0.865824 0.739018
O O11 0.807386 0.654376 0.209849
O O12 0.691168 0.808014 0.341630
O O13 0.782303 0.158897 0.272958
O O14 0.571991 0.087638 0.955745
O O15 0.500000 0.500000 0.000000
#
# Coordination Sequence:
#
# PCOD9232322 Si02
#       7
#     4   4   4   4   4   4   4
#     4  10  21  38  58  80 114 155 182 225 287 327
#     4  10  21  36  58  89 115 142 190 235 274 336
#     4  10  22  38  59  84 112 146 185 231 288 342
#     4  10  22  37  55  81 112 146 192 234 271 333
#     4  10  21  39  57  79 115 153 187 231 282 331
#     4  11  22  37  57  84 111 144 189 235 279 332
#     4   9  21  40  60  83 115 148 183 232 289 342
#
# _framework density 20.924935000000001
#
# number of rings (size 3 to 8) (size 9 to 14) (size 15 to 20)
#    0.000    2.000    0.000    2.571    0.000   10.286 
#    0.000    0.000    0.000    0.000    0.000    0.000 
#    0.000    0.000    0.000    0.000    0.000    0.000 
#
# Total GULP energy -156107.035710 kJ/mol
# GULP energy per Si atom -5575.251275 kJ/mol
# Density = 2.087731 g / cm^3
# Si number density = 20.924935 Si / 1000 Ang^3
#
#
#
# Elastic Constant Matrix: (Units=GPa)
#
#
# Indices 1 2 3 4 5 6 
#
# 1 104.1574 -7.8049 33.9168 0.0000 13.4315 0.0000
# 2 -7.8049 60.2999 -5.5257 0.0000 6.9369 0.0000
# 3 33.9168 -5.5257 78.2795 0.0000 31.2714 0.0000
# 4 0.0000 0.0000 0.0000 14.1671 0.0000 2.5813
# 5 13.4315 6.9369 31.2714 0.0000 19.0619 0.0000
# 6 0.0000 0.0000 0.0000 2.5813 0.0000 26.7101
#
#
#
# Elastic Compliance Matrix: (Units=1/GPa)
#
#
# Indices 1 2 3 4 5 6 
#
# 1 0.011252 0.001251 -0.004171 0.000000 -0.001540 0.000000
# 2 0.001251 0.021334 0.012818 0.000000 -0.029673 0.000000
# 3 -0.004171 0.012818 0.046936 0.000000 -0.078724 0.000000
# 4 0.000000 0.000000 0.000000 0.071851 0.000000 -0.006944
# 5 -0.001540 -0.029673 -0.078724 0.000000 0.193492 0.000000
# 6 0.000000 0.000000 0.000000 -0.006944 0.000000 0.038110
#
#
# Mechanical properties :
#
#
# Convention : Reuss Voigt Hill
#
# Bulk Modulus (GPa) = 10.06883 31.54546 20.80715
# Shear Modulus (GPa) = 12.61715 26.79787 19.70751
#
# Velocity S-wave (km/s) = 2.45821 3.58252 3.07224
# Velocity P-wave (km/s) = 3.58879 5.67635 4.74870
#
# Compressibility (1/GPa) = 0.09931638
#
# Stress axis : x y z
#
# Youngs Moduli (GPa) = 88.87645 46.87379 21.30561
#
# Poissons Ratio (x) = -0.05865 0.08888
# Poissons Ratio (y) = -0.11121 -0.27309
# Poissons Ratio (z) = 0.37074 -0.60081
#
# Static dielectric constant tensor:
#      x y z
#    x 1.805030 0.000000 0.003440 
#    y 0.000000 1.755810 0.000000 
#    z 0.003440 0.000000 1.738780 
# 
# From -- ./inp_files/40089.got.cif
#   From: 2010.05.17/outbox.cif.g08.bks.cpg/sg13_21_cif.got.tgz:40089.got - 2010.06.03 16:44:36.
