data_PCOD9232258
_publ_section_title
;
Structure prediction by ZEFSAII (Michael W. Deem and Ramdas Pophale) SiO2 
 PCOD9232258
Probable space group: P 2/C
;
_chemical_formula_sum "Si O2"
_cell_formula_units_Z 24
_cell_length_a 16.599471
_cell_length_b 5.220876
_cell_length_c 26.097102
_cell_angle_alpha 90.000000
_cell_angle_beta 156.308324
_cell_angle_gamma 90.000000
_cell_volume 908.773758
_symmetry_space_group_name_H-M "P 2/C"
_symmetry_group_IT_number 13
_symmetry_cell_setting 'monoclinic'
loop_
_space_group_symop_operation_xyz
x,y,z
-x,y,1/2-z
-x,-y,-z
x,-y,1/2+z
loop_
_atom_site_type_symbol
_atom_site_label
_atom_site_fract_x
_atom_site_fract_y
_atom_site_fract_z
Si Si1 0.256407 0.776511 0.161589
Si Si2 0.408012 0.901924 0.847928
Si Si3 0.152088 0.791540 0.432362
Si Si4 0.453929 0.393439 0.917333
Si Si5 0.789105 0.273033 0.418515
Si Si6 0.096772 0.707092 0.859049
O O1 0.316630 0.492598 0.177426
O O2 0.344547 0.933102 0.261209
O O3 0.284372 0.983915 0.133021
O O4 0.021589 0.741422 0.037378
O O5 0.333373 0.613545 0.815645
O O6 0.364994 0.107847 0.867158
O O7 0.644371 0.844771 0.980132
O O8 0.211590 0.676056 0.521720
O O9 0.019792 0.576201 0.327938
O O10 0.063106 0.077224 0.382426
O O11 0.500000 0.500000 0.000000
O O12 0.667517 0.343753 0.013591
O O13 0.000000 0.800043 0.750000
#
# Coordination Sequence:
#
# PCOD9232258 Si02
#       6
#     4   4   4   4   4   4
#     4  10  21  37  57  82 111 144 185 231 278 333
#     4  10  21  37  55  80 112 144 182 229 277 332
#     4  10  21  37  55  80 112 144 182 229 277 332
#     4  10  21  36  55  80 110 143 183 228 275 331
#     4  10  21  37  57  82 111 144 185 231 278 333
#     4  10  21  36  55  80 110 143 183 228 275 331
#
# _framework density 26.409213000000001
#
# number of rings (size 3 to 8) (size 9 to 14) (size 15 to 20)
#    0.000    2.000    0.000    3.000    0.000    3.333 
#    0.000    1.667    0.000    0.000    0.000    0.000 
#    0.000    0.000    0.000    0.000    0.000    0.000 
#
# Total GULP energy -134099.841591 kJ/mol
# GULP energy per Si atom -5587.493400 kJ/mol
# Density = 2.634910 g / cm^3
# Si number density = 26.409213 Si / 1000 Ang^3
#
#
#
# Elastic Constant Matrix: (Units=GPa)
#
#
# Indices 1 2 3 4 5 6 
#
# 1 63.1462 30.7130 2.8469 0.0000 4.8114 0.0000
# 2 30.7130 195.9673 38.9317 0.0000 -4.0011 0.0000
# 3 2.8469 38.9317 68.9636 0.0000 -10.6224 0.0000
# 4 0.0000 0.0000 0.0000 36.7781 0.0000 -12.3978
# 5 4.8114 -4.0011 -10.6224 0.0000 57.2073 0.0000
# 6 0.0000 0.0000 0.0000 -12.3978 0.0000 29.5844
#
#
#
# Elastic Compliance Matrix: (Units=1/GPa)
#
#
# Indices 1 2 3 4 5 6 
#
# 1 0.017324 -0.002880 0.000675 0.000000 -0.001533 0.000000
# 2 -0.002880 0.006229 -0.003390 0.000000 0.000048 0.000000
# 3 0.000675 -0.003390 0.016822 0.000000 0.002830 0.000000
# 4 0.000000 0.000000 0.000000 0.031663 0.000000 0.013269
# 5 -0.001533 0.000048 0.002830 0.000000 0.018138 0.000000
# 6 0.000000 0.000000 0.000000 0.013269 0.000000 0.039362
#
#
# Mechanical properties :
#
#
# Convention : Reuss Voigt Hill
#
# Bulk Modulus (GPa) = 34.26609 52.56226 43.41418
# Shear Modulus (GPa) = 33.23217 41.75299 37.49258
#
# Velocity S-wave (km/s) = 3.55118 3.98049 3.77195
# Velocity P-wave (km/s) = 5.46056 6.40874 5.95356
#
# Compressibility (1/GPa) = 0.02918337
#
# Stress axis : x y z
#
# Youngs Moduli (GPa) = 57.72458 160.54533 59.44558
#
# Poissons Ratio (x) = 0.46243 -0.04011
# Poissons Ratio (y) = 0.16627 0.20152
# Poissons Ratio (z) = -0.03895 0.54424
#
# Static dielectric constant tensor:
#      x y z
#    x 2.087810 0.000000 0.017400 
#    y 0.000000 2.124240 0.000000 
#    z 0.017400 0.000000 2.108060 
# 
# From -- ./inp_files/87754.got.cif
#   From: 2010.05.17/outbox.cif.g08.bks.cpg/sg13_44_cif.got.tgz:87754.got - 2010.06.03 16:44:36.
