data_PCOD9232823
_publ_section_title
;
Structure prediction by ZEFSAII (Michael W. Deem and Ramdas Pophale) SiO2 
 PCOD9232823
Probable space group: P 2/C
;
_chemical_formula_sum "Si O2"
_cell_formula_units_Z 28
_cell_length_a 22.311140
_cell_length_b 8.661967
_cell_length_c 24.884148
_cell_angle_alpha 90.000000
_cell_angle_beta 162.293865
_cell_angle_gamma 90.000000
_cell_volume 1462.606700
_symmetry_space_group_name_H-M "P 2/C"
_symmetry_group_IT_number 13
_symmetry_cell_setting 'monoclinic'
loop_
_space_group_symop_operation_xyz
x,y,z
-x,y,1/2-z
-x,-y,-z
x,-y,1/2+z
loop_
_atom_site_type_symbol
_atom_site_label
_atom_site_fract_x
_atom_site_fract_y
_atom_site_fract_z
Si Si1 0.556845 0.676187 0.065208
Si Si2 0.198664 0.308718 0.561995
Si Si3 0.803179 0.682489 0.561532
Si Si4 0.014449 0.314979 0.514025
Si Si5 0.557168 0.848250 0.428271
Si Si6 0.473321 0.583120 0.785757
Si Si7 0.583287 0.191152 0.166187
O O1 0.783062 0.706791 0.278637
O O2 0.434415 0.739004 0.011878
O O3 0.500000 0.500000 0.000000
O O4 0.501801 0.766871 0.964678
O O5 0.165057 0.264239 0.472136
O O6 0.039572 0.277072 0.471994
O O7 0.383339 0.215302 0.742186
O O8 0.267567 0.489261 0.618428
O O9 0.748187 0.820898 0.554870
O O10 0.633692 0.553810 0.420107
O O11 0.000000 0.604184 0.750000
O O12 0.000000 0.500000 0.500000
O O13 0.820159 0.225152 0.367959
O O14 0.490125 0.019007 0.385520
O O15 0.500000 0.660714 0.750000
O O16 0.497965 0.695972 0.856661
#
# Coordination Sequence:
#
# PCOD9232823 Si02
#       7
#     4   4   4   4   4   4   4
#     4  11  22  39  63  91 126 160 212 258 296 384
#     4   9  19  38  60  84 118 158 213 244 290 386
#     4  10  21  38  63  87 115 162 216 256 296 372
#     4  11  21  37  65  97 119 165 208 248 322 367
#     4  10  23  40  58  89 124 167 201 255 334 357
#     4   9  19  38  59  85 114 158 208 249 305 366
#     4  12  23  40  63  90 133 157 196 269 318 382
#
# _framework density 19.143902000000001
#
# number of rings (size 3 to 8) (size 9 to 14) (size 15 to 20)
#    0.000    1.714    2.857    3.429    2.000    4.571 
#    2.571    0.714    0.000    0.000    0.000    0.000 
#    0.000    0.000    0.000    0.000    0.000    0.000 
#
# Total GULP energy -155942.429686 kJ/mol
# GULP energy per Si atom -5569.372489 kJ/mol
# Density = 1.910033 g / cm^3
# Si number density = 19.143902 Si / 1000 Ang^3
#
#
#
# Elastic Constant Matrix: (Units=GPa)
#
#
# Indices 1 2 3 4 5 6 
#
# 1 144.0867 39.2871 60.6151 0.0000 -26.5499 0.0000
# 2 39.2871 71.1425 15.3811 0.0000 -9.6568 0.0000
# 3 60.6151 15.3811 54.9611 0.0000 -10.9566 0.0000
# 4 0.0000 0.0000 0.0000 13.0777 0.0000 -0.3857
# 5 -26.5499 -9.6568 -10.9566 0.0000 33.5803 0.0000
# 6 0.0000 0.0000 0.0000 -0.3857 0.0000 19.2165
#
#
#
# Elastic Compliance Matrix: (Units=1/GPa)
#
#
# Indices 1 2 3 4 5 6 
#
# 1 0.015411 -0.004541 -0.014500 0.000000 0.006148 0.000000
# 2 -0.004541 0.016616 0.000636 0.000000 0.001396 0.000000
# 3 -0.014500 0.000636 0.033969 0.000000 -0.000198 0.000000
# 4 0.000000 0.000000 0.000000 0.076511 0.000000 0.001536
# 5 0.006148 0.001396 -0.000198 0.000000 0.034977 0.000000
# 6 0.000000 0.000000 0.000000 0.001536 0.000000 0.052070
#
#
# Mechanical properties :
#
#
# Convention : Reuss Voigt Hill
#
# Bulk Modulus (GPa) = 34.26256 55.63963 44.95109
# Shear Modulus (GPa) = 18.10986 23.50202 20.80594
#
# Velocity S-wave (km/s) = 3.07903 3.50759 3.30027
# Velocity P-wave (km/s) = 5.52963 6.74768 6.16879
#
# Compressibility (1/GPa) = 0.02918638
#
# Stress axis : x y z
#
# Youngs Moduli (GPa) = 64.88735 60.18336 29.43855
#
# Poissons Ratio (x) = 0.27330 0.42687
# Poissons Ratio (y) = 0.29466 -0.01874
# Poissons Ratio (z) = 0.94089 -0.03831
#
# Static dielectric constant tensor:
#      x y z
#    x 1.776980 0.000000 0.084110 
#    y 0.000000 1.635820 0.000000 
#    z 0.084110 0.000000 1.745090 
# 
# From -- ./inp_files/88517.got.cif
#   From: 2010.05.17/outbox.cif.g08.bks.cpg/sg13_45_cif.got.tgz:88517.got - 2010.06.03 16:44:36.
