data_PCOD9232918
_publ_section_title
;
Structure prediction by ZEFSAII (Michael W. Deem and Ramdas Pophale) SiO2 
 PCOD9232918
Probable space group: P 2/C
;
_chemical_formula_sum "Si O2"
_cell_formula_units_Z 28
_cell_length_a 10.621702
_cell_length_b 12.314086
_cell_length_c 9.405895
_cell_angle_alpha 90.000000
_cell_angle_beta 118.227380
_cell_angle_gamma 90.000000
_cell_volume 1083.953242
_symmetry_space_group_name_H-M "P 2/C"
_symmetry_group_IT_number 13
_symmetry_cell_setting 'monoclinic'
loop_
_space_group_symop_operation_xyz
x,y,z
-x,y,1/2-z
-x,-y,-z
x,-y,1/2+z
loop_
_atom_site_type_symbol
_atom_site_label
_atom_site_fract_x
_atom_site_fract_y
_atom_site_fract_z
Si Si1 0.802199 0.957426 0.497901
Si Si2 0.014177 0.238219 0.427021
Si Si3 0.196929 0.625714 0.520863
Si Si4 0.500000 0.296168 0.250000
Si Si5 0.500000 0.393149 0.750000
Si Si6 0.353783 0.942948 0.364439
Si Si7 0.197383 0.415351 0.692379
Si Si8 0.578190 0.216900 0.994870
O O1 0.945221 0.890450 0.542160
O O2 0.713992 0.990054 0.312637
O O3 0.707201 0.861915 0.523118
O O4 0.775715 0.054762 0.593298
O O5 0.132250 0.313819 0.568834
O O6 0.000000 0.262789 0.250000
O O7 0.874249 0.269556 0.442512
O O8 0.367939 0.636871 0.618421
O O9 0.146084 0.526646 0.592414
O O10 0.159959 0.604365 0.337090
O O11 0.561929 0.227557 0.153477
O O12 0.368157 0.434681 0.772457
O O13 0.410491 0.328726 0.580681
O O14 0.421999 0.827552 0.361493
O O15 0.500000 0.000000 0.500000
#
# Coordination Sequence:
#
# PCOD9232918 Si02
#       8
#     4   4   4   2   2   4   4   4
#     4  11  23  43  71 105 146 191 244 296 360 446
#     4  12  26  50  75  98 144 203 252 305 370 441
#     4  12  28  46  72 108 147 195 249 314 373 450
#     4  12  27  40  71 114 142 190 248 305 382 445
#     4  12  21  42  75 106 152 198 234 309 376 443
#     4  10  21  38  69 107 144 182 233 297 364 434
#     4  12  26  46  73 107 149 191 250 305 379 451
#     4  11  20  39  66 106 149 189 236 292 364 438
#
# _framework density 25.831374
#
# number of rings (size 3 to 8) (size 9 to 14) (size 15 to 20)
#    0.000    0.571    4.286    4.286    6.000    1.143 
#    0.000    0.714    0.000    0.000    0.000    0.000 
#    0.000    0.000    0.000    0.000    0.000    0.000 
#
# Total GULP energy -156458.606784 kJ/mol
# GULP energy per Si atom -5587.807385 kJ/mol
# Density = 2.577258 g / cm^3
# Si number density = 25.831374 Si / 1000 Ang^3
#
#
#
# Elastic Constant Matrix: (Units=GPa)
#
#
# Indices 1 2 3 4 5 6 
#
# 1 136.9745 28.5510 54.2420 0.0000 3.9546 0.0000
# 2 28.5510 38.6674 15.7797 0.0000 -4.6777 0.0000
# 3 54.2420 15.7797 160.3173 0.0000 -35.5398 0.0000
# 4 0.0000 0.0000 0.0000 24.9948 0.0000 -5.2082
# 5 3.9546 -4.6777 -35.5398 0.0000 54.6755 0.0000
# 6 0.0000 0.0000 0.0000 -5.2082 0.0000-1129.1932
#
#
#
# Elastic Compliance Matrix: (Units=1/GPa)
#
#
# Indices 1 2 3 4 5 6 
#
# 1 0.010191 -0.006489 -0.003617 0.000000 -0.003643 0.000000
# 2 -0.006489 0.031098 -0.000200 0.000000 0.003000 0.000000
# 3 -0.003617 -0.000200 0.008804 0.000000 0.005967 0.000000
# 4 0.000000 0.000000 0.000000 0.039970 0.000000 -0.000184
# 5 -0.003643 0.003000 0.005967 0.000000 0.022689 0.000000
# 6 0.000000 0.000000 0.000000 -0.000184 0.000000 -0.000885
#
#
# Mechanical properties :
#
#
# Convention : Reuss Voigt Hill
#
# Bulk Modulus (GPa) = 33.92203 59.23387 46.57795
# Shear Modulus (GPa) = 35.13566 -194.07881 -79.47157
#
# Velocity S-wave (km/s) = 3.69208 -8.67733 -5.55269
# Velocity P-wave (km/s) = 5.59785 8.79852 4.79990
#
# Compressibility (1/GPa) = 0.02947937
#
# Stress axis : x y z
#
# Youngs Moduli (GPa) = 98.12828 32.15672 113.58600
#
# Poissons Ratio (x) = 0.20867 0.41083
# Poissons Ratio (y) = 0.63678 0.02275
# Poissons Ratio (z) = 0.35492 0.00644
#
# Static dielectric constant tensor:
#      x y z
#    x 2.151320 0.000000 0.083900 
#    y 0.000000 2.227710 0.000000 
#    z 0.083900 0.000000 2.044020 
# 
# From -- ./inp_files/16908.got.cif
#   From: 2010.05.17/outbox.cif.g08.bks.cpg/sg13_9_cif.got.tgz:16908.got - 2010.06.03 16:44:36.
