data_PCOD9232761
_publ_section_title
;
Structure prediction by ZEFSAII (Michael W. Deem and Ramdas Pophale) SiO2 
 PCOD9232761
Probable space group: P 2/C
;
_chemical_formula_sum "Si O2"
_cell_formula_units_Z 24
_cell_length_a 9.489888
_cell_length_b 6.816165
_cell_length_c 16.416553
_cell_angle_alpha 90.000000
_cell_angle_beta 93.134003
_cell_angle_gamma 90.000000
_cell_volume 1060.310686
_symmetry_space_group_name_H-M "P 2/C"
_symmetry_group_IT_number 13
_symmetry_cell_setting 'monoclinic'
loop_
_space_group_symop_operation_xyz
x,y,z
-x,y,1/2-z
-x,-y,-z
x,-y,1/2+z
loop_
_atom_site_type_symbol
_atom_site_label
_atom_site_fract_x
_atom_site_fract_y
_atom_site_fract_z
Si Si1 0.645724 0.655644 0.953297
Si Si2 0.000301 0.438737 0.627987
Si Si3 0.028571 0.219411 0.029532
Si Si4 0.681270 0.675485 0.133270
Si Si5 0.300609 0.644035 0.188438
Si Si6 0.516721 0.977722 0.841460
O O1 0.376981 0.409565 0.953724
O O2 0.652744 0.490888 0.884604
O O3 0.548128 0.824756 0.913155
O O4 0.803350 0.749216 0.962878
O O5 0.980785 0.672680 0.611872
O O6 0.130957 0.384188 0.688505
O O7 0.047899 0.346654 0.542811
O O8 0.849917 0.340185 0.636507
O O9 0.000000 0.000000 0.000000
O O10 0.642173 0.587489 0.220106
O O11 0.619706 0.894741 0.137910
O O12 0.357638 0.860987 0.167908
O O13 0.500000 0.889433 0.750000
#
# Coordination Sequence:
#
# PCOD9232761 Si02
#       6
#     4   4   4   4   4   4
#     4  10  21  38  61  87 119 159 200 247 302 363
#     4   9  18  34  57  85 116 152 195 243 295 352
#     4   9  17  32  57  86 116 153 194 240 295 353
#     4  10  21  38  61  90 118 154 200 249 302 353
#     4  10  21  39  60  85 121 159 198 246 302 360
#     4  10  22  39  59  85 120 160 199 247 306 366
#
# _framework density 22.634876999999999
#
# number of rings (size 3 to 8) (size 9 to 14) (size 15 to 20)
#    0.000    2.333    0.000    3.000    0.000    2.667 
#    0.000   13.333    0.000    8.000    0.000    0.000 
#    0.000    0.000    0.000    0.000    0.000    0.000 
#
# Total GULP energy -133771.965725 kJ/mol
# GULP energy per Si atom -5573.831905 kJ/mol
# Density = 2.258336 g / cm^3
# Si number density = 22.634877 Si / 1000 Ang^3
#
#
#
# Elastic Constant Matrix: (Units=GPa)
#
#
# Indices 1 2 3 4 5 6 
#
# 1 124.3762 27.9353 43.6255 0.0000 5.9494 0.0000
# 2 27.9353 93.1190 52.2869 0.0000 20.0541 0.0000
# 3 43.6255 52.2869 194.7521 0.0000 19.4465 0.0000
# 4 0.0000 0.0000 0.0000 21.3225 0.0000 11.5999
# 5 5.9494 20.0541 19.4465 0.0000 27.8570 0.0000
# 6 0.0000 0.0000 0.0000 11.5999 0.0000 27.5662
#
#
#
# Elastic Compliance Matrix: (Units=1/GPa)
#
#
# Indices 1 2 3 4 5 6 
#
# 1 0.008994 -0.001951 -0.001547 0.000000 0.000564 0.000000
# 2 -0.001951 0.014589 -0.002658 0.000000 -0.008230 0.000000
# 3 -0.001547 -0.002658 0.006418 0.000000 -0.002237 0.000000
# 4 0.000000 0.000000 0.000000 0.060823 0.000000 -0.025594
# 5 0.000564 -0.008230 -0.002237 0.000000 0.043264 0.000000
# 6 0.000000 0.000000 0.000000 -0.025594 0.000000 0.047046
#
#
# Mechanical properties :
#
#
# Convention : Reuss Voigt Hill
#
# Bulk Modulus (GPa) = 56.53122 73.32697 64.92910
# Shear Modulus (GPa) = 25.08242 34.57578 29.82910
#
# Velocity S-wave (km/s) = 3.33247 3.91262 3.63414
# Velocity P-wave (km/s) = 6.31163 7.27168 6.80860
#
# Compressibility (1/GPa) = 0.01768934
#
# Stress axis : x y z
#
# Youngs Moduli (GPa) = 111.18506 68.54382 155.80471
#
# Poissons Ratio (x) = 0.13371 0.24107
# Poissons Ratio (y) = 0.21689 0.41414
# Poissons Ratio (z) = 0.17203 0.18220
#
# Static dielectric constant tensor:
#      x y z
#    x 1.876240 0.000000 -0.039800 
#    y 0.000000 1.892040 0.000000 
#    z -0.039800 0.000000 1.921080 
# 
# From -- ./inp_files/52281.got.cif
#   From: 2010.05.17/outbox.cif.g08.bks.cpg/sg13_27_cif.got.tgz:52281.got - 2010.06.03 16:44:36.
