data_PCOD9232810
_publ_section_title
;
Structure prediction by ZEFSAII (Michael W. Deem and Ramdas Pophale) SiO2 
 PCOD9232810
Probable space group: P 2/C
;
_chemical_formula_sum "Si O2"
_cell_formula_units_Z 32
_cell_length_a 11.197620
_cell_length_b 8.422960
_cell_length_c 16.154465
_cell_angle_alpha 90.000000
_cell_angle_beta 122.191945
_cell_angle_gamma 90.000000
_cell_volume 1289.409898
_symmetry_space_group_name_H-M "P 2/C"
_symmetry_group_IT_number 13
_symmetry_cell_setting 'monoclinic'
loop_
_space_group_symop_operation_xyz
x,y,z
-x,y,1/2-z
-x,-y,-z
x,-y,1/2+z
loop_
_atom_site_type_symbol
_atom_site_label
_atom_site_fract_x
_atom_site_fract_y
_atom_site_fract_z
Si Si1 0.962347 0.185317 0.597557
Si Si2 0.869736 0.665101 0.492401
Si Si3 0.947813 0.496798 0.312024
Si Si4 0.228107 0.964407 0.241026
Si Si5 0.280888 0.029539 0.562669
Si Si6 0.668467 0.635495 0.149700
Si Si7 0.385160 0.486139 0.053386
Si Si8 0.466613 0.169565 0.335292
O O1 0.061130 0.260907 0.562921
O O2 0.956378 0.340006 0.652602
O O3 0.059492 0.050068 0.674855
O O4 0.824425 0.110665 0.506348
O O5 0.780837 0.810036 0.498481
O O6 0.752832 0.526809 0.443971
O O7 0.000984 0.602733 0.592173
O O8 0.783938 0.540839 0.246927
O O9 0.000000 0.407804 0.250000
O O10 0.276906 0.949434 0.161760
O O11 0.281676 0.817533 0.317539
O O12 0.305823 0.125515 0.295321
O O13 0.436788 0.975920 0.597239
O O14 0.503967 0.620116 0.113022
O O15 0.665745 0.547938 0.059187
O O16 0.471522 0.328341 0.105323
O O17 0.500000 0.182948 0.250000
#
# Coordination Sequence:
#
# PCOD9232810 Si02
#       8
#     4   4   4   4   4   4   4   4
#     4  10  22  39  66  94 125 168 210 259 317 377
#     4  11  21  38  65  91 125 161 207 260 313 370
#     4  11  22  40  63  89 128 165 207 259 314 378
#     4   9  19  38  58  85 119 160 199 258 306 368
#     4  10  21  38  62  93 127 161 207 257 316 375
#     4  10  23  40  60  84 124 168 206 251 320 379
#     4  11  23  39  61  89 123 166 209 257 313 378
#     4  10  22  37  60  90 123 154 207 261 308 373
#
# _framework density 24.817553
#
# number of rings (size 3 to 8) (size 9 to 14) (size 15 to 20)
#    0.000    1.750    1.250    3.375    0.000    7.500 
#    0.000    0.625    2.750    0.000    0.000    0.000 
#    0.000    0.000    0.000    0.000    0.000    0.000 
#
# Total GULP energy -178725.088381 kJ/mol
# GULP energy per Si atom -5585.159012 kJ/mol
# Density = 2.476107 g / cm^3
# Si number density = 24.817553 Si / 1000 Ang^3
#
#
#
# Elastic Constant Matrix: (Units=GPa)
#
#
# Indices 1 2 3 4 5 6 
#
# 1 57.7663 -7.2273 32.4162 0.0000 13.1922 0.0000
# 2 -7.2273 72.4877 40.0585 0.0000 -3.0783 0.0000
# 3 32.4162 40.0585 121.6362 0.0000 20.2673 0.0000
# 4 0.0000 0.0000 0.0000 47.1621 0.0000 10.1319
# 5 13.1922 -3.0783 20.2673 0.0000 24.9697 0.0000
# 6 0.0000 0.0000 0.0000 10.1319 0.0000 9.2178
#
#
#
# Elastic Compliance Matrix: (Units=1/GPa)
#
#
# Indices 1 2 3 4 5 6 
#
# 1 0.023503 0.006159 -0.007343 0.000000 -0.005698 0.000000
# 2 0.006159 0.019832 -0.009295 0.000000 0.006735 0.000000
# 3 -0.007343 -0.009295 0.014783 0.000000 -0.009266 0.000000
# 4 0.000000 0.000000 0.000000 0.027758 0.000000 -0.030511
# 5 -0.005698 0.006735 -0.009266 0.000000 0.051410 0.000000
# 6 0.000000 0.000000 0.000000 -0.030511 0.000000 0.142021
#
#
# Mechanical properties :
#
#
# Convention : Reuss Voigt Hill
#
# Bulk Modulus (GPa) = 26.90940 42.48720 34.69830
# Shear Modulus (GPa) = 15.99218 28.71277 22.35247
#
# Velocity S-wave (km/s) = 2.54124 3.40509 3.00438
# Velocity P-wave (km/s) = 4.41327 5.71109 5.10360
#
# Compressibility (1/GPa) = 0.03716173
#
# Stress axis : x y z
#
# Youngs Moduli (GPa) = 42.54686 50.42290 67.64496
#
# Poissons Ratio (x) = -0.31056 0.49669
# Poissons Ratio (y) = -0.26205 0.62876
# Poissons Ratio (z) = 0.31240 0.46868
#
# Static dielectric constant tensor:
#      x y z
#    x 2.012640 0.000000 -0.014280 
#    y 0.000000 2.048170 0.000000 
#    z -0.014280 0.000000 1.995270 
# 
# From -- ./inp_files/79822.got.cif
#   From: 2010.05.17/outbox.cif.g08.bks.cpg/sg13_40_cif.got.tgz:79822.got - 2010.06.03 16:44:36.
