data_PCOD9232716
_publ_section_title
;
Structure prediction by ZEFSAII (Michael W. Deem and Ramdas Pophale) SiO2 
 PCOD9232716
Probable space group: P 2/C
;
_chemical_formula_sum "Si O2"
_cell_formula_units_Z 32
_cell_length_a 17.769269
_cell_length_b 12.935290
_cell_length_c 11.400991
_cell_angle_alpha 90.000000
_cell_angle_beta 32.045802
_cell_angle_gamma 90.000000
_cell_volume 1390.442845
_symmetry_space_group_name_H-M "P 2/C"
_symmetry_group_IT_number 13
_symmetry_cell_setting 'monoclinic'
loop_
_space_group_symop_operation_xyz
x,y,z
-x,y,1/2-z
-x,-y,-z
x,-y,1/2+z
loop_
_atom_site_type_symbol
_atom_site_label
_atom_site_fract_x
_atom_site_fract_y
_atom_site_fract_z
Si Si1 0.018515 0.384242 0.592468
Si Si2 0.067289 0.385276 0.046389
Si Si3 0.637603 0.661323 0.254205
Si Si4 0.679055 0.842452 0.622188
Si Si5 0.661438 0.176486 0.526148
Si Si6 0.328554 0.320905 0.192886
Si Si7 0.836109 0.031704 0.462698
Si Si8 0.629254 0.868819 0.417154
O O1 0.982384 0.506200 0.649419
O O2 0.186617 0.379236 0.349537
O O3 0.000000 0.340520 0.750000
O O4 0.946626 0.340113 0.567814
O O5 0.000000 0.327899 0.250000
O O6 0.230497 0.401565 0.869978
O O7 0.669780 0.714655 0.086677
O O8 0.475833 0.621791 0.469494
O O9 0.629645 0.761392 0.347579
O O10 0.674881 0.724401 0.671223
O O11 0.671105 0.848255 0.494009
O O12 0.813726 0.909661 0.479298
O O13 0.536297 0.900232 0.858788
O O14 0.500000 0.137419 0.750000
O O15 0.680685 0.213433 0.368801
O O16 0.764072 0.093909 0.449314
O O17 0.744439 0.063637 0.697415
O O18 0.000000 0.059370 0.250000
#
# Coordination Sequence:
#
# PCOD9232716 Si02
#       8
#     4   4   4   4   4   4   4   4
#     4  10  23  39  58  91 125 159 193 235 299 364
#     4  10  21  40  64  87 121 161 196 233 293 365
#     4   9  19  37  62  88 112 149 200 244 281 348
#     4  10  22  38  59  80 115 160 191 240 300 362
#     4   9  20  38  61  85 114 151 197 247 296 353
#     4  10  21  38  59  88 117 148 197 245 298 343
#     4  11  24  38  57  87 115 148 203 253 291 346
#     4   9  21  39  59  82 111 155 200 234 297 365
#
# _framework density 23.014251000000002
#
# number of rings (size 3 to 8) (size 9 to 14) (size 15 to 20)
#    0.000    2.250    0.000    1.875    5.250    5.500 
#    0.000    0.000    0.000    4.500    0.000    0.000 
#    0.000    0.000    0.000    0.000    0.000    0.000 
#
# Total GULP energy -178453.914894 kJ/mol
# GULP energy per Si atom -5576.684840 kJ/mol
# Density = 2.296187 g / cm^3
# Si number density = 23.014251 Si / 1000 Ang^3
#
#
#
# Elastic Constant Matrix: (Units=GPa)
#
#
# Indices 1 2 3 4 5 6 
#
# 1 124.4061 8.4816 57.2381 0.0000 -0.5429 0.0000
# 2 8.4816 18.2769 -6.5686 0.0000 -0.0564 0.0000
# 3 57.2381 -6.5686 71.5185 0.0000 -8.6022 0.0000
# 4 0.0000 0.0000 0.0000 7.5778 0.0000 -15.3432
# 5 -0.5429 -0.0564 -8.6022 0.0000 50.8048 0.0000
# 6 0.0000 0.0000 0.0000 -15.3432 0.0000 -50.2234
#
#
#
# Elastic Compliance Matrix: (Units=1/GPa)
#
#
# Indices 1 2 3 4 5 6 
#
# 1 0.014941 -0.011715 -0.013286 0.000000 -0.002103 0.000000
# 2 -0.011715 0.065813 0.015734 0.000000 0.002612 0.000000
# 3 -0.013286 0.015734 0.026587 0.000000 0.004377 0.000000
# 4 0.000000 0.000000 0.000000 0.081532 0.000000 -0.024908
# 5 -0.002103 0.002612 0.004377 0.000000 0.020405 0.000000
# 6 0.000000 0.000000 0.000000 -0.024908 0.000000 -0.012302
#
#
# Mechanical properties :
#
#
# Convention : Reuss Voigt Hill
#
# Bulk Modulus (GPa) = 11.26025 36.94486 24.10255
# Shear Modulus (GPa) = 20.39883 11.96853 16.18368
#
# Velocity S-wave (km/s) = 2.98040 2.28293 2.65467
# Velocity P-wave (km/s) = 4.09232 4.79968 4.46005
#
# Compressibility (1/GPa) = 0.08880798
#
# Stress axis : x y z
#
# Youngs Moduli (GPa) = 66.93192 15.19450 37.61196
#
# Poissons Ratio (x) = 0.17800 0.49972
# Poissons Ratio (y) = 0.78409 -0.59180
# Poissons Ratio (z) = 0.88927 -0.23908
#
# Static dielectric constant tensor:
#      x y z
#    x 1.950580 0.000000 0.041250 
#    y 0.000000 1.848380 0.000000 
#    z 0.041250 0.000000 1.931220 
# 
# From -- ./inp_files/39440.got.cif
#   From: 2010.05.17/outbox.cif.g08.bks.cpg/sg13_20_cif.got.tgz:39440.got - 2010.06.03 16:44:36.
