data_PCOD9232654
_publ_section_title
;
Structure prediction by ZEFSAII (Michael W. Deem and Ramdas Pophale) SiO2 
 PCOD9232654
Probable space group: P 2/C
;
_chemical_formula_sum "Si O2"
_cell_formula_units_Z 24
_cell_length_a 16.667005
_cell_length_b 17.718751
_cell_length_c 8.057280
_cell_angle_alpha 90.000000
_cell_angle_beta 149.733412
_cell_angle_gamma 90.000000
_cell_volume 1199.307049
_symmetry_space_group_name_H-M "P 2/C"
_symmetry_group_IT_number 13
_symmetry_cell_setting 'monoclinic'
loop_
_space_group_symop_operation_xyz
x,y,z
-x,y,1/2-z
-x,-y,-z
x,-y,1/2+z
loop_
_atom_site_type_symbol
_atom_site_label
_atom_site_fract_x
_atom_site_fract_y
_atom_site_fract_z
Si Si1 0.167105 0.398121 0.769207
Si Si2 0.500000 0.662958 0.750000
Si Si3 0.065060 0.079943 0.680584
Si Si4 0.087747 0.756084 0.231092
Si Si5 0.464349 0.761695 0.998115
Si Si6 0.444465 0.919570 0.838529
Si Si7 0.000000 0.523318 0.250000
O O1 0.076732 0.317565 0.596370
O O2 0.094060 0.466062 0.535419
O O3 0.129861 0.424734 0.890075
O O4 0.348084 0.384647 0.038209
O O5 0.542814 0.714292 0.987834
O O6 0.029641 0.164543 0.547418
O O7 0.000000 0.084947 0.750000
O O8 0.254628 0.076955 0.010155
O O9 0.000000 0.000000 0.500000
O O10 0.275802 0.759725 0.616420
O O11 0.000000 0.745665 0.250000
O O12 0.510394 0.849608 0.062556
O O13 0.500000 0.735931 0.250000
O O14 0.500000 0.907015 0.750000
O O15 0.500000 0.000000 0.000000
#
# Coordination Sequence:
#
# PCOD9232654 Si02
#       7
#     4   2   4   4   4   4   2
#     4  10  21  41  63  93 125 159 205 253 313 377
#     4  10  22  42  62  94 128 158 202 258 306 378
#     4  10  21  38  55  81 118 162 202 252 308 353
#     4   9  19  37  61  83 122 163 200 252 308 366
#     4  10  21  38  60  89 122 161 207 260 310 368
#     4  11  21  35  56  82 117 158 209 258 310 363
#     4  10  22  40  66  90 124 162 200 254 312 380
#
# _framework density 20.011555000000001
#
# number of rings (size 3 to 8) (size 9 to 14) (size 15 to 20)
#    0.000    2.000    1.667    1.500    0.000    4.667 
#    4.500    0.000    0.000    0.000    0.000    0.000 
#    0.000    0.000    0.000    0.000    0.000    0.000 
#
# Total GULP energy -133699.080523 kJ/mol
# GULP energy per Si atom -5570.795022 kJ/mol
# Density = 1.996601 g / cm^3
# Si number density = 20.011555 Si / 1000 Ang^3
#
#
#
# Elastic Constant Matrix: (Units=GPa)
#
#
# Indices 1 2 3 4 5 6 
#
# 1 141.6827 53.8057 35.7214 0.0000 18.5276 0.0000
# 2 53.8057 151.1749 26.9407 0.0000 7.5763 0.0000
# 3 35.7214 26.9407 23.1638 0.0000 7.1341 0.0000
# 4 0.0000 0.0000 0.0000 26.3184 0.0000 3.3056
# 5 18.5276 7.5763 7.1341 0.0000 39.4493 0.0000
# 6 0.0000 0.0000 0.0000 3.3056 0.0000 30.2760
#
#
#
# Elastic Compliance Matrix: (Units=1/GPa)
#
#
# Indices 1 2 3 4 5 6 
#
# 1 0.011934 -0.001236 -0.016217 0.000000 -0.002435 0.000000
# 2 -0.001236 0.008473 -0.008077 0.000000 0.000414 0.000000
# 3 -0.016217 -0.008077 0.079159 0.000000 -0.005148 0.000000
# 4 0.000000 0.000000 0.000000 0.038525 0.000000 -0.004206
# 5 -0.002435 0.000414 -0.005148 0.000000 0.027344 0.000000
# 6 0.000000 0.000000 0.000000 -0.004206 0.000000 0.033489
#
#
# Mechanical properties :
#
#
# Convention : Reuss Voigt Hill
#
# Bulk Modulus (GPa) = 20.61544 60.99523 40.80533
# Shear Modulus (GPa) = 18.78617 32.51230 25.64924
#
# Velocity S-wave (km/s) = 3.06725 4.03510 3.58400
# Velocity P-wave (km/s) = 4.78207 7.22880 6.12877
#
# Compressibility (1/GPa) = 0.04850734
#
# Stress axis : x y z
#
# Youngs Moduli (GPa) = 83.79114 118.01847 12.63274
#
# Poissons Ratio (x) = 0.14582 0.20487
# Poissons Ratio (y) = 0.10353 0.10203
# Poissons Ratio (z) = 1.35888 0.95322
#
# Static dielectric constant tensor:
#      x y z
#    x 1.715540 0.000000 -0.013050 
#    y 0.000000 1.770360 0.000000 
#    z -0.013050 0.000000 1.702180 
# 
# From -- ./inp_files/22011.got.cif
#   From: 2010.05.17/outbox.cif.g08.bks.cpg/sg13_12_cif.got.tgz:22011.got - 2010.06.03 16:44:36.
