data_PCOD9232957
_publ_section_title
;
Structure prediction by ZEFSAII (Michael W. Deem and Ramdas Pophale) SiO2 
 PCOD9232957
Probable space group: P 2/C
;
_chemical_formula_sum "Si O2"
_cell_formula_units_Z 32
_cell_length_a 7.850349
_cell_length_b 6.370991
_cell_length_c 30.091006
_cell_angle_alpha 90.000000
_cell_angle_beta 82.578088
_cell_angle_gamma 90.000000
_cell_volume 1492.377676
_symmetry_space_group_name_H-M "P 2/C"
_symmetry_group_IT_number 13
_symmetry_cell_setting 'monoclinic'
loop_
_space_group_symop_operation_xyz
x,y,z
-x,y,1/2-z
-x,-y,-z
x,-y,1/2+z
loop_
_atom_site_type_symbol
_atom_site_label
_atom_site_fract_x
_atom_site_fract_y
_atom_site_fract_z
Si Si1 0.268820 0.045832 0.820641
Si Si2 0.751114 0.661930 0.094811
Si Si3 0.410894 0.815962 0.654660
Si Si4 0.177370 0.080597 0.726612
Si Si5 0.059950 0.275221 0.380579
Si Si6 0.210096 0.420548 0.655801
Si Si7 0.063944 0.939596 0.046352
Si Si8 0.600430 0.867019 0.420626
O O1 0.423937 0.890599 0.825025
O O2 0.113179 0.900749 0.842970
O O3 0.276816 0.235517 0.855456
O O4 0.275398 0.114113 0.769636
O O5 0.788736 0.414860 0.101520
O O6 0.583025 0.743416 0.072545
O O7 0.926664 0.764778 0.068787
O O8 0.370819 0.573011 0.657884
O O9 0.262973 0.927956 0.688413
O O10 0.426036 0.911239 0.604316
O O11 0.151834 0.298145 0.701405
O O12 0.000000 0.989706 0.750000
O O13 0.963161 0.142720 0.421459
O O14 0.938613 0.441044 0.360472
O O15 0.277314 0.255853 0.617862
O O16 0.268265 0.884453 0.042272
O O17 0.000000 0.000000 0.000000
#
# Coordination Sequence:
#
# PCOD9232957 Si02
#       8
#     4   4   4   4   4   4   4   4
#     4  10  22  39  60  86 125 160 211 262 315 366
#     4  10  22  41  65  93 124 170 211 258 318 384
#     4  10  21  39  60  85 118 168 207 258 310 377
#     4  11  23  35  54  86 123 157 208 262 306 362
#     4  11  21  40  68  90 125 168 215 260 324 397
#     4  11  21  37  64  88 120 166 214 253 315 375
#     4  11  24  42  66  96 129 164 209 271 331 389
#     4  10  21  41  64  90 129 165 209 258 318 385
#
# _framework density 21.442294
#
# number of rings (size 3 to 8) (size 9 to 14) (size 15 to 20)
#    0.000    1.500    2.500    2.625    3.500    3.500 
#    0.000    5.625    0.000    0.000    0.000    0.000 
#    0.000    0.000    0.000    0.000    0.000    0.000 
#
# Total GULP energy -178552.202916 kJ/mol
# GULP energy per Si atom -5579.756341 kJ/mol
# Density = 2.139349 g / cm^3
# Si number density = 21.442294 Si / 1000 Ang^3
#
#
#
# Elastic Constant Matrix: (Units=GPa)
#
#
# Indices 1 2 3 4 5 6 
#
# 1 84.7788 -10.3874 18.0467 0.0000 25.1404 0.0000
# 2 -10.3874 51.1916 18.7447 0.0000 5.8651 0.0000
# 3 18.0467 18.7447 38.5036 0.0000 21.5389 0.0000
# 4 0.0000 0.0000 0.0000 1.2396 0.0000 4.4222
# 5 25.1404 5.8651 21.5389 0.0000 27.0448 0.0000
# 6 0.0000 0.0000 0.0000 4.4222 0.0000 33.7001
#
#
#
# Elastic Compliance Matrix: (Units=1/GPa)
#
#
# Indices 1 2 3 4 5 6 
#
# 1 0.017849 0.006384 -0.002557 0.000000 -0.015940 0.000000
# 2 0.006384 0.026888 -0.017134 0.000000 0.001880 0.000000
# 3 -0.002557 -0.017134 0.057897 0.000000 -0.040017 0.000000
# 4 0.000000 0.000000 0.000000 1.516819 0.000000 -0.199039
# 5 -0.015940 0.001880 -0.040017 0.000000 0.083256 0.000000
# 6 0.000000 0.000000 0.000000 -0.199039 0.000000 0.055792
#
#
# Mechanical properties :
#
#
# Convention : Reuss Voigt Hill
#
# Bulk Modulus (GPa) = 13.15426 25.25355 19.20391
# Shear Modulus (GPa) = 2.76174 22.26822 12.51498
#
# Velocity S-wave (km/s) = 1.13613 3.22610 2.41852
# Velocity P-wave (km/s) = 2.80519 5.06754 4.09567
#
# Compressibility (1/GPa) = 0.07602098
#
# Stress axis : x y z
#
# Youngs Moduli (GPa) = 56.02624 37.19067 17.27199
#
# Poissons Ratio (x) = -0.23744 0.04416
# Poissons Ratio (y) = -0.35769 0.29594
# Poissons Ratio (z) = 0.14326 0.63723
#
# Static dielectric constant tensor:
#      x y z
#    x 1.993520 0.000000 -0.008330 
#    y 0.000000 1.779840 0.000000 
#    z -0.008330 0.000000 1.811730 
# 
# From -- ./inp_files/95658.got.cif
#   From: 2010.05.17/outbox.cif.g08.bks.cpg/sg13_48_cif.got.tgz:95658.got - 2010.06.03 16:44:36.
