data_PCOD9232054
_publ_section_title
;
Structure prediction by ZEFSAII (Michael W. Deem and Ramdas Pophale) SiO2 
 PCOD9232054
Probable space group: P 2/C
;
_chemical_formula_sum "Si O2"
_cell_formula_units_Z 28
_cell_length_a 15.380820
_cell_length_b 9.727561
_cell_length_c 9.177190
_cell_angle_alpha 90.000000
_cell_angle_beta 63.253790
_cell_angle_gamma 90.000000
_cell_volume 1226.164880
_symmetry_space_group_name_H-M "P 2/C"
_symmetry_group_IT_number 13
_symmetry_cell_setting 'monoclinic'
loop_
_space_group_symop_operation_xyz
x,y,z
-x,y,1/2-z
-x,-y,-z
x,-y,1/2+z
loop_
_atom_site_type_symbol
_atom_site_label
_atom_site_fract_x
_atom_site_fract_y
_atom_site_fract_z
Si Si1 0.874450 0.056106 0.489299
Si Si2 0.567216 0.027500 0.581973
Si Si3 0.333228 0.623957 0.744701
Si Si4 0.913578 0.805328 0.235483
Si Si5 0.243689 0.896285 0.675077
Si Si6 0.707293 0.647302 0.382992
Si Si7 0.499140 0.326803 0.596751
O O1 0.941812 0.142617 0.549987
O O2 0.821598 0.153281 0.411458
O O3 0.904518 0.934266 0.355804
O O4 0.806838 0.984424 0.661221
O O5 0.500000 0.953201 0.750000
O O6 0.678200 0.002426 0.463566
O O7 0.561460 0.192216 0.599895
O O8 0.500000 0.000000 0.500000
O O9 0.289790 0.768292 0.723023
O O10 0.277407 0.495780 0.714443
O O11 0.438969 0.615821 0.585577
O O12 0.324116 0.622489 0.925578
O O13 0.808571 0.731488 0.303821
O O14 0.000000 0.721102 0.250000
O O15 0.610200 0.707616 0.375233
O O16 0.500000 0.407441 0.750000
#
# Coordination Sequence:
#
# PCOD9232054 Si02
#       7
#     4   4   4   4   4   4   4
#     4  10  22  41  72  92 130 163 216 272 336 398
#     4  10  21  30  50  84 134 163 209 252 318 383
#     4  11  24  42  63  95 137 175 225 261 327 393
#     4  11  25  45  72 101 129 169 222 276 343 396
#     4  10  21  38  62  96 127 173 211 261 327 402
#     4  12  25  42  69  91 135 178 224 278 323 388
#     4  10  23  40  62  93 129 177 229 264 322 390
#
# _framework density 22.835428
#
# number of rings (size 3 to 8) (size 9 to 14) (size 15 to 20)
#    0.000    1.429    1.429    3.000   12.000    2.286 
#    0.000    0.714    0.000    0.000    0.000    0.000 
#    0.000    0.000    0.000    0.000    0.000    0.000 
#
# Total GULP energy -155988.383706 kJ/mol
# GULP energy per Si atom -5571.013704 kJ/mol
# Density = 2.278345 g / cm^3
# Si number density = 22.835428 Si / 1000 Ang^3
#
#
#
# Elastic Constant Matrix: (Units=GPa)
#
#
# Indices 1 2 3 4 5 6 
#
# 1 133.2842 20.8618 43.6424 0.0000 21.7114 0.0000
# 2 20.8618 38.7052 4.4528 0.0000 -4.7717 0.0000
# 3 43.6424 4.4528 144.9016 0.0000 35.7038 0.0000
# 4 0.0000 0.0000 0.0000 26.2219 0.0000 5.9267
# 5 21.7114 -4.7717 35.7038 0.0000 47.1179 0.0000
# 6 0.0000 0.0000 0.0000 5.9267 0.0000 24.5610
#
#
#
# Elastic Compliance Matrix: (Units=1/GPa)
#
#
# Indices 1 2 3 4 5 6 
#
# 1 0.009517 -0.005356 -0.001829 0.000000 -0.003542 0.000000
# 2 -0.005356 0.029561 -0.000788 0.000000 0.006059 0.000000
# 3 -0.001829 -0.000788 0.008962 0.000000 -0.006028 0.000000
# 4 0.000000 0.000000 0.000000 0.040336 0.000000 -0.009733
# 5 -0.003542 0.006059 -0.006028 0.000000 0.028036 0.000000
# 6 0.000000 0.000000 0.000000 -0.009733 0.000000 0.043064
#
#
# Mechanical properties :
#
#
# Convention : Reuss Voigt Hill
#
# Bulk Modulus (GPa) = 31.15942 50.53387 40.84664
# Shear Modulus (GPa) = 26.86458 36.10911 31.48684
#
# Velocity S-wave (km/s) = 3.43365 3.98084 3.71733
# Velocity P-wave (km/s) = 5.42170 6.58081 6.02917
#
# Compressibility (1/GPa) = 0.03209303
#
# Stress axis : x y z
#
# Youngs Moduli (GPa) = 105.07640 33.82881 111.58748
#
# Poissons Ratio (x) = 0.18118 0.20411
# Poissons Ratio (y) = 0.56276 0.08795
# Poissons Ratio (z) = 0.19220 0.02666
#
# Static dielectric constant tensor:
#      x y z
#    x 1.989780 0.000000 -0.059220 
#    y 0.000000 1.996050 0.000000 
#    z -0.059220 0.000000 1.904580 
# 
# From -- ./inp_files/18740.got.cif
#   From: 2010.05.17/outbox.cif.g08.bks.cpg/sg13_10_cif.got.tgz:18740.got - 2010.06.03 16:44:36.
