data_PCOD9232875
_publ_section_title
;
Structure prediction by ZEFSAII (Michael W. Deem and Ramdas Pophale) SiO2 
 PCOD9232875
Probable space group: P 2/C
;
_chemical_formula_sum "Si O2"
_cell_formula_units_Z 28
_cell_length_a 25.457914
_cell_length_b 9.718956
_cell_length_c 8.465287
_cell_angle_alpha 90.000000
_cell_angle_beta 41.440970
_cell_angle_gamma 90.000000
_cell_volume 1386.252765
_symmetry_space_group_name_H-M "P 2/C"
_symmetry_group_IT_number 13
_symmetry_cell_setting 'monoclinic'
loop_
_space_group_symop_operation_xyz
x,y,z
-x,y,1/2-z
-x,-y,-z
x,-y,1/2+z
loop_
_atom_site_type_symbol
_atom_site_label
_atom_site_fract_x
_atom_site_fract_y
_atom_site_fract_z
Si Si1 0.494247 0.655627 0.952197
Si Si2 0.203473 0.721888 0.590433
Si Si3 0.173333 0.503152 0.924973
Si Si4 0.936472 0.606633 0.076385
Si Si5 0.355917 0.852470 0.358845
Si Si6 0.421156 0.118253 0.035934
Si Si7 0.974100 0.851920 0.492915
O O1 0.500000 0.661909 0.750000
O O2 0.558465 0.752546 0.897667
O O3 0.500000 0.500000 0.000000
O O4 0.410580 0.722758 0.189986
O O5 0.209609 0.607480 0.716670
O O6 0.216090 0.629423 0.404232
O O7 0.271158 0.831986 0.470382
O O8 0.117050 0.796236 0.788090
O O9 0.094872 0.439608 0.020674
O O10 0.141948 0.595256 0.139079
O O11 0.000000 0.500000 0.000000
O O12 0.974620 0.752165 0.012679
O O13 0.354764 0.858077 0.551625
O O14 0.398359 0.987472 0.192035
O O15 0.500000 0.093386 0.750000
O O16 0.000000 0.000000 0.500000
O O17 0.000000 0.837512 0.250000
#
# Coordination Sequence:
#
# PCOD9232875 Si02
#       7
#     4   4   4   4   4   4   4
#     4  11  22  40  71 102 131 168 221 267 309 371
#     4  11  25  41  62  94 129 165 212 272 332 382
#     4  10  21  38  65  89 114 158 214 264 318 378
#     4  11  18  37  68  86 108 156 219 264 308 377
#     4  11  23  42  64  95 135 169 217 256 326 385
#     4  10  21  42  69  94 126 179 216 254 305 395
#     4  12  26  40  60  89 125 160 215 266 323 385
#
# _framework density 20.198336000000001
#
# number of rings (size 3 to 8) (size 9 to 14) (size 15 to 20)
#    0.000    1.143    4.286    4.714    2.000    3.429 
#    0.000    2.857    0.000    0.000    0.000    0.000 
#    0.000    0.000    0.000    0.000    0.000    0.000 
#
# Total GULP energy -156235.822633 kJ/mol
# GULP energy per Si atom -5579.850808 kJ/mol
# Density = 2.015236 g / cm^3
# Si number density = 20.198336 Si / 1000 Ang^3
#
#
#
# Elastic Constant Matrix: (Units=GPa)
#
#
# Indices 1 2 3 4 5 6 
#
# 1 100.3706 45.0011 28.6572 0.0000 12.4773 0.0000
# 2 45.0011 159.4390 35.9159 0.0000 2.2618 0.0000
# 3 28.6572 35.9159 36.8815 0.0000 18.7497 0.0000
# 4 0.0000 0.0000 0.0000 18.7297 0.0000 4.9326
# 5 12.4773 2.2618 18.7497 0.0000 35.9096 0.0000
# 6 0.0000 0.0000 0.0000 4.9326 0.0000 39.5129
#
#
#
# Elastic Compliance Matrix: (Units=1/GPa)
#
#
# Indices 1 2 3 4 5 6 
#
# 1 0.013200 -0.001820 -0.008455 0.000000 -0.000057 0.000000
# 2 -0.001820 0.008965 -0.010006 0.000000 0.005292 0.000000
# 3 -0.008455 -0.010006 0.056651 0.000000 -0.026012 0.000000
# 4 0.000000 0.000000 0.000000 0.055206 0.000000 -0.006892
# 5 -0.000057 0.005292 -0.026012 0.000000 0.041116 0.000000
# 6 0.000000 0.000000 0.000000 -0.006892 0.000000 0.026169
#
#
# Mechanical properties :
#
#
# Convention : Reuss Voigt Hill
#
# Bulk Modulus (GPa) = 26.14134 57.31550 41.72842
# Shear Modulus (GPa) = 19.63702 31.30490 25.47096
#
# Velocity S-wave (km/s) = 3.12141 3.94112 3.55497
# Velocity P-wave (km/s) = 5.09523 7.01055 6.12818
#
# Compressibility (1/GPa) = 0.03825358
#
# Stress axis : x y z
#
# Youngs Moduli (GPa) = 75.75560 111.54827 17.65185
#
# Poissons Ratio (x) = 0.20306 0.14924
# Poissons Ratio (y) = 0.13790 0.17663
# Poissons Ratio (z) = 0.64051 1.11617
#
# Static dielectric constant tensor:
#      x y z
#    x 1.751340 0.000000 0.008340 
#    y 0.000000 1.730560 0.000000 
#    z 0.008340 0.000000 1.748770 
# 
# From -- ./inp_files/24410.got.cif
#   From: 2010.05.17/outbox.cif.g08.bks.cpg/sg13_13_cif.got.tgz:24410.got - 2010.06.03 16:44:36.
