data_PCOD9232770
_publ_section_title
;
Structure prediction by ZEFSAII (Michael W. Deem and Ramdas Pophale) SiO2 
 PCOD9232770
Probable space group: P 2/C
;
_chemical_formula_sum "Si O2"
_cell_formula_units_Z 20
_cell_length_a 5.115453
_cell_length_b 24.049665
_cell_length_c 9.686107
_cell_angle_alpha 90.000000
_cell_angle_beta 121.828577
_cell_angle_gamma 90.000000
_cell_volume 1012.446560
_symmetry_space_group_name_H-M "P 2/C"
_symmetry_group_IT_number 13
_symmetry_cell_setting 'monoclinic'
loop_
_space_group_symop_operation_xyz
x,y,z
-x,y,1/2-z
-x,-y,-z
x,-y,1/2+z
loop_
_atom_site_type_symbol
_atom_site_label
_atom_site_fract_x
_atom_site_fract_y
_atom_site_fract_z
Si Si1 0.588211 0.221123 0.933157
Si Si2 0.368371 0.547097 0.865044
Si Si3 0.808872 0.964688 0.055111
Si Si4 0.766022 0.839754 0.936190
Si Si5 0.364519 0.328097 0.364682
O O1 0.500000 0.227542 0.750000
O O2 0.337732 0.186411 0.947912
O O3 0.583253 0.280048 0.010034
O O4 0.915367 0.188052 0.026979
O O5 0.500000 0.538259 0.750000
O O6 0.468432 0.609814 0.935776
O O7 0.000000 0.544439 0.750000
O O8 0.500000 0.500000 0.000000
O O9 0.000000 0.957217 0.250000
O O10 0.770458 0.905233 0.970060
O O11 0.500000 0.000000 0.000000
O O12 0.000000 0.000000 0.000000
O O13 0.500000 0.828096 0.750000
O O14 0.500000 0.315097 0.250000
O O15 0.000000 0.331531 0.250000
#
# Coordination Sequence:
#
# PCOD9232770 Si02
#       5
#     4   4   4   4   4
#     4  12  24  40  62  92 122 156 202 256 304 356
#     4  10  21  38  61  89 122 161 205 253 306 365
#     4  12  25  44  66  93 125 160 202 250 301 360
#     4  12  25  43  65  90 122 163 202 245 303 366
#     4  10  21  39  61  86 121 164 204 246 305 371
#
# _framework density 19.754128999999999
#
# number of rings (size 3 to 8) (size 9 to 14) (size 15 to 20)
#    0.000    0.800    0.000    9.000    0.000    0.800 
#    0.000    2.000    0.000    0.000    0.000    0.000 
#    0.000    0.000    0.000    0.000    0.000    0.000 
#
# Total GULP energy -111795.036074 kJ/mol
# GULP energy per Si atom -5589.751804 kJ/mol
# Density = 1.970917 g / cm^3
# Si number density = 19.754129 Si / 1000 Ang^3
#
#
#
# Elastic Constant Matrix: (Units=GPa)
#
#
# Indices 1 2 3 4 5 6 
#
# 1 146.0580 48.4609 22.7514 0.0000 -19.3221 0.0000
# 2 48.4609 187.8963 54.6935 0.0000 -16.0691 0.0000
# 3 22.7514 54.6935 77.5007 0.0000 -8.3851 0.0000
# 4 0.0000 0.0000 0.0000 26.8841 0.0000 -1.3136
# 5 -19.3221 -16.0691 -8.3851 0.0000 34.7981 0.0000
# 6 0.0000 0.0000 0.0000 -1.3136 0.0000 36.0842
#
#
#
# Elastic Compliance Matrix: (Units=1/GPa)
#
#
# Indices 1 2 3 4 5 6 
#
# 1 0.007944 -0.001486 -0.000904 0.000000 0.003507 0.000000
# 2 -0.001486 0.007115 -0.004434 0.000000 0.001392 0.000000
# 3 -0.000904 -0.004434 0.016451 0.000000 0.001414 0.000000
# 4 0.000000 0.000000 0.000000 0.037263 0.000000 0.001356
# 5 0.003507 0.001392 0.001414 0.000000 0.031668 0.000000
# 6 0.000000 0.000000 0.000000 0.001356 0.000000 0.027762
#
#
# Mechanical properties :
#
#
# Convention : Reuss Voigt Hill
#
# Bulk Modulus (GPa) = 55.98584 73.69629 64.84106
# Shear Modulus (GPa) = 33.82788 38.58988 36.20888
#
# Velocity S-wave (km/s) = 4.14266 4.42465 4.28597
# Velocity P-wave (km/s) = 7.16136 7.96813 7.57549
#
# Compressibility (1/GPa) = 0.01786166
#
# Stress axis : x y z
#
# Youngs Moduli (GPa) = 125.87482 140.54509 60.78651
#
# Poissons Ratio (x) = 0.20883 0.05496
# Poissons Ratio (y) = 0.18703 0.26956
# Poissons Ratio (z) = 0.11381 0.62324
#
# Static dielectric constant tensor:
#      x y z
#    x 1.678070 0.000000 0.021350 
#    y 0.000000 1.772740 0.000000 
#    z 0.021350 0.000000 1.660980 
# 
# From -- ./inp_files/9903.got.cif
#   From: 2010.05.17/outbox.cif.g08.bks.cpg/sg13_5_cif.got.tgz:9903.got - 2010.06.03 16:44:36.
