data_PCOD9232326
_publ_section_title
;
Structure prediction by ZEFSAII (Michael W. Deem and Ramdas Pophale) SiO2 
 PCOD9232326
Probable space group: P 2/C
;
_chemical_formula_sum "Si O2"
_cell_formula_units_Z 30
_cell_length_a 6.187433
_cell_length_b 9.580073
_cell_length_c 25.958354
_cell_angle_alpha 90.000000
_cell_angle_beta 102.261076
_cell_angle_gamma 90.000000
_cell_volume 1503.611104
_symmetry_space_group_name_H-M "P 2/C"
_symmetry_group_IT_number 13
_symmetry_cell_setting 'monoclinic'
loop_
_space_group_symop_operation_xyz
x,y,z
-x,y,1/2-z
-x,-y,-z
x,-y,1/2+z
loop_
_atom_site_type_symbol
_atom_site_label
_atom_site_fract_x
_atom_site_fract_y
_atom_site_fract_z
Si Si1 0.234827 0.644918 0.892278
Si Si2 0.944663 0.341307 0.007369
Si Si3 0.727261 0.784762 0.163575
Si Si4 0.099741 0.573088 0.164293
Si Si5 0.394215 0.950963 0.904024
Si Si6 0.500000 0.350676 0.750000
Si Si7 0.414678 0.406147 0.582180
Si Si8 0.215778 0.912468 0.501149
O O1 0.081432 0.678200 0.933660
O O2 0.314984 0.798401 0.881617
O O3 0.448096 0.549262 0.919056
O O4 0.084903 0.549381 0.846714
O O5 0.130682 0.245616 0.991682
O O6 0.700503 0.327341 0.970967
O O7 0.000000 0.500000 0.000000
O O8 0.617597 0.742578 0.212254
O O9 0.592196 0.696655 0.114844
O O10 0.973135 0.718709 0.171165
O O11 0.675884 0.942190 0.144374
O O12 0.303848 0.559526 0.214053
O O13 0.219124 0.576957 0.114579
O O14 0.639590 0.927096 0.939566
O O15 0.300855 0.021909 0.952137
O O16 0.000000 0.000000 0.500000
#
# Coordination Sequence:
#
# PCOD9232326 Si02
#       8
#     4   4   4   4   4   2   4   4
#     4  11  23  37  57  94 131 169 206 258 311 373
#     4  12  21  35  58  87 130 176 218 250 291 361
#     4  10  22  40  68  90 117 158 208 262 317 379
#     4  10  21  42  66  93 117 152 205 267 324 368
#     4  11  24  38  59  91 132 174 209 251 313 381
#     4  10  22  44  72  94 110 146 212 278 324 378
#     4  10  21  36  58  90 123 165 213 250 299 357
#     4  11  23  39  54  87 136 180 214 249 299 363
#
# _framework density 19.951968999999998
#
# number of rings (size 3 to 8) (size 9 to 14) (size 15 to 20)
#    0.000    1.333    2.667    3.200    3.733    1.067 
#    0.000    0.000    0.000   19.200    0.000    0.000 
#    0.000    0.000    0.000    0.000    0.000    0.000 
#
# Total GULP energy -167207.491500 kJ/mol
# GULP energy per Si atom -5573.583050 kJ/mol
# Density = 1.990656 g / cm^3
# Si number density = 19.951969 Si / 1000 Ang^3
#
#
#
# Elastic Constant Matrix: (Units=GPa)
#
#
# Indices 1 2 3 4 5 6 
#
# 1 78.6889 24.2391 19.7633 0.0000 19.8817 0.0000
# 2 24.2391 113.8019 16.6396 0.0000 21.2278 0.0000
# 3 19.7633 16.6396 86.0240 0.0000 26.0913 0.0000
# 4 0.0000 0.0000 0.0000 19.6603 0.0000 -0.7615
# 5 19.8817 21.2278 26.0913 0.0000 35.9794 0.0000
# 6 0.0000 0.0000 0.0000 -0.7615 0.0000 27.2189
#
#
#
# Elastic Compliance Matrix: (Units=1/GPa)
#
#
# Indices 1 2 3 4 5 6 
#
# 1 0.015208 -0.001864 -0.001177 0.000000 -0.006451 0.000000
# 2 -0.001864 0.010105 -0.000039 0.000000 -0.004903 0.000000
# 3 -0.001177 -0.000039 0.014997 0.000000 -0.010202 0.000000
# 4 0.000000 0.000000 0.000000 0.050919 0.000000 0.001425
# 5 -0.006451 -0.004903 -0.010202 0.000000 0.041649 0.000000
# 6 0.000000 0.000000 0.000000 0.001425 0.000000 0.036779
#
#
# Mechanical properties :
#
#
# Convention : Reuss Voigt Hill
#
# Bulk Modulus (GPa) = 29.28295 44.42206 36.85250
# Shear Modulus (GPa) = 26.70945 31.09656 28.90301
#
# Velocity S-wave (km/s) = 3.66278 3.95216 3.81022
# Velocity P-wave (km/s) = 5.70933 6.56802 6.15367
#
# Compressibility (1/GPa) = 0.03414957
#
# Stress axis : x y z
#
# Youngs Moduli (GPa) = 65.75575 98.96528 66.68051
#
# Poissons Ratio (x) = 0.18446 0.07847
# Poissons Ratio (y) = 0.12256 0.00261
# Poissons Ratio (z) = 0.07739 0.00387
#
# Static dielectric constant tensor:
#      x y z
#    x 1.807120 0.000000 0.048350 
#    y 0.000000 1.765520 0.000000 
#    z 0.048350 0.000000 1.759380 
# 
# From -- ./inp_files/95092.got.cif
#   From: 2010.05.17/outbox.cif.g08.bks.cpg/sg13_48_cif.got.tgz:95092.got - 2010.06.03 16:44:36.
