data_PCOD9232270
_publ_section_title
;
Structure prediction by ZEFSAII (Michael W. Deem and Ramdas Pophale) SiO2 
 PCOD9232270
Probable space group: P 2/C
;
_chemical_formula_sum "Si O2"
_cell_formula_units_Z 26
_cell_length_a 10.468602
_cell_length_b 17.679553
_cell_length_c 8.801437
_cell_angle_alpha 90.000000
_cell_angle_beta 49.367828
_cell_angle_gamma 90.000000
_cell_volume 1236.236069
_symmetry_space_group_name_H-M "P 2/C"
_symmetry_group_IT_number 13
_symmetry_cell_setting 'monoclinic'
loop_
_space_group_symop_operation_xyz
x,y,z
-x,y,1/2-z
-x,-y,-z
x,-y,1/2+z
loop_
_atom_site_type_symbol
_atom_site_label
_atom_site_fract_x
_atom_site_fract_y
_atom_site_fract_z
Si Si1 0.263337 0.950196 0.216878
Si Si2 0.180703 0.754930 0.539760
Si Si3 0.500000 0.855359 0.250000
Si Si4 0.699961 0.409779 0.576154
Si Si5 0.122068 0.464115 0.776908
Si Si6 0.005840 0.826498 0.424733
Si Si7 0.317096 0.103254 0.337956
O O1 0.412567 0.905083 0.186962
O O2 0.092195 0.907533 0.401910
O O3 0.298227 0.036282 0.231549
O O4 0.258928 0.937257 0.040281
O O5 0.346963 0.805105 0.433869
O O6 0.228030 0.669470 0.541270
O O7 0.000000 0.778920 0.750000
O O8 0.127538 0.765337 0.404534
O O9 0.500000 0.411852 0.750000
O O10 0.759957 0.416988 0.704687
O O11 0.774522 0.474495 0.405058
O O12 0.000000 0.423789 0.750000
O O13 0.000000 0.500000 0.000000
O O14 0.809419 0.831537 0.616609
O O15 0.000000 0.816956 0.250000
O O16 0.500000 0.130243 0.250000
#
# Coordination Sequence:
#
# PCOD9232270 Si02
#       7
#     4   4   2   4   4   4   4
#     4  10  21  36  56  79 115 145 198 254 317 368
#     4  11  23  39  64  84 122 164 211 248 306 377
#     4  10  22  40  56  86 116 160 202 256 310 368
#     4  11  21  39  63  99 128 168 210 262 309 371
#     4   9  19  36  62  92 130 163 202 249 308 368
#     4   9  22  40  55  80 116 157 200 254 314 373
#     4  11  21  33  56  83 110 148 195 258 312 372
#
# _framework density 21.031580999999999
#
# number of rings (size 3 to 8) (size 9 to 14) (size 15 to 20)
#    0.000    1.846    1.538    2.769    2.154    1.846 
#    0.000    0.769    0.000    0.000    0.000    0.000 
#    0.000    0.000    0.000    0.000    0.000    0.000 
#
# Total GULP energy -144845.489829 kJ/mol
# GULP energy per Si atom -5570.980378 kJ/mol
# Density = 2.098371 g / cm^3
# Si number density = 21.031581 Si / 1000 Ang^3
#
#
#
# Elastic Constant Matrix: (Units=GPa)
#
#
# Indices 1 2 3 4 5 6 
#
# 1 113.3697 -9.0096 24.7662 0.0000 -16.2604 0.0000
# 2 -9.0096 28.5937 6.5280 0.0000 -10.0313 0.0000
# 3 24.7662 6.5280 85.4336 0.0000 -20.8649 0.0000
# 4 0.0000 0.0000 0.0000 7.4171 0.0000 -1.4921
# 5 -16.2604 -10.0313 -20.8649 0.0000 46.0464 0.0000
# 6 0.0000 0.0000 0.0000 -1.4921 0.0000 21.1560
#
#
#
# Elastic Compliance Matrix: (Units=1/GPa)
#
#
# Indices 1 2 3 4 5 6 
#
# 1 0.010285 0.005075 -0.002488 0.000000 0.003611 0.000000
# 2 0.005075 0.040446 -0.002218 0.000000 0.009599 0.000000
# 3 -0.002488 -0.002218 0.013789 0.000000 0.004887 0.000000
# 4 0.000000 0.000000 0.000000 0.136764 0.000000 0.009646
# 5 0.003611 0.009599 0.004887 0.000000 0.027298 0.000000
# 6 0.000000 0.000000 0.000000 0.009646 0.000000 0.047948
#
#
# Mechanical properties :
#
#
# Convention : Reuss Voigt Hill
#
# Bulk Modulus (GPa) = 15.32326 30.21848 22.77087
# Shear Modulus (GPa) = 16.80430 28.59805 22.70118
#
# Velocity S-wave (km/s) = 2.82973 3.69150 3.28896
# Velocity P-wave (km/s) = 4.24007 5.70692 5.02728
#
# Compressibility (1/GPa) = 0.06526028
#
# Stress axis : x y z
#
# Youngs Moduli (GPa) = 97.22590 24.72460 72.52155
#
# Poissons Ratio (x) = -0.12549 0.18041
# Poissons Ratio (y) = -0.49346 0.16082
# Poissons Ratio (z) = 0.24186 0.05483
#
# Static dielectric constant tensor:
#      x y z
#    x 1.778230 0.000000 -0.015710 
#    y 0.000000 1.751520 0.000000 
#    z -0.015710 0.000000 1.908230 
# 
# From -- ./inp_files/17254.got.cif
#   From: 2010.05.17/outbox.cif.g08.bks.cpg/sg13_9_cif.got.tgz:17254.got - 2010.06.03 16:44:36.
