data_PCOD9232363
_publ_section_title
;
Structure prediction by ZEFSAII (Michael W. Deem and Ramdas Pophale) SiO2 
 PCOD9232363
Probable space group: P 2/C
;
_chemical_formula_sum "Si O2"
_cell_formula_units_Z 30
_cell_length_a 8.641971
_cell_length_b 14.451129
_cell_length_c 11.484184
_cell_angle_alpha 90.000000
_cell_angle_beta 100.356043
_cell_angle_gamma 90.000000
_cell_volume 1410.852679
_symmetry_space_group_name_H-M "P 2/C"
_symmetry_group_IT_number 13
_symmetry_cell_setting 'monoclinic'
loop_
_space_group_symop_operation_xyz
x,y,z
-x,y,1/2-z
-x,-y,-z
x,-y,1/2+z
loop_
_atom_site_type_symbol
_atom_site_label
_atom_site_fract_x
_atom_site_fract_y
_atom_site_fract_z
Si Si1 0.161466 0.753293 0.113028
Si Si2 0.116541 0.627165 0.461992
Si Si3 0.500000 0.775967 0.250000
Si Si4 0.276431 0.744856 0.869728
Si Si5 0.072418 0.961667 0.134385
Si Si6 0.384820 0.778837 0.482086
Si Si7 0.904917 0.434614 0.134765
Si Si8 0.678591 0.105209 0.314959
O O1 0.334222 0.729083 0.187938
O O2 0.090028 0.851253 0.140990
O O3 0.035944 0.673163 0.120502
O O4 0.190045 0.768977 0.978749
O O5 0.261178 0.695225 0.458735
O O6 0.164279 0.521368 0.443004
O O7 0.039553 0.618631 0.579764
O O8 0.441936 0.818228 0.365300
O O9 0.217977 0.641114 0.837947
O O10 0.246544 0.819193 0.763904
O O11 0.460875 0.746093 0.926276
O O12 0.000000 0.991465 0.250000
O O13 0.243985 0.006014 0.168724
O O14 0.000000 0.000000 0.000000
O O15 0.308019 0.855249 0.553301
O O16 0.000000 0.481139 0.250000
O O17 0.500000 0.097164 0.250000
#
# Coordination Sequence:
#
# PCOD9232363 Si02
#       8
#     4   4   2   4   4   4   4   4
#     4  10  23  41  62  90 130 165 214 264 330 388
#     4  10  22  38  62  92 125 163 212 264 321 394
#     4  10  24  38  60  90 120 172 204 258 326 386
#     4   9  20  43  62  91 124 168 214 264 322 391
#     4  12  27  42  64 101 132 171 222 282 332 397
#     4  10  21  39  64  89 123 167 207 264 327 380
#     4  10  21  36  61  91 123 165 209 259 322 388
#     4  10  22  42  68  91 126 173 219 268 328 393
#
# _framework density 21.263738
#
# number of rings (size 3 to 8) (size 9 to 14) (size 15 to 20)
#    0.000    1.867    0.000    2.400    6.533    3.200 
#    0.000    2.667    4.400    0.000    0.000    0.000 
#    0.000    0.000    0.000    0.000    0.000    0.000 
#
# Total GULP energy -167031.405633 kJ/mol
# GULP energy per Si atom -5567.713521 kJ/mol
# Density = 2.121534 g / cm^3
# Si number density = 21.263738 Si / 1000 Ang^3
#
#
#
# Elastic Constant Matrix: (Units=GPa)
#
#
# Indices 1 2 3 4 5 6 
#
# 1 46.6655 27.1584 29.1770 0.0000 -5.3448 0.0000
# 2 27.1584 61.8385 19.5245 0.0000 4.5605 0.0000
# 3 29.1770 19.5245 96.7533 0.0000 -10.7869 0.0000
# 4 0.0000 0.0000 0.0000 17.9950 0.0000 2.5893
# 5 -5.3448 4.5605 -10.7869 0.0000 24.4401 0.0000
# 6 0.0000 0.0000 0.0000 2.5893 0.0000 20.8790
#
#
#
# Elastic Compliance Matrix: (Units=1/GPa)
#
#
# Indices 1 2 3 4 5 6 
#
# 1 0.034336 -0.013427 -0.006866 0.000000 0.006984 0.000000
# 2 -0.013427 0.023125 -0.001500 0.000000 -0.007913 0.000000
# 3 -0.006866 -0.001500 0.013223 0.000000 0.004615 0.000000
# 4 0.000000 0.000000 0.000000 0.056581 0.000000 -0.007017
# 5 0.006984 -0.007913 0.004615 0.000000 0.045957 0.000000
# 6 0.000000 0.000000 0.000000 -0.007017 0.000000 0.048765
#
#
# Mechanical properties :
#
#
# Convention : Reuss Voigt Hill
#
# Bulk Modulus (GPa) = 36.90235 39.66412 38.28323
# Shear Modulus (GPa) = 18.20783 21.28930 19.74857
#
# Velocity S-wave (km/s) = 2.92941 3.16761 3.05084
# Velocity P-wave (km/s) = 5.36975 5.66324 5.51844
#
# Compressibility (1/GPa) = 0.02709855
#
# Stress axis : x y z
#
# Youngs Moduli (GPa) = 29.12360 43.24288 75.62400
#
# Poissons Ratio (x) = 0.58062 0.51926
# Poissons Ratio (y) = 0.39104 0.11342
# Poissons Ratio (z) = 0.19997 0.06485
#
# Static dielectric constant tensor:
#      x y z
#    x 1.776500 0.000000 -0.020480 
#    y 0.000000 1.727720 0.000000 
#    z -0.020480 0.000000 1.855810 
# 
# From -- ./inp_files/30447.got.cif
#   From: 2010.05.17/outbox.cif.g08.bks.cpg/sg13_16_cif.got.tgz:30447.got - 2010.06.03 16:44:36.
