data_PCOD9232033
_publ_section_title
;
Structure prediction by ZEFSAII (Michael W. Deem and Ramdas Pophale) SiO2 
 PCOD9232033
Probable space group: P 2/C
;
_chemical_formula_sum "Si O2"
_cell_formula_units_Z 28
_cell_length_a 10.238720
_cell_length_b 10.863898
_cell_length_c 18.717174
_cell_angle_alpha 90.000000
_cell_angle_beta 36.015102
_cell_angle_gamma 90.000000
_cell_volume 1224.187163
_symmetry_space_group_name_H-M "P 2/C"
_symmetry_group_IT_number 13
_symmetry_cell_setting 'monoclinic'
loop_
_space_group_symop_operation_xyz
x,y,z
-x,y,1/2-z
-x,-y,-z
x,-y,1/2+z
loop_
_atom_site_type_symbol
_atom_site_label
_atom_site_fract_x
_atom_site_fract_y
_atom_site_fract_z
Si Si1 0.111003 0.775135 0.394070
Si Si2 0.522321 0.647625 0.131117
Si Si3 0.887354 0.844008 0.950574
Si Si4 0.291055 0.395654 0.435007
Si Si5 0.250090 0.333802 0.617703
Si Si6 0.588306 0.162231 0.284471
Si Si7 0.752922 0.910886 0.451804
O O1 0.337636 0.723504 0.258865
O O2 0.145737 0.861031 0.448214
O O3 0.943875 0.661069 0.487921
O O4 0.959056 0.849689 0.404963
O O5 0.631124 0.530251 0.121120
O O6 0.395686 0.609531 0.115379
O O7 0.727611 0.728521 0.012798
O O8 0.149961 0.829511 0.826479
O O9 0.814599 0.947057 0.925765
O O10 0.280582 0.388452 0.525817
O O11 0.479888 0.297282 0.332971
O O12 0.281380 0.184124 0.597794
O O13 0.000000 0.355104 0.750000
O O14 0.500000 0.102930 0.250000
O O15 0.470705 0.095740 0.402352
#
# Coordination Sequence:
#
# PCOD9232033 Si02
#       7
#     4   4   4   4   4   4   4
#     4  10  22  44  62  97 132 174 218 271 340 397
#     4  12  25  39  68 101 132 169 231 272 326 409
#     4  12  25  39  65 102 128 172 225 271 340 408
#     4  10  23  42  66  94 130 179 220 273 329 394
#     4  10  20  45  70  90 129 181 224 271 341 390
#     4  10  21  40  63  90 133 175 214 273 342 396
#     4  10  23  41  68  91 129 175 224 276 332 392
#
# _framework density 22.872319000000001
#
# number of rings (size 3 to 8) (size 9 to 14) (size 15 to 20)
#    0.000    1.714    5.714    1.286    4.000    2.286 
#    0.000    4.286    0.000    0.000    0.000    0.000 
#    0.000    0.000    0.000    0.000    0.000    0.000 
#
# Total GULP energy -156303.776596 kJ/mol
# GULP energy per Si atom -5582.277736 kJ/mol
# Density = 2.282026 g / cm^3
# Si number density = 22.872319 Si / 1000 Ang^3
#
#
#
# Elastic Constant Matrix: (Units=GPa)
#
#
# Indices 1 2 3 4 5 6 
#
# 1 39.6624 6.1084 15.8288 0.0000 -13.7019 0.0000
# 2 6.1084 55.9313 27.5294 0.0000 -18.5008 0.0000
# 3 15.8288 27.5294 146.7099 0.0000 -29.1911 0.0000
# 4 0.0000 0.0000 0.0000 -32.1070 0.0000 2.7849
# 5 -13.7019 -18.5008 -29.1911 0.0000 41.9723 0.0000
# 6 0.0000 0.0000 0.0000 2.7849 0.0000 16.7814
#
#
#
# Elastic Compliance Matrix: (Units=1/GPa)
#
#
# Indices 1 2 3 4 5 6 
#
# 1 0.028681 0.000412 -0.001477 0.000000 0.008517 0.000000
# 2 0.000412 0.021709 -0.002539 0.000000 0.007938 0.000000
# 3 -0.001477 -0.002539 0.008279 0.000000 0.004157 0.000000
# 4 0.000000 0.000000 0.000000 -0.030704 0.000000 0.005095
# 5 0.008517 0.007938 0.004157 0.000000 0.032996 0.000000
# 6 0.000000 0.000000 0.000000 0.005095 0.000000 0.058744
#
#
# Mechanical properties :
#
#
# Convention : Reuss Voigt Hill
#
# Bulk Modulus (GPa) = 19.43172 37.91520 28.67346
# Shear Modulus (GPa) = 34.70603 18.18513 26.44558
#
# Velocity S-wave (km/s) = 3.89958 2.82276 3.40402
# Velocity P-wave (km/s) = 5.36562 5.21889 5.29276
#
# Compressibility (1/GPa) = 0.05146226
#
# Stress axis : x y z
#
# Youngs Moduli (GPa) = 34.86595 46.06311 120.78793
#
# Poissons Ratio (x) = -0.01898 0.17841
# Poissons Ratio (y) = -0.01437 0.30664
# Poissons Ratio (z) = 0.05150 0.11694
#
# Static dielectric constant tensor:
#      x y z
#    x 2.107190 0.000000 0.215800 
#    y 0.000000 1.901340 0.000000 
#    z 0.215800 0.000000 1.996100 
# 
# From -- ./inp_files/78551.got.cif
#   From: 2010.05.17/outbox.cif.g08.bks.cpg/sg13_40_cif.got.tgz:78551.got - 2010.06.03 16:44:36.
