data_PCOD9232177
_publ_section_title
;
Structure prediction by ZEFSAII (Michael W. Deem and Ramdas Pophale) SiO2 
 PCOD9232177
Probable space group: P 2/C
;
_chemical_formula_sum "Si O2"
_cell_formula_units_Z 24
_cell_length_a 23.730562
_cell_length_b 10.780840
_cell_length_c 23.618378
_cell_angle_alpha 90.000000
_cell_angle_beta 12.125893
_cell_angle_gamma 90.000000
_cell_volume 1269.272648
_symmetry_space_group_name_H-M "P 2/C"
_symmetry_group_IT_number 13
_symmetry_cell_setting 'monoclinic'
loop_
_space_group_symop_operation_xyz
x,y,z
-x,y,1/2-z
-x,-y,-z
x,-y,1/2+z
loop_
_atom_site_type_symbol
_atom_site_label
_atom_site_fract_x
_atom_site_fract_y
_atom_site_fract_z
Si Si1 0.692402 0.398089 0.336716
Si Si2 0.609228 0.763321 0.272739
Si Si3 0.103295 0.671425 0.711859
Si Si4 0.841977 0.426826 0.779652
Si Si5 0.268652 0.995456 0.774357
Si Si6 0.703344 0.276934 0.210768
O O1 0.500000 0.500000 0.500000
O O2 0.513336 0.318535 0.555727
O O3 0.895756 0.479255 0.173837
O O4 0.796270 0.315982 0.183318
O O5 0.357183 0.758840 0.477105
O O6 0.699679 0.890017 0.213702
O O7 0.861334 0.706668 0.992002
O O8 0.184966 0.527089 0.643734
O O9 0.000000 0.685671 0.750000
O O10 0.087146 0.332376 0.539687
O O11 0.577697 0.345276 0.026593
O O12 0.500000 0.000000 0.500000
O O13 0.300083 0.870496 0.780495
O O14 0.000000 0.000000 0.000000
#
# Coordination Sequence:
#
# PCOD9232177 Si02
#       6
#     4   4   4   4   4   4
#     4   9  18  31  53  81 120 149 180 231 281 357
#     4  11  23  38  59  92 119 157 204 242 297 357
#     4  11  23  42  66  86 113 150 203 267 311 342
#     4  10  21  35  56  86 114 150 194 242 296 348
#     4  12  24  38  58  85 129 171 197 232 284 367
#     4  11  21  35  55  83 124 159 188 224 288 355
#
# _framework density 18.908467999999999
#
# number of rings (size 3 to 8) (size 9 to 14) (size 15 to 20)
#    0.000    1.333    1.667    6.000    4.667    0.000 
#    0.000    0.000    0.000    6.000    0.000    0.000 
#    0.000    0.000    0.000    0.000    0.000    0.000 
#
# Total GULP energy -133878.964856 kJ/mol
# GULP energy per Si atom -5578.290202 kJ/mol
# Density = 1.886543 g / cm^3
# Si number density = 18.908468 Si / 1000 Ang^3
#
#
#
# Elastic Constant Matrix: (Units=GPa)
#
#
# Indices 1 2 3 4 5 6 
#
# 1 91.7407 58.3818 26.4282 0.0000 -23.5645 0.0000
# 2 58.3818 145.2683 43.2041 0.0000 -8.4137 0.0000
# 3 26.4282 43.2041 121.2883 0.0000 -16.6103 0.0000
# 4 0.0000 0.0000 0.0000 22.9423 0.0000 -3.8340
# 5 -23.5645 -8.4137 -16.6103 0.0000 25.7079 0.0000
# 6 0.0000 0.0000 0.0000 -3.8340 0.0000 17.4182
#
#
#
# Elastic Compliance Matrix: (Units=1/GPa)
#
#
# Indices 1 2 3 4 5 6 
#
# 1 0.019202 -0.006940 0.000425 0.000000 0.015605 0.000000
# 2 -0.006940 0.010223 -0.002789 0.000000 -0.004818 0.000000
# 3 0.000425 -0.002789 0.009955 0.000000 0.005909 0.000000
# 4 0.000000 0.000000 0.000000 0.045252 0.000000 0.009961
# 5 0.015605 -0.004818 0.005909 0.000000 0.055443 0.000000
# 6 0.000000 0.000000 0.000000 0.009961 0.000000 0.059604
#
#
# Mechanical properties :
#
#
# Convention : Reuss Voigt Hill
#
# Bulk Modulus (GPa) = 48.14046 68.25840 58.19943
# Shear Modulus (GPa) = 22.20124 28.56589 25.38357
#
# Velocity S-wave (km/s) = 3.43029 3.89105 3.66791
# Velocity P-wave (km/s) = 6.41905 7.50765 6.98459
#
# Compressibility (1/GPa) = 0.02077255
#
# Stress axis : x y z
#
# Youngs Moduli (GPa) = 52.07659 97.81479 100.45221
#
# Poissons Ratio (x) = 0.67882 -0.04269
# Poissons Ratio (y) = 0.36140 0.28019
# Poissons Ratio (z) = -0.02213 0.27283
#
# Static dielectric constant tensor:
#      x y z
#    x 1.684300 0.000000 -0.029430 
#    y 0.000000 1.687000 0.000000 
#    z -0.029430 0.000000 1.770970 
# 
# From -- ./inp_files/89084.got.cif
#   From: 2010.05.17/outbox.cif.g08.bks.cpg/sg13_45_cif.got.tgz:89084.got - 2010.06.03 16:44:36.
