data_PCOD9232939
_publ_section_title
;
Structure prediction by ZEFSAII (Michael W. Deem and Ramdas Pophale) SiO2 
 PCOD9232939
Probable space group: P 2/C
;
_chemical_formula_sum "Si O2"
_cell_formula_units_Z 20
_cell_length_a 8.954376
_cell_length_b 5.092145
_cell_length_c 21.181153
_cell_angle_alpha 90.000000
_cell_angle_beta 79.419054
_cell_angle_gamma 90.000000
_cell_volume 949.374677
_symmetry_space_group_name_H-M "P 2/C"
_symmetry_group_IT_number 13
_symmetry_cell_setting 'monoclinic'
loop_
_space_group_symop_operation_xyz
x,y,z
-x,y,1/2-z
-x,-y,-z
x,-y,1/2+z
loop_
_atom_site_type_symbol
_atom_site_label
_atom_site_fract_x
_atom_site_fract_y
_atom_site_fract_z
Si Si1 0.478304 0.126990 0.931290
Si Si2 0.166953 0.587395 0.211119
Si Si3 0.822406 0.989364 0.000553
Si Si4 0.630835 0.076480 0.291795
Si Si5 0.739552 0.513800 0.432140
O O1 0.564266 0.408955 0.928884
O O2 0.558066 0.982262 0.866557
O O3 0.296474 0.114008 0.937345
O O4 0.500000 0.000000 0.000000
O O5 0.282682 0.351538 0.216241
O O6 0.163251 0.600118 0.135537
O O7 0.000000 0.542748 0.250000
O O8 0.243853 0.852566 0.229619
O O9 0.785616 0.778581 0.947897
O O10 0.779176 0.285280 0.984910
O O11 0.000000 0.000000 0.000000
O O12 0.500000 0.065548 0.250000
#
# Coordination Sequence:
#
# PCOD9232939 Si02
#       5
#     4   4   4   4   4
#     4   9  20  39  63  84 118 162 200 239 297 371
#     4  11  23  41  64  87 120 166 208 250 303 369
#     4  11  22  36  58  91 120 152 198 259 306 347
#     4  11  24  41  62  94 125 159 206 257 307 358
#     4  10  21  39  58  84 118 159 205 243 299 371
#
# _framework density 21.066499
#
# number of rings (size 3 to 8) (size 9 to 14) (size 15 to 20)
#    0.000    1.600    0.000    6.000    0.000    8.000 
#    0.000    0.000    0.000    0.000    0.000    0.000 
#    0.000    0.000    0.000    0.000    0.000    0.000 
#
# Total GULP energy -111606.205898 kJ/mol
# GULP energy per Si atom -5580.310295 kJ/mol
# Density = 2.101855 g / cm^3
# Si number density = 21.066499 Si / 1000 Ang^3
#
#
#
# Elastic Constant Matrix: (Units=GPa)
#
#
# Indices 1 2 3 4 5 6 
#
# 1 137.9546 6.1003 39.5848 0.0000 -20.0577 0.0000
# 2 6.1003 68.0107 6.7961 0.0000 9.3502 0.0000
# 3 39.5848 6.7961 82.8653 0.0000 -15.0609 0.0000
# 4 0.0000 0.0000 0.0000 -5.3172 0.0000 -4.9406
# 5 -20.0577 9.3502 -15.0609 0.0000 35.3963 0.0000
# 6 0.0000 0.0000 0.0000 -4.9406 0.0000 31.2667
#
#
#
# Elastic Compliance Matrix: (Units=1/GPa)
#
#
# Indices 1 2 3 4 5 6 
#
# 1 0.008833 -0.000969 -0.003451 0.000000 0.003793 0.000000
# 2 -0.000969 0.015726 -0.001823 0.000000 -0.005479 0.000000
# 3 -0.003451 -0.001823 0.014738 0.000000 0.004797 0.000000
# 4 0.000000 0.000000 0.000000 -0.163992 0.000000 -0.025913
# 5 0.003793 -0.005479 0.004797 0.000000 0.033889 0.000000
# 6 0.000000 0.000000 0.000000 -0.025913 0.000000 0.027888
#
#
# Mechanical properties :
#
#
# Convention : Reuss Voigt Hill
#
# Bulk Modulus (GPa) = 37.29691 43.75479 40.52585
# Shear Modulus (GPa) = -120.49429 28.02580 -46.23424
#
# Velocity S-wave (km/s) = -7.57108 3.65135 -4.68982
# Velocity P-wave (km/s) = 7.66065 6.21220 3.16971
#
# Compressibility (1/GPa) = 0.02681188
#
# Stress axis : x y z
#
# Youngs Moduli (GPa) = 113.20827 63.58966 67.85406
#
# Poissons Ratio (x) = 0.06162 0.23415
# Poissons Ratio (y) = 0.10970 0.12367
# Poissons Ratio (z) = 0.39066 0.11590
#
# Static dielectric constant tensor:
#      x y z
#    x 1.796630 0.000000 0.012970 
#    y 0.000000 1.771790 0.000000 
#    z 0.012970 0.000000 1.773420 
# 
# From -- ./inp_files/74517.got.cif
#   From: 2010.05.17/outbox.cif.g08.bks.cpg/sg13_38_cif.got.tgz:74517.got - 2010.06.03 16:44:36.
