data_PCOD9232760
_publ_section_title
;
Structure prediction by ZEFSAII (Michael W. Deem and Ramdas Pophale) SiO2 
 PCOD9232760
Probable space group: P 2/C
;
_chemical_formula_sum "Si O2"
_cell_formula_units_Z 16
_cell_length_a 11.103815
_cell_length_b 5.020245
_cell_length_c 16.480395
_cell_angle_alpha 90.000000
_cell_angle_beta 39.181991
_cell_angle_gamma 90.000000
_cell_volume 580.409529
_symmetry_space_group_name_H-M "P 2/C"
_symmetry_group_IT_number 13
_symmetry_cell_setting 'monoclinic'
loop_
_space_group_symop_operation_xyz
x,y,z
-x,y,1/2-z
-x,-y,-z
x,-y,1/2+z
loop_
_atom_site_type_symbol
_atom_site_label
_atom_site_fract_x
_atom_site_fract_y
_atom_site_fract_z
Si Si1 0.634902 0.486067 0.526533
Si Si2 0.749938 0.718876 0.631974
Si Si3 0.500000 0.000000 0.000000
Si Si4 0.841896 0.214912 0.670289
Si Si5 0.000000 0.314797 0.750000
O O1 0.638606 0.576057 0.617986
O O2 0.571002 0.187534 0.541412
O O3 0.852123 0.512018 0.378259
O O4 0.527807 0.722620 0.535825
O O5 0.769368 0.512559 0.695913
O O6 0.954462 0.771115 0.480941
O O7 0.713139 0.004242 0.690415
O O8 0.875590 0.150374 0.748243
#
# Coordination Sequence:
#
# PCOD9232760 Si02
#       5
#     4   4   2   4   2
#     4  10  21  38  61  86 117 158 204 247 296 358
#     4   9  17  32  52  78 114 154 187 226 292 364
#     4  10  22  38  58  84 120 162 200 236 300 378
#     4   9  18  30  51  84 116 143 185 244 295 336
#     4  10  22  36  62  94 118 146 204 270 298 330
#
# _framework density 27.566742999999999
#
# number of rings (size 3 to 8) (size 9 to 14) (size 15 to 20)
#    0.000    2.500    0.000    1.500    0.000   10.000 
#    0.000    0.000    0.000   22.500    0.000    0.000 
#    0.000    0.000    0.000    0.000    0.000    0.500 
#
# Total GULP energy -89178.648647 kJ/mol
# GULP energy per Si atom -5573.665540 kJ/mol
# Density = 2.750400 g / cm^3
# Si number density = 27.566743 Si / 1000 Ang^3
#
#
#
# Elastic Constant Matrix: (Units=GPa)
#
#
# Indices 1 2 3 4 5 6 
#
# 1 130.9815 54.4730 42.7030 0.0000 34.1531 0.0000
# 2 54.4730 201.8860 49.8832 0.0000 31.8067 0.0000
# 3 42.7030 49.8832 151.6053 0.0000 11.2493 0.0000
# 4 0.0000 0.0000 0.0000 0.4493 0.0000 4.3385
# 5 34.1531 31.8067 11.2493 0.0000 43.2222 0.0000
# 6 0.0000 0.0000 0.0000 4.3385 0.0000 49.0343
#
#
#
# Elastic Compliance Matrix: (Units=1/GPa)
#
#
# Indices 1 2 3 4 5 6 
#
# 1 0.010646 -0.001268 -0.002066 0.000000 -0.006941 0.000000
# 2 -0.001268 0.006145 -0.001431 0.000000 -0.003147 0.000000
# 3 -0.002066 -0.001431 0.007596 0.000000 0.000709 0.000000
# 4 0.000000 0.000000 0.000000 15.281707 0.000000 -1.352094
# 5 -0.006941 -0.003147 0.000709 0.000000 0.030752 0.000000
# 6 0.000000 0.000000 0.000000 -1.352094 0.000000 0.140024
#
#
# Mechanical properties :
#
#
# Convention : Reuss Voigt Hill
#
# Bulk Modulus (GPa) = 67.31499 86.51013 76.91256
# Shear Modulus (GPa) = 0.32276 41.03540 20.67908
#
# Velocity S-wave (km/s) = 0.34255 3.86240 2.74185
# Velocity P-wave (km/s) = 4.96270 7.16527 6.16317
#
# Compressibility (1/GPa) = 0.01485553
#
# Stress axis : x y z
#
# Youngs Moduli (GPa) = 93.93587 162.73440 131.64188
#
# Poissons Ratio (x) = 0.20641 0.27200
# Poissons Ratio (y) = 0.11914 0.18839
# Poissons Ratio (z) = 0.19409 0.23289
#
# Static dielectric constant tensor:
#      x y z
#    x 2.163870 0.000000 -0.196310 
#    y 0.000000 1.929650 0.000000 
#    z -0.196310 0.000000 2.367180 
# 
# From -- ./inp_files/64790.got.cif
#   From: 2010.05.17/outbox.cif.g08.bks.cpg/sg13_33_cif.got.tgz:64790.got - 2010.06.03 16:44:36.
