data_PCOD9232791
_publ_section_title
;
Structure prediction by ZEFSAII (Michael W. Deem and Ramdas Pophale) SiO2 
 PCOD9232791
Probable space group: P 2/C
;
_chemical_formula_sum "Si O2"
_cell_formula_units_Z 28
_cell_length_a 29.558704
_cell_length_b 8.512022
_cell_length_c 10.015656
_cell_angle_alpha 90.000000
_cell_angle_beta 35.199843
_cell_angle_gamma 90.000000
_cell_volume 1452.593709
_symmetry_space_group_name_H-M "P 2/C"
_symmetry_group_IT_number 13
_symmetry_cell_setting 'monoclinic'
loop_
_space_group_symop_operation_xyz
x,y,z
-x,y,1/2-z
-x,-y,-z
x,-y,1/2+z
loop_
_atom_site_type_symbol
_atom_site_label
_atom_site_fract_x
_atom_site_fract_y
_atom_site_fract_z
Si Si1 0.791750 0.523758 0.879268
Si Si2 0.790989 0.817452 0.078147
Si Si3 0.834296 0.312551 0.021740
Si Si4 0.449831 0.917222 0.736777
Si Si5 0.056277 0.010561 0.738644
Si Si6 0.330399 0.703859 0.906552
Si Si7 0.691890 0.889817 0.805834
O O1 0.791653 0.678436 0.970423
O O2 0.828252 0.391720 0.890020
O O3 0.838559 0.560837 0.630392
O O4 0.703818 0.466425 0.050738
O O5 0.876157 0.879111 0.914185
O O6 0.740348 0.767945 0.329416
O O7 0.745939 0.966771 0.125296
O O8 0.900285 0.179598 0.871330
O O9 0.750820 0.223593 0.243135
O O10 0.500000 0.899631 0.750000
O O11 0.500000 0.000000 0.500000
O O12 0.409914 0.750739 0.791613
O O13 0.377820 0.035128 0.942203
O O14 0.000000 0.989005 0.750000
O O15 0.000000 0.000000 0.000000
O O16 0.338059 0.797609 0.750181
#
# Coordination Sequence:
#
# PCOD9232791 Si02
#       7
#     4   4   4   4   4   4   4
#     4  11  21  40  64  94 123 164 214 268 314 377
#     4  10  22  37  66  90 118 165 217 267 305 378
#     4  10  23  40  65  91 127 164 219 263 318 381
#     4  11  21  37  62  98 130 165 207 260 316 374
#     4  11  25  42  64  93 127 164 211 266 324 380
#     4  10  21  38  61  96 120 169 211 263 313 374
#     4   9  21  36  64  91 122 162 222 263 311 364
#
# _framework density 19.275865
#
# number of rings (size 3 to 8) (size 9 to 14) (size 15 to 20)
#    0.000    1.714    2.857    0.857   12.000    0.000 
#    0.000    3.571    0.000    8.571    0.000    0.000 
#    0.000    0.000    0.000    0.000    0.000    0.000 
#
# Total GULP energy -156198.639825 kJ/mol
# GULP energy per Si atom -5578.522851 kJ/mol
# Density = 1.923199 g / cm^3
# Si number density = 19.275865 Si / 1000 Ang^3
#
#
#
# Elastic Constant Matrix: (Units=GPa)
#
#
# Indices 1 2 3 4 5 6 
#
# 1 133.6200 54.4456 68.3907 0.0000 -5.5930 0.0000
# 2 54.4456 85.3796 18.3007 0.0000 -8.5529 0.0000
# 3 68.3907 18.3007 84.7742 0.0000 -4.1774 0.0000
# 4 0.0000 0.0000 0.0000 22.5249 0.0000 1.4629
# 5 -5.5930 -8.5529 -4.1774 0.0000 29.8873 0.0000
# 6 0.0000 0.0000 0.0000 1.4629 0.0000 16.7703
#
#
#
# Elastic Compliance Matrix: (Units=1/GPa)
#
#
# Indices 1 2 3 4 5 6 
#
# 1 0.016940 -0.008338 -0.011910 0.000000 -0.000881 0.000000
# 2 -0.008338 0.016690 0.003305 0.000000 0.003678 0.000000
# 3 -0.011910 0.003305 0.020771 0.000000 0.001620 0.000000
# 4 0.000000 0.000000 0.000000 0.044648 0.000000 -0.003895
# 5 -0.000881 0.003678 0.001620 0.000000 0.034573 0.000000
# 6 0.000000 0.000000 0.000000 -0.003895 0.000000 0.059969
#
#
# Mechanical properties :
#
#
# Convention : Reuss Voigt Hill
#
# Bulk Modulus (GPa) = 48.74579 65.11641 56.93110
# Shear Modulus (GPa) = 21.33881 24.67895 23.00888
#
# Velocity S-wave (km/s) = 3.33080 3.58201 3.45869
# Velocity P-wave (km/s) = 6.33528 7.13880 6.74901
#
# Compressibility (1/GPa) = 0.02051459
#
# Stress axis : x y z
#
# Youngs Moduli (GPa) = 59.03062 59.91786 48.14510
#
# Poissons Ratio (x) = 0.49960 0.57340
# Poissons Ratio (y) = 0.49220 -0.15912
# Poissons Ratio (z) = 0.70305 -0.19803
#
# Static dielectric constant tensor:
#      x y z
#    x 1.686960 0.000000 0.003570 
#    y 0.000000 1.709120 0.000000 
#    z 0.003570 0.000000 1.642940 
# 
# From -- ./inp_files/24537.got.cif
#   From: 2010.05.17/outbox.cif.g08.bks.cpg/sg13_13_cif.got.tgz:24537.got - 2010.06.03 16:44:36.
