data_PCOD9232175
_publ_section_title
;
Structure prediction by ZEFSAII (Michael W. Deem and Ramdas Pophale) SiO2 
 PCOD9232175
Probable space group: P 2/C
;
_chemical_formula_sum "Si O2"
_cell_formula_units_Z 24
_cell_length_a 6.060958
_cell_length_b 13.557245
_cell_length_c 16.305612
_cell_angle_alpha 90.000000
_cell_angle_beta 67.234530
_cell_angle_gamma 90.000000
_cell_volume 1235.452943
_symmetry_space_group_name_H-M "P 2/C"
_symmetry_group_IT_number 13
_symmetry_cell_setting 'monoclinic'
loop_
_space_group_symop_operation_xyz
x,y,z
-x,y,1/2-z
-x,-y,-z
x,-y,1/2+z
loop_
_atom_site_type_symbol
_atom_site_label
_atom_site_fract_x
_atom_site_fract_y
_atom_site_fract_z
Si Si1 0.211322 0.597320 0.373267
Si Si2 0.518783 0.780997 0.365626
Si Si3 0.000000 0.117152 0.750000
Si Si4 0.233111 0.283827 0.505810
Si Si5 0.932279 0.912832 0.071500
Si Si6 0.000000 0.508692 0.750000
Si Si7 0.516935 0.409160 0.345385
O O1 0.370030 0.694519 0.345320
O O2 0.366933 0.508318 0.388681
O O3 0.968251 0.631942 0.452131
O O4 0.135685 0.558861 0.295155
O O5 0.599168 0.732618 0.439762
O O6 0.341010 0.874660 0.398302
O O7 0.761898 0.816669 0.288603
O O8 0.984580 0.066151 0.661524
O O9 0.397663 0.318019 0.407914
O O10 0.091248 0.181207 0.521148
O O11 0.000000 0.000000 0.000000
O O12 0.203803 0.572753 0.676014
O O13 0.500000 0.395804 0.250000
#
# Coordination Sequence:
#
# PCOD9232175 Si02
#       7
#     4   4   2   4   4   2   4
#     4  10  21  35  56  84 117 154 194 236 281 334
#     4  10  22  37  60  89 117 148 189 239 291 343
#     4  10  22  39  64  91 120 148 182 239 302 351
#     4  10  22  38  59  84 113 150 193 240 290 344
#     4  10  23  43  64  88 116 148 192 242 296 353
#     4  10  22  33  52  81 118 160 198 233 276 335
#     4  10  22  38  53  78 119 159 196 234 280 339
#
# _framework density 19.426072999999999
#
# number of rings (size 3 to 8) (size 9 to 14) (size 15 to 20)
#    0.000    2.000    0.000    2.000    0.000   30.667 
#    0.000    3.333    0.000    1.000    0.000    0.000 
#    0.000    0.000    0.000    0.000    0.000    0.000 
#
# Total GULP energy -133947.985573 kJ/mol
# GULP energy per Si atom -5581.166066 kJ/mol
# Density = 1.938186 g / cm^3
# Si number density = 19.426073 Si / 1000 Ang^3
#
#
#
# Elastic Constant Matrix: (Units=GPa)
#
#
# Indices 1 2 3 4 5 6 
#
# 1 119.2534 33.6528 50.5992 0.0000 -21.6454 0.0000
# 2 33.6528 68.5260 65.8656 0.0000 -9.4441 0.0000
# 3 50.5992 65.8656 125.8163 0.0000 -12.6971 0.0000
# 4 0.0000 0.0000 0.0000 34.1557 0.0000 5.8372
# 5 -21.6454 -9.4441 -12.6971 0.0000 22.5481 0.0000
# 6 0.0000 0.0000 0.0000 5.8372 0.0000 -17.2781
#
#
#
# Elastic Compliance Matrix: (Units=1/GPa)
#
#
# Indices 1 2 3 4 5 6 
#
# 1 0.011723 -0.001736 -0.002909 0.000000 0.008888 0.000000
# 2 -0.001736 0.029951 -0.014720 0.000000 0.002589 0.000000
# 3 -0.002909 -0.014720 0.016879 0.000000 0.000547 0.000000
# 4 0.000000 0.000000 0.000000 0.027680 0.000000 0.009351
# 5 0.008888 0.002589 0.000547 0.000000 0.054275 0.000000
# 6 0.000000 0.000000 0.000000 0.009351 0.000000 -0.054717
#
#
# Mechanical properties :
#
#
# Convention : Reuss Voigt Hill
#
# Bulk Modulus (GPa) = 50.44616 68.20345 59.32480
# Shear Modulus (GPa) = 38.13085 18.78368 28.45727
#
# Velocity S-wave (km/s) = 4.43524 3.11293 3.83155
# Velocity P-wave (km/s) = 7.22863 6.93584 7.08375
#
# Compressibility (1/GPa) = 0.01982312
#
# Stress axis : x y z
#
# Youngs Moduli (GPa) = 85.30286 33.38787 59.24512
#
# Poissons Ratio (x) = 0.05798 0.17232
# Poissons Ratio (y) = 0.14813 0.87208
# Poissons Ratio (z) = 0.24811 0.49147
#
# Static dielectric constant tensor:
#      x y z
#    x 1.743090 0.000000 -0.003310 
#    y 0.000000 1.653150 0.000000 
#    z -0.003310 0.000000 1.716540 
# 
# From -- ./inp_files/43832.got.cif
#   From: 2010.05.17/outbox.cif.g08.bks.cpg/sg13_22_cif.got.tgz:43832.got - 2010.06.03 16:44:36.
