data_PCOD9232414
_publ_section_title
;
Structure prediction by ZEFSAII (Michael W. Deem and Ramdas Pophale) SiO2 
 PCOD9232414
Probable space group: P 2/C
;
_chemical_formula_sum "Si O2"
_cell_formula_units_Z 20
_cell_length_a 22.026969
_cell_length_b 8.184422
_cell_length_c 13.527121
_cell_angle_alpha 90.000000
_cell_angle_beta 157.889899
_cell_angle_gamma 90.000000
_cell_volume 917.874780
_symmetry_space_group_name_H-M "P 2/C"
_symmetry_group_IT_number 13
_symmetry_cell_setting 'monoclinic'
loop_
_space_group_symop_operation_xyz
x,y,z
-x,y,1/2-z
-x,-y,-z
x,-y,1/2+z
loop_
_atom_site_type_symbol
_atom_site_label
_atom_site_fract_x
_atom_site_fract_y
_atom_site_fract_z
Si Si1 0.488575 0.195721 0.475028
Si Si2 0.804627 0.811277 0.086342
Si Si3 0.654883 0.154397 0.917143
Si Si4 0.893767 0.374049 0.405961
Si Si5 0.648192 0.624614 0.035700
O O1 0.573886 0.252056 0.703694
O O2 0.582212 0.257974 0.520563
O O3 0.500000 0.000000 0.500000
O O4 0.304152 0.239039 0.171742
O O5 0.737462 0.727962 0.085399
O O6 0.986062 0.745281 0.354249
O O7 0.761866 0.001814 0.038916
O O8 0.500000 0.099529 0.750000
O O9 0.778376 0.263985 0.164054
O O10 0.767706 0.496370 0.266543
O O11 0.000000 0.500000 0.500000
O O12 0.500000 0.546622 0.750000
#
# Coordination Sequence:
#
# PCOD9232414 Si02
#       5
#     4   4   4   4   4
#     4   9  18  35  62  88 110 151 204 249 290 348
#     4   9  18  36  61  87 115 149 196 251 294 343
#     4  11  21  37  60  86 115 157 206 246 288 349
#     4  10  21  37  55  82 120 157 189 238 302 352
#     4   9  17  35  59  85 118 154 195 240 295 358
#
# _framework density 21.789465
#
# number of rings (size 3 to 8) (size 9 to 14) (size 15 to 20)
#    0.000    2.400    0.000    4.200    0.000    0.000 
#    0.000   23.000    0.000   16.800    0.000    0.000 
#    0.000    0.000    0.000    0.000    0.000    0.000 
#
# Total GULP energy -111543.934177 kJ/mol
# GULP energy per Si atom -5577.196709 kJ/mol
# Density = 2.173987 g / cm^3
# Si number density = 21.789465 Si / 1000 Ang^3
#
#
#
# Elastic Constant Matrix: (Units=GPa)
#
#
# Indices 1 2 3 4 5 6 
#
# 1 61.3627 29.8045 51.4051 0.0000 -8.6841 0.0000
# 2 29.8045 90.6589 68.0816 0.0000 2.5309 0.0000
# 3 51.4051 68.0816 190.8122 0.0000 -17.9918 0.0000
# 4 0.0000 0.0000 0.0000 44.0778 0.0000 5.5577
# 5 -8.6841 2.5309 -17.9918 0.0000 32.6452 0.0000
# 6 0.0000 0.0000 0.0000 5.5577 0.0000 29.0407
#
#
#
# Elastic Compliance Matrix: (Units=1/GPa)
#
#
# Indices 1 2 3 4 5 6 
#
# 1 0.022442 -0.004424 -0.004084 0.000000 0.004062 0.000000
# 2 -0.004424 0.016551 -0.005217 0.000000 -0.005335 0.000000
# 3 -0.004084 -0.005217 0.008584 0.000000 0.004049 0.000000
# 4 0.000000 0.000000 0.000000 0.023248 0.000000 -0.004449
# 5 0.004062 -0.005335 0.004049 0.000000 0.034358 0.000000
# 6 0.000000 0.000000 0.000000 -0.004449 0.000000 0.035286
#
#
# Mechanical properties :
#
#
# Convention : Reuss Voigt Hill
#
# Bulk Modulus (GPa) = 49.68437 71.26847 60.47642
# Shear Modulus (GPa) = 28.63225 34.05559 31.34392
#
# Velocity S-wave (km/s) = 3.62890 3.95769 3.79686
# Velocity P-wave (km/s) = 6.35689 7.32552 6.85833
#
# Compressibility (1/GPa) = 0.02012705
#
# Stress axis : x y z
#
# Youngs Moduli (GPa) = 44.55984 60.41844 116.49346
#
# Poissons Ratio (x) = 0.26729 0.47580
# Poissons Ratio (y) = 0.19713 0.60771
# Poissons Ratio (z) = 0.18200 0.31518
#
# Static dielectric constant tensor:
#      x y z
#    x 1.831590 0.000000 -0.007750 
#    y 0.000000 1.818470 0.000000 
#    z -0.007750 0.000000 1.866410 
# 
# From -- ./inp_files/32776.got.cif
#   From: 2010.05.17/outbox.cif.g08.bks.cpg/sg13_17_cif.got.tgz:32776.got - 2010.06.03 16:44:36.
