data_PCOD9232375
_publ_section_title
;
Structure prediction by ZEFSAII (Michael W. Deem and Ramdas Pophale) SiO2 
 PCOD9232375
Probable space group: P 2/C
;
_chemical_formula_sum "Si O2"
_cell_formula_units_Z 30
_cell_length_a 15.846281
_cell_length_b 7.930118
_cell_length_c 22.817959
_cell_angle_alpha 90.000000
_cell_angle_beta 31.054760
_cell_angle_gamma 90.000000
_cell_volume 1479.153296
_symmetry_space_group_name_H-M "P 2/C"
_symmetry_group_IT_number 13
_symmetry_cell_setting 'monoclinic'
loop_
_space_group_symop_operation_xyz
x,y,z
-x,y,1/2-z
-x,-y,-z
x,-y,1/2+z
loop_
_atom_site_type_symbol
_atom_site_label
_atom_site_fract_x
_atom_site_fract_y
_atom_site_fract_z
Si Si1 0.618664 0.714008 0.094218
Si Si2 0.925616 0.047136 0.406440
Si Si3 0.514835 0.443219 0.058664
Si Si4 0.181232 0.146173 0.424123
Si Si5 0.880862 0.501106 0.985498
Si Si6 0.500000 0.028032 0.750000
Si Si7 0.186213 0.745426 0.794126
Si Si8 0.861334 0.698872 0.379585
O O1 0.546573 0.598601 0.085461
O O2 0.492429 0.843652 0.199408
O O3 0.776615 0.826089 0.981703
O O4 0.707460 0.599159 0.091788
O O5 0.099395 0.139171 0.296428
O O6 0.924088 0.990310 0.476766
O O7 0.897387 0.881125 0.385776
O O8 0.349093 0.348369 0.176680
O O9 0.500000 0.500000 0.000000
O O10 0.675741 0.324856 0.968309
O O11 0.120794 0.332110 0.475780
O O12 0.219057 0.146654 0.333025
O O13 0.353310 0.097604 0.350465
O O14 0.884395 0.436371 0.917011
O O15 0.039564 0.616074 0.898808
O O16 0.000000 0.665075 0.250000
#
# Coordination Sequence:
#
# PCOD9232375 Si02
#       8
#     4   4   4   4   4   2   4   4
#     4   9  21  39  61  85 126 163 204 245 315 374
#     4   9  21  42  60  90 124 165 205 248 317 388
#     4  11  25  42  62  96 123 160 220 269 305 362
#     4  10  21  36  62  90 129 158 207 250 314 372
#     4   9  20  38  61  86 120 164 209 242 306 383
#     4  10  22  36  60  94 126 164 194 260 312 374
#     4  11  22  38  62  91 123 162 204 265 306 358
#     4  10  21  42  66  85 120 167 205 252 318 377
#
# _framework density 20.281873999999998
#
# number of rings (size 3 to 8) (size 9 to 14) (size 15 to 20)
#    0.000    2.133    0.000    1.600    9.333    1.067 
#    9.600    2.667    0.000    0.000    0.000    0.000 
#    0.000    0.000    0.000    0.000    0.000    0.000 
#
# Total GULP energy -167108.863963 kJ/mol
# GULP energy per Si atom -5570.295465 kJ/mol
# Density = 2.023571 g / cm^3
# Si number density = 20.281874 Si / 1000 Ang^3
#
#
#
# Elastic Constant Matrix: (Units=GPa)
#
#
# Indices 1 2 3 4 5 6 
#
# 1 92.7599 31.0861 46.0747 0.0000 -5.4940 0.0000
# 2 31.0861 83.1383 28.1879 0.0000 -21.2238 0.0000
# 3 46.0747 28.1879 80.2311 0.0000 -10.8842 0.0000
# 4 0.0000 0.0000 0.0000 14.8168 0.0000 -14.6322
# 5 -5.4940 -21.2238 -10.8842 0.0000 15.4865 0.0000
# 6 0.0000 0.0000 0.0000 -14.6322 0.0000 14.7405
#
#
#
# Elastic Compliance Matrix: (Units=1/GPa)
#
#
# Indices 1 2 3 4 5 6 
#
# 1 0.016287 -0.004997 -0.008559 0.000000 -0.007085 0.000000
# 2 -0.004997 0.020903 -0.000916 0.000000 0.026231 0.000000
# 3 -0.008559 -0.000916 0.018923 0.000000 0.009007 0.000000
# 4 0.000000 0.000000 0.000000 3.423751 0.000000 3.398597
# 5 -0.007085 0.026231 0.009007 0.000000 0.104338 0.000000
# 6 0.000000 0.000000 0.000000 3.398597 0.000000 3.441468
#
#
# Mechanical properties :
#
#
# Convention : Reuss Voigt Hill
#
# Bulk Modulus (GPa) = 36.80531 51.86965 44.33748
# Shear Modulus (GPa) = 0.70785 19.06078 9.88431
#
# Velocity S-wave (km/s) = 0.59141 3.06893 2.20999
# Velocity P-wave (km/s) = 4.31887 6.17962 5.33106
#
# Compressibility (1/GPa) = 0.02717000
#
# Stress axis : x y z
#
# Youngs Moduli (GPa) = 61.40052 47.83925 52.84619
#
# Poissons Ratio (x) = 0.23903 0.45229
# Poissons Ratio (y) = 0.30679 0.04842
# Poissons Ratio (z) = 0.52550 0.04383
#
# Static dielectric constant tensor:
#      x y z
#    x 1.744370 0.000000 -0.006380 
#    y 0.000000 1.734370 0.000000 
#    z -0.006380 0.000000 1.751050 
# 
# From -- ./inp_files/87297.got.cif
#   From: 2010.05.17/outbox.cif.g08.bks.cpg/sg13_44_cif.got.tgz:87297.got - 2010.06.03 16:44:36.
