data_PCOD9232072
_publ_section_title
;
Structure prediction by ZEFSAII (Michael W. Deem and Ramdas Pophale) SiO2 
 PCOD9232072
Probable space group: P 2/C
;
_chemical_formula_sum "Si O2"
_cell_formula_units_Z 26
_cell_length_a 21.985264
_cell_length_b 12.560930
_cell_length_c 8.229341
_cell_angle_alpha 90.000000
_cell_angle_beta 33.960330
_cell_angle_gamma 90.000000
_cell_volume 1269.503963
_symmetry_space_group_name_H-M "P 2/C"
_symmetry_group_IT_number 13
_symmetry_cell_setting 'monoclinic'
loop_
_space_group_symop_operation_xyz
x,y,z
-x,y,1/2-z
-x,-y,-z
x,-y,1/2+z
loop_
_atom_site_type_symbol
_atom_site_label
_atom_site_fract_x
_atom_site_fract_y
_atom_site_fract_z
Si Si1 0.453222 0.108554 0.674045
Si Si2 0.318949 0.623323 0.227729
Si Si3 0.529448 0.664374 0.913892
Si Si4 0.772561 0.211959 0.344264
Si Si5 0.000000 0.766193 0.250000
Si Si6 0.958198 0.615474 0.027604
Si Si7 0.267950 0.610775 0.839203
O O1 0.500000 0.117882 0.750000
O O2 0.498079 0.211965 0.483199
O O3 0.500000 0.000000 0.500000
O O4 0.323049 0.125565 0.959744
O O5 0.245685 0.722404 0.447543
O O6 0.257856 0.514366 0.328260
O O7 0.413656 0.604789 0.156235
O O8 0.393131 0.646915 0.910123
O O9 0.607854 0.634671 0.887485
O O10 0.757716 0.308560 0.248340
O O11 0.890845 0.169030 0.034231
O O12 0.010135 0.693954 0.391758
O O13 0.000000 0.633357 0.750000
O O14 0.826442 0.626843 0.317790
O O15 0.000000 0.500000 0.000000
#
# Coordination Sequence:
#
# PCOD9232072 Si02
#       7
#     4   4   4   4   2   4   4
#     4  11  24  43  67  90 116 151 198 257 318 370
#     4  10  21  32  55  86 125 164 197 234 297 351
#     4  10  22  37  54  86 119 150 207 242 300 369
#     4  10  22  39  61  89 123 159 203 251 297 362
#     4  10  22  40  60  88 120 162 208 254 310 352
#     4  11  23  35  53  81 120 171 221 249 284 348
#     4  11  21  35  56  84 122 168 199 248 291 348
#
# _framework density 20.480440000000002
#
# number of rings (size 3 to 8) (size 9 to 14) (size 15 to 20)
#    0.000    1.538    2.308    2.308   10.769    3.692 
#    0.000    0.000    0.000    0.923    2.000    0.000 
#    0.000    0.000    0.000    0.000    0.000    0.000 
#
# Total GULP energy -145019.347895 kJ/mol
# GULP energy per Si atom -5577.667227 kJ/mol
# Density = 2.043383 g / cm^3
# Si number density = 20.480440 Si / 1000 Ang^3
#
#
#
# Elastic Constant Matrix: (Units=GPa)
#
#
# Indices 1 2 3 4 5 6 
#
# 1 48.7608 2.2060 17.2296 0.0000 4.6951 0.0000
# 2 2.2060 71.2779 30.1536 0.0000 -7.4271 0.0000
# 3 17.2296 30.1536 160.5039 0.0000 -6.6375 0.0000
# 4 0.0000 0.0000 0.0000 9.7705 0.0000 9.2002
# 5 4.6951 -7.4271 -6.6375 0.0000 40.0174 0.0000
# 6 0.0000 0.0000 0.0000 9.2002 0.0000 -3.5196
#
#
#
# Elastic Compliance Matrix: (Units=1/GPa)
#
#
# Indices 1 2 3 4 5 6 
#
# 1 0.021657 0.000064 -0.002458 0.000000 -0.002937 0.000000
# 2 0.000064 0.015468 -0.002814 0.000000 0.002397 0.000000
# 3 -0.002458 -0.002814 0.007062 0.000000 0.000937 0.000000
# 4 0.000000 0.000000 0.000000 0.029569 0.000000 0.077292
# 5 -0.002937 0.002397 0.000937 0.000000 0.025934 0.000000
# 6 0.000000 0.000000 0.000000 0.077292 0.000000 -0.082083
#
#
# Mechanical properties :
#
#
# Convention : Reuss Voigt Hill
#
# Bulk Modulus (GPa) = 29.61233 42.19123 35.90178
# Shear Modulus (GPa) = 127.29660 24.65055 75.97357
#
# Velocity S-wave (km/s) = 7.89241 3.47308 6.09723
# Velocity P-wave (km/s) = 9.87642 6.06040 8.19366
#
# Compressibility (1/GPa) = 0.03376972
#
# Stress axis : x y z
#
# Youngs Moduli (GPa) = 46.17496 64.65116 141.61067
#
# Poissons Ratio (x) = -0.00412 0.34811
# Poissons Ratio (y) = -0.00294 0.39844
# Poissons Ratio (z) = 0.11351 0.18190
#
# Static dielectric constant tensor:
#      x y z
#    x 1.894840 0.000000 -0.052170 
#    y 0.000000 2.206430 0.000000 
#    z -0.052170 0.000000 1.778540 
# 
# From -- ./inp_files/24109.got.cif
#   From: 2010.05.17/outbox.cif.g08.bks.cpg/sg13_13_cif.got.tgz:24109.got - 2010.06.03 16:44:36.
