data_PCOD9232632
_publ_section_title
;
Structure prediction by ZEFSAII (Michael W. Deem and Ramdas Pophale) SiO2 
 PCOD9232632
Probable space group: P 2/C
;
_chemical_formula_sum "Si O2"
_cell_formula_units_Z 28
_cell_length_a 8.886783
_cell_length_b 14.130873
_cell_length_c 20.853286
_cell_angle_alpha 90.000000
_cell_angle_beta 149.645533
_cell_angle_gamma 90.000000
_cell_volume 1323.362307
_symmetry_space_group_name_H-M "P 2/C"
_symmetry_group_IT_number 13
_symmetry_cell_setting 'monoclinic'
loop_
_space_group_symop_operation_xyz
x,y,z
-x,y,1/2-z
-x,-y,-z
x,-y,1/2+z
loop_
_atom_site_type_symbol
_atom_site_label
_atom_site_fract_x
_atom_site_fract_y
_atom_site_fract_z
Si Si1 0.276648 0.260772 0.935458
Si Si2 0.716035 0.095723 0.464001
Si Si3 0.339247 0.535223 0.122032
Si Si4 0.614616 0.720978 0.175556
Si Si5 0.225255 0.115197 0.546923
Si Si6 0.283172 0.613618 0.818255
Si Si7 0.736893 0.778368 0.784216
O O1 0.354132 0.262493 0.889091
O O2 0.944349 0.302439 0.821721
O O3 0.274511 0.156325 0.967182
O O4 0.508938 0.326103 0.058003
O O5 0.451984 0.145311 0.326162
O O6 0.021476 0.104433 0.535187
O O7 0.674602 0.983116 0.448295
O O8 0.500000 0.533867 0.250000
O O9 0.381978 0.639998 0.108927
O O10 0.521544 0.465064 0.143583
O O11 0.000000 0.500000 0.000000
O O12 0.503492 0.819074 0.163924
O O13 0.011955 0.171062 0.419039
O O14 0.170611 0.690777 0.725357
O O15 0.000000 0.571252 0.750000
O O16 0.500000 0.742615 0.750000
#
# Coordination Sequence:
#
# PCOD9232632 Si02
#       7
#     4   4   4   4   4   4   4
#     4  10  24  45  65  99 142 174 221 277 343 417
#     4   9  21  38  64  98 130 175 223 277 335 400
#     4  12  30  47  72 104 137 181 235 290 348 418
#     4  11  26  43  66  96 137 181 218 280 347 406
#     4  10  21  37  66  97 130 175 225 276 333 406
#     4  11  24  43  73  96 131 179 223 283 338 410
#     4   9  19  37  62  93 131 167 226 277 328 396
#
# _framework density 21.158227
#
# number of rings (size 3 to 8) (size 9 to 14) (size 15 to 20)
#    0.000    1.714    0.000    2.143   16.000    1.143 
#    0.000    0.000    0.000    0.000    0.000    0.000 
#    0.000    0.000    0.000    0.000    0.000    0.000 
#
# Total GULP energy -156577.084536 kJ/mol
# GULP energy per Si atom -5592.038733 kJ/mol
# Density = 2.111007 g / cm^3
# Si number density = 21.158227 Si / 1000 Ang^3
#
#
#
# Elastic Constant Matrix: (Units=GPa)
#
#
# Indices 1 2 3 4 5 6 
#
# 1 88.6021 47.4014 54.9022 0.0000 18.7651 0.0000
# 2 47.4014 105.2818 25.6131 0.0000 10.9469 0.0000
# 3 54.9022 25.6131 76.4304 0.0000 7.1784 0.0000
# 4 0.0000 0.0000 0.0000 -88.7230 0.0000 -51.1323
# 5 18.7651 10.9469 7.1784 0.0000 28.2372 0.0000
# 6 0.0000 0.0000 0.0000 -51.1323 0.0000 -12.1931
#
#
#
# Elastic Compliance Matrix: (Units=1/GPa)
#
#
# Indices 1 2 3 4 5 6 
#
# 1 0.027845 -0.007338 -0.016465 0.000000 -0.011474 0.000000
# 2 -0.007338 0.012566 0.001085 0.000000 -0.000271 0.000000
# 3 -0.016465 0.001085 0.024135 0.000000 0.004385 0.000000
# 4 0.000000 0.000000 0.000000 0.007955 0.000000 -0.033361
# 5 -0.011474 -0.000271 0.004385 0.000000 0.042029 0.000000
# 6 0.000000 0.000000 0.000000 -0.033361 0.000000 0.057887
#
#
# Mechanical properties :
#
#
# Convention : Reuss Voigt Hill
#
# Bulk Modulus (GPa) = 52.32504 58.46086 55.39295
# Shear Modulus (GPa) = 22.29917 -5.04260 8.62828
#
# Velocity S-wave (km/s) = 3.24994 -1.54546 2.02159
# Velocity P-wave (km/s) = 6.23433 4.95032 5.62906
#
# Compressibility (1/GPa) = 0.01911131
#
# Stress axis : x y z
#
# Youngs Moduli (GPa) = 35.91344 79.57819 41.43280
#
# Poissons Ratio (x) = 0.58394 0.68219
# Poissons Ratio (y) = 0.26353 -0.04497
# Poissons Ratio (z) = 0.59131 -0.08637
#
# Static dielectric constant tensor:
#      x y z
#    x 1.763820 0.000000 -0.008030 
#    y 0.000000 1.740740 0.000000 
#    z -0.008030 0.000000 1.761790 
# 
# From -- ./inp_files/76750.got.cif
#   From: 2010.05.17/outbox.cif.g08.bks.cpg/sg13_39_cif.got.tgz:76750.got - 2010.06.03 16:44:36.
