data_PCOD9232512
_publ_section_title
;
Structure prediction by ZEFSAII (Michael W. Deem and Ramdas Pophale) SiO2 
 PCOD9232512
Probable space group: P 2/C
;
_chemical_formula_sum "Si O2"
_cell_formula_units_Z 16
_cell_length_a 8.068139
_cell_length_b 18.231559
_cell_length_c 8.590192
_cell_angle_alpha 90.000000
_cell_angle_beta 144.881315
_cell_angle_gamma 90.000000
_cell_volume 726.897726
_symmetry_space_group_name_H-M "P 2/C"
_symmetry_group_IT_number 13
_symmetry_cell_setting 'monoclinic'
loop_
_space_group_symop_operation_xyz
x,y,z
-x,y,1/2-z
-x,-y,-z
x,-y,1/2+z
loop_
_atom_site_type_symbol
_atom_site_label
_atom_site_fract_x
_atom_site_fract_y
_atom_site_fract_z
Si Si1 0.816427 0.695990 0.953864
Si Si2 0.794063 0.548826 0.739776
Si Si3 0.108865 0.158900 0.155156
Si Si4 0.392156 0.075948 0.845631
O O1 0.500000 0.724533 0.750000
O O2 0.754485 0.624925 0.800221
O O3 0.960850 0.762101 0.969971
O O4 0.000000 0.677915 0.250000
O O5 0.500000 0.500000 0.500000
O O6 0.000000 0.563911 0.750000
O O7 0.000000 0.500000 0.000000
O O8 0.442385 0.138043 0.428553
O O9 0.000000 0.157456 0.250000
O O10 0.942132 0.097168 0.926192
O O11 0.500000 0.077275 0.750000
O O12 0.500000 0.000000 0.000000
#
# Coordination Sequence:
#
# PCOD9232512 Si02
#       4
#     4   4   4   4
#     4  12  25  42  65  96 129 166 215 270 325 390
#     4  12  25  44  69  97 132 173 216 268 327 392
#     4  10  22  41  61  87 123 165 208 257 319 383
#     4  10  21  37  60  88 121 160 207 259 316 381
#
# _framework density 22.011348999999999
#
# number of rings (size 3 to 8) (size 9 to 14) (size 15 to 20)
#    0.000    1.000    0.000    7.500    0.000    3.000 
#    0.000    7.500    0.000    0.000    0.000    0.000 
#    0.000    0.000    0.000    0.000    0.000    0.000 
#
# Total GULP energy -89318.399515 kJ/mol
# GULP energy per Si atom -5582.399970 kJ/mol
# Density = 2.196125 g / cm^3
# Si number density = 22.011349 Si / 1000 Ang^3
#
#
#
# Elastic Constant Matrix: (Units=GPa)
#
#
# Indices 1 2 3 4 5 6 
#
# 1 54.7484 23.3327 46.5411 0.0000 -10.7715 0.0000
# 2 23.3327 143.9247 55.9402 0.0000 -23.9531 0.0000
# 3 46.5411 55.9402 177.3770 0.0000 0.2038 0.0000
# 4 0.0000 0.0000 0.0000 41.3981 0.0000 -7.9566
# 5 -10.7715 -23.9531 0.2038 0.0000 30.7622 0.0000
# 6 0.0000 0.0000 0.0000 -7.9566 0.0000 32.9762
#
#
#
# Elastic Compliance Matrix: (Units=1/GPa)
#
#
# Indices 1 2 3 4 5 6 
#
# 1 0.025822 -0.000049 -0.006770 0.000000 0.009048 0.000000
# 2 -0.000049 0.009300 -0.002928 0.000000 0.007244 0.000000
# 3 -0.006770 -0.002928 0.008343 0.000000 -0.004706 0.000000
# 4 0.000000 0.000000 0.000000 0.025330 0.000000 0.006112
# 5 0.009048 0.007244 -0.004706 0.000000 0.041347 0.000000
# 6 0.000000 0.000000 0.000000 0.006112 0.000000 0.031800
#
#
# Mechanical properties :
#
#
# Convention : Reuss Voigt Hill
#
# Bulk Modulus (GPa) = 41.71951 69.74202 55.73076
# Shear Modulus (GPa) = 29.51133 37.70970 33.61051
#
# Velocity S-wave (km/s) = 3.66557 4.14356 3.91188
# Velocity P-wave (km/s) = 6.07536 7.39226 6.76593
#
# Compressibility (1/GPa) = 0.02396960
#
# Stress axis : x y z
#
# Youngs Moduli (GPa) = 38.72708 107.53004 119.85985
#
# Poissons Ratio (x) = 0.00525 0.81148
# Poissons Ratio (y) = 0.00189 0.35100
# Poissons Ratio (z) = 0.26219 0.31489
#
# Static dielectric constant tensor:
#      x y z
#    x 2.325260 0.000000 -0.109550 
#    y 0.000000 1.832970 0.000000 
#    z -0.109550 0.000000 1.800470 
# 
# From -- ./inp_files/12929.got.cif
#   From: 2010.05.17/outbox.cif.g08.bks.cpg/sg13_7_cif.got.tgz:12929.got - 2010.06.03 16:44:36.
