data_PCOD9232965
_publ_section_title
;
Structure prediction by ZEFSAII (Michael W. Deem and Ramdas Pophale) SiO2 
 PCOD9232965
Probable space group: P 2/C
;
_chemical_formula_sum "Si O2"
_cell_formula_units_Z 26
_cell_length_a 20.850935
_cell_length_b 8.218217
_cell_length_c 10.229978
_cell_angle_alpha 90.000000
_cell_angle_beta 144.556702
_cell_angle_gamma 90.000000
_cell_volume 1016.549885
_symmetry_space_group_name_H-M "P 2/C"
_symmetry_group_IT_number 13
_symmetry_cell_setting 'monoclinic'
loop_
_space_group_symop_operation_xyz
x,y,z
-x,y,1/2-z
-x,-y,-z
x,-y,1/2+z
loop_
_atom_site_type_symbol
_atom_site_label
_atom_site_fract_x
_atom_site_fract_y
_atom_site_fract_z
Si Si1 0.247179 0.123271 0.081710
Si Si2 0.378299 0.779970 0.325881
Si Si3 0.000000 0.281358 0.250000
Si Si4 0.112133 0.353285 0.175500
Si Si5 0.330258 0.202010 0.480869
Si Si6 0.796456 0.299648 0.759009
Si Si7 0.500000 0.912999 0.750000
Si Si8 0.000000 0.809569 0.250000
O O1 0.305652 0.239527 0.288178
O O2 0.315006 0.954421 0.201116
O O3 0.244376 0.205008 0.935701
O O4 0.117073 0.105016 0.907629
O O5 0.395345 0.709417 0.208416
O O6 0.297201 0.683660 0.286812
O O7 0.485675 0.813705 0.592454
O O8 0.933333 0.371167 0.254224
O O9 0.098260 0.207533 0.501289
O O10 0.205929 0.214811 0.330396
O O11 0.165097 0.521583 0.218602
O O12 0.026482 0.295021 0.923675
O O13 0.396258 0.033791 0.582738
#
# Coordination Sequence:
#
# PCOD9232965 Si02
#       8
#     4   4   2   4   4   4   2   2
#     4  10  22  37  60  92 132 174 224 271 327 387
#     4  11  23  45  67  98 127 175 230 280 337 408
#     4  12  23  41  66  98 139 188 223 258 332 403
#     4  11  24  41  65 101 140 179 232 268 334 398
#     4  10  22  40  66  96 129 171 222 282 330 401
#     4  12  25  40  67  98 139 181 226 280 326 402
#     4  10  22  44  76  94 130 176 224 282 360 396
#     4  10  21  39  60  92 137 186 219 274 326 395
#
# _framework density 25.576706999999999
#
# number of rings (size 3 to 8) (size 9 to 14) (size 15 to 20)
#    0.000    1.231    3.077    3.231    4.308    1.846 
#    0.000    3.846    0.000    5.538    0.000    0.000 
#    0.000    0.000    0.000    0.000    0.000    0.000 
#
# Total GULP energy -145114.155229 kJ/mol
# GULP energy per Si atom -5581.313663 kJ/mol
# Density = 2.551849 g / cm^3
# Si number density = 25.576707 Si / 1000 Ang^3
#
#
#
# Elastic Constant Matrix: (Units=GPa)
#
#
# Indices 1 2 3 4 5 6 
#
# 1 104.5903 37.3774 40.5179 0.0000 -36.1813 0.0000
# 2 37.3774 65.3728 38.9857 0.0000 -7.6732 0.0000
# 3 40.5179 38.9857 227.8885 0.0000 -38.0852 0.0000
# 4 0.0000 0.0000 0.0000 41.8838 0.0000 10.6724
# 5 -36.1813 -7.6732 -38.0852 0.0000 60.5451 0.0000
# 6 0.0000 0.0000 0.0000 10.6724 0.0000 40.4526
#
#
#
# Elastic Compliance Matrix: (Units=1/GPa)
#
#
# Indices 1 2 3 4 5 6 
#
# 1 0.015090 -0.007668 -0.000030 0.000000 0.008027 0.000000
# 2 -0.007668 0.020938 -0.002839 0.000000 -0.003715 0.000000
# 3 -0.000030 -0.002839 0.005382 0.000000 0.003008 0.000000
# 4 0.000000 0.000000 0.000000 0.025596 0.000000 -0.006753
# 5 0.008027 -0.003715 0.003008 0.000000 0.022735 0.000000
# 6 0.000000 0.000000 0.000000 -0.006753 0.000000 0.026502
#
#
# Mechanical properties :
#
#
# Convention : Reuss Voigt Hill
#
# Bulk Modulus (GPa) = 49.17397 70.17928 59.67663
# Shear Modulus (GPa) = 34.69931 47.30769 41.00350
#
# Velocity S-wave (km/s) = 3.68730 4.30541 4.00829
# Velocity P-wave (km/s) = 6.11524 7.22591 6.69365
#
# Compressibility (1/GPa) = 0.02033596
#
# Stress axis : x y z
#
# Youngs Moduli (GPa) = 66.27062 47.75936 185.81103
#
# Poissons Ratio (x) = 0.36621 0.00551
# Poissons Ratio (y) = 0.50815 0.52761
# Poissons Ratio (z) = 0.00197 0.13561
#
# Static dielectric constant tensor:
#      x y z
#    x 2.119410 0.000000 -0.016100 
#    y 0.000000 2.048110 0.000000 
#    z -0.016100 0.000000 2.116630 
# 
# From -- ./inp_files/23423.got.cif
#   From: 2010.05.17/outbox.cif.g08.bks.cpg/sg13_12_cif.got.tgz:23423.got - 2010.06.03 16:44:36.
