data_PCOD9232590
_publ_section_title
;
Structure prediction by ZEFSAII (Michael W. Deem and Ramdas Pophale) SiO2 
 PCOD9232590
Probable space group: P 2/C
;
_chemical_formula_sum "Si O2"
_cell_formula_units_Z 26
_cell_length_a 13.558450
_cell_length_b 9.177680
_cell_length_c 14.326000
_cell_angle_alpha 90.000000
_cell_angle_beta 134.893433
_cell_angle_gamma 90.000000
_cell_volume 1262.871514
_symmetry_space_group_name_H-M "P 2/C"
_symmetry_group_IT_number 13
_symmetry_cell_setting 'monoclinic'
loop_
_space_group_symop_operation_xyz
x,y,z
-x,y,1/2-z
-x,-y,-z
x,-y,1/2+z
loop_
_atom_site_type_symbol
_atom_site_label
_atom_site_fract_x
_atom_site_fract_y
_atom_site_fract_z
Si Si1 0.782096 0.672111 0.692344
Si Si2 0.995648 0.674127 0.984739
Si Si3 0.861851 0.131480 0.071152
Si Si4 0.828424 0.660671 0.221687
Si Si5 0.468777 0.229651 0.959617
Si Si6 0.000000 0.118099 0.750000
Si Si7 0.433521 0.014978 0.110421
O O1 0.843459 0.782733 0.656947
O O2 0.838637 0.510160 0.706004
O O3 0.615083 0.686941 0.573307
O O4 0.845148 0.707305 0.837378
O O5 0.099033 0.749217 0.979441
O O6 0.058927 0.714921 0.126833
O O7 0.000000 0.500000 0.000000
O O8 0.972736 0.999654 0.149743
O O9 0.716137 0.049298 0.962556
O O10 0.670100 0.678113 0.149076
O O11 0.867912 0.774603 0.167684
O O12 0.487174 0.121818 0.884262
O O13 0.439115 0.134022 0.032332
O O14 0.500000 0.070073 0.250000
#
# Coordination Sequence:
#
# PCOD9232590 Si02
#       7
#     4   4   4   4   4   2   4
#     4  10  22  40  66  84 128 167 205 262 316 383
#     4  10  22  38  64  92 123 164 212 259 312 377
#     4  11  21  41  61  90 125 166 206 256 327 368
#     4  11  24  40  60  95 122 163 212 262 312 378
#     4  10  21  40  61  90 126 165 214 254 327 376
#     4  12  24  36  64  88 124 162 206 258 318 376
#     4  10  21  37  63  92 125 167 207 264 315 386
#
# _framework density 20.587999
#
# number of rings (size 3 to 8) (size 9 to 14) (size 15 to 20)
#    0.000    1.538    3.077    1.385    4.308    1.846 
#    0.000    0.000    0.000    1.846    0.000    0.000 
#    0.000    0.000    0.000    0.000    0.000    0.000 
#
# Total GULP energy -144768.567000 kJ/mol
# GULP energy per Si atom -5568.021808 kJ/mol
# Density = 2.054114 g / cm^3
# Si number density = 20.587999 Si / 1000 Ang^3
#
#
#
# Elastic Constant Matrix: (Units=GPa)
#
#
# Indices 1 2 3 4 5 6 
#
# 1 60.5106 34.3308 7.9565 0.0000 12.7023 0.0000
# 2 34.3308 102.5886 20.6303 0.0000 11.1154 0.0000
# 3 7.9565 20.6303 47.8911 0.0000 -5.8062 0.0000
# 4 0.0000 0.0000 0.0000 22.9256 0.0000 4.6539
# 5 12.7023 11.1154 -5.8062 0.0000 24.4162 0.0000
# 6 0.0000 0.0000 0.0000 4.6539 0.0000 30.3498
#
#
#
# Elastic Compliance Matrix: (Units=1/GPa)
#
#
# Indices 1 2 3 4 5 6 
#
# 1 0.022162 -0.005949 -0.002253 0.000000 -0.009357 0.000000
# 2 -0.005949 0.013241 -0.005222 0.000000 -0.004174 0.000000
# 3 -0.002253 -0.005222 0.024645 0.000000 0.009410 0.000000
# 4 0.000000 0.000000 0.000000 0.045021 0.000000 -0.006904
# 5 -0.009357 -0.004174 0.009410 0.000000 0.049963 0.000000
# 6 0.000000 0.000000 0.000000 -0.006904 0.000000 0.034008
#
#
# Mechanical properties :
#
#
# Convention : Reuss Voigt Hill
#
# Bulk Modulus (GPa) = 30.12112 37.42504 33.77308
# Shear Modulus (GPa) = 22.03084 25.40984 23.72034
#
# Velocity S-wave (km/s) = 3.27476 3.51694 3.39801
# Velocity P-wave (km/s) = 5.38153 5.89146 5.64226
#
# Compressibility (1/GPa) = 0.03319929
#
# Stress axis : x y z
#
# Youngs Moduli (GPa) = 45.12235 75.52331 40.57572
#
# Poissons Ratio (x) = 0.44932 0.09144
# Poissons Ratio (y) = 0.26845 0.21187
# Poissons Ratio (z) = 0.10168 0.39435
#
# Static dielectric constant tensor:
#      x y z
#    x 1.771390 0.000000 -0.016930 
#    y 0.000000 1.721420 0.000000 
#    z -0.016930 0.000000 1.843580 
# 
# From -- ./inp_files/53373.got.cif
#   From: 2010.05.17/outbox.cif.g08.bks.cpg/sg13_27_cif.got.tgz:53373.got - 2010.06.03 16:44:36.
