data_PCOD9232774
_publ_section_title
;
Structure prediction by ZEFSAII (Michael W. Deem and Ramdas Pophale) SiO2 
 PCOD9232774
Probable space group: P 2/C
;
_chemical_formula_sum "Si O2"
_cell_formula_units_Z 30
_cell_length_a 9.468191
_cell_length_b 15.039332
_cell_length_c 11.499617
_cell_angle_alpha 90.000000
_cell_angle_beta 84.113326
_cell_angle_gamma 90.000000
_cell_volume 1628.856058
_symmetry_space_group_name_H-M "P 2/C"
_symmetry_group_IT_number 13
_symmetry_cell_setting 'monoclinic'
loop_
_space_group_symop_operation_xyz
x,y,z
-x,y,1/2-z
-x,-y,-z
x,-y,1/2+z
loop_
_atom_site_type_symbol
_atom_site_label
_atom_site_fract_x
_atom_site_fract_y
_atom_site_fract_z
Si Si1 0.836392 0.617345 0.731224
Si Si2 0.334677 0.917157 0.678307
Si Si3 0.611782 0.505103 0.149310
Si Si4 0.500000 0.075299 0.750000
Si Si5 0.794881 0.798942 0.614666
Si Si6 0.400011 0.362272 0.058311
Si Si7 0.967018 0.944978 0.885989
Si Si8 0.463858 0.173277 0.512052
O O1 0.757314 0.529478 0.691797
O O2 0.825303 0.696520 0.638199
O O3 0.736519 0.646382 0.847600
O O4 0.000000 0.604412 0.750000
O O5 0.299839 0.838781 0.771500
O O6 0.467569 0.894228 0.586738
O O7 0.199719 0.927072 0.606841
O O8 0.367534 0.007359 0.745731
O O9 0.500000 0.546161 0.250000
O O10 0.525698 0.417554 0.112105
O O11 0.638079 0.574547 0.045809
O O12 0.495601 0.135209 0.635947
O O13 0.938220 0.856221 0.609558
O O14 0.701620 0.815165 0.507433
O O15 0.460116 0.267567 0.015433
O O16 0.000000 0.980304 0.750000
O O17 0.000000 0.000000 0.000000
#
# Coordination Sequence:
#
# PCOD9232774 Si02
#       8
#     4   4   4   2   4   4   4   4
#     4  11  21  37  63  94 119 154 207 251 304 362
#     4  11  22  38  59  83 115 152 206 248 294 361
#     4   9  20  38  64  88 120 155 198 240 304 374
#     4  12  26  34  58  90 116 164 198 254 316 354
#     4  11  21  39  60  88 115 157 204 257 294 354
#     4  10  21  38  61  90 116 159 196 248 303 363
#     4  10  23  38  59  83 118 159 203 249 305 360
#     4  12  23  38  61  84 124 149 203 255 302 358
#
# _framework density 18.417833999999999
#
# number of rings (size 3 to 8) (size 9 to 14) (size 15 to 20)
#    0.000    1.333    4.000    2.400    4.667    0.533 
#    0.000    0.000    0.000    0.000    0.000    0.000 
#    0.000    0.000    0.000    0.000    0.000    0.000 
#
# Total GULP energy -167386.366494 kJ/mol
# GULP energy per Si atom -5579.545550 kJ/mol
# Density = 1.837591 g / cm^3
# Si number density = 18.417834 Si / 1000 Ang^3
#
#
#
# Elastic Constant Matrix: (Units=GPa)
#
#
# Indices 1 2 3 4 5 6 
#
# 1 131.5765 26.9787 32.1061 0.0000 30.4125 0.0000
# 2 26.9787 55.0234 41.1252 0.0000 6.8024 0.0000
# 3 32.1061 41.1252 65.3887 0.0000 25.8808 0.0000
# 4 0.0000 0.0000 0.0000 2.8619 0.0000 -1.0315
# 5 30.4125 6.8024 25.8808 0.0000 24.6825 0.0000
# 6 0.0000 0.0000 0.0000 -1.0315 0.0000 16.1991
#
#
#
# Elastic Compliance Matrix: (Units=1/GPa)
#
#
# Indices 1 2 3 4 5 6 
#
# 1 0.012604 -0.010112 0.008914 0.000000 -0.022091 0.000000
# 2 -0.010112 0.051702 -0.045889 0.000000 0.046327 0.000000
# 3 0.008914 -0.045889 0.066871 0.000000 -0.068455 0.000000
# 4 0.000000 0.000000 0.000000 0.357625 0.000000 0.022773
# 5 -0.022091 0.046327 -0.068455 0.000000 0.126745 0.000000
# 6 0.000000 0.000000 0.000000 0.022773 0.000000 0.063182
#
#
# Mechanical properties :
#
#
# Convention : Reuss Voigt Hill
#
# Bulk Modulus (GPa) = 27.02225 50.26761 38.64493
# Shear Modulus (GPa) = 6.36750 18.86729 12.61740
#
# Velocity S-wave (km/s) = 1.86138 3.20410 2.62021
# Velocity P-wave (km/s) = 4.39583 6.40629 5.49381
#
# Compressibility (1/GPa) = 0.03700653
#
# Stress axis : x y z
#
# Youngs Moduli (GPa) = 79.33768 19.34144 14.95405
#
# Poissons Ratio (x) = 0.19558 -0.13331
# Poissons Ratio (y) = 0.80225 0.68622
# Poissons Ratio (z) = -0.70725 0.88755
#
# Static dielectric constant tensor:
#      x y z
#    x 1.651610 0.000000 0.016520 
#    y 0.000000 1.613060 0.000000 
#    z 0.016520 0.000000 1.654170 
# 
# From -- ./inp_files/30134.got.cif
#   From: 2010.05.17/outbox.cif.g08.bks.cpg/sg13_16_cif.got.tgz:30134.got - 2010.06.03 16:44:36.
