data_PCOD9232859
_publ_section_title
;
Structure prediction by ZEFSAII (Michael W. Deem and Ramdas Pophale) SiO2 
 PCOD9232859
Probable space group: P 2/C
;
_chemical_formula_sum "Si O2"
_cell_formula_units_Z 30
_cell_length_a 24.159711
_cell_length_b 9.065519
_cell_length_c 15.067699
_cell_angle_alpha 90.000000
_cell_angle_beta 28.627107
_cell_angle_gamma 90.000000
_cell_volume 1581.117065
_symmetry_space_group_name_H-M "P 2/C"
_symmetry_group_IT_number 13
_symmetry_cell_setting 'monoclinic'
loop_
_space_group_symop_operation_xyz
x,y,z
-x,y,1/2-z
-x,-y,-z
x,-y,1/2+z
loop_
_atom_site_type_symbol
_atom_site_label
_atom_site_fract_x
_atom_site_fract_y
_atom_site_fract_z
Si Si1 0.576430 0.185605 0.728349
Si Si2 0.557559 0.657991 0.926322
Si Si3 0.411300 0.166605 0.297118
Si Si4 0.000000 0.226648 0.750000
Si Si5 0.827746 0.217526 0.305808
Si Si6 0.950235 0.361917 0.513991
Si Si7 0.853419 0.871715 0.290821
Si Si8 0.814596 0.613060 0.635284
O O1 0.500000 0.225850 0.750000
O O2 0.707868 0.237143 0.526770
O O3 0.576021 0.008569 0.736483
O O4 0.515638 0.252064 0.898955
O O5 0.558897 0.742882 0.831838
O O6 0.688756 0.636694 0.773036
O O7 0.500000 0.500000 0.000000
O O8 0.500000 0.208221 0.250000
O O9 0.276875 0.186149 0.510928
O O10 0.925890 0.138360 0.780507
O O11 0.089462 0.323192 0.566711
O O12 0.817520 0.293933 0.223436
O O13 0.847583 0.042000 0.268976
O O14 0.940079 0.293672 0.191709
O O15 0.909112 0.234150 0.638491
O O16 0.847446 0.441648 0.606056
O O17 0.000000 0.500000 0.500000
#
# Coordination Sequence:
#
# PCOD9232859 Si02
#       8
#     4   4   4   2   4   4   4   4
#     4  10  21  42  68  91 129 172 216 270 323 379
#     4  12  26  41  62 101 132 169 220 269 327 393
#     4  10  24  44  66  95 128 175 221 271 327 379
#     4  12  22  40  64  94 132 166 210 262 326 372
#     4  10  21  41  68  94 122 171 218 260 322 382
#     4  10  21  38  64  90 126 167 207 251 320 389
#     4  11  22  40  69  95 125 168 221 266 320 383
#     4  11  24  42  64  89 132 174 206 265 328 390
#
# _framework density 18.973927
#
# number of rings (size 3 to 8) (size 9 to 14) (size 15 to 20)
#    0.000    1.333    5.333    0.800    1.867    3.733 
#    0.000    3.333    0.000    0.000    0.000    0.000 
#    0.000    0.000    0.000    0.000    0.000    0.000 
#
# Total GULP energy -167504.972986 kJ/mol
# GULP energy per Si atom -5583.499100 kJ/mol
# Density = 1.893074 g / cm^3
# Si number density = 18.973927 Si / 1000 Ang^3
#
#
#
# Elastic Constant Matrix: (Units=GPa)
#
#
# Indices 1 2 3 4 5 6 
#
# 1 125.0819 46.0836 74.4638 0.0000 -12.3693 0.0000
# 2 46.0836 61.7194 64.6126 0.0000 -4.9962 0.0000
# 3 74.4638 64.6126 168.2616 0.0000 -14.4234 0.0000
# 4 0.0000 0.0000 0.0000 49.5371 0.0000 -11.9326
# 5 -12.3693 -4.9962 -14.4234 0.0000 20.4809 0.0000
# 6 0.0000 0.0000 0.0000 -11.9326 0.0000 9.7830
#
#
#
# Elastic Compliance Matrix: (Units=1/GPa)
#
#
# Indices 1 2 3 4 5 6 
#
# 1 0.012223 -0.005850 -0.002823 0.000000 0.003967 0.000000
# 2 -0.005850 0.029906 -0.009123 0.000000 -0.002663 0.000000
# 3 -0.002823 -0.009123 0.011024 0.000000 0.003833 0.000000
# 4 0.000000 0.000000 0.000000 0.028586 0.000000 0.034867
# 5 0.003967 -0.002663 0.003833 0.000000 0.053272 0.000000
# 6 0.000000 0.000000 0.000000 0.034867 0.000000 0.144746
#
#
# Mechanical properties :
#
#
# Convention : Reuss Voigt Hill
#
# Bulk Modulus (GPa) = 56.94509 80.59810 68.77160
# Shear Modulus (GPa) = 15.56655 27.28706 21.42681
#
# Velocity S-wave (km/s) = 2.86740 3.79639 3.36412
# Velocity P-wave (km/s) = 6.40625 7.86049 7.17034
#
# Compressibility (1/GPa) = 0.01756078
#
# Stress axis : x y z
#
# Youngs Moduli (GPa) = 81.81420 33.43846 90.71012
#
# Poissons Ratio (x) = 0.19562 0.25604
# Poissons Ratio (y) = 0.47863 0.82755
# Poissons Ratio (z) = 0.23093 0.30506
#
# Static dielectric constant tensor:
#      x y z
#    x 1.690600 0.000000 -0.031190 
#    y 0.000000 1.727310 0.000000 
#    z -0.031190 0.000000 1.670500 
# 
# From -- ./inp_files/58689.got.cif
#   From: 2010.05.17/outbox.cif.g08.bks.cpg/sg13_30_cif.got.tgz:58689.got - 2010.06.03 16:44:36.
