data_PCOD9232110
_publ_section_title
;
Structure prediction by ZEFSAII (Michael W. Deem and Ramdas Pophale) SiO2 
 PCOD9232110
Probable space group: P 2/C
;
_chemical_formula_sum "Si O2"
_cell_formula_units_Z 30
_cell_length_a 14.240750
_cell_length_b 10.400393
_cell_length_c 22.622919
_cell_angle_alpha 90.000000
_cell_angle_beta 28.664385
_cell_angle_gamma 90.000000
_cell_volume 1607.241764
_symmetry_space_group_name_H-M "P 2/C"
_symmetry_group_IT_number 13
_symmetry_cell_setting 'monoclinic'
loop_
_space_group_symop_operation_xyz
x,y,z
-x,y,1/2-z
-x,-y,-z
x,-y,1/2+z
loop_
_atom_site_type_symbol
_atom_site_label
_atom_site_fract_x
_atom_site_fract_y
_atom_site_fract_z
Si Si1 0.181808 0.316272 0.807467
Si Si2 0.705155 0.215485 0.215952
Si Si3 0.712525 0.487221 0.152251
Si Si4 0.080709 0.479293 0.083066
Si Si5 0.680880 0.358167 0.344837
Si Si6 0.894327 0.130371 0.540642
Si Si7 0.556353 0.622903 0.040941
Si Si8 0.500000 0.000111 0.250000
O O1 0.237742 0.440906 0.815493
O O2 0.128750 0.212185 0.886302
O O3 0.383722 0.286421 0.662134
O O4 0.001638 0.371696 0.867420
O O5 0.699917 0.336174 0.173468
O O6 0.621322 0.261491 0.325137
O O7 0.587761 0.096016 0.251951
O O8 0.939087 0.191244 0.092810
O O9 0.500000 0.532067 0.250000
O O10 0.858203 0.526566 0.019690
O O11 0.903105 0.397170 0.207490
O O12 0.271003 0.426702 0.011820
O O13 0.559049 0.489984 0.407529
O O14 0.645827 0.317666 0.431683
O O15 0.682410 0.092218 0.632143
O O16 0.000000 0.000000 0.500000
#
# Coordination Sequence:
#
# PCOD9232110 Si02
#       8
#     4   4   4   4   4   4   4   2
#     4  11  21  34  56  85 121 151 185 239 292 349
#     4  11  19  37  60  80 118 150 189 237 300 355
#     4  12  19  31  56  91 114 151 182 229 304 362
#     4  11  19  32  52  81 122 153 178 225 290 358
#     4  10  21  35  53  83 121 157 187 227 284 355
#     4  10  23  37  53  83 114 150 199 245 286 337
#     4  10  21  34  51  86 124 153 189 225 282 362
#     4  10  24  38  56  82 112 154 196 246 296 334
#
# _framework density 18.665517999999999
#
# number of rings (size 3 to 8) (size 9 to 14) (size 15 to 20)
#    0.000    1.333    6.000    1.600    0.933    1.067 
#    0.000    0.000    0.000    3.200    0.000    5.600 
#    0.000    0.000    0.000    0.000    0.000    0.000 
#
# Total GULP energy -167011.489724 kJ/mol
# GULP energy per Si atom -5567.049657 kJ/mol
# Density = 1.862303 g / cm^3
# Si number density = 18.665518 Si / 1000 Ang^3
#
#
#
# Elastic Constant Matrix: (Units=GPa)
#
#
# Indices 1 2 3 4 5 6 
#
# 1 46.7186 -0.5747 42.0171 0.0000 10.7058 0.0000
# 2 -0.5747 40.9940 16.0547 0.0000 4.3964 0.0000
# 3 42.0171 16.0547 126.1402 0.0000 18.3996 0.0000
# 4 0.0000 0.0000 0.0000 20.6706 0.0000 -2.2561
# 5 10.7058 4.3964 18.3996 0.0000 39.4173 0.0000
# 6 0.0000 0.0000 0.0000 -2.2561 0.0000 18.0207
#
#
#
# Elastic Compliance Matrix: (Units=1/GPa)
#
#
# Indices 1 2 3 4 5 6 
#
# 1 0.032083 0.005104 -0.010712 0.000000 -0.004283 0.000000
# 2 0.005104 0.026562 -0.004771 0.000000 -0.002122 0.000000
# 3 -0.010712 -0.004771 0.012449 0.000000 -0.002369 0.000000
# 4 0.000000 0.000000 0.000000 0.049048 0.000000 0.006140
# 5 -0.004283 -0.002122 -0.002369 0.000000 0.027875 0.000000
# 6 0.000000 0.000000 0.000000 0.006140 0.000000 0.056261
#
#
# Mechanical properties :
#
#
# Convention : Reuss Voigt Hill
#
# Bulk Modulus (GPa) = 19.86686 36.53854 28.20270
# Shear Modulus (GPa) = 20.67715 26.04543 23.36129
#
# Velocity S-wave (km/s) = 3.33193 3.73953 3.54160
# Velocity P-wave (km/s) = 5.04669 6.18574 5.64502
#
# Compressibility (1/GPa) = 0.05033508
#
# Stress axis : x y z
#
# Youngs Moduli (GPa) = 31.16954 37.64845 80.33038
#
# Poissons Ratio (x) = -0.19216 0.86046
# Poissons Ratio (y) = -0.15909 0.38328
# Poissons Ratio (z) = 0.33387 0.17963
#
# Static dielectric constant tensor:
#      x y z
#    x 1.747710 0.000000 -0.021350 
#    y 0.000000 1.674070 0.000000 
#    z -0.021350 0.000000 1.732230 
# 
# From -- ./inp_files/87470.got.cif
#   From: 2010.05.17/outbox.cif.g08.bks.cpg/sg13_44_cif.got.tgz:87470.got - 2010.06.03 16:44:36.
