data_PCOD9232421
_publ_section_title
;
Structure prediction by ZEFSAII (Michael W. Deem and Ramdas Pophale) SiO2 
 PCOD9232421
Probable space group: P 2/C
;
_chemical_formula_sum "Si O2"
_cell_formula_units_Z 30
_cell_length_a 26.262019
_cell_length_b 7.509905
_cell_length_c 8.466571
_cell_angle_alpha 90.000000
_cell_angle_beta 53.554300
_cell_angle_gamma 90.000000
_cell_volume 1343.238368
_symmetry_space_group_name_H-M "P 2/C"
_symmetry_group_IT_number 13
_symmetry_cell_setting 'monoclinic'
loop_
_space_group_symop_operation_xyz
x,y,z
-x,y,1/2-z
-x,-y,-z
x,-y,1/2+z
loop_
_atom_site_type_symbol
_atom_site_label
_atom_site_fract_x
_atom_site_fract_y
_atom_site_fract_z
Si Si1 0.593188 0.408174 0.830994
Si Si2 0.171261 0.897828 0.819799
Si Si3 0.950404 0.266861 0.101171
Si Si4 0.329096 0.240949 0.304526
Si Si5 0.692306 0.151463 0.523353
Si Si6 0.500000 0.486030 0.750000
Si Si7 0.192043 0.740933 0.130747
Si Si8 0.072703 0.628366 0.500143
O O1 0.616876 0.612809 0.770931
O O2 0.653015 0.281327 0.708431
O O3 0.542439 0.369628 0.788189
O O4 0.551195 0.397450 0.063607
O O5 0.102284 0.860909 0.875591
O O6 0.231656 0.820902 0.611046
O O7 0.186418 0.106144 0.774393
O O8 0.175291 0.827319 0.991330
O O9 0.954957 0.432190 0.972837
O O10 0.924354 0.321708 0.322624
O O11 0.024488 0.231321 0.004752
O O12 0.262737 0.328885 0.482740
O O13 0.327681 0.050638 0.395991
O O14 0.325266 0.196553 0.125340
O O15 0.138441 0.609796 0.287185
#
# Coordination Sequence:
#
# PCOD9232421 Si02
#       8
#     4   4   4   4   4   2   4   4
#     4  11  22  46  66  94 133 166 204 258 305 368
#     4  10  21  38  58  87 119 153 201 253 302 362
#     4  10  21  37  56  81 115 156 202 250 303 363
#     4  10  23  41  65  96 128 167 213 258 312 371
#     4  10  23  41  65  96 128 167 213 258 312 371
#     4  10  24  42  70  94 130 166 210 250 298 376
#     4  10  21  38  58  87 119 153 201 253 302 362
#     4  10  21  37  56  81 115 156 202 250 303 363
#
# _framework density 22.334085000000002
#
# number of rings (size 3 to 8) (size 9 to 14) (size 15 to 20)
#    0.000    1.867    1.333    1.600    3.733    3.200 
#    0.000    4.000    0.000    0.000    0.000    0.000 
#    0.000    0.000    0.000    0.000    0.000    0.000 
#
# Total GULP energy -167379.519274 kJ/mol
# GULP energy per Si atom -5579.317309 kJ/mol
# Density = 2.228325 g / cm^3
# Si number density = 22.334085 Si / 1000 Ang^3
#
#
#
# Elastic Constant Matrix: (Units=GPa)
#
#
# Indices 1 2 3 4 5 6 
#
# 1 60.2232 10.2454 17.1049 0.0000 -8.1221 0.0000
# 2 10.2454 42.8006 23.4896 0.0000 -20.4083 0.0000
# 3 17.1049 23.4896 130.0068 0.0000 -22.6047 0.0000
# 4 0.0000 0.0000 0.0000 18.7085 0.0000 -0.8638
# 5 -8.1221 -20.4083 -22.6047 0.0000 27.9057 0.0000
# 6 0.0000 0.0000 0.0000 -0.8638 0.0000 16.1695
#
#
#
# Elastic Compliance Matrix: (Units=1/GPa)
#
#
# Indices 1 2 3 4 5 6 
#
# 1 0.017736 -0.002359 -0.001524 0.000000 0.002202 0.000000
# 2 -0.002359 0.036754 -0.002067 0.000000 0.024518 0.000000
# 3 -0.001524 -0.002067 0.009225 0.000000 0.005517 0.000000
# 4 0.000000 0.000000 0.000000 0.053584 0.000000 0.002862
# 5 0.002202 0.024518 0.005517 0.000000 0.058876 0.000000
# 6 0.000000 0.000000 0.000000 0.002862 0.000000 0.061998
#
#
# Mechanical properties :
#
#
# Convention : Reuss Voigt Hill
#
# Bulk Modulus (GPa) = 19.29959 37.19003 28.24481
# Shear Modulus (GPa) = 18.70233 24.70278 21.70255
#
# Velocity S-wave (km/s) = 2.89691 3.32935 3.12063
# Velocity P-wave (km/s) = 4.45528 5.60957 5.06541
#
# Compressibility (1/GPa) = 0.05181458
#
# Stress axis : x y z
#
# Youngs Moduli (GPa) = 56.38193 27.20769 108.39751
#
# Poissons Ratio (x) = 0.06418 0.16524
# Poissons Ratio (y) = 0.13300 0.22409
# Poissons Ratio (z) = 0.08595 0.05625
#
# Static dielectric constant tensor:
#      x y z
#    x 1.864290 0.000000 -0.030200 
#    y 0.000000 1.835050 0.000000 
#    z -0.030200 0.000000 1.851730 
# 
# From -- ./inp_files/24438.got.cif
#   From: 2010.05.17/outbox.cif.g08.bks.cpg/sg13_13_cif.got.tgz:24438.got - 2010.06.03 16:44:36.
