data_PCOD9232287
_publ_section_title
;
Structure prediction by ZEFSAII (Michael W. Deem and Ramdas Pophale) SiO2 
 PCOD9232287
Probable space group: P 2/C
;
_chemical_formula_sum "Si O2"
_cell_formula_units_Z 32
_cell_length_a 25.572291
_cell_length_b 9.036372
_cell_length_c 14.972713
_cell_angle_alpha 90.000000
_cell_angle_beta 29.055713
_cell_angle_gamma 90.000000
_cell_volume 1680.337192
_symmetry_space_group_name_H-M "P 2/C"
_symmetry_group_IT_number 13
_symmetry_cell_setting 'monoclinic'
loop_
_space_group_symop_operation_xyz
x,y,z
-x,y,1/2-z
-x,-y,-z
x,-y,1/2+z
loop_
_atom_site_type_symbol
_atom_site_label
_atom_site_fract_x
_atom_site_fract_y
_atom_site_fract_z
Si Si1 0.874208 0.173905 0.642578
Si Si2 0.084197 0.717002 0.755716
Si Si3 0.220514 0.670713 0.379974
Si Si4 0.632110 0.122182 0.390762
Si Si5 0.046320 0.629131 0.317189
Si Si6 0.741290 0.901343 0.915954
Si Si7 0.390224 0.853626 0.212728
Si Si8 0.171150 0.667679 0.946008
O O1 0.793336 0.235423 0.688784
O O2 0.897769 0.293720 0.683539
O O3 0.988980 0.167583 0.419628
O O4 0.824221 0.030386 0.763477
O O5 0.126774 0.716986 0.590378
O O6 0.043704 0.548935 0.831062
O O7 0.184666 0.760185 0.668757
O O8 0.328141 0.708990 0.272225
O O9 0.211572 0.499086 0.371116
O O10 0.661568 0.111808 0.451139
O O11 0.512356 0.184248 0.555024
O O12 0.731480 0.218230 0.204820
O O13 0.622953 0.969456 0.349033
O O14 0.926579 0.691603 0.477810
O O15 0.115485 0.665775 0.125984
O O16 0.671132 0.924351 0.110314
#
# Coordination Sequence:
#
# PCOD9232287 Si02
#       8
#     4   4   4   4   4   4   4   4
#     4  12  20  34  57  89 118 156 196 233 288 353
#     4  10  21  36  56  86 123 161 188 234 290 360
#     4  10  21  38  58  84 120 154 196 238 295 346
#     4  11  22  40  64  83 111 153 202 247 303 346
#     4  10  21  36  58  87 125 156 187 235 294 353
#     4  11  23  37  60  88 116 152 203 245 292 351
#     4  10  23  43  59  83 113 153 199 256 299 342
#     4  10  21  38  59  88 118 155 193 237 292 359
#
# _framework density 19.043796
#
# number of rings (size 3 to 8) (size 9 to 14) (size 15 to 20)
#    0.000    1.500    2.500    3.000    1.750    0.500 
#    0.000    1.250    0.000    0.000    0.000    0.000 
#    0.000    0.000    0.000    0.000    0.000    0.000 
#
# Total GULP energy -178566.396458 kJ/mol
# GULP energy per Si atom -5580.199889 kJ/mol
# Density = 1.900045 g / cm^3
# Si number density = 19.043796 Si / 1000 Ang^3
#
#
#
# Elastic Constant Matrix: (Units=GPa)
#
#
# Indices 1 2 3 4 5 6 
#
# 1 128.8776 25.2960 27.1269 0.0000 -15.3814 0.0000
# 2 25.2960 29.3758 12.3659 0.0000 -12.5078 0.0000
# 3 27.1269 12.3659 56.5062 0.0000 -28.0992 0.0000
# 4 0.0000 0.0000 0.0000 28.6899 0.0000 -0.6318
# 5 -15.3814 -12.5078 -28.0992 0.0000 38.4659 0.0000
# 6 0.0000 0.0000 0.0000 -0.6318 0.0000 28.6712
#
#
#
# Elastic Compliance Matrix: (Units=1/GPa)
#
#
# Indices 1 2 3 4 5 6 
#
# 1 0.009854 -0.007432 -0.003685 0.000000 -0.001168 0.000000
# 2 -0.007432 0.045575 -0.000808 0.000000 0.011258 0.000000
# 3 -0.003685 -0.000808 0.029494 0.000000 0.019809 0.000000
# 4 0.000000 0.000000 0.000000 0.034872 0.000000 0.000768
# 5 -0.001168 0.011258 0.019809 0.000000 0.043661 0.000000
# 6 0.000000 0.000000 0.000000 0.000768 0.000000 0.034895
#
#
# Mechanical properties :
#
#
# Convention : Reuss Voigt Hill
#
# Bulk Modulus (GPa) = 16.37387 38.25968 27.31678
# Shear Modulus (GPa) = 20.61364 29.16344 24.88854
#
# Velocity S-wave (km/s) = 3.29361 3.91754 3.61904
# Velocity P-wave (km/s) = 4.80421 6.37156 5.64257
#
# Compressibility (1/GPa) = 0.06107290
#
# Stress axis : x y z
#
# Youngs Moduli (GPa) = 101.47881 21.94204 33.90576
#
# Poissons Ratio (x) = 0.16307 0.12495
# Poissons Ratio (y) = 0.75417 0.02739
# Poissons Ratio (z) = 0.37398 0.01772
#
# Static dielectric constant tensor:
#      x y z
#    x 1.667810 0.000000 0.009090 
#    y 0.000000 1.647280 0.000000 
#    z 0.009090 0.000000 1.689420 
# 
# From -- ./inp_files/58807.got.cif
#   From: 2010.05.17/outbox.cif.g08.bks.cpg/sg13_30_cif.got.tgz:58807.got - 2010.06.03 16:44:36.
