data_PCOD9232899
_publ_section_title
;
Structure prediction by ZEFSAII (Michael W. Deem and Ramdas Pophale) SiO2 
 PCOD9232899
Probable space group: P 2/C
;
_chemical_formula_sum "Si O2"
_cell_formula_units_Z 22
_cell_length_a 10.113094
_cell_length_b 13.950132
_cell_length_c 15.391851
_cell_angle_alpha 90.000000
_cell_angle_beta 27.589906
_cell_angle_gamma 90.000000
_cell_volume 1005.692963
_symmetry_space_group_name_H-M "P 2/C"
_symmetry_group_IT_number 13
_symmetry_cell_setting 'monoclinic'
loop_
_space_group_symop_operation_xyz
x,y,z
-x,y,1/2-z
-x,-y,-z
x,-y,1/2+z
loop_
_atom_site_type_symbol
_atom_site_label
_atom_site_fract_x
_atom_site_fract_y
_atom_site_fract_z
Si Si1 0.911868 0.656114 0.084335
Si Si2 0.278968 0.696967 0.029202
Si Si3 0.500000 0.814759 0.250000
Si Si4 0.642610 0.466105 0.263761
Si Si5 0.920880 0.942838 0.891437
Si Si6 0.505549 0.109037 0.350960
O O1 0.719637 0.743577 0.168590
O O2 0.729112 0.573300 0.238605
O O3 0.158363 0.695440 0.001667
O O4 0.070888 0.597714 0.915253
O O5 0.000000 0.706531 0.250000
O O6 0.439052 0.595534 0.943810
O O7 0.482645 0.788940 0.913001
O O8 0.318414 0.879633 0.421195
O O9 0.500000 0.474293 0.250000
O O10 0.000000 0.905090 0.750000
O O11 0.205900 0.942420 0.784129
O O12 0.772198 0.045850 0.965304
O O13 0.500000 0.119038 0.250000
#
# Coordination Sequence:
#
# PCOD9232899 Si02
#       6
#     4   4   2   4   4   4
#     4  10  21  38  67  89 125 174 223 275 327 409
#     4  11  24  38  64  95 133 172 218 278 339 399
#     4  12  24  42  68  98 134 176 226 274 350 398
#     4   9  18  40  61  91 120 171 226 268 331 398
#     4  12  28  45  72 102 139 176 231 288 342 407
#     4  12  25  48  71  99 135 183 229 280 345 414
#
# _framework density 21.875463
#
# number of rings (size 3 to 8) (size 9 to 14) (size 15 to 20)
#    0.000    1.091    1.818    5.455    5.091    0.727 
#    0.000    0.909    0.000    0.000    0.000    0.000 
#    0.000    0.000    0.000    0.000    0.000    0.000 
#
# Total GULP energy -122977.151161 kJ/mol
# GULP energy per Si atom -5589.870507 kJ/mol
# Density = 2.182567 g / cm^3
# Si number density = 21.875463 Si / 1000 Ang^3
#
#
#
# Elastic Constant Matrix: (Units=GPa)
#
#
# Indices 1 2 3 4 5 6 
#
# 1 52.3770 7.8756 29.4102 0.0000 -2.5044 0.0000
# 2 7.8756 87.5692 25.4446 0.0000 3.0889 0.0000
# 3 29.4102 25.4446 104.3220 0.0000 13.3035 0.0000
# 4 0.0000 0.0000 0.0000 44.1579 0.0000 -20.0401
# 5 -2.5044 3.0889 13.3035 0.0000 34.7565 0.0000
# 6 0.0000 0.0000 0.0000 -20.0401 0.0000 19.8610
#
#
#
# Elastic Compliance Matrix: (Units=1/GPa)
#
#
# Indices 1 2 3 4 5 6 
#
# 1 0.023312 -0.000193 -0.007087 0.000000 0.004410 0.000000
# 2 -0.000193 0.012292 -0.002947 0.000000 0.000021 0.000000
# 3 -0.007087 -0.002947 0.012967 0.000000 -0.005212 0.000000
# 4 0.000000 0.000000 0.000000 0.041776 0.000000 0.042153
# 5 0.004410 0.000021 -0.005212 0.000000 0.031082 0.000000
# 6 0.000000 0.000000 0.000000 0.042153 0.000000 0.092883
#
#
# Mechanical properties :
#
#
# Convention : Reuss Voigt Hill
#
# Bulk Modulus (GPa) = 35.56454 41.08101 38.32278
# Shear Modulus (GPa) = 20.48015 31.85758 26.16887
#
# Velocity S-wave (km/s) = 3.06308 3.82031 3.46246
# Velocity P-wave (km/s) = 5.36684 6.18708 5.79150
#
# Compressibility (1/GPa) = 0.02811789
#
# Stress axis : x y z
#
# Youngs Moduli (GPa) = 42.89673 81.35189 77.11828
#
# Poissons Ratio (x) = 0.01568 0.54656
# Poissons Ratio (y) = 0.00827 0.22723
# Poissons Ratio (z) = 0.30402 0.23971
#
# Static dielectric constant tensor:
#      x y z
#    x 1.795290 0.000000 0.009320 
#    y 0.000000 1.817370 0.000000 
#    z 0.009320 0.000000 1.861580 
# 
# From -- ./inp_files/66833.got.cif
#   From: 2010.05.17/outbox.cif.g08.bks.cpg/sg13_34_cif.got.tgz:66833.got - 2010.06.03 16:44:36.
