data_PCOD9232591
_publ_section_title
;
Structure prediction by ZEFSAII (Michael W. Deem and Ramdas Pophale) SiO2 
 PCOD9232591
Probable space group: P 2/C
;
_chemical_formula_sum "Si O2"
_cell_formula_units_Z 32
_cell_length_a 27.833760
_cell_length_b 8.405619
_cell_length_c 21.641911
_cell_angle_alpha 90.000000
_cell_angle_beta 19.477466
_cell_angle_gamma 90.000000
_cell_volume 1688.300709
_symmetry_space_group_name_H-M "P 2/C"
_symmetry_group_IT_number 13
_symmetry_cell_setting 'monoclinic'
loop_
_space_group_symop_operation_xyz
x,y,z
-x,y,1/2-z
-x,-y,-z
x,-y,1/2+z
loop_
_atom_site_type_symbol
_atom_site_label
_atom_site_fract_x
_atom_site_fract_y
_atom_site_fract_z
Si Si1 0.847632 0.269455 0.398773
Si Si2 0.850342 0.411335 0.812806
Si Si3 0.151231 0.909021 0.103318
Si Si4 0.331268 0.448010 0.587846
Si Si5 0.371093 0.408989 0.740516
Si Si6 0.614358 0.808501 0.384473
Si Si7 0.306886 0.924213 0.787891
Si Si8 0.179931 0.380820 0.380876
O O1 0.844894 0.426105 0.359275
O O2 0.714425 0.299635 0.607432
O O3 0.000000 0.273145 0.250000
O O4 0.840584 0.089638 0.378971
O O5 0.830826 0.246884 0.875623
O O6 0.732600 0.428983 0.902088
O O7 0.009369 0.402604 0.590318
O O8 0.000000 0.892746 0.250000
O O9 0.263933 0.910830 0.910583
O O10 0.501225 0.491215 0.382947
O O11 0.313189 0.285907 0.648409
O O12 0.245168 0.573225 0.735337
O O13 0.446211 0.313808 0.593267
O O14 0.253602 0.512471 0.845750
O O15 0.478449 0.900957 0.575973
O O16 0.722090 0.912781 0.213182
O O17 0.223840 0.793788 0.848933
#
# Coordination Sequence:
#
# PCOD9232591 Si02
#       8
#     4   4   4   4   4   4   4   4
#     4  11  23  41  67  93 124 169 219 266 313 383
#     4  12  25  42  63  93 138 169 200 264 335 383
#     4  11  23  39  66  97 123 165 222 265 312 386
#     4  11  24  40  61  95 128 167 210 256 327 392
#     4  11  19  40  66  88 118 163 217 259 304 374
#     4  10  21  37  63  93 120 160 213 273 311 366
#     4  11  19  37  65  92 119 157 218 274 311 359
#     4  11  20  40  66  92 119 167 215 257 310 382
#
# _framework density 18.953969000000001
#
# number of rings (size 3 to 8) (size 9 to 14) (size 15 to 20)
#    0.000    1.000    6.250    2.250    0.000    0.500 
#    2.250    0.625    2.750    0.000    0.000    0.000 
#    0.000    0.000    0.000    0.000    0.000    0.000 
#
# Total GULP energy -178438.469400 kJ/mol
# GULP energy per Si atom -5576.202169 kJ/mol
# Density = 1.891083 g / cm^3
# Si number density = 18.953969 Si / 1000 Ang^3
#
#
#
# Elastic Constant Matrix: (Units=GPa)
#
#
# Indices 1 2 3 4 5 6 
#
# 1 90.9022 52.6854 15.2136 0.0000 -6.4812 0.0000
# 2 52.6854 120.5739 3.8101 0.0000 3.4538 0.0000
# 3 15.2136 3.8101 62.9770 0.0000 6.6583 0.0000
# 4 0.0000 0.0000 0.0000 18.0730 0.0000 2.1766
# 5 -6.4812 3.4538 6.6583 0.0000 20.2108 0.0000
# 6 0.0000 0.0000 0.0000 2.1766 0.0000 16.9982
#
#
#
# Elastic Compliance Matrix: (Units=1/GPa)
#
#
# Indices 1 2 3 4 5 6 
#
# 1 0.016553 -0.007323 -0.004403 0.000000 0.008010 0.000000
# 2 -0.007323 0.011583 0.001581 0.000000 -0.004849 0.000000
# 3 -0.004403 0.001581 0.017639 0.000000 -0.007493 0.000000
# 4 0.000000 0.000000 0.000000 0.056198 0.000000 -0.007196
# 5 0.008010 -0.004849 -0.007493 0.000000 0.055344 0.000000
# 6 0.000000 0.000000 0.000000 -0.007196 0.000000 0.059751
#
#
# Mechanical properties :
#
#
# Convention : Reuss Voigt Hill
#
# Bulk Modulus (GPa) = 39.23915 46.43017 42.83466
# Shear Modulus (GPa) = 20.33733 24.57266 22.45500
#
# Velocity S-wave (km/s) = 3.27920 3.60452 3.44570
# Velocity P-wave (km/s) = 5.92324 6.47092 6.20313
#
# Compressibility (1/GPa) = 0.02548475
#
# Stress axis : x y z
#
# Youngs Moduli (GPa) = 60.41091 86.33649 56.69277
#
# Poissons Ratio (x) = 0.63228 0.24960
# Poissons Ratio (y) = 0.44241 -0.08963
# Poissons Ratio (z) = 0.26597 -0.13650
#
# Static dielectric constant tensor:
#      x y z
#    x 1.621050 0.000000 0.011460 
#    y 0.000000 1.762500 0.000000 
#    z 0.011460 0.000000 1.718760 
# 
# From -- ./inp_files/82507.got.cif
#   From: 2010.05.17/outbox.cif.g08.bks.cpg/sg13_42_cif.got.tgz:82507.got - 2010.06.03 16:44:36.
