data_PCOD9232589
_publ_section_title
;
Structure prediction by ZEFSAII (Michael W. Deem and Ramdas Pophale) SiO2 
 PCOD9232589
Probable space group: P 2/C
;
_chemical_formula_sum "Si O2"
_cell_formula_units_Z 28
_cell_length_a 13.565895
_cell_length_b 10.618753
_cell_length_c 9.412116
_cell_angle_alpha 90.000000
_cell_angle_beta 107.533854
_cell_angle_gamma 90.000000
_cell_volume 1292.848843
_symmetry_space_group_name_H-M "P 2/C"
_symmetry_group_IT_number 13
_symmetry_cell_setting 'monoclinic'
loop_
_space_group_symop_operation_xyz
x,y,z
-x,y,1/2-z
-x,-y,-z
x,-y,1/2+z
loop_
_atom_site_type_symbol
_atom_site_label
_atom_site_fract_x
_atom_site_fract_y
_atom_site_fract_z
Si Si1 0.895376 0.114335 0.607310
Si Si2 0.707688 0.280072 0.017381
Si Si3 0.951587 0.651582 0.957125
Si Si4 0.849249 0.499218 0.156363
Si Si5 0.270112 0.254748 0.800509
Si Si6 0.490379 0.365045 0.919255
Si Si7 0.097158 0.163612 0.396349
O O1 0.894629 0.223680 0.490406
O O2 0.793878 0.141441 0.657190
O O3 0.000000 0.129441 0.750000
O O4 0.896076 0.976096 0.538651
O O5 0.713425 0.233046 0.858393
O O6 0.589953 0.285204 0.011918
O O7 0.754204 0.421542 0.047561
O O8 0.793555 0.193604 0.128402
O O9 0.899754 0.591796 0.795587
O O10 0.063882 0.715707 0.977930
O O11 0.930199 0.551411 0.074076
O O12 0.801773 0.622523 0.207784
O O13 0.382935 0.295142 0.906635
O O14 0.500000 0.380592 0.750000
O O15 0.500000 0.500000 0.000000
O O16 0.000000 0.157414 0.250000
#
# Coordination Sequence:
#
# PCOD9232589 Si02
#       7
#     4   4   4   4   4   4   4
#     4  10  23  43  66  90 126 173 224 268 319 382
#     4  11  21  39  60  91 127 168 212 261 325 387
#     4  11  23  41  60  95 133 168 207 261 325 392
#     4  11  21  37  63  93 131 164 206 256 329 383
#     4  10  21  40  62  95 128 169 208 267 323 388
#     4  10  21  37  63  91 129 169 209 261 327 391
#     4  11  23  41  63  93 125 174 220 268 317 382
#
# _framework density 21.657598
#
# number of rings (size 3 to 8) (size 9 to 14) (size 15 to 20)
#    0.000    1.429    4.286    1.286    0.000    1.714 
#   12.857    0.714    0.000    0.000    0.000    0.000 
#    0.000    0.000    0.000    0.000    0.000    0.000 
#
# Total GULP energy -156307.917940 kJ/mol
# GULP energy per Si atom -5582.425641 kJ/mol
# Density = 2.160830 g / cm^3
# Si number density = 21.657598 Si / 1000 Ang^3
#
#
#
# Elastic Constant Matrix: (Units=GPa)
#
#
# Indices 1 2 3 4 5 6 
#
# 1 160.8802 43.7624 44.0018 0.0000 20.4714 0.0000
# 2 43.7624 125.8961 33.0758 0.0000 7.6789 0.0000
# 3 44.0018 33.0758 74.7714 0.0000 4.8137 0.0000
# 4 0.0000 0.0000 0.0000 22.2235 0.0000 0.1396
# 5 20.4714 7.6789 4.8137 0.0000 31.0253 0.0000
# 6 0.0000 0.0000 0.0000 0.1396 0.0000 15.9391
#
#
#
# Elastic Compliance Matrix: (Units=1/GPa)
#
#
# Indices 1 2 3 4 5 6 
#
# 1 0.008277 -0.001585 -0.003882 0.000000 -0.004467 0.000000
# 2 -0.001585 0.009373 -0.003163 0.000000 -0.000783 0.000000
# 3 -0.003882 -0.003163 0.017013 0.000000 0.000705 0.000000
# 4 0.000000 0.000000 0.000000 0.045000 0.000000 -0.000394
# 5 -0.004467 -0.000783 0.000705 0.000000 0.035264 0.000000
# 6 0.000000 0.000000 0.000000 -0.000394 0.000000 0.062742
#
#
# Mechanical properties :
#
#
# Convention : Reuss Voigt Hill
#
# Bulk Modulus (GPa) = 57.46426 67.02530 62.24478
# Shear Modulus (GPa) = 24.90917 29.88476 27.39696
#
# Velocity S-wave (km/s) = 3.39504 3.71870 3.56055
# Velocity P-wave (km/s) = 6.47758 7.03229 6.76063
#
# Compressibility (1/GPa) = 0.01740212
#
# Stress axis : x y z
#
# Youngs Moduli (GPa) = 120.81471 106.69261 58.77981
#
# Poissons Ratio (x) = 0.16908 0.22820
# Poissons Ratio (y) = 0.19146 0.18592
# Poissons Ratio (z) = 0.46905 0.33748
#
# Static dielectric constant tensor:
#      x y z
#    x 1.848300 0.000000 -0.018470 
#    y 0.000000 1.827570 0.000000 
#    z -0.018470 0.000000 1.892680 
# 
# From -- ./inp_files/33289.got.cif
#   From: 2010.05.17/outbox.cif.g08.bks.cpg/sg13_17_cif.got.tgz:33289.got - 2010.06.03 16:44:36.
