data_PCOD9232764
_publ_section_title
;
Structure prediction by ZEFSAII (Michael W. Deem and Ramdas Pophale) SiO2 
 PCOD9232764
Probable space group: P 2/C
;
_chemical_formula_sum "Si O2"
_cell_formula_units_Z 24
_cell_length_a 5.180048
_cell_length_b 10.077527
_cell_length_c 22.924576
_cell_angle_alpha 90.000000
_cell_angle_beta 60.234026
_cell_angle_gamma 90.000000
_cell_volume 1038.816955
_symmetry_space_group_name_H-M "P 2/C"
_symmetry_group_IT_number 13
_symmetry_cell_setting 'monoclinic'
loop_
_space_group_symop_operation_xyz
x,y,z
-x,y,1/2-z
-x,-y,-z
x,-y,1/2+z
loop_
_atom_site_type_symbol
_atom_site_label
_atom_site_fract_x
_atom_site_fract_y
_atom_site_fract_z
Si Si1 0.146760 0.029087 0.793162
Si Si2 0.716081 0.909784 0.517350
Si Si3 0.857615 0.722547 0.704180
Si Si4 0.611568 0.595288 0.074041
Si Si5 0.871790 0.318314 0.070325
Si Si6 0.963985 0.731335 0.393065
O O1 0.500000 0.030569 0.750000
O O2 0.000000 0.074911 0.750000
O O3 0.041303 0.134121 0.851762
O O4 0.049780 0.877626 0.813207
O O5 0.692546 0.822111 0.580275
O O6 0.795765 0.786044 0.468297
O O7 0.500000 0.000000 0.500000
O O8 0.000000 0.000000 0.500000
O O9 0.500000 0.714589 0.750000
O O10 0.931362 0.662777 0.632576
O O11 0.000000 0.675277 0.750000
O O12 0.675217 0.439893 0.068435
O O13 0.270845 0.635209 0.109955
O O14 0.746491 0.656447 0.117958
O O15 0.811785 0.661821 0.999475
#
# Coordination Sequence:
#
# PCOD9232764 Si02
#       6
#     4   4   4   4   4   4
#     4  10  21  38  61  88 124 166 206 263 329 381
#     4  11  23  36  61  96 126 163 204 266 332 373
#     4  10  23  40  64  95 126 169 215 265 331 394
#     4  10  24  40  66  93 125 178 211 259 332 378
#     4  10  23  44  65  93 137 170 217 273 322 393
#     4  11  22  40  60  92 125 157 219 257 304 398
#
# _framework density 23.103203000000001
#
# number of rings (size 3 to 8) (size 9 to 14) (size 15 to 20)
#    0.000    1.667    0.000    4.000    0.000   16.667 
#    0.000    3.333    0.000    0.000    0.000    0.000 
#    0.000    0.000    0.000    0.000    0.000    0.000 
#
# Total GULP energy -133927.070153 kJ/mol
# GULP energy per Si atom -5580.294590 kJ/mol
# Density = 2.305062 g / cm^3
# Si number density = 23.103203 Si / 1000 Ang^3
#
#
#
# Elastic Constant Matrix: (Units=GPa)
#
#
# Indices 1 2 3 4 5 6 
#
# 1 151.0487 33.2813 38.7673 0.0000 35.8735 0.0000
# 2 33.2813 71.9119 4.4548 0.0000 10.4759 0.0000
# 3 38.7673 4.4548 57.3521 0.0000 15.2752 0.0000
# 4 0.0000 0.0000 0.0000 24.8509 0.0000 0.0127
# 5 35.8735 10.4759 15.2752 0.0000 24.0130 0.0000
# 6 0.0000 0.0000 0.0000 0.0127 0.0000 25.4089
#
#
#
# Elastic Compliance Matrix: (Units=1/GPa)
#
#
# Indices 1 2 3 4 5 6 
#
# 1 0.011481 -0.003137 -0.003989 0.000000 -0.013246 0.000000
# 2 -0.003137 0.015729 0.001780 0.000000 -0.003308 0.000000
# 3 -0.003989 0.001780 0.022411 0.000000 -0.009073 0.000000
# 4 0.000000 0.000000 0.000000 0.040240 0.000000 -0.000020
# 5 -0.013246 -0.003308 -0.009073 0.000000 0.068647 0.000000
# 6 0.000000 0.000000 0.000000 -0.000020 0.000000 0.039356
#
#
# Mechanical properties :
#
#
# Convention : Reuss Voigt Hill
#
# Bulk Modulus (GPa) = 25.68804 48.14664 36.91734
# Shear Modulus (GPa) = 22.56990 28.44185 25.50587
#
# Velocity S-wave (km/s) = 3.12896 3.51248 3.32625
# Velocity P-wave (km/s) = 4.91902 6.11024 5.54670
#
# Compressibility (1/GPa) = 0.03892862
#
# Stress axis : x y z
#
# Youngs Moduli (GPa) = 87.09844 63.57561 44.62115
#
# Poissons Ratio (x) = 0.19943 0.17800
# Poissons Ratio (y) = 0.27321 -0.07941
# Poissons Ratio (z) = 0.34745 -0.11314
#
# Static dielectric constant tensor:
#      x y z
#    x 1.853720 0.000000 0.262190 
#    y 0.000000 4.851640 0.000000 
#    z 0.262190 0.000000 1.939290 
# 
# From -- ./inp_files/83304.got.cif
#   From: 2010.05.17/outbox.cif.g08.bks.cpg/sg13_42_cif.got.tgz:83304.got - 2010.06.03 16:44:36.
