data_PCOD9232484
_publ_section_title
;
Structure prediction by ZEFSAII (Michael W. Deem and Ramdas Pophale) SiO2 
 PCOD9232484
Probable space group: P 2/C
;
_chemical_formula_sum "Si O2"
_cell_formula_units_Z 24
_cell_length_a 10.856873
_cell_length_b 7.875244
_cell_length_c 18.600781
_cell_angle_alpha 90.000000
_cell_angle_beta 45.743839
_cell_angle_gamma 90.000000
_cell_volume 1139.070455
_symmetry_space_group_name_H-M "P 2/C"
_symmetry_group_IT_number 13
_symmetry_cell_setting 'monoclinic'
loop_
_space_group_symop_operation_xyz
x,y,z
-x,y,1/2-z
-x,-y,-z
x,-y,1/2+z
loop_
_atom_site_type_symbol
_atom_site_label
_atom_site_fract_x
_atom_site_fract_y
_atom_site_fract_z
Si Si1 0.756921 0.726915 0.351775
Si Si2 0.429419 0.815829 0.554869
Si Si3 0.159717 0.877421 0.416897
Si Si4 0.973629 0.381473 0.646083
Si Si5 0.249522 0.942371 0.748503
Si Si6 0.114947 0.752595 0.584149
O O1 0.573206 0.695712 0.462150
O O2 0.889572 0.730618 0.364151
O O3 0.822590 0.590528 0.266676
O O4 0.763643 0.898953 0.301621
O O5 0.396221 0.825796 0.653548
O O6 0.244519 0.776350 0.596675
O O7 0.500000 0.000000 0.500000
O O8 0.216313 0.817506 0.472076
O O9 0.092199 0.720012 0.396149
O O10 0.283839 0.980698 0.313256
O O11 0.000000 0.000000 0.500000
O O12 0.061882 0.558624 0.593306
O O13 0.063259 0.852960 0.829766
#
# Coordination Sequence:
#
# PCOD9232484 Si02
#       6
#     4   4   4   4   4   4
#     4   9  21  37  57  86 122 156 195 253 305 354
#     4  10  22  35  60  90 117 153 205 257 297 366
#     4   9  20  36  63  84 112 162 203 251 297 366
#     4  10  21  37  59  86 121 159 198 251 307 366
#     4   9  20  37  60  86 113 156 207 246 295 368
#     4  11  22  36  62  89 119 155 207 249 310 369
#
# _framework density 21.069811999999999
#
# number of rings (size 3 to 8) (size 9 to 14) (size 15 to 20)
#    0.000    2.333    0.000    1.000   25.667    0.667 
#    0.000    7.500    0.000    0.000    0.000    0.000 
#    0.000    0.000    0.000    0.000    0.000    0.000 
#
# Total GULP energy -133818.440894 kJ/mol
# GULP energy per Si atom -5575.768371 kJ/mol
# Density = 2.102186 g / cm^3
# Si number density = 21.069812 Si / 1000 Ang^3
#
#
#
# Elastic Constant Matrix: (Units=GPa)
#
#
# Indices 1 2 3 4 5 6 
#
# 1 8.9094 3.5009 20.6170 0.0000 3.7217 0.0000
# 2 3.5009 42.5817 18.6719 0.0000 1.2556 0.0000
# 3 20.6170 18.6719 160.9914 0.0000 8.0728 0.0000
# 4 0.0000 0.0000 0.0000 17.2757 0.0000 6.9595
# 5 3.7217 1.2556 8.0728 0.0000 33.5504 0.0000
# 6 0.0000 0.0000 0.0000 6.9595 0.0000 12.1071
#
#
#
# Elastic Compliance Matrix: (Units=1/GPa)
#
#
# Indices 1 2 3 4 5 6 
#
# 1 0.166056 -0.004453 -0.020076 0.000000 -0.013423 0.000000
# 2 -0.004453 0.024864 -0.002320 0.000000 0.000122 0.000000
# 3 -0.020076 -0.002320 0.009045 0.000000 0.000138 0.000000
# 4 0.000000 0.000000 0.000000 0.075329 0.000000 -0.043302
# 5 -0.013423 0.000122 0.000138 0.000000 0.031257 0.000000
# 6 0.000000 0.000000 0.000000 -0.043302 0.000000 0.107487
#
#
# Mechanical properties :
#
#
# Convention : Reuss Voigt Hill
#
# Bulk Modulus (GPa) = 6.83681 33.11799 19.97740
# Shear Modulus (GPa) = 9.68071 23.89949 16.79010
#
# Velocity S-wave (km/s) = 2.14582 3.37159 2.82597
# Velocity P-wave (km/s) = 3.06452 5.55960 4.48890
#
# Compressibility (1/GPa) = 0.14626698
#
# Stress axis : x y z
#
# Youngs Moduli (GPa) = 6.02207 40.21892 110.56301
#
# Poissons Ratio (x) = 0.17910 2.21966
# Poissons Ratio (y) = 0.02682 0.25646
# Poissons Ratio (z) = 0.12090 0.09329
#
# Static dielectric constant tensor:
#      x y z
#    x 1.720660 0.000000 -0.012510 
#    y 0.000000 1.846610 0.000000 
#    z -0.012510 0.000000 1.833740 
# 
# From -- ./inp_files/65935.got.cif
#   From: 2010.05.17/outbox.cif.g08.bks.cpg/sg13_33_cif.got.tgz:65935.got - 2010.06.03 16:44:36.
