data_PCOD9232578
_publ_section_title
;
Structure prediction by ZEFSAII (Michael W. Deem and Ramdas Pophale) SiO2 
 PCOD9232578
Probable space group: P 2/C
;
_chemical_formula_sum "Si O2"
_cell_formula_units_Z 26
_cell_length_a 11.585967
_cell_length_b 9.374172
_cell_length_c 13.781965
_cell_angle_alpha 90.000000
_cell_angle_beta 57.487166
_cell_angle_gamma 90.000000
_cell_volume 1262.244683
_symmetry_space_group_name_H-M "P 2/C"
_symmetry_group_IT_number 13
_symmetry_cell_setting 'monoclinic'
loop_
_space_group_symop_operation_xyz
x,y,z
-x,y,1/2-z
-x,-y,-z
x,-y,1/2+z
loop_
_atom_site_type_symbol
_atom_site_label
_atom_site_fract_x
_atom_site_fract_y
_atom_site_fract_z
Si Si1 0.938249 0.333999 0.142597
Si Si2 0.798140 0.341722 0.996808
Si Si3 0.355248 0.928485 0.851056
Si Si4 0.000000 0.225598 0.750000
Si Si5 0.625668 0.100461 0.480596
Si Si6 0.764150 0.395802 0.407713
Si Si7 0.844978 0.976972 0.732752
O O1 0.833626 0.405733 0.268467
O O2 0.929627 0.165045 0.171395
O O3 0.097238 0.366541 0.090802
O O4 0.881773 0.365975 0.060016
O O5 0.706470 0.468970 0.993529
O O6 0.899244 0.316540 0.860772
O O7 0.716048 0.196967 0.056167
O O8 0.500000 0.871698 0.750000
O O9 0.266610 0.974001 0.800170
O O10 0.374767 0.067712 0.906466
O O11 0.070827 0.119942 0.795340
O O12 0.651215 0.269042 0.452108
O O13 0.763080 0.038968 0.369715
O O14 0.500000 0.000000 0.500000
#
# Coordination Sequence:
#
# PCOD9232578 Si02
#       7
#     4   4   4   2   4   4   4
#     4   9  20  38  63  88 132 172 204 260 337 399
#     4  11  24  38  63  96 130 168 207 270 330 397
#     4  11  23  41  65  88 125 172 218 266 323 380
#     4  12  22  36  64 102 134 160 220 272 334 392
#     4  11  21  40  65  87 120 170 226 267 312 378
#     4  10  21  40  61  90 129 170 212 260 334 391
#     4  10  21  37  62  96 123 163 212 271 324 382
#
# _framework density 20.598226
#
# number of rings (size 3 to 8) (size 9 to 14) (size 15 to 20)
#    0.000    1.538    3.077    3.231    2.154    1.231 
#    0.000    1.538    0.000    0.000    0.000    0.000 
#    0.000    0.000    0.000    0.000    0.000    0.000 
#
# Total GULP energy -144874.178057 kJ/mol
# GULP energy per Si atom -5572.083771 kJ/mol
# Density = 2.055134 g / cm^3
# Si number density = 20.598226 Si / 1000 Ang^3
#
#
#
# Elastic Constant Matrix: (Units=GPa)
#
#
# Indices 1 2 3 4 5 6 
#
# 1 65.6046 32.2429 16.6250 0.0000 11.3145 0.0000
# 2 32.2429 75.2640 27.7752 0.0000 6.8349 0.0000
# 3 16.6250 27.7752 88.6446 0.0000 10.5326 0.0000
# 4 0.0000 0.0000 0.0000 18.2219 0.0000 3.1308
# 5 11.3145 6.8349 10.5326 0.0000 26.8348 0.0000
# 6 0.0000 0.0000 0.0000 3.1308 0.0000 25.1494
#
#
#
# Elastic Compliance Matrix: (Units=1/GPa)
#
#
# Indices 1 2 3 4 5 6 
#
# 1 0.020389 -0.007944 -0.000581 0.000000 -0.006345 0.000000
# 2 -0.007944 0.018230 -0.004267 0.000000 0.000381 0.000000
# 3 -0.000581 -0.004267 0.013184 0.000000 -0.003843 0.000000
# 4 0.000000 0.000000 0.000000 0.056078 0.000000 -0.006981
# 5 -0.006345 0.000381 -0.003843 0.000000 0.041352 0.000000
# 6 0.000000 0.000000 0.000000 -0.006981 0.000000 0.040631
#
#
# Mechanical properties :
#
#
# Convention : Reuss Voigt Hill
#
# Bulk Modulus (GPa) = 38.14190 42.53327 40.33759
# Shear Modulus (GPa) = 22.30281 24.23257 23.26769
#
# Velocity S-wave (km/s) = 3.29409 3.43365 3.36459
# Velocity P-wave (km/s) = 5.74677 6.03438 5.89233
#
# Compressibility (1/GPa) = 0.02621789
#
# Stress axis : x y z
#
# Youngs Moduli (GPa) = 49.04711 54.85480 75.85149
#
# Poissons Ratio (x) = 0.43576 0.04406
# Poissons Ratio (y) = 0.38962 0.32369
# Poissons Ratio (z) = 0.02849 0.23409
#
# Static dielectric constant tensor:
#      x y z
#    x 1.762250 0.000000 -0.009310 
#    y 0.000000 1.778020 0.000000 
#    z -0.009310 0.000000 1.729030 
# 
# From -- ./inp_files/49888.got.cif
#   From: 2010.05.17/outbox.cif.g08.bks.cpg/sg13_25_cif.got.tgz:49888.got - 2010.06.03 16:44:36.
