data_PCOD9232359
_publ_section_title
;
Structure prediction by ZEFSAII (Michael W. Deem and Ramdas Pophale) SiO2 
 PCOD9232359
Probable space group: P 2/C
;
_chemical_formula_sum "Si O2"
_cell_formula_units_Z 20
_cell_length_a 9.835383
_cell_length_b 6.654076
_cell_length_c 11.960961
_cell_angle_alpha 90.000000
_cell_angle_beta 104.885790
_cell_angle_gamma 90.000000
_cell_volume 756.519147
_symmetry_space_group_name_H-M "P 2/C"
_symmetry_group_IT_number 13
_symmetry_cell_setting 'monoclinic'
loop_
_space_group_symop_operation_xyz
x,y,z
-x,y,1/2-z
-x,-y,-z
x,-y,1/2+z
loop_
_atom_site_type_symbol
_atom_site_label
_atom_site_fract_x
_atom_site_fract_y
_atom_site_fract_z
Si Si1 0.971455 0.755782 0.986833
Si Si2 0.768424 0.852609 0.134002
Si Si3 0.528545 0.255782 0.013167
Si Si4 0.500000 0.325044 0.250000
Si Si5 0.000000 0.174957 0.250000
Si Si6 0.731577 0.352609 0.865998
O O1 0.946394 0.715992 0.850129
O O2 0.112598 0.641915 0.051576
O O3 0.853902 0.729193 0.057270
O O4 0.000000 0.000000 0.000000
O O5 0.750000 0.750001 0.250000
O O6 0.867160 0.042473 0.181449
O O7 0.612598 0.858085 0.051576
O O8 0.553606 0.215992 0.149870
O O9 0.500000 0.500000 0.000000
O O10 0.646098 0.229193 0.942730
O O11 0.367160 0.457528 0.181449
#
# Coordination Sequence:
#
# PCOD9232359 Si02
#       6
#     4   4   4   2   2   4
#     4  10  21  36  61  88 117 156 194 240 293 342
#     4  11  18  36  64  85 116 159 194 233 298 348
#     4  10  21  36  61  88 117 156 194 240 293 342
#     4  10  22  40  62  84 124 152 192 246 290 340
#     4  10  22  40  62  84 124 152 192 246 290 340
#     4  11  18  36  64  85 116 159 194 233 298 348
#
# _framework density 26.436874
#
# number of rings (size 3 to 8) (size 9 to 14) (size 15 to 20)
#    0.000    1.600    8.000    0.000    0.000    1.600 
#    0.000    8.000    0.000    0.000    0.000    0.000 
#    0.000    0.000    0.000    0.000    0.000    0.000 
#
# Total GULP energy -111964.086550 kJ/mol
# GULP energy per Si atom -5598.204328 kJ/mol
# Density = 2.637670 g / cm^3
# Si number density = 26.436874 Si / 1000 Ang^3
#
#
#
# Elastic Constant Matrix: (Units=GPa)
#
#
# Indices 1 2 3 4 5 6 
#
# 1 257.3359 38.7329 130.5779 0.0000 -15.9374 0.0000
# 2 38.7329 98.1361 44.9394 0.0000 -10.8807 0.0000
# 3 130.5779 44.9394 295.2889 0.0000 -43.5169 0.0000
# 4 0.0000 0.0000 0.0000 57.7958 0.0000 -4.7174
# 5 -15.9374 -10.8807 -43.5169 0.0000 87.0809 0.0000
# 6 0.0000 0.0000 0.0000 -4.7174 0.0000 33.1678
#
#
#
# Elastic Compliance Matrix: (Units=1/GPa)
#
#
# Indices 1 2 3 4 5 6 
#
# 1 0.005116 -0.001069 -0.002139 0.000000 -0.000266 0.000000
# 2 -0.001069 0.011204 -0.001139 0.000000 0.000635 0.000000
# 3 -0.002139 -0.001139 0.004779 0.000000 0.001854 0.000000
# 4 0.000000 0.000000 0.000000 0.017506 0.000000 0.002490
# 5 -0.000266 0.000635 0.001854 0.000000 0.012441 0.000000
# 6 0.000000 0.000000 0.000000 0.002490 0.000000 0.030504
#
#
# Mechanical properties :
#
#
# Convention : Reuss Voigt Hill
#
# Bulk Modulus (GPa) = 80.61149 119.91793 100.26471
# Shear Modulus (GPa) = 52.97921 64.70960 58.84441
#
# Velocity S-wave (km/s) = 4.48145 4.95279 4.72301
# Velocity P-wave (km/s) = 7.57206 8.84112 8.23109
#
# Compressibility (1/GPa) = 0.01240518
#
# Stress axis : x y z
#
# Youngs Moduli (GPa) = 195.47982 89.25555 209.25727
#
# Poissons Ratio (x) = 0.09543 0.44753
# Poissons Ratio (y) = 0.20901 0.23827
# Poissons Ratio (z) = 0.41806 0.10163
#
# Static dielectric constant tensor:
#      x y z
#    x 2.247160 0.000000 -0.006930 
#    y 0.000000 2.506020 0.000000 
#    z -0.006930 0.000000 1.989260 
# 
# From -- ./inp_files/28293.got.cif
#   From: 2010.05.17/outbox.cif.g08.bks.cpg/sg13_15_cif.got.tgz:28293.got - 2010.06.03 16:44:36.
