data_PCOD9232793
_publ_section_title
;
Structure prediction by ZEFSAII (Michael W. Deem and Ramdas Pophale) SiO2 
 PCOD9232793
Probable space group: P 2/C
;
_chemical_formula_sum "Si O2"
_cell_formula_units_Z 18
_cell_length_a 5.219614
_cell_length_b 24.624925
_cell_length_c 7.576871
_cell_angle_alpha 90.000000
_cell_angle_beta 115.800189
_cell_angle_gamma 90.000000
_cell_volume 876.796504
_symmetry_space_group_name_H-M "P 2/C"
_symmetry_group_IT_number 13
_symmetry_cell_setting 'monoclinic'
loop_
_space_group_symop_operation_xyz
x,y,z
-x,y,1/2-z
-x,-y,-z
x,-y,1/2+z
loop_
_atom_site_type_symbol
_atom_site_label
_atom_site_fract_x
_atom_site_fract_y
_atom_site_fract_z
Si Si1 0.000000 0.247181 0.750000
Si Si2 0.253915 0.076423 0.466068
Si Si3 0.500000 0.174473 0.750000
Si Si4 0.834098 0.447839 0.379298
Si Si5 0.165941 0.327200 0.112459
Si Si6 0.500000 0.008561 0.250000
O O1 0.273474 0.210490 0.787627
O O2 0.944203 0.284642 0.562979
O O3 0.332949 0.134495 0.566665
O O4 0.492696 0.048927 0.413830
O O5 0.000000 0.078258 0.250000
O O6 0.246858 0.034345 0.628967
O O7 0.500000 0.460134 0.250000
O O8 0.855991 0.388653 0.475509
O O9 0.000000 0.437152 0.250000
O O10 0.000000 0.500000 0.500000
O O11 0.500000 0.318892 0.250000
O O12 0.000000 0.322313 0.250000
#
# Coordination Sequence:
#
# PCOD9232793 Si02
#       6
#     2   4   2   4   4   2
#     4  12  26  48  66  94 130 176 226 276 322 382
#     4  10  21  39  63  93 127 167 205 263 323 379
#     4  11  28  42  64  98 126 164 229 264 318 388
#     4  10  21  38  61  98 130 165 211 266 332 403
#     4  10  23  44  68  93 129 173 221 269 329 392
#     4   9  20  38  62  96 124 166 209 250 322 402
#
# _framework density 20.529278000000001
#
# number of rings (size 3 to 8) (size 9 to 14) (size 15 to 20)
#    0.000    1.778    0.000    2.667    4.667    2.667 
#    6.000    0.000    0.000    0.000    0.000    0.000 
#    0.000    0.000    0.000    0.000    0.000    0.000 
#
# Total GULP energy -100294.725909 kJ/mol
# GULP energy per Si atom -5571.929217 kJ/mol
# Density = 2.048255 g / cm^3
# Si number density = 20.529278 Si / 1000 Ang^3
#
#
#
# Elastic Constant Matrix: (Units=GPa)
#
#
# Indices 1 2 3 4 5 6 
#
# 1 115.3342 45.9142 36.8216 0.0000 11.0069 0.0000
# 2 45.9142 153.9441 75.7121 0.0000 3.0654 0.0000
# 3 36.8216 75.7121 124.9196 0.0000 3.3364 0.0000
# 4 0.0000 0.0000 0.0000 23.6340 0.0000 -2.1211
# 5 11.0069 3.0654 3.3364 0.0000 34.3522 0.0000
# 6 0.0000 0.0000 0.0000 -2.1211 0.0000 27.6531
#
#
#
# Elastic Compliance Matrix: (Units=1/GPa)
#
#
# Indices 1 2 3 4 5 6 
#
# 1 0.010360 -0.002234 -0.001621 0.000000 -0.002963 0.000000
# 2 -0.002234 0.009739 -0.005254 0.000000 0.000357 0.000000
# 3 -0.001621 -0.005254 0.011671 0.000000 -0.000145 0.000000
# 4 0.000000 0.000000 0.000000 0.042605 0.000000 0.003268
# 5 -0.002963 0.000357 -0.000145 0.000000 0.030042 0.000000
# 6 0.000000 0.000000 0.000000 0.003268 0.000000 0.036413
#
#
# Mechanical properties :
#
#
# Convention : Reuss Voigt Hill
#
# Bulk Modulus (GPa) = 73.78263 79.01042 76.39652
# Shear Modulus (GPa) = 30.56912 32.84452 31.70682
#
# Velocity S-wave (km/s) = 3.86301 4.00420 3.93424
# Velocity P-wave (km/s) = 7.47765 7.74263 7.61130
#
# Compressibility (1/GPa) = 0.01355333
#
# Stress axis : x y z
#
# Youngs Moduli (GPa) = 96.52613 102.68180 85.68286
#
# Poissons Ratio (x) = 0.22937 0.13887
# Poissons Ratio (y) = 0.21562 0.45015
# Poissons Ratio (z) = 0.15644 0.53946
#
# Static dielectric constant tensor:
#      x y z
#    x 1.781250 0.000000 -0.009800 
#    y 0.000000 1.787890 0.000000 
#    z -0.009800 0.000000 1.763520 
# 
# From -- ./inp_files/9369.got.cif
#   From: 2010.05.17/outbox.cif.g08.bks.cpg/sg13_5_cif.got.tgz:9369.got - 2010.06.03 16:44:36.
