data_PCOD9232065
_publ_section_title
;
Structure prediction by ZEFSAII (Michael W. Deem and Ramdas Pophale) SiO2 
 PCOD9232065
Probable space group: P 2/C
;
_chemical_formula_sum "Si O2"
_cell_formula_units_Z 30
_cell_length_a 18.794780
_cell_length_b 5.247843
_cell_length_c 25.702571
_cell_angle_alpha 90.000000
_cell_angle_beta 140.684582
_cell_angle_gamma 90.000000
_cell_volume 1606.210037
_symmetry_space_group_name_H-M "P 2/C"
_symmetry_group_IT_number 13
_symmetry_cell_setting 'monoclinic'
loop_
_space_group_symop_operation_xyz
x,y,z
-x,y,1/2-z
-x,-y,-z
x,-y,1/2+z
loop_
_atom_site_type_symbol
_atom_site_label
_atom_site_fract_x
_atom_site_fract_y
_atom_site_fract_z
Si Si1 0.583854 0.923985 0.972007
Si Si2 0.138024 0.744581 0.549290
Si Si3 0.874689 0.236742 0.889435
Si Si4 0.336573 0.310384 0.083095
Si Si5 0.500000 0.986812 0.250000
Si Si6 0.643596 0.162645 0.108031
Si Si7 0.711915 0.361680 0.705173
Si Si8 0.478836 0.296232 0.830694
O O1 0.510576 0.081228 0.889497
O O2 0.663843 0.773362 0.977785
O O3 0.487948 0.778958 0.951377
O O4 0.644945 0.107144 0.047356
O O5 0.145562 0.485079 0.586530
O O6 0.219334 0.711223 0.545960
O O7 0.009184 0.785998 0.459170
O O8 0.165949 0.983572 0.602907
O O9 0.814475 0.286051 0.800451
O O10 0.404253 0.574231 0.118367
O O11 0.420288 0.148628 0.167777
O O12 0.570447 0.814021 0.250194
O O13 0.717782 0.398491 0.169745
O O14 0.679480 0.894940 0.155229
O O15 0.614701 0.451819 0.691468
#
# Coordination Sequence:
#
# PCOD9232065 Si02
#       8
#     4   4   4   4   2   4   4   4
#     4   9  21  35  52  80 115 146 190 222 284 343
#     4  10  23  38  60  82 114 150 190 232 280 337
#     4  10  22  41  58  84 110 151 194 232 277 339
#     4  11  21  34  54  82 113 154 182 231 283 343
#     4  10  22  32  46  82 116 152 176 222 282 346
#     4  10  21  36  56  82 112 148 186 235 277 331
#     4  11  21  35  58  81 111 147 189 234 275 329
#     4  10  21  32  50  81 113 148 179 222 279 343
#
# _framework density 18.677506000000001
#
# number of rings (size 3 to 8) (size 9 to 14) (size 15 to 20)
#    0.000    1.867    1.333    2.000    9.333    1.600 
#    0.000    0.000    0.000    0.800    0.000    0.000 
#    0.000    0.000    0.000    0.000    0.000    0.000 
#
# Total GULP energy -167135.983746 kJ/mol
# GULP energy per Si atom -5571.199458 kJ/mol
# Density = 1.863500 g / cm^3
# Si number density = 18.677506 Si / 1000 Ang^3
#
#
#
# Elastic Constant Matrix: (Units=GPa)
#
#
# Indices 1 2 3 4 5 6 
#
# 1 82.0362 10.3540 18.7453 0.0000 -3.0722 0.0000
# 2 10.3540 63.9374 -0.9191 0.0000 -3.1268 0.0000
# 3 18.7453 -0.9191 55.7871 0.0000 -13.0213 0.0000
# 4 0.0000 0.0000 0.0000 26.3657 0.0000 -7.0903
# 5 -3.0722 -3.1268 -13.0213 0.0000 28.6397 0.0000
# 6 0.0000 0.0000 0.0000 -7.0903 0.0000 6.9620
#
#
#
# Elastic Compliance Matrix: (Units=1/GPa)
#
#
# Indices 1 2 3 4 5 6 
#
# 1 0.013546 -0.002311 -0.004821 0.000000 -0.000991 0.000000
# 2 -0.002311 0.016146 0.001562 0.000000 0.002225 0.000000
# 3 -0.004821 0.001562 0.021804 0.000000 0.009567 0.000000
# 4 0.000000 0.000000 0.000000 0.052234 0.000000 0.053196
# 5 -0.000991 0.002225 0.009567 0.000000 0.039403 0.000000
# 6 0.000000 0.000000 0.000000 0.053196 0.000000 0.197815
#
#
# Mechanical properties :
#
#
# Convention : Reuss Voigt Hill
#
# Bulk Modulus (GPa) = 24.78017 28.68012 26.73014
# Shear Modulus (GPa) = 13.67841 23.96550 18.82195
#
# Velocity S-wave (km/s) = 2.70913 3.58595 3.17793
# Velocity P-wave (km/s) = 4.80437 5.70387 5.27334
#
# Compressibility (1/GPa) = 0.04035485
#
# Stress axis : x y z
#
# Youngs Moduli (GPa) = 73.82266 61.93528 45.86318
#
# Poissons Ratio (x) = 0.14316 0.22111
# Poissons Ratio (y) = 0.17063 -0.07164
# Poissons Ratio (z) = 0.35591 -0.09674
#
# Static dielectric constant tensor:
#      x y z
#    x 1.689960 0.000000 0.008740 
#    y 0.000000 1.728920 0.000000 
#    z 0.008740 0.000000 1.645330 
# 
# From -- ./inp_files/86990.got.cif
#   From: 2010.05.17/outbox.cif.g08.bks.cpg/sg13_44_cif.got.tgz:86990.got - 2010.06.03 16:44:36.
