data_PCOD9232913
_publ_section_title
;
Structure prediction by ZEFSAII (Michael W. Deem and Ramdas Pophale) SiO2 
 PCOD9232913
Probable space group: P 2/C
;
_chemical_formula_sum "Si O2"
_cell_formula_units_Z 22
_cell_length_a 11.274165
_cell_length_b 9.863240
_cell_length_c 14.532114
_cell_angle_alpha 90.000000
_cell_angle_beta 41.121627
_cell_angle_gamma 90.000000
_cell_volume 1062.757001
_symmetry_space_group_name_H-M "P 2/C"
_symmetry_group_IT_number 13
_symmetry_cell_setting 'monoclinic'
loop_
_space_group_symop_operation_xyz
x,y,z
-x,y,1/2-z
-x,-y,-z
x,-y,1/2+z
loop_
_atom_site_type_symbol
_atom_site_label
_atom_site_fract_x
_atom_site_fract_y
_atom_site_fract_z
Si Si1 0.573233 0.353846 0.987744
Si Si2 0.309452 0.263238 0.898640
Si Si3 0.000000 0.953003 0.250000
Si Si4 0.640872 0.115952 0.443330
Si Si5 0.882412 0.473822 0.913422
Si Si6 0.118857 0.247235 0.830118
O O1 0.703219 0.385564 0.996732
O O2 0.708395 0.286897 0.833790
O O3 0.500000 0.500000 0.000000
O O4 0.409577 0.247666 0.088070
O O5 0.500000 0.320776 0.750000
O O6 0.197537 0.197423 0.880502
O O7 0.364057 0.162135 0.947708
O O8 0.186698 0.381998 0.012397
O O9 0.995795 0.853109 0.341073
O O10 0.165002 0.049391 0.178539
O O11 0.500000 0.000000 0.500000
O O12 0.000000 0.486579 0.750000
O O13 0.007734 0.386267 0.907098
#
# Coordination Sequence:
#
# PCOD9232913 Si02
#       6
#     4   4   2   4   4   4
#     4  11  19  39  67  92 127 173 218 269 336 394
#     4  12  23  39  65  99 138 174 221 284 336 390
#     4  12  24  42  68  94 132 188 228 262 344 408
#     4  12  24  41  65  94 130 179 228 264 333 407
#     4  10  21  38  68  99 131 172 222 270 340 405
#     4  11  21  42  64  95 135 175 212 284 337 393
#
# _framework density 20.700876999999998
#
# number of rings (size 3 to 8) (size 9 to 14) (size 15 to 20)
#    0.000    0.727    8.182    0.545    1.273    0.727 
#    0.000    1.818    0.000    6.545    0.000    0.000 
#    0.000    0.000    0.000    0.000    0.000    0.000 
#
# Total GULP energy -122762.539129 kJ/mol
# GULP energy per Si atom -5580.115415 kJ/mol
# Density = 2.065376 g / cm^3
# Si number density = 20.700877 Si / 1000 Ang^3
#
#
#
# Elastic Constant Matrix: (Units=GPa)
#
#
# Indices 1 2 3 4 5 6 
#
# 1 121.1443 31.1624 5.5912 0.0000 -9.0221 0.0000
# 2 31.1624 113.4349 25.0922 0.0000 -13.6756 0.0000
# 3 5.5912 25.0922 35.4358 0.0000 -17.7402 0.0000
# 4 0.0000 0.0000 0.0000 31.7867 0.0000 -15.3226
# 5 -9.0221 -13.6756 -17.7402 0.0000 35.5803 0.0000
# 6 0.0000 0.0000 0.0000 -15.3226 0.0000 28.4890
#
#
#
# Elastic Compliance Matrix: (Units=1/GPa)
#
#
# Indices 1 2 3 4 5 6 
#
# 1 0.008991 -0.002534 0.001372 0.000000 0.001990 0.000000
# 2 -0.002534 0.011172 -0.007573 0.000000 -0.000125 0.000000
# 3 0.001372 -0.007573 0.042756 0.000000 0.018755 0.000000
# 4 0.000000 0.000000 0.000000 0.042471 0.000000 0.022843
# 5 0.001990 -0.000125 0.018755 0.000000 0.037913 0.000000
# 6 0.000000 0.000000 0.000000 0.022843 0.000000 0.047387
#
#
# Mechanical properties :
#
#
# Convention : Reuss Voigt Hill
#
# Bulk Modulus (GPa) = 22.00319 43.74517 32.87418
# Shear Modulus (GPa) = 22.39043 33.04916 27.71980
#
# Velocity S-wave (km/s) = 3.29236 3.99997 3.66329
# Velocity P-wave (km/s) = 5.01049 6.52004 5.81446
#
# Compressibility (1/GPa) = 0.04544795
#
# Stress axis : x y z
#
# Youngs Moduli (GPa) = 111.21959 89.51037 23.38875
#
# Poissons Ratio (x) = 0.22678 -0.03208
# Poissons Ratio (y) = 0.28178 0.17713
# Poissons Ratio (z) = -0.15255 0.67790
#
# Static dielectric constant tensor:
#      x y z
#    x 1.752350 0.000000 -0.014010 
#    y 0.000000 1.763040 0.000000 
#    z -0.014010 0.000000 1.791800 
# 
# From -- ./inp_files/58633.got.cif
#   From: 2010.05.17/outbox.cif.g08.bks.cpg/sg13_30_cif.got.tgz:58633.got - 2010.06.03 16:44:36.
