data_PCOD9232112
_publ_section_title
;
Structure prediction by ZEFSAII (Michael W. Deem and Ramdas Pophale) SiO2 
 PCOD9232112
Probable space group: P 2/C
;
_chemical_formula_sum "Si O2"
_cell_formula_units_Z 28
_cell_length_a 12.906774
_cell_length_b 13.630472
_cell_length_c 9.324015
_cell_angle_alpha 90.000000
_cell_angle_beta 54.626222
_cell_angle_gamma 90.000000
_cell_volume 1337.514347
_symmetry_space_group_name_H-M "P 2/C"
_symmetry_group_IT_number 13
_symmetry_cell_setting 'monoclinic'
loop_
_space_group_symop_operation_xyz
x,y,z
-x,y,1/2-z
-x,-y,-z
x,-y,1/2+z
loop_
_atom_site_type_symbol
_atom_site_label
_atom_site_fract_x
_atom_site_fract_y
_atom_site_fract_z
Si Si1 0.214439 0.657588 0.251364
Si Si2 0.191765 0.965944 0.603972
Si Si3 0.081717 0.125205 0.476228
Si Si4 0.406782 0.503898 0.706450
Si Si5 0.017949 0.400792 0.400852
Si Si6 0.226588 0.870410 0.288731
Si Si7 0.227869 0.325415 0.415124
O O1 0.291356 0.568656 0.260669
O O2 0.280885 0.763836 0.204051
O O3 0.088106 0.668433 0.446584
O O4 0.183994 0.637807 0.108430
O O5 0.113174 0.035835 0.558222
O O6 0.267150 0.042809 0.646578
O O7 0.118221 0.901240 0.782339
O O8 0.255953 0.897136 0.431182
O O9 0.177689 0.212349 0.451054
O O10 0.928675 0.136456 0.607556
O O11 0.500000 0.460951 0.750000
O O12 0.500000 0.500000 0.500000
O O13 0.359341 0.613456 0.789992
O O14 0.154146 0.362603 0.334299
O O15 0.000000 0.413224 0.250000
O O16 0.000000 0.500000 0.500000
#
# Coordination Sequence:
#
# PCOD9232112 Si02
#       7
#     4   4   4   4   4   4   4
#     4  12  25  42  67  95 131 175 220 264 325 391
#     4  10  21  34  52  90 138 181 206 252 304 391
#     4  11  20  34  58  90 136 175 213 247 319 381
#     4  12  28  49  68  91 124 165 223 282 334 388
#     4  12  26  40  62  95 136 171 211 260 327 397
#     4  11  20  34  58  90 136 174 213 250 315 383
#     4  12  25  42  67  95 131 176 219 265 324 392
#
# _framework density 20.934355
#
# number of rings (size 3 to 8) (size 9 to 14) (size 15 to 20)
#    0.000    0.571    5.714    4.714    4.000    0.000 
#    0.000    0.000    0.000    0.000    0.000   20.000 
#    0.000    0.000    0.000    0.000    0.000    0.000 
#
# Total GULP energy -155895.789050 kJ/mol
# GULP energy per Si atom -5567.706752 kJ/mol
# Density = 2.088671 g / cm^3
# Si number density = 20.934355 Si / 1000 Ang^3
#
#
#
# Elastic Constant Matrix: (Units=GPa)
#
#
# Indices 1 2 3 4 5 6 
#
# 1 72.4833 18.3430 29.2256 0.0000 27.5775 0.0000
# 2 18.3430 83.7924 -0.9740 0.0000 3.5172 0.0000
# 3 29.2256 -0.9740 96.7751 0.0000 43.2048 0.0000
# 4 0.0000 0.0000 0.0000 9.9405 0.0000 7.7075
# 5 27.5775 3.5172 43.2048 0.0000 44.4444 0.0000
# 6 0.0000 0.0000 0.0000 7.7075 0.0000 19.5268
#
#
#
# Elastic Compliance Matrix: (Units=1/GPa)
#
#
# Indices 1 2 3 4 5 6 
#
# 1 0.019213 -0.003778 -0.001151 0.000000 -0.010504 0.000000
# 2 -0.003778 0.012768 0.001191 0.000000 0.000176 0.000000
# 3 -0.001151 0.001191 0.018403 0.000000 -0.017270 0.000000
# 4 0.000000 0.000000 0.000000 0.144965 0.000000 -0.057220
# 5 -0.010504 0.000176 -0.017270 0.000000 0.045791 0.000000
# 6 0.000000 0.000000 0.000000 -0.057220 0.000000 0.073797
#
#
# Mechanical properties :
#
#
# Convention : Reuss Voigt Hill
#
# Bulk Modulus (GPa) = 23.30661 38.47109 30.88885
# Shear Modulus (GPa) = 14.84930 28.54607 21.69768
#
# Velocity S-wave (km/s) = 2.66621 3.69670 3.22291
# Velocity P-wave (km/s) = 4.54264 6.05291 5.35132
#
# Compressibility (1/GPa) = 0.04290629
#
# Stress axis : x y z
#
# Youngs Moduli (GPa) = 52.04869 78.32192 54.33988
#
# Poissons Ratio (x) = 0.29593 0.06254
# Poissons Ratio (y) = 0.19666 -0.06471
# Poissons Ratio (z) = 0.05990 -0.09326
#
# Static dielectric constant tensor:
#      x y z
#    x 1.867590 0.000000 -0.156410 
#    y 0.000000 1.779650 0.000000 
#    z -0.156410 0.000000 1.901510 
# 
# From -- ./inp_files/16682.got.cif
#   From: 2010.05.17/outbox.cif.g08.bks.cpg/sg13_9_cif.got.tgz:16682.got - 2010.06.03 16:44:36.
