data_PCOD9232562
_publ_section_title
;
Structure prediction by ZEFSAII (Michael W. Deem and Ramdas Pophale) SiO2 
 PCOD9232562
Probable space group: P 2/C
;
_chemical_formula_sum "Si O2"
_cell_formula_units_Z 12
_cell_length_a 9.750232
_cell_length_b 5.273162
_cell_length_c 17.608731
_cell_angle_alpha 90.000000
_cell_angle_beta 29.388098
_cell_angle_gamma 90.000000
_cell_volume 444.273418
_symmetry_space_group_name_H-M "P 2/C"
_symmetry_group_IT_number 13
_symmetry_cell_setting 'monoclinic'
loop_
_space_group_symop_operation_xyz
x,y,z
-x,y,1/2-z
-x,-y,-z
x,-y,1/2+z
loop_
_atom_site_type_symbol
_atom_site_label
_atom_site_fract_x
_atom_site_fract_y
_atom_site_fract_z
Si Si1 0.232355 0.032555 0.324664
Si Si2 0.683171 0.250491 0.433307
Si Si3 0.433609 0.443777 0.692314
O O1 0.500000 0.014767 0.250000
O O2 0.309408 0.278264 0.237559
O O3 0.203200 0.775112 0.290473
O O4 0.000000 0.000000 0.500000
O O5 0.500000 0.500000 0.500000
O O6 0.685628 0.316042 0.523404
O O7 0.000000 0.237150 0.250000
O O8 0.500000 0.000000 0.500000
O O9 0.500000 0.464717 0.750000
#
# Coordination Sequence:
#
# PCOD9232562 Si02
#       3
#     4   4   4
#     4  10  21  37  61  97 133 169 224 296 361 424
#     4  12  28  50  75 109 155 205 256 320 393 465
#     4  10  23  43  71 102 138 188 246 306 371 449
#
# _framework density 27.010394999999999
#
# number of rings (size 3 to 8) (size 9 to 14) (size 15 to 20)
#    0.000    1.333    0.000    4.000    0.000   16.000 
#    0.000    0.000    0.000    0.000    0.000    0.000 
#    0.000    0.000    0.000    0.000    0.000    0.000 
#
# Total GULP energy -66856.173976 kJ/mol
# GULP energy per Si atom -5571.347831 kJ/mol
# Density = 2.694892 g / cm^3
# Si number density = 27.010395 Si / 1000 Ang^3
#
#
#
# Elastic Constant Matrix: (Units=GPa)
#
#
# Indices 1 2 3 4 5 6 
#
# 1 117.7103 23.2983 44.4652 0.0000 4.3117 0.0000
# 2 23.2983 297.6413 63.5837 0.0000 -6.2409 0.0000
# 3 44.4652 63.5837 262.1835 0.0000 -8.8696 0.0000
# 4 0.0000 0.0000 0.0000 19.2197 0.0000 42.9854
# 5 4.3117 -6.2409 -8.8696 0.0000 36.2767 0.0000
# 6 0.0000 0.0000 0.0000 42.9854 0.0000 -2.5419
#
#
#
# Elastic Compliance Matrix: (Units=1/GPa)
#
#
# Indices 1 2 3 4 5 6 
#
# 1 0.009207 -0.000431 -0.001509 0.000000 -0.001537 0.000000
# 2 -0.000431 0.003569 -0.000777 0.000000 0.000475 0.000000
# 3 -0.001509 -0.000777 0.004295 0.000000 0.001096 0.000000
# 4 0.000000 0.000000 0.000000 0.001340 0.000000 0.022664
# 5 -0.001537 0.000475 0.001096 0.000000 0.028098 0.000000
# 6 0.000000 0.000000 0.000000 0.022664 0.000000 -0.010134
#
#
# Mechanical properties :
#
#
# Convention : Reuss Voigt Hill
#
# Bulk Modulus (GPa) = 85.91428 104.46995 95.19211
# Shear Modulus (GPa) = 109.43647 47.00346 78.21997
#
# Velocity S-wave (km/s) = 6.37216 4.17609 5.38721
# Velocity P-wave (km/s) = 9.27449 7.87494 8.60322
#
# Compressibility (1/GPa) = 0.01163951
#
# Stress axis : x y z
#
# Youngs Moduli (GPa) = 108.61285 280.16699 232.80466
#
# Poissons Ratio (x) = 0.12063 0.35132
# Poissons Ratio (y) = 0.04676 0.18078
# Poissons Ratio (z) = 0.16390 0.21755
#
# Static dielectric constant tensor:
#      x y z
#    x 2.420570 0.000000 0.245930 
#    y 0.000000 2.408470 0.000000 
#    z 0.245930 0.000000 2.318470 
# 
# From -- ./inp_files/14072.got.cif
#   From: 2010.05.17/outbox.cif.g08.bks.cpg/sg13_8_cif.got.tgz:14072.got - 2010.06.03 16:44:36.
