data_PCOD9232147
_publ_section_title
;
Structure prediction by ZEFSAII (Michael W. Deem and Ramdas Pophale) SiO2 
 PCOD9232147
Probable space group: P 2/C
;
_chemical_formula_sum "Si O2"
_cell_formula_units_Z 26
_cell_length_a 9.260941
_cell_length_b 8.733811
_cell_length_c 26.291337
_cell_angle_alpha 90.000000
_cell_angle_beta 42.606452
_cell_angle_gamma 90.000000
_cell_volume 1439.573532
_symmetry_space_group_name_H-M "P 2/C"
_symmetry_group_IT_number 13
_symmetry_cell_setting 'monoclinic'
loop_
_space_group_symop_operation_xyz
x,y,z
-x,y,1/2-z
-x,-y,-z
x,-y,1/2+z
loop_
_atom_site_type_symbol
_atom_site_label
_atom_site_fract_x
_atom_site_fract_y
_atom_site_fract_z
Si Si1 0.038498 0.515161 0.626258
Si Si2 0.392703 0.674539 0.975552
Si Si3 0.000000 0.567393 0.250000
Si Si4 0.277731 0.195663 0.033338
Si Si5 0.696590 0.698589 0.163877
Si Si6 0.065024 0.917316 0.035339
Si Si7 0.472596 0.369241 0.616941
O O1 0.242264 0.408510 0.557240
O O2 0.007419 0.523421 0.694841
O O3 0.092004 0.678436 0.588341
O O4 0.834548 0.433835 0.654926
O O5 0.571165 0.777651 0.956893
O O6 0.494417 0.536927 0.916833
O O7 0.235890 0.780716 0.983496
O O8 0.777276 0.658840 0.308218
O O9 0.174404 0.034314 0.046582
O O10 0.423929 0.247567 0.948140
O O11 0.500000 0.743488 0.250000
O O12 0.603657 0.639759 0.134834
O O13 0.856258 0.838353 0.112579
O O14 0.000000 0.000000 0.000000
#
# Coordination Sequence:
#
# PCOD9232147 Si02
#       7
#     4   4   2   4   4   4   4
#     4  10  21  34  64  87 114 146 201 245 295 344
#     4  10  21  38  59  89 111 154 198 246 287 343
#     4  12  18  36  60  96 110 146 192 254 302 346
#     4  11  20  40  59  88 115 156 197 244 287 347
#     4  11  23  39  58  90 118 157 191 248 300 350
#     4  11  24  38  59  83 121 161 199 232 287 362
#     4  11  21  36  65  86 118 144 201 246 296 348
#
# _framework density 18.060901999999999
#
# number of rings (size 3 to 8) (size 9 to 14) (size 15 to 20)
#    0.000    1.231    6.154    1.385    2.154    1.846 
#    0.000    2.308    0.000    1.846    0.000    0.000 
#    0.000    0.000    0.000    0.000    0.000    0.000 
#
# Total GULP energy -145101.272075 kJ/mol
# GULP energy per Si atom -5580.818157 kJ/mol
# Density = 1.801979 g / cm^3
# Si number density = 18.060902 Si / 1000 Ang^3
#
#
#
# Elastic Constant Matrix: (Units=GPa)
#
#
# Indices 1 2 3 4 5 6 
#
# 1 112.4099 40.2463 49.2399 0.0000 -9.8746 0.0000
# 2 40.2463 64.6934 37.6134 0.0000 -14.2599 0.0000
# 3 49.2399 37.6134 115.0766 0.0000 -15.0335 0.0000
# 4 0.0000 0.0000 0.0000 10.4410 0.0000 -5.4497
# 5 -9.8746 -14.2599 -15.0335 0.0000 32.8571 0.0000
# 6 0.0000 0.0000 0.0000 -5.4497 0.0000 25.0844
#
#
#
# Elastic Compliance Matrix: (Units=1/GPa)
#
#
# Indices 1 2 3 4 5 6 
#
# 1 0.012471 -0.005814 -0.003484 0.000000 -0.000369 0.000000
# 2 -0.005814 0.022883 -0.004172 0.000000 0.006275 0.000000
# 3 -0.003484 -0.004172 0.011881 0.000000 0.002578 0.000000
# 4 0.000000 0.000000 0.000000 0.108025 0.000000 0.023469
# 5 -0.000369 0.006275 0.002578 0.000000 0.034227 0.000000
# 6 0.000000 0.000000 0.000000 0.023469 0.000000 0.044964
#
#
# Mechanical properties :
#
#
# Convention : Reuss Voigt Hill
#
# Bulk Modulus (GPa) = 49.27271 60.70878 54.99075
# Shear Modulus (GPa) = 18.64568 24.68186 21.66377
#
# Velocity S-wave (km/s) = 3.21655 3.70075 3.46711
# Velocity P-wave (km/s) = 6.41370 7.20743 6.82212
#
# Compressibility (1/GPa) = 0.02029521
#
# Stress axis : x y z
#
# Youngs Moduli (GPa) = 80.18287 43.69969 84.16660
#
# Poissons Ratio (x) = 0.25408 0.29326
# Poissons Ratio (y) = 0.46621 0.35114
# Poissons Ratio (z) = 0.27938 0.18231
#
# Static dielectric constant tensor:
#      x y z
#    x 1.646610 0.000000 -0.011840 
#    y 0.000000 1.600520 0.000000 
#    z -0.011840 0.000000 1.608220 
# 
# From -- ./inp_files/63410.got.cif
#   From: 2010.05.17/outbox.cif.g08.bks.cpg/sg13_32_cif.got.tgz:63410.got - 2010.06.03 16:44:36.
