data_PCOD9232188
_publ_section_title
;
Structure prediction by ZEFSAII (Michael W. Deem and Ramdas Pophale) SiO2 
 PCOD9232188
Probable space group: P 2/C
;
_chemical_formula_sum "Si O2"
_cell_formula_units_Z 24
_cell_length_a 6.117843
_cell_length_b 12.334759
_cell_length_c 15.786163
_cell_angle_alpha 90.000000
_cell_angle_beta 58.460128
_cell_angle_gamma 90.000000
_cell_volume 1015.280436
_symmetry_space_group_name_H-M "P 2/C"
_symmetry_group_IT_number 13
_symmetry_cell_setting 'monoclinic'
loop_
_space_group_symop_operation_xyz
x,y,z
-x,y,1/2-z
-x,-y,-z
x,-y,1/2+z
loop_
_atom_site_type_symbol
_atom_site_label
_atom_site_fract_x
_atom_site_fract_y
_atom_site_fract_z
Si Si1 0.023318 0.944177 0.648282
Si Si2 0.293463 0.560547 0.631868
Si Si3 0.010382 0.271200 0.067962
Si Si4 0.500000 0.660197 0.750000
Si Si5 0.736524 0.837296 0.356573
Si Si6 0.500000 0.925689 0.250000
Si Si7 0.805559 0.366392 0.950310
O O1 0.090971 0.852205 0.567650
O O2 0.000000 0.898225 0.750000
O O3 0.748365 0.999474 0.689043
O O4 0.218762 0.044752 0.611306
O O5 0.321076 0.589844 0.724328
O O6 0.153234 0.449880 0.634527
O O7 0.594696 0.565193 0.545221
O O8 0.163887 0.655400 0.603224
O O9 0.705519 0.271586 0.154419
O O10 0.019192 0.326742 0.973679
O O11 0.527364 0.851165 0.326705
O O12 0.696778 0.743328 0.431464
O O13 0.000000 0.814791 0.250000
#
# Coordination Sequence:
#
# PCOD9232188 Si02
#       7
#     4   4   4   2   4   2   4
#     4   9  18  33  55  83 110 142 185 228 274 330
#     4  10  22  39  57  81 115 149 185 232 279 326
#     4  11  21  37  60  84 115 146 181 231 281 331
#     4  10  21  35  58  88 106 143 193 224 276 336
#     4   9  20  36  56  82 109 147 191 228 274 330
#     4   8  17  35  56  80 114 145 181 230 276 328
#     4  10  23  39  55  83 116 147 187 230 278 333
#
# _framework density 23.638788000000002
#
# number of rings (size 3 to 8) (size 9 to 14) (size 15 to 20)
#    0.000    2.667    0.000    2.500    0.000    9.333 
#    0.000    1.667    0.000    0.000    0.000    0.000 
#    0.000    0.000    0.000    0.000    0.000    0.000 
#
# Total GULP energy -133999.412914 kJ/mol
# GULP energy per Si atom -5583.308871 kJ/mol
# Density = 2.358499 g / cm^3
# Si number density = 23.638788 Si / 1000 Ang^3
#
#
#
# Elastic Constant Matrix: (Units=GPa)
#
#
# Indices 1 2 3 4 5 6 
#
# 1 107.6869 36.7721 25.1184 0.0000 47.0480 0.0000
# 2 36.7721 130.8183 30.0523 0.0000 38.3381 0.0000
# 3 25.1184 30.0523 58.1412 0.0000 16.8372 0.0000
# 4 0.0000 0.0000 0.0000 28.8672 0.0000 12.7960
# 5 47.0480 38.3381 16.8372 0.0000 49.0866 0.0000
# 6 0.0000 0.0000 0.0000 12.7960 0.0000 17.0613
#
#
#
# Elastic Compliance Matrix: (Units=1/GPa)
#
#
# Indices 1 2 3 4 5 6 
#
# 1 0.016403 0.000494 -0.002972 0.000000 -0.015087 0.000000
# 2 0.000494 0.010495 -0.003472 0.000000 -0.007479 0.000000
# 3 -0.002972 -0.003472 0.020727 0.000000 -0.001549 0.000000
# 4 0.000000 0.000000 0.000000 0.051894 0.000000 -0.038920
# 5 -0.015087 -0.007479 -0.001549 0.000000 0.041206 0.000000
# 6 0.000000 0.000000 0.000000 -0.038920 0.000000 0.087802
#
#
# Mechanical properties :
#
#
# Convention : Reuss Voigt Hill
#
# Bulk Modulus (GPa) = 27.99322 53.39245 40.69283
# Shear Modulus (GPa) = 19.81495 32.64993 26.23244
#
# Velocity S-wave (km/s) = 2.89838 3.72048 3.33486
# Velocity P-wave (km/s) = 4.80297 6.41029 5.66394
#
# Compressibility (1/GPa) = 0.03572294
#
# Stress axis : x y z
#
# Youngs Moduli (GPa) = 60.96622 95.28450 48.24670
#
# Poissons Ratio (x) = -0.04705 0.14340
# Poissons Ratio (y) = -0.03010 0.16752
# Poissons Ratio (z) = 0.18121 0.33084
#
# Static dielectric constant tensor:
#      x y z
#    x 1.907350 0.000000 -0.019220 
#    y 0.000000 1.869490 0.000000 
#    z -0.019220 0.000000 2.045120 
# 
# From -- ./inp_files/61067.got.cif
#   From: 2010.05.17/outbox.cif.g08.bks.cpg/sg13_31_cif.got.tgz:61067.got - 2010.06.03 16:44:36.
