data_PCOD9232518
_publ_section_title
;
Structure prediction by ZEFSAII (Michael W. Deem and Ramdas Pophale) SiO2 
 PCOD9232518
Probable space group: P 2/C
;
_chemical_formula_sum "Si O2"
_cell_formula_units_Z 32
_cell_length_a 22.440664
_cell_length_b 9.078846
_cell_length_c 23.916317
_cell_angle_alpha 90.000000
_cell_angle_beta 161.678738
_cell_angle_gamma 90.000000
_cell_volume 1531.675892
_symmetry_space_group_name_H-M "P 2/C"
_symmetry_group_IT_number 13
_symmetry_cell_setting 'monoclinic'
loop_
_space_group_symop_operation_xyz
x,y,z
-x,y,1/2-z
-x,-y,-z
x,-y,1/2+z
loop_
_atom_site_type_symbol
_atom_site_label
_atom_site_fract_x
_atom_site_fract_y
_atom_site_fract_z
Si Si1 0.223244 0.927928 0.448560
Si Si2 0.663545 0.878659 0.633267
Si Si3 0.456415 0.696047 0.879376
Si Si4 0.323943 0.253636 0.556038
Si Si5 0.646756 0.604070 0.537422
Si Si6 0.244119 0.266887 0.076713
Si Si7 0.828118 0.147510 0.723921
Si Si8 0.954123 0.535578 0.646273
O O1 0.327307 0.082491 0.544874
O O2 0.000000 0.962550 0.250000
O O3 0.278225 0.828202 0.550683
O O4 0.234434 0.861519 0.396948
O O5 0.697101 0.782894 0.719203
O O6 0.620128 0.750976 0.549786
O O7 0.500000 0.000000 0.500000
O O8 0.820524 0.987470 0.746345
O O9 0.396716 0.736813 0.762372
O O10 0.490393 0.520332 0.910428
O O11 0.651882 0.749883 0.084253
O O12 0.500000 0.290152 0.750000
O O13 0.349851 0.347248 0.523664
O O14 0.133662 0.304459 0.418744
O O15 0.863725 0.541000 0.731927
O O16 0.205729 0.432814 0.022387
O O17 0.038125 0.211153 0.914912
O O18 0.000000 0.473059 0.750000
#
# Coordination Sequence:
#
# PCOD9232518 Si02
#       8
#     4   4   4   4   4   4   4   4
#     4  10  21  37  60  89 126 167 205 252 332 384
#     4  10  23  42  68  89 122 170 225 263 326 373
#     4  11  24  40  65  92 121 171 217 267 319 374
#     4  11  23  35  59  97 130 166 206 264 324 397
#     4  11  21  42  67  87 129 172 215 265 326 381
#     4  11  23  38  63  95 129 162 210 265 322 394
#     4  10  21  42  62  89 126 166 208 266 319 386
#     4  10  21  39  60  91 128 168 205 252 329 392
#
# _framework density 20.892147999999999
#
# number of rings (size 3 to 8) (size 9 to 14) (size 15 to 20)
#    0.000    1.500    2.500    3.375    5.250    0.500 
#    0.000    0.625    5.500    0.000    0.000    0.000 
#    0.000    0.000    0.000    0.000    0.000    0.000 
#
# Total GULP energy -178210.601885 kJ/mol
# GULP energy per Si atom -5569.081309 kJ/mol
# Density = 2.084460 g / cm^3
# Si number density = 20.892148 Si / 1000 Ang^3
#
#
#
# Elastic Constant Matrix: (Units=GPa)
#
#
# Indices 1 2 3 4 5 6 
#
# 1 48.4799 3.6833 17.9893 0.0000 -4.1410 0.0000
# 2 3.6833 82.9169 23.8427 0.0000 0.6975 0.0000
# 3 17.9893 23.8427 50.9266 0.0000 6.1277 0.0000
# 4 0.0000 0.0000 0.0000 -875.5642 0.0000 379.8960
# 5 -4.1410 0.6975 6.1277 0.0000 16.0432 0.0000
# 6 0.0000 0.0000 0.0000 379.8960 0.0000 -131.8757
#
#
#
# Elastic Compliance Matrix: (Units=1/GPa)
#
#
# Indices 1 2 3 4 5 6 
#
# 1 0.025586 0.002017 -0.011285 0.000000 0.010827 0.000000
# 2 0.002017 0.014156 -0.007682 0.000000 0.002839 0.000000
# 3 -0.011285 -0.007682 0.028855 0.000000 -0.013600 0.000000
# 4 0.000000 0.000000 0.000000 0.004570 0.000000 0.013166
# 5 0.010827 0.002839 -0.013600 0.000000 0.070197 0.000000
# 6 0.000000 0.000000 0.000000 0.013166 0.000000 0.030343
#
#
# Mechanical properties :
#
#
# Convention : Reuss Voigt Hill
#
# Bulk Modulus (GPa) = 28.82000 30.37269 29.59634
# Shear Modulus (GPa) = 22.81300 -189.15881 -83.17291
#
# Velocity S-wave (km/s) = 3.30804 -9.52561 -6.31641
# Velocity P-wave (km/s) = 5.33061 10.31569 6.24492
#
# Compressibility (1/GPa) = 0.03469812
#
# Stress axis : x y z
#
# Youngs Moduli (GPa) = 39.08352 70.64330 34.65558
#
# Poissons Ratio (x) = -0.14252 0.39110
# Poissons Ratio (y) = -0.07885 0.26621
# Poissons Ratio (z) = 0.44107 0.54266
#
# Static dielectric constant tensor:
#      x y z
#    x 1.877360 0.000000 0.094940 
#    y 0.000000 1.802220 0.000000 
#    z 0.094940 0.000000 1.782470 
# 
# From -- ./inp_files/88963.got.cif
#   From: 2010.05.17/outbox.cif.g08.bks.cpg/sg13_45_cif.got.tgz:88963.got - 2010.06.03 16:44:36.
