data_PCOD9232084
_publ_section_title
;
Structure prediction by ZEFSAII (Michael W. Deem and Ramdas Pophale) SiO2 
 PCOD9232084
Probable space group: P 2/C
;
_chemical_formula_sum "Si O2"
_cell_formula_units_Z 24
_cell_length_a 22.165370
_cell_length_b 7.130554
_cell_length_c 8.659748
_cell_angle_alpha 90.000000
_cell_angle_beta 134.945707
_cell_angle_gamma 90.000000
_cell_volume 968.723106
_symmetry_space_group_name_H-M "P 2/C"
_symmetry_group_IT_number 13
_symmetry_cell_setting 'monoclinic'
loop_
_space_group_symop_operation_xyz
x,y,z
-x,y,1/2-z
-x,-y,-z
x,-y,1/2+z
loop_
_atom_site_type_symbol
_atom_site_label
_atom_site_fract_x
_atom_site_fract_y
_atom_site_fract_z
Si Si1 0.082670 0.717793 0.456568
Si Si2 0.450875 0.205194 0.001389
Si Si3 0.916764 0.099866 0.197728
Si Si4 0.268405 0.230367 0.701950
Si Si5 0.261762 0.573096 0.863536
Si Si6 0.572476 0.642188 0.506022
O O1 0.078646 0.819191 0.619287
O O2 0.170022 0.605254 0.620927
O O3 0.000000 0.602098 0.250000
O O4 0.083516 0.874802 0.323342
O O5 0.356125 0.118335 0.832435
O O6 0.529976 0.191156 0.026935
O O7 0.500000 0.181819 0.250000
O O8 0.424322 0.428377 0.922118
O O9 0.000000 0.160921 0.250000
O O10 0.824691 0.141851 0.955369
O O11 0.283923 0.354970 0.882657
O O12 0.257673 0.358534 0.529877
O O13 0.336714 0.679714 0.907427
O O14 0.500000 0.616399 0.250000
#
# Coordination Sequence:
#
# PCOD9232084 Si02
#       6
#     4   4   4   4   4   4
#     4  10  21  39  58  79 103 136 179 215 261 319
#     4   9  17  28  45  74 105 140 173 210 251 306
#     4  10  21  39  59  78 102 138 177 217 261 317
#     4  10  21  34  52  81 112 136 174 218 262 307
#     4  10  21  33  53  82 109 139 173 217 263 306
#     4   9  15  28  47  70 105 139 173 206 253 304
#
# _framework density 24.77488
#
# number of rings (size 3 to 8) (size 9 to 14) (size 15 to 20)
#    0.000    2.333    1.667    2.000    7.000    3.333 
#    0.000    3.333    0.000    2.000    0.000    0.000 
#    0.000    0.000    0.000    0.000    0.000    0.000 
#
# Total GULP energy -133746.054043 kJ/mol
# GULP energy per Si atom -5572.752252 kJ/mol
# Density = 2.471849 g / cm^3
# Si number density = 24.774880 Si / 1000 Ang^3
#
#
#
# Elastic Constant Matrix: (Units=GPa)
#
#
# Indices 1 2 3 4 5 6 
#
# 1 121.5659 8.4741 40.2124 0.0000 38.6438 0.0000
# 2 8.4741 30.3405 -1.9305 0.0000 10.6642 0.0000
# 3 40.2124 -1.9305 116.9807 0.0000 51.8598 0.0000
# 4 0.0000 0.0000 0.0000 48.1456 0.0000 -9.1444
# 5 38.6438 10.6642 51.8598 0.0000 53.0154 0.0000
# 6 0.0000 0.0000 0.0000 -9.1444 0.0000 49.7050
#
#
#
# Elastic Compliance Matrix: (Units=1/GPa)
#
#
# Indices 1 2 3 4 5 6 
#
# 1 0.010723 -0.000477 -0.000479 0.000000 -0.007251 0.000000
# 2 -0.000477 0.038648 0.007229 0.000000 -0.014498 0.000000
# 3 -0.000479 0.007229 0.016460 0.000000 -0.017206 0.000000
# 4 0.000000 0.000000 0.000000 0.021522 0.000000 0.003960
# 5 -0.007251 -0.014498 -0.017206 0.000000 0.043896 0.000000
# 6 0.000000 0.000000 0.000000 0.003960 0.000000 0.020847
#
#
# Mechanical properties :
#
#
# Convention : Reuss Voigt Hill
#
# Bulk Modulus (GPa) = 12.75869 40.26657 26.51263
# Shear Modulus (GPa) = 30.17931 44.98194 37.58063
#
# Velocity S-wave (km/s) = 3.49397 4.26564 3.89895
# Velocity P-wave (km/s) = 4.63014 6.36782 5.56720
#
# Compressibility (1/GPa) = 0.07837797
#
# Stress axis : x y z
#
# Youngs Moduli (GPa) = 93.25889 25.87438 60.75200
#
# Poissons Ratio (x) = 0.01233 0.02911
# Poissons Ratio (y) = 0.04445 -0.43918
# Poissons Ratio (z) = 0.04468 -0.18705
#
# Static dielectric constant tensor:
#      x y z
#    x 2.124770 0.000000 0.020350 
#    y 0.000000 2.067730 0.000000 
#    z 0.020350 0.000000 1.976170 
# 
# From -- ./inp_files/22824.got.cif
#   From: 2010.05.17/outbox.cif.g08.bks.cpg/sg13_12_cif.got.tgz:22824.got - 2010.06.03 16:44:36.
