data_PCOD9232246
_publ_section_title
;
Structure prediction by ZEFSAII (Michael W. Deem and Ramdas Pophale) SiO2 
 PCOD9232246
Probable space group: P 2/C
;
_chemical_formula_sum "Si O2"
_cell_formula_units_Z 32
_cell_length_a 14.549387
_cell_length_b 19.593716
_cell_length_c 5.199763
_cell_angle_alpha 90.000000
_cell_angle_beta 94.430026
_cell_angle_gamma 90.000000
_cell_volume 1477.901937
_symmetry_space_group_name_H-M "P 2/C"
_symmetry_group_IT_number 13
_symmetry_cell_setting 'monoclinic'
loop_
_space_group_symop_operation_xyz
x,y,z
-x,y,1/2-z
-x,-y,-z
x,-y,1/2+z
loop_
_atom_site_type_symbol
_atom_site_label
_atom_site_fract_x
_atom_site_fract_y
_atom_site_fract_z
Si Si1 0.610193 0.043030 0.761865
Si Si2 0.150887 0.325108 0.067033
Si Si3 0.150102 0.821024 0.673813
Si Si4 0.102768 0.029957 0.045356
Si Si5 0.727308 0.325180 0.905969
Si Si6 0.727787 0.177639 0.800391
Si Si7 0.103031 0.472197 0.209877
Si Si8 0.389838 0.457623 0.740280
O O1 0.500000 0.054755 0.750000
O O2 0.662711 0.113364 0.820391
O O3 0.632559 0.011295 0.489394
O O4 0.102842 0.252229 0.111325
O O5 0.233393 0.326800 0.296020
O O6 0.097684 0.394613 0.116287
O O7 0.189293 0.327377 0.785558
O O8 0.096652 0.890256 0.599787
O O9 0.232299 0.821637 0.480184
O O10 0.189509 0.825545 0.970911
O O11 0.149775 0.010510 0.788115
O O12 0.000000 0.000000 0.000000
O O13 0.682395 0.251089 0.847195
O O14 0.661669 0.387859 0.833252
O O15 0.149435 0.483286 0.496533
O O16 0.000000 0.498403 0.250000
O O17 0.500000 0.446886 0.750000
O O18 0.366938 0.513416 0.516608
#
# Coordination Sequence:
#
# PCOD9232246 Si02
#       8
#     4   4   4   4   4   4   4   4
#     4  10  21  36  54  80 110 139 182 229 271 327
#     4  10  21  37  56  82 110 143 182 228 275 323
#     4  10  21  37  56  80 112 141 182 224 270 327
#     4  10  21  37  56  79 110 140 176 226 265 317
#     4  10  21  36  56  81 112 142 188 227 268 328
#     4  10  21  36  56  81 108 146 181 225 274 326
#     4  10  21  37  57  81 110 139 179 224 271 329
#     4  10  21  36  54  80 114 149 187 229 276 329
#
# _framework density 21.652317
#
# number of rings (size 3 to 8) (size 9 to 14) (size 15 to 20)
#    0.000    2.000    0.000    3.000    0.000    6.500 
#    2.250    0.000    5.500    9.000    0.000    0.000 
#    0.000    0.000    0.000    0.000    0.000    0.000 
#
# Total GULP energy -178791.764817 kJ/mol
# GULP energy per Si atom -5587.242651 kJ/mol
# Density = 2.160304 g / cm^3
# Si number density = 21.652317 Si / 1000 Ang^3
#
#
#
# Elastic Constant Matrix: (Units=GPa)
#
#
# Indices 1 2 3 4 5 6 
#
# 1 34.1956 15.9044 -9.0946 0.0000 4.1628 0.0000
# 2 15.9044 164.3751 3.9918 0.0000 9.4034 0.0000
# 3 -9.0946 3.9918 117.2297 0.0000 -2.4313 0.0000
# 4 0.0000 0.0000 0.0000 22.8706 0.0000 -32.0698
# 5 4.1628 9.4034 -2.4313 0.0000 12.2258 0.0000
# 6 0.0000 0.0000 0.0000 -32.0698 0.0000 -88.7022
#
#
#
# Elastic Compliance Matrix: (Units=1/GPa)
#
#
# Indices 1 2 3 4 5 6 
#
# 1 0.032159 -0.002690 0.002412 0.000000 -0.008401 0.000000
# 2 -0.002690 0.006601 -0.000522 0.000000 -0.004265 0.000000
# 3 0.002412 -0.000522 0.008763 0.000000 0.001323 0.000000
# 4 0.000000 0.000000 0.000000 0.029015 0.000000 -0.010490
# 5 -0.008401 -0.004265 0.001323 0.000000 0.088198 0.000000
# 6 0.000000 0.000000 0.000000 -0.010490 0.000000 -0.007481
#
#
# Mechanical properties :
#
#
# Convention : Reuss Voigt Hill
#
# Bulk Modulus (GPa) = 21.77535 37.48929 29.63232
# Shear Modulus (GPa) = 28.70929 9.61209 19.16069
#
# Velocity S-wave (km/s) = 3.64527 2.10925 2.97800
# Velocity P-wave (km/s) = 5.27219 4.82532 5.05370
#
# Compressibility (1/GPa) = 0.04592348
#
# Stress axis : x y z
#
# Youngs Moduli (GPa) = 31.09573 151.50318 114.12139
#
# Poissons Ratio (x) = 0.40747 -0.27528
# Poissons Ratio (y) = 0.08363 0.05956
# Poissons Ratio (z) = -0.07501 0.07906
#
# Static dielectric constant tensor:
#      x y z
#    x 1.677700 0.000000 0.029160 
#    y 0.000000 1.790890 0.000000 
#    z 0.029160 0.000000 1.884540 
# 
# From -- ./inp_files/5361.got.cif
#   From: 2010.05.17/outbox.cif.g08.bks.cpg/sg13_3_cif.got.tgz:5361.got - 2010.06.03 16:44:36.
