data_PCOD9232759
_publ_section_title
;
Structure prediction by ZEFSAII (Michael W. Deem and Ramdas Pophale) SiO2 
 PCOD9232759
Probable space group: P 2/C
;
_chemical_formula_sum "Si O2"
_cell_formula_units_Z 28
_cell_length_a 20.918975
_cell_length_b 7.370373
_cell_length_c 8.460723
_cell_angle_alpha 90.000000
_cell_angle_beta 91.706845
_cell_angle_gamma 90.000000
_cell_volume 1303.900973
_symmetry_space_group_name_H-M "P 2/C"
_symmetry_group_IT_number 13
_symmetry_cell_setting 'monoclinic'
loop_
_space_group_symop_operation_xyz
x,y,z
-x,y,1/2-z
-x,-y,-z
x,-y,1/2+z
loop_
_atom_site_type_symbol
_atom_site_label
_atom_site_fract_x
_atom_site_fract_y
_atom_site_fract_z
Si Si1 0.543947 0.883034 0.383336
Si Si2 0.183481 0.618041 0.417875
Si Si3 0.366056 0.909602 0.853021
Si Si4 0.075869 0.148013 0.387393
Si Si5 0.204192 0.258758 0.566206
Si Si6 0.056636 0.759221 0.523152
Si Si7 0.719964 0.894202 0.926068
O O1 0.500000 0.778857 0.250000
O O2 0.596154 0.798326 0.508336
O O3 0.500000 0.000000 0.500000
O O4 0.584019 0.016110 0.272348
O O5 0.219358 0.432414 0.460820
O O6 0.186461 0.664145 0.235286
O O7 0.108925 0.618083 0.463764
O O8 0.220960 0.774597 0.514367
O O9 0.310966 0.825141 0.739175
O O10 0.333265 0.080401 0.941240
O O11 0.142355 0.175314 0.478164
O O12 0.078824 0.189482 0.202367
O O13 0.019179 0.269674 0.459969
O O14 0.059695 0.936362 0.411572
O O15 0.255625 0.101017 0.592061
#
# Coordination Sequence:
#
# PCOD9232759 Si02
#       7
#     4   4   4   4   4   4   4
#     4   8  14  28  52  90 131 156 196 251 287 338
#     4  12  26  40  61  86 117 161 205 257 315 367
#     4   9  18  31  56  84 123 172 192 243 303 338
#     4  10  21  38  61  86 113 149 199 256 317 377
#     4  12  26  40  61  86 117 161 205 258 313 369
#     4  10  21  38  61  86 113 149 199 256 317 378
#     4  11  22  39  57  84 125 162 207 245 296 364
#
# _framework density 21.474024
#
# number of rings (size 3 to 8) (size 9 to 14) (size 15 to 20)
#    0.000    1.714    2.857    1.714    4.000    2.286 
#    0.000    0.000    0.000    0.000    0.000    0.000 
#    0.000  288.000    0.000    0.000    0.000    0.000 
#
# Total GULP energy -156162.265848 kJ/mol
# GULP energy per Si atom -5577.223780 kJ/mol
# Density = 2.142515 g / cm^3
# Si number density = 21.474024 Si / 1000 Ang^3
#
#
#
# Elastic Constant Matrix: (Units=GPa)
#
#
# Indices 1 2 3 4 5 6 
#
# 1 81.0293 19.2810 42.9305 0.0000 5.6447 0.0000
# 2 19.2810 49.3575 6.5225 0.0000 -7.2806 0.0000
# 3 42.9305 6.5225 113.0473 0.0000 11.5276 0.0000
# 4 0.0000 0.0000 0.0000 14.9869 0.0000 -0.8968
# 5 5.6447 -7.2806 11.5276 0.0000 45.7748 0.0000
# 6 0.0000 0.0000 0.0000 -0.8968 0.0000 -0.0173
#
#
#
# Elastic Compliance Matrix: (Units=1/GPa)
#
#
# Indices 1 2 3 4 5 6 
#
# 1 0.017067 -0.006110 -0.005968 0.000000 -0.001573 0.000000
# 2 -0.006110 0.023211 0.000542 0.000000 0.004309 0.000000
# 3 -0.005968 0.000542 0.011287 0.000000 -0.002020 0.000000
# 4 0.000000 0.000000 0.000000 0.016247 0.000000 -0.843525
# 5 -0.001573 0.004309 -0.002020 0.000000 0.023234 0.000000
# 6 0.000000 0.000000 0.000000 -0.843525 0.000000-14.095971
#
#
# Mechanical properties :
#
#
# Convention : Reuss Voigt Hill
#
# Bulk Modulus (GPa) = 35.09799 42.32246 38.71023
# Shear Modulus (GPa) = -0.35785 23.79556 11.71885
#
# Velocity S-wave (km/s) = -0.40866 3.33244 2.33860
# Velocity P-wave (km/s) = 4.01960 5.87863 5.03565
#
# Compressibility (1/GPa) = 0.02849166
#
# Stress axis : x y z
#
# Youngs Moduli (GPa) = 58.59309 43.08247 88.59684
#
# Poissons Ratio (x) = 0.26325 0.52877
# Poissons Ratio (y) = 0.35803 -0.04801
# Poissons Ratio (z) = 0.34970 -0.02334
#
# Static dielectric constant tensor:
#      x y z
#    x 1.855690 0.000000 0.011330 
#    y 0.000000 1.766550 0.000000 
#    z 0.011330 0.000000 1.790760 
# 
# From -- ./inp_files/22549.got.cif
#   From: 2010.05.17/outbox.cif.g08.bks.cpg/sg13_12_cif.got.tgz:22549.got - 2010.06.03 16:44:36.
