data_PCOD9232991
_publ_section_title
;
Structure prediction by ZEFSAII (Michael W. Deem and Ramdas Pophale) SiO2 
 PCOD9232991
Probable space group: P 2/C
;
_chemical_formula_sum "Si O2"
_cell_formula_units_Z 26
_cell_length_a 19.611595
_cell_length_b 11.890943
_cell_length_c 12.627998
_cell_angle_alpha 90.000000
_cell_angle_beta 155.572013
_cell_angle_gamma 90.000000
_cell_volume 1217.841927
_symmetry_space_group_name_H-M "P 2/C"
_symmetry_group_IT_number 13
_symmetry_cell_setting 'monoclinic'
loop_
_space_group_symop_operation_xyz
x,y,z
-x,y,1/2-z
-x,-y,-z
x,-y,1/2+z
loop_
_atom_site_type_symbol
_atom_site_label
_atom_site_fract_x
_atom_site_fract_y
_atom_site_fract_z
Si Si1 0.087905 0.397787 0.563007
Si Si2 0.361066 0.920434 0.743099
Si Si3 0.674158 0.215700 0.118924
Si Si4 0.710555 0.852442 0.438140
Si Si5 0.335837 0.308518 0.077398
Si Si6 0.679069 0.552014 0.738418
Si Si7 0.000000 0.259333 0.250000
O O1 0.212428 0.454375 0.655824
O O2 0.000000 0.500000 0.500000
O O3 0.977064 0.329830 0.324444
O O4 0.187568 0.315086 0.782923
O O5 0.258130 0.866145 0.693650
O O6 0.391013 0.809147 0.712317
O O7 0.283947 0.012870 0.558016
O O8 0.500000 0.000000 0.000000
O O9 0.692876 0.344840 0.176042
O O10 0.476024 0.193059 0.842097
O O11 0.746499 0.185356 0.108397
O O12 0.832374 0.812560 0.517414
O O13 0.500000 0.351382 0.250000
O O14 0.278424 0.392994 0.088808
O O15 0.500000 0.500000 0.500000
#
# Coordination Sequence:
#
# PCOD9232991 Si02
#       7
#     4   4   4   4   4   4   2
#     4  12  26  44  65  95 142 185 220 279 344 403
#     4   9  21  38  66  96 129 162 219 286 336 387
#     4   9  20  37  62  91 121 159 219 271 325 384
#     4  10  21  39  61  91 123 169 208 270 332 392
#     4  11  24  40  69 105 128 176 236 282 333 412
#     4  11  21  40  63  96 128 165 223 277 327 393
#     4  12  26  42  62  94 136 176 222 264 342 418
#
# _framework density 21.349240999999999
#
# number of rings (size 3 to 8) (size 9 to 14) (size 15 to 20)
#    0.000    1.538    1.538    2.769    8.615    2.462 
#    0.000    6.154    0.000    0.000    0.000    0.000 
#    0.000    0.000    0.000    0.000    0.000    0.000 
#
# Total GULP energy -144833.653624 kJ/mol
# GULP energy per Si atom -5570.525139 kJ/mol
# Density = 2.130065 g / cm^3
# Si number density = 21.349241 Si / 1000 Ang^3
#
#
#
# Elastic Constant Matrix: (Units=GPa)
#
#
# Indices 1 2 3 4 5 6 
#
# 1 111.1387 26.1009 19.1741 0.0000 -6.4355 0.0000
# 2 26.1009 81.4565 11.2954 0.0000 -12.2036 0.0000
# 3 19.1741 11.2954 35.4270 0.0000 -12.3911 0.0000
# 4 0.0000 0.0000 0.0000 22.6357 0.0000 -5.9845
# 5 -6.4355 -12.2036 -12.3911 0.0000 40.9868 0.0000
# 6 0.0000 0.0000 0.0000 -5.9845 0.0000 14.0823
#
#
#
# Elastic Compliance Matrix: (Units=1/GPa)
#
#
# Indices 1 2 3 4 5 6 
#
# 1 0.010474 -0.002763 -0.005033 0.000000 -0.000700 0.000000
# 2 -0.002763 0.013887 -0.001831 0.000000 0.003147 0.000000
# 3 -0.005033 -0.001831 0.034741 0.000000 0.009167 0.000000
# 4 0.000000 0.000000 0.000000 0.049770 0.000000 0.021150
# 5 -0.000700 0.003147 0.009167 0.000000 0.027997 0.000000
# 6 0.000000 0.000000 0.000000 0.021150 0.000000 0.079999
#
#
# Mechanical properties :
#
#
# Convention : Reuss Voigt Hill
#
# Bulk Modulus (GPa) = 25.09514 37.90700 31.50107
# Shear Modulus (GPa) = 20.04756 26.97109 23.50933
#
# Velocity S-wave (km/s) = 3.06768 3.55819 3.32200
# Velocity P-wave (km/s) = 4.93231 5.88856 5.43152
#
# Compressibility (1/GPa) = 0.03984836
#
# Stress axis : x y z
#
# Youngs Moduli (GPa) = 95.47013 72.00770 28.78416
#
# Poissons Ratio (x) = 0.19897 0.14486
# Poissons Ratio (y) = 0.26381 0.05272
# Poissons Ratio (z) = 0.48048 0.13188
#
# Static dielectric constant tensor:
#      x y z
#    x 1.768720 0.000000 -0.024210 
#    y 0.000000 1.417860 0.000000 
#    z -0.024210 0.000000 1.848400 
# 
# From -- ./inp_files/33969.got.cif
#   From: 2010.05.17/outbox.cif.g08.bks.cpg/sg13_17_cif.got.tgz:33969.got - 2010.06.03 16:44:36.
