data_PCOD9232047
_publ_section_title
;
Structure prediction by ZEFSAII (Michael W. Deem and Ramdas Pophale) SiO2 
 PCOD9232047
Probable space group: P 2/C
;
_chemical_formula_sum "Si O2"
_cell_formula_units_Z 18
_cell_length_a 21.779411
_cell_length_b 4.949846
_cell_length_c 9.284972
_cell_angle_alpha 90.000000
_cell_angle_beta 139.650327
_cell_angle_gamma 90.000000
_cell_volume 648.074817
_symmetry_space_group_name_H-M "P 2/C"
_symmetry_group_IT_number 13
_symmetry_cell_setting 'monoclinic'
loop_
_space_group_symop_operation_xyz
x,y,z
-x,y,1/2-z
-x,-y,-z
x,-y,1/2+z
loop_
_atom_site_type_symbol
_atom_site_label
_atom_site_fract_x
_atom_site_fract_y
_atom_site_fract_z
Si Si1 0.880772 0.724725 0.303896
Si Si2 0.732852 0.948566 0.685499
Si Si3 0.000000 0.613867 0.250000
Si Si4 0.707762 0.453326 0.835899
Si Si5 0.442149 0.804072 0.789990
O O1 0.941125 0.777226 0.266355
O O2 0.937168 0.577037 0.532688
O O3 0.794213 0.538746 0.092883
O O4 0.831202 0.985570 0.283557
O O5 0.719790 0.653908 0.722833
O O6 0.646081 0.022343 0.427805
O O7 0.721918 0.157775 0.798141
O O8 0.607356 0.546636 0.722835
O O9 0.500000 0.726350 0.750000
O O10 0.500000 0.000000 0.000000
#
# Coordination Sequence:
#
# PCOD9232047 Si02
#       5
#     4   4   2   4   4
#     4  10  22  43  78 106 152 190 245 302 369 431
#     4  11  25  49  76 107 148 194 245 301 369 436
#     4  10  20  46  74 114 148 190 250 302 362 444
#     4  11  25  49  75 108 147 196 244 301 369 435
#     4  11  24  49  71 111 145 193 244 306 361 436
#
# _framework density 27.774573
#
# number of rings (size 3 to 8) (size 9 to 14) (size 15 to 20)
#    0.000    1.333    4.444    0.000    0.000    8.000 
#    4.000    3.333    0.000    0.000    0.000    0.000 
#    0.000    0.000    0.000    0.000    0.000    0.000 
#
# Total GULP energy -101183.117691 kJ/mol
# GULP energy per Si atom -5621.284316 kJ/mol
# Density = 2.771136 g / cm^3
# Si number density = 27.774573 Si / 1000 Ang^3
#
#
#
# Elastic Constant Matrix: (Units=GPa)
#
#
# Indices 1 2 3 4 5 6 
#
# 1 319.3729 46.1519 43.0051 0.0000 -9.4176 0.0000
# 2 46.1519 42.8898 -0.5088 0.0000 -13.0241 0.0000
# 3 43.0051 -0.5088 142.8733 0.0000 -1.6462 0.0000
# 4 0.0000 0.0000 0.0000 42.3266 0.0000 -12.2143
# 5 -9.4176 -13.0241 -1.6462 0.0000 43.4451 0.0000
# 6 0.0000 0.0000 0.0000 -12.2143 0.0000 43.7480
#
#
#
# Elastic Compliance Matrix: (Units=1/GPa)
#
#
# Indices 1 2 3 4 5 6 
#
# 1 0.003910 -0.004376 -0.001198 0.000000 -0.000510 0.000000
# 2 -0.004376 0.030554 0.001521 0.000000 0.008268 0.000000
# 3 -0.001198 0.001521 0.007371 0.000000 0.000476 0.000000
# 4 0.000000 0.000000 0.000000 0.025696 0.000000 0.007174
# 5 -0.000510 0.008268 0.000476 0.000000 0.025404 0.000000
# 6 0.000000 0.000000 0.000000 0.007174 0.000000 0.024861
#
#
# Mechanical properties :
#
#
# Convention : Reuss Voigt Hill
#
# Bulk Modulus (GPa) = 29.64923 75.82582 52.73752
# Shear Modulus (GPa) = 36.45791 53.66978 45.06385
#
# Velocity S-wave (km/s) = 3.62696 4.40060 4.03238
# Velocity P-wave (km/s) = 5.31394 7.29247 6.38036
#
# Compressibility (1/GPa) = 0.03372769
#
# Stress axis : x y z
#
# Youngs Moduli (GPa) = 255.76301 32.72944 135.67032
#
# Poissons Ratio (x) = 0.14323 0.16258
# Poissons Ratio (y) = 1.11929 -0.20640
# Poissons Ratio (z) = 0.30649 -0.04979
#
# Static dielectric constant tensor:
#      x y z
#    x 2.204920 0.000000 0.029420 
#    y 0.000000 2.123140 0.000000 
#    z 0.029420 0.000000 2.159120 
# 
# From -- ./inp_files/22464.got.cif
#   From: 2010.05.17/outbox.cif.g08.bks.cpg/sg13_12_cif.got.tgz:22464.got - 2010.06.03 16:44:36.
