data_PCOD9232379
_publ_section_title
;
Structure prediction by ZEFSAII (Michael W. Deem and Ramdas Pophale) SiO2 
 PCOD9232379
Probable space group: P 2/C
;
_chemical_formula_sum "Si O2"
_cell_formula_units_Z 26
_cell_length_a 11.043842
_cell_length_b 13.937404
_cell_length_c 8.742100
_cell_angle_alpha 90.000000
_cell_angle_beta 97.784740
_cell_angle_gamma 90.000000
_cell_volume 1333.204611
_symmetry_space_group_name_H-M "P 2/C"
_symmetry_group_IT_number 13
_symmetry_cell_setting 'monoclinic'
loop_
_space_group_symop_operation_xyz
x,y,z
-x,y,1/2-z
-x,-y,-z
x,-y,1/2+z
loop_
_atom_site_type_symbol
_atom_site_label
_atom_site_fract_x
_atom_site_fract_y
_atom_site_fract_z
Si Si1 0.000000 0.940809 0.250000
Si Si2 0.827110 0.956966 0.467502
Si Si3 0.252330 0.867491 0.759897
Si Si4 0.413361 0.415671 0.042661
Si Si5 0.747318 0.468842 0.748934
Si Si6 0.090590 0.582672 0.959161
Si Si7 0.000000 0.250289 0.250000
Si Si8 0.500000 0.249334 0.250000
O O1 0.902131 0.895983 0.352042
O O2 0.079484 0.002278 0.385807
O O3 0.734794 0.901142 0.560992
O O4 0.768219 0.044387 0.362028
O O5 0.374314 0.809755 0.738942
O O6 0.123968 0.808377 0.736842
O O7 0.343223 0.459905 0.176483
O O8 0.483442 0.320763 0.102983
O O9 0.500000 0.500000 0.000000
O O10 0.317934 0.404065 0.888810
O O11 0.839862 0.537835 0.674272
O O12 0.813705 0.405933 0.887780
O O13 0.027045 0.679768 0.897187
O O14 0.000000 0.500000 0.000000
#
# Coordination Sequence:
#
# PCOD9232379 Si02
#       8
#     2   4   4   4   4   4   2   2
#     4   8  13  30  70  95 118 154 208 241 300 450
#     4   9  18  39  67  94 126 165 207 258 371 387
#     4  11  25  43  70  94 127 169 215 287 324 409
#     4  11  21  40  65  89 125 184 219 261 307 386
#     4  10  21  36  63  85 127 193 215 248 318 383
#     4  11  21  37  59  93 138 181 206 263 322 379
#     4  12  23  38  68 101 130 166 232 267 310 374
#     4  12  26  42  66 102 130 166 236 268 318 382
#
# _framework density 19.501881999999998
#
# number of rings (size 3 to 8) (size 9 to 14) (size 15 to 20)
#    0.000    1.538    3.077    3.692    4.308    0.615 
#    0.000    4.615    3.385    0.000    0.000    0.000 
#    0.000    0.000    0.000    0.000    0.000    0.000 
#
# Total GULP energy -144941.045857 kJ/mol
# GULP energy per Si atom -5574.655610 kJ/mol
# Density = 1.945749 g / cm^3
# Si number density = 19.501882 Si / 1000 Ang^3
#
#
#
# Elastic Constant Matrix: (Units=GPa)
#
#
# Indices 1 2 3 4 5 6 
#
# 1 117.2533 60.1794 43.9829 0.0000 -15.3450 0.0000
# 2 60.1794 89.3911 43.1728 0.0000 -0.2292 0.0000
# 3 43.9829 43.1728 130.0437 0.0000 -4.6775 0.0000
# 4 0.0000 0.0000 0.0000 32.0082 0.0000 -1.6440
# 5 -15.3450 -0.2292 -4.6775 0.0000 44.7644 0.0000
# 6 0.0000 0.0000 0.0000 -1.6440 0.0000 19.4576
#
#
#
# Elastic Compliance Matrix: (Units=1/GPa)
#
#
# Indices 1 2 3 4 5 6 
#
# 1 0.014298 -0.008764 -0.001758 0.000000 0.004673 0.000000
# 2 -0.008764 0.018702 -0.003362 0.000000 -0.003260 0.000000
# 3 -0.001758 -0.003362 0.009414 0.000000 0.000364 0.000000
# 4 0.000000 0.000000 0.000000 0.031378 0.000000 0.002651
# 5 0.004673 -0.003260 0.000364 0.000000 0.023962 0.000000
# 6 0.000000 0.000000 0.000000 0.002651 0.000000 0.051618
#
#
# Mechanical properties :
#
#
# Convention : Reuss Voigt Hill
#
# Bulk Modulus (GPa) = 68.28269 70.15091 69.21680
# Shear Modulus (GPa) = 27.46914 31.86958 29.66936
#
# Velocity S-wave (km/s) = 3.75712 4.04688 3.90469
# Velocity P-wave (km/s) = 7.34239 7.60827 7.47651
#
# Compressibility (1/GPa) = 0.01464500
#
# Stress axis : x y z
#
# Youngs Moduli (GPa) = 69.94092 53.46880 106.23025
#
# Poissons Ratio (x) = 0.46862 0.18675
# Poissons Ratio (y) = 0.61299 0.35714
# Poissons Ratio (z) = 0.12296 0.17976
#
# Static dielectric constant tensor:
#      x y z
#    x 1.748840 0.000000 0.012750 
#    y 0.000000 1.698500 0.000000 
#    z 0.012750 0.000000 1.704710 
# 
# From -- ./inp_files/15938.got.cif
#   From: 2010.05.17/outbox.cif.g08.bks.cpg/sg13_8_cif.got.tgz:15938.got - 2010.06.03 16:44:36.
