data_PCOD9232607
_publ_section_title
;
Structure prediction by ZEFSAII (Michael W. Deem and Ramdas Pophale) SiO2 
 PCOD9232607
Probable space group: P 2/C
;
_chemical_formula_sum "Si O2"
_cell_formula_units_Z 26
_cell_length_a 21.700237
_cell_length_b 5.423140
_cell_length_c 19.569297
_cell_angle_alpha 90.000000
_cell_angle_beta 33.475748
_cell_angle_gamma 90.000000
_cell_volume 1270.287881
_symmetry_space_group_name_H-M "P 2/C"
_symmetry_group_IT_number 13
_symmetry_cell_setting 'monoclinic'
loop_
_space_group_symop_operation_xyz
x,y,z
-x,y,1/2-z
-x,-y,-z
x,-y,1/2+z
loop_
_atom_site_type_symbol
_atom_site_label
_atom_site_fract_x
_atom_site_fract_y
_atom_site_fract_z
Si Si1 0.251460 0.151178 0.383303
Si Si2 0.072293 0.248592 0.434493
Si Si3 0.618361 0.670771 0.227805
Si Si4 0.198654 0.736317 0.077890
Si Si5 0.149175 0.874088 0.717811
Si Si6 0.000000 0.625720 0.750000
Si Si7 0.632279 0.645750 0.054346
O O1 0.150029 0.225635 0.428525
O O2 0.329510 0.397189 0.311464
O O3 0.209881 0.101402 0.499550
O O4 0.313427 0.899278 0.303025
O O5 0.144001 0.220065 0.298944
O O6 0.000000 0.500000 0.500000
O O7 0.000000 0.000000 0.500000
O O8 0.620542 0.721713 0.144209
O O9 0.487989 0.669250 0.368740
O O10 0.110384 0.532901 0.134091
O O11 0.149562 0.842055 0.193850
O O12 0.320243 0.631725 0.983486
O O13 0.265840 0.784167 0.576562
O O14 0.040126 0.776662 0.778465
#
# Coordination Sequence:
#
# PCOD9232607 Si02
#       7
#     4   4   4   4   4   2   4
#     4  11  23  42  63  94 130 171 214 261 325 389
#     4  12  29  46  66  92 136 177 213 265 331 394
#     4  10  21  40  67  96 128 168 210 275 326 379
#     4  10  21  37  64  93 126 166 215 273 319 387
#     4  11  23  40  65  93 126 172 220 269 323 392
#     4  10  22  36  62  94 126 160 224 278 324 376
#     4   9  21  37  65  97 127 160 220 271 327 373
#
# _framework density 20.467798999999999
#
# number of rings (size 3 to 8) (size 9 to 14) (size 15 to 20)
#    0.000    1.538    1.538    2.308   10.769    1.231 
#    0.000    1.538    0.000    0.000    0.000    0.000 
#    0.000    0.000    0.000    0.000    0.000    0.000 
#
# Total GULP energy -144906.617542 kJ/mol
# GULP energy per Si atom -5573.331444 kJ/mol
# Density = 2.042121 g / cm^3
# Si number density = 20.467799 Si / 1000 Ang^3
#
#
#
# Elastic Constant Matrix: (Units=GPa)
#
#
# Indices 1 2 3 4 5 6 
#
# 1 56.9426 23.1082 18.0810 0.0000 -5.3861 0.0000
# 2 23.1082 90.7212 32.0443 0.0000 -12.1732 0.0000
# 3 18.0810 32.0443 87.1563 0.0000 -8.9775 0.0000
# 4 0.0000 0.0000 0.0000 6.4020 0.0000 -1.5337
# 5 -5.3861 -12.1732 -8.9775 0.0000 33.1007 0.0000
# 6 0.0000 0.0000 0.0000 -1.5337 0.0000 19.4908
#
#
#
# Elastic Compliance Matrix: (Units=1/GPa)
#
#
# Indices 1 2 3 4 5 6 
#
# 1 0.020133 -0.004077 -0.002567 0.000000 0.001081 0.000000
# 2 -0.004077 0.013899 -0.003915 0.000000 0.003386 0.000000
# 3 -0.002567 -0.003915 0.013635 0.000000 0.001841 0.000000
# 4 0.000000 0.000000 0.000000 0.159202 0.000000 0.012527
# 5 0.001081 0.003386 0.001841 0.000000 0.032131 0.000000
# 6 0.000000 0.000000 0.000000 0.012527 0.000000 0.052292
#
#
# Mechanical properties :
#
#
# Convention : Reuss Voigt Hill
#
# Bulk Modulus (GPa) = 37.66555 42.36523 40.01539
# Shear Modulus (GPa) = 15.56376 22.57116 19.06746
#
# Velocity S-wave (km/s) = 2.76053 3.32439 3.05550
# Velocity P-wave (km/s) = 5.34818 5.95641 5.66047
#
# Compressibility (1/GPa) = 0.02654946
#
# Stress axis : x y z
#
# Youngs Moduli (GPa) = 49.66946 71.94996 73.33931
#
# Poissons Ratio (x) = 0.29332 0.18823
# Poissons Ratio (y) = 0.20249 0.28716
# Poissons Ratio (z) = 0.12748 0.28172
#
# Static dielectric constant tensor:
#      x y z
#    x 1.758980 0.000000 0.035310 
#    y 0.000000 1.909930 0.000000 
#    z 0.035310 0.000000 1.768420 
# 
# From -- ./inp_files/70971.got.cif
#   From: 2010.05.17/outbox.cif.g08.bks.cpg/sg13_36_cif.got.tgz:70971.got - 2010.06.03 16:44:36.
