data_PCOD9232090
_publ_section_title
;
Structure prediction by ZEFSAII (Michael W. Deem and Ramdas Pophale) SiO2 
 PCOD9232090
Probable space group: P 2/C
;
_chemical_formula_sum "Si O2"
_cell_formula_units_Z 24
_cell_length_a 10.674391
_cell_length_b 9.408943
_cell_length_c 23.043148
_cell_angle_alpha 90.000000
_cell_angle_beta 29.436695
_cell_angle_gamma 90.000000
_cell_volume 1137.405599
_symmetry_space_group_name_H-M "P 2/C"
_symmetry_group_IT_number 13
_symmetry_cell_setting 'monoclinic'
loop_
_space_group_symop_operation_xyz
x,y,z
-x,y,1/2-z
-x,-y,-z
x,-y,1/2+z
loop_
_atom_site_type_symbol
_atom_site_label
_atom_site_fract_x
_atom_site_fract_y
_atom_site_fract_z
Si Si1 0.405983 0.777284 0.200888
Si Si2 0.369569 0.980488 0.490983
Si Si3 0.829276 0.054283 0.167424
Si Si4 0.707618 0.479972 0.220103
Si Si5 0.583423 0.751244 0.607917
Si Si6 0.975097 0.718760 0.988403
O O1 0.241899 0.633766 0.272400
O O2 0.269986 0.895828 0.294308
O O3 0.676075 0.720595 0.115202
O O4 0.481533 0.865743 0.111032
O O5 0.374457 0.138047 0.460458
O O6 0.500000 0.000000 0.500000
O O7 0.070037 0.937478 0.614508
O O8 0.585707 0.149548 0.280907
O O9 0.949704 0.123223 0.062485
O O10 0.500000 0.478571 0.250000
O O11 0.592539 0.387813 0.319939
O O12 0.937980 0.392674 0.096647
O O13 0.848267 0.697855 0.527658
#
# Coordination Sequence:
#
# PCOD9232090 Si02
#       6
#     4   4   4   4   4   4
#     4  10  21  33  56  85 108 144 182 217 268 322
#     4  10  22  38  55  76 104 142 190 233 264 308
#     4   9  19  34  55  79 106 138 181 228 273 320
#     4   9  19  34  52  79 114 144 172 214 269 329
#     4   9  19  34  53  76 111 146 172 216 274 322
#     4   9  19  35  52  82 117 141 170 217 276 329
#
# _framework density 21.100652
#
# number of rings (size 3 to 8) (size 9 to 14) (size 15 to 20)
#    0.000    2.667    0.000    1.500    0.000   18.000 
#    0.000    0.833    0.000    6.000    0.000    0.000 
#    0.000    0.000    0.000    0.000    0.000    0.000 
#
# Total GULP energy -133729.361942 kJ/mol
# GULP energy per Si atom -5572.056748 kJ/mol
# Density = 2.105263 g / cm^3
# Si number density = 21.100652 Si / 1000 Ang^3
#
#
#
# Elastic Constant Matrix: (Units=GPa)
#
#
# Indices 1 2 3 4 5 6 
#
# 1 76.3090 15.6621 32.3615 0.0000 0.7641 0.0000
# 2 15.6621 159.2998 35.9311 0.0000 6.5320 0.0000
# 3 32.3615 35.9311 86.2321 0.0000 -9.8068 0.0000
# 4 0.0000 0.0000 0.0000 41.5219 0.0000 9.0792
# 5 0.7641 6.5320 -9.8068 0.0000 17.9221 0.0000
# 6 0.0000 0.0000 0.0000 9.0792 0.0000 12.0060
#
#
#
# Elastic Compliance Matrix: (Units=1/GPa)
#
#
# Indices 1 2 3 4 5 6 
#
# 1 0.015877 0.000073 -0.006471 0.000000 -0.004244 0.000000
# 2 0.000073 0.007267 -0.003579 0.000000 -0.004610 0.000000
# 3 -0.006471 -0.003579 0.016738 0.000000 0.010739 0.000000
# 4 0.000000 0.000000 0.000000 0.028855 0.000000 -0.021821
# 5 -0.004244 -0.004610 0.010739 0.000000 0.063535 0.000000
# 6 0.000000 0.000000 0.000000 -0.021821 0.000000 0.099793
#
#
# Mechanical properties :
#
#
# Convention : Reuss Voigt Hill
#
# Bulk Modulus (GPa) = 50.18745 54.41670 52.30208
# Shear Modulus (GPa) = 19.33027 30.14908 24.73967
#
# Velocity S-wave (km/s) = 3.02999 3.78408 3.42784
# Velocity P-wave (km/s) = 6.00646 6.70354 6.36455
#
# Compressibility (1/GPa) = 0.01992530
#
# Stress axis : x y z
#
# Youngs Moduli (GPa) = 62.98609 137.61322 59.74442
#
# Poissons Ratio (x) = -0.01000 0.38662
# Poissons Ratio (y) = -0.00458 0.21385
# Poissons Ratio (z) = 0.40759 0.49258
#
# Static dielectric constant tensor:
#      x y z
#    x 1.751500 0.000000 -0.008940 
#    y 0.000000 1.829790 0.000000 
#    z -0.008940 0.000000 1.830120 
# 
# From -- ./inp_files/32612.got.cif
#   From: 2010.05.17/outbox.cif.g08.bks.cpg/sg13_17_cif.got.tgz:32612.got - 2010.06.03 16:44:36.
