data_PCOD9232067
_publ_section_title
;
Structure prediction by ZEFSAII (Michael W. Deem and Ramdas Pophale) SiO2 
 PCOD9232067
Probable space group: P 2/C
;
_chemical_formula_sum "Si O2"
_cell_formula_units_Z 28
_cell_length_a 5.822522
_cell_length_b 11.351606
_cell_length_c 19.318227
_cell_angle_alpha 90.000000
_cell_angle_beta 106.015365
_cell_angle_gamma 90.000000
_cell_volume 1227.280790
_symmetry_space_group_name_H-M "P 2/C"
_symmetry_group_IT_number 13
_symmetry_cell_setting 'monoclinic'
loop_
_space_group_symop_operation_xyz
x,y,z
-x,y,1/2-z
-x,-y,-z
x,-y,1/2+z
loop_
_atom_site_type_symbol
_atom_site_label
_atom_site_fract_x
_atom_site_fract_y
_atom_site_fract_z
Si Si1 0.482162 0.469156 0.080725
Si Si2 0.584387 0.867517 0.002904
Si Si3 0.770655 0.252232 0.138152
Si Si4 0.819331 0.931091 0.336173
Si Si5 0.075454 0.724341 0.546024
Si Si6 0.308747 0.017627 0.323296
Si Si7 0.655588 0.716159 0.407149
O O1 0.690310 0.387628 0.131480
O O2 0.255533 0.383423 0.063172
O O3 0.452366 0.590094 0.120256
O O4 0.500000 0.500000 0.000000
O O5 0.405328 0.807174 0.933121
O O6 0.835638 0.837645 0.989471
O O7 0.542719 0.795871 0.070292
O O8 0.500000 0.000000 0.000000
O O9 0.740282 0.156805 0.195506
O O10 0.022276 0.245168 0.120728
O O11 0.782583 0.798245 0.361026
O O12 0.596983 0.999787 0.356054
O O13 0.751916 0.943747 0.250078
O O14 0.096646 0.978379 0.360654
O O15 0.847845 0.685463 0.482759
#
# Coordination Sequence:
#
# PCOD9232067 Si02
#       7
#     4   4   4   4   4   4   4
#     4  11  20  38  52  90 133 171 209 249 314 394
#     4  10  21  32  50  88 130 160 200 251 316 397
#     4  10  22  34  60  85 123 172 203 261 315 385
#     4  10  24  42  68  93 119 167 215 280 328 377
#     4  10  21  34  54  87 129 170 208 250 315 393
#     4  10  23  45  65  93 121 160 224 274 333 373
#     4  11  22  34  59  88 128 170 205 257 322 388
#
# _framework density 22.814665999999999
#
# number of rings (size 3 to 8) (size 9 to 14) (size 15 to 20)
#    0.000    1.714    4.286    1.286   10.000    1.143 
#    0.000    0.000    0.000    3.429    0.000    0.000 
#    0.000    0.000    0.000    0.000    0.000    0.000 
#
# Total GULP energy -155989.975988 kJ/mol
# GULP energy per Si atom -5571.070571 kJ/mol
# Density = 2.276274 g / cm^3
# Si number density = 22.814666 Si / 1000 Ang^3
#
#
#
# Elastic Constant Matrix: (Units=GPa)
#
#
# Indices 1 2 3 4 5 6 
#
# 1 129.0781 56.4622 11.5315 0.0000 -24.7296 0.0000
# 2 56.4622 190.6302 27.5931 0.0000 -24.1012 0.0000
# 3 11.5315 27.5931 47.9559 0.0000 -11.1044 0.0000
# 4 0.0000 0.0000 0.0000 17.8008 0.0000 -7.0909
# 5 -24.7296 -24.1012 -11.1044 0.0000 25.1773 0.0000
# 6 0.0000 0.0000 0.0000 -7.0909 0.0000 46.1231
#
#
#
# Elastic Compliance Matrix: (Units=1/GPa)
#
#
# Indices 1 2 3 4 5 6 
#
# 1 0.010184 -0.002060 0.000664 0.000000 0.008323 0.000000
# 2 -0.002060 0.006633 -0.002583 0.000000 0.003187 0.000000
# 3 0.000664 -0.002583 0.024232 0.000000 0.008867 0.000000
# 4 0.000000 0.000000 0.000000 0.059842 0.000000 0.009200
# 5 0.008323 0.003187 0.008867 0.000000 0.054855 0.000000
# 6 0.000000 0.000000 0.000000 0.009200 0.000000 0.023096
#
#
# Mechanical properties :
#
#
# Convention : Reuss Voigt Hill
#
# Bulk Modulus (GPa) = 30.22057 62.09309 46.15683
# Shear Modulus (GPa) = 25.27427 35.95874 30.61651
#
# Velocity S-wave (km/s) = 3.33199 3.97435 3.66726
# Velocity P-wave (km/s) = 5.29884 6.95241 6.18117
#
# Compressibility (1/GPa) = 0.03309005
#
# Stress axis : x y z
#
# Youngs Moduli (GPa) = 98.19606 150.76841 41.26719
#
# Poissons Ratio (x) = 0.31059 -0.02740
# Poissons Ratio (y) = 0.20229 0.10660
# Poissons Ratio (z) = -0.06519 0.38946
#
# Static dielectric constant tensor:
#      x y z
#    x 2.031140 0.000000 0.012470 
#    y 0.000000 1.917910 0.000000 
#    z 0.012470 0.000000 1.941950 
# 
# From -- ./inp_files/83541.got.cif
#   From: 2010.05.17/outbox.cif.g08.bks.cpg/sg13_42_cif.got.tgz:83541.got - 2010.06.03 16:44:36.
