data_PCOD9232245
_publ_section_title
;
Structure prediction by ZEFSAII (Michael W. Deem and Ramdas Pophale) SiO2 
 PCOD9232245
Probable space group: P 2/C
;
_chemical_formula_sum "Si O2"
_cell_formula_units_Z 30
_cell_length_a 20.095255
_cell_length_b 13.336577
_cell_length_c 11.327702
_cell_angle_alpha 90.000000
_cell_angle_beta 149.713879
_cell_angle_gamma 90.000000
_cell_volume 1531.033112
_symmetry_space_group_name_H-M "P 2/C"
_symmetry_group_IT_number 13
_symmetry_cell_setting 'monoclinic'
loop_
_space_group_symop_operation_xyz
x,y,z
-x,y,1/2-z
-x,-y,-z
x,-y,1/2+z
loop_
_atom_site_type_symbol
_atom_site_label
_atom_site_fract_x
_atom_site_fract_y
_atom_site_fract_z
Si Si1 0.526547 0.230488 0.155525
Si Si2 0.359184 0.614082 0.094832
Si Si3 0.713102 0.180930 0.883148
Si Si4 0.423374 0.015009 0.257804
Si Si5 0.918017 0.358408 0.914828
Si Si6 0.708632 0.404449 0.409386
Si Si7 0.000000 0.786704 0.750000
Si Si8 0.875421 0.575055 0.939844
O O1 0.500000 0.258744 0.250000
O O2 0.598160 0.323980 0.203914
O O3 0.619759 0.131453 0.298381
O O4 0.389746 0.198682 0.882966
O O5 0.500000 0.630168 0.250000
O O6 0.305466 0.714962 0.073994
O O7 0.352117 0.515420 0.167530
O O8 0.258907 0.584613 0.838438
O O9 0.669238 0.081867 0.886238
O O10 0.864255 0.161453 0.080066
O O11 0.500000 0.012874 0.250000
O O12 0.500000 0.000000 0.500000
O O13 0.775788 0.364150 0.633709
O O14 0.933503 0.464742 0.005683
O O15 0.949017 0.277823 0.060684
O O16 0.024922 0.351034 0.973945
O O17 0.829103 0.410205 0.501710
#
# Coordination Sequence:
#
# PCOD9232245 Si02
#       8
#     4   4   4   4   4   4   2   4
#     4  10  21  39  62  88 116 155 196 241 299 354
#     4  11  22  35  54  90 122 152 195 247 302 348
#     4  11  22  38  62  88 119 157 197 249 293 355
#     4   9  20  40  66  90 114 154 200 246 297 360
#     4  10  22  36  55  79 115 162 202 233 284 363
#     4  11  22  36  58  85 120 156 192 249 297 348
#     4  12  22  38  60  86 118 156 204 244 294 348
#     4  10  21  36  54  79 116 162 202 235 287 354
#
# _framework density 19.594611
#
# number of rings (size 3 to 8) (size 9 to 14) (size 15 to 20)
#    0.000    1.600    1.333    3.600    3.733    5.333 
#    0.000    0.000    2.933    8.000    0.000    0.000 
#    0.000    0.000    0.000    0.000    0.000    0.000 
#
# Total GULP energy -167194.284629 kJ/mol
# GULP energy per Si atom -5573.142821 kJ/mol
# Density = 1.955001 g / cm^3
# Si number density = 19.594611 Si / 1000 Ang^3
#
#
#
# Elastic Constant Matrix: (Units=GPa)
#
#
# Indices 1 2 3 4 5 6 
#
# 1 97.4737 42.6740 15.0682 0.0000 3.7767 0.0000
# 2 42.6740 107.8702 12.5870 0.0000 12.8123 0.0000
# 3 15.0682 12.5870 59.2794 0.0000 6.6820 0.0000
# 4 0.0000 0.0000 0.0000 -11.8408 0.0000 3.4319
# 5 3.7767 12.8123 6.6820 0.0000 33.5336 0.0000
# 6 0.0000 0.0000 0.0000 3.4319 0.0000 20.4854
#
#
#
# Elastic Compliance Matrix: (Units=1/GPa)
#
#
# Indices 1 2 3 4 5 6 
#
# 1 0.012710 -0.004865 -0.002298 0.000000 0.000885 0.000000
# 2 -0.004865 0.011740 -0.000831 0.000000 -0.003772 0.000000
# 3 -0.002298 -0.000831 0.017968 0.000000 -0.003004 0.000000
# 4 0.000000 0.000000 0.000000 -0.080543 0.000000 0.013493
# 5 0.000885 -0.003772 -0.003004 0.000000 0.031761 0.000000
# 6 0.000000 0.000000 0.000000 0.013493 0.000000 0.046555
#
#
# Mechanical properties :
#
#
# Convention : Reuss Voigt Hill
#
# Bulk Modulus (GPa) = 37.83410 45.03130 41.43270
# Shear Modulus (GPa) = 76.93641 21.38857 49.16249
#
# Velocity S-wave (km/s) = 6.27290 3.30745 5.01441
# Velocity P-wave (km/s) = 8.47444 6.13327 7.39706
#
# Compressibility (1/GPa) = 0.02643118
#
# Stress axis : x y z
#
# Youngs Moduli (GPa) = 78.67796 85.17819 55.65342
#
# Poissons Ratio (x) = 0.41441 0.12786
# Poissons Ratio (y) = 0.38279 0.04624
# Poissons Ratio (z) = 0.18076 0.07078
#
# Static dielectric constant tensor:
#      x y z
#    x 1.759470 0.000000 -0.044620 
#    y 0.000000 1.686980 0.000000 
#    z -0.044620 0.000000 1.773900 
# 
# From -- ./inp_files/40912.got.cif
#   From: 2010.05.17/outbox.cif.g08.bks.cpg/sg13_21_cif.got.tgz:40912.got - 2010.06.03 16:44:36.
