data_PCOD9232949
_publ_section_title
;
Structure prediction by ZEFSAII (Michael W. Deem and Ramdas Pophale) SiO2 
 PCOD9232949
Probable space group: P 2/C
;
_chemical_formula_sum "Si O2"
_cell_formula_units_Z 30
_cell_length_a 11.380824
_cell_length_b 16.977997
_cell_length_c 9.141056
_cell_angle_alpha 90.000000
_cell_angle_beta 111.438287
_cell_angle_gamma 90.000000
_cell_volume 1644.062799
_symmetry_space_group_name_H-M "P 2/C"
_symmetry_group_IT_number 13
_symmetry_cell_setting 'monoclinic'
loop_
_space_group_symop_operation_xyz
x,y,z
-x,y,1/2-z
-x,-y,-z
x,-y,1/2+z
loop_
_atom_site_type_symbol
_atom_site_label
_atom_site_fract_x
_atom_site_fract_y
_atom_site_fract_z
Si Si1 0.356973 0.910994 0.853480
Si Si2 0.134969 0.382762 0.387934
Si Si3 0.500000 0.497829 0.250000
Si Si4 0.674903 0.525572 0.068687
Si Si5 0.872586 0.640287 0.276728
Si Si6 0.647146 0.082117 0.498574
Si Si7 0.134250 0.825076 0.230345
Si Si8 0.864441 0.806931 0.612774
O O1 0.335794 0.920623 0.669357
O O2 0.252005 0.851509 0.865413
O O3 0.344835 0.994778 0.929527
O O4 0.502872 0.886531 0.950971
O O5 0.251023 0.440939 0.395466
O O6 0.119809 0.391125 0.555190
O O7 0.157094 0.288124 0.380738
O O8 0.000000 0.402059 0.250000
O O9 0.568835 0.538757 0.145497
O O10 0.613276 0.456713 0.384531
O O11 0.774513 0.590626 0.144814
O O12 0.840820 0.731876 0.254556
O O13 0.000000 0.629442 0.250000
O O14 0.753452 0.131475 0.632586
O O15 0.000000 0.841276 0.250000
O O16 0.127764 0.837717 0.051894
O O17 0.000000 0.822951 0.750000
#
# Coordination Sequence:
#
# PCOD9232949 Si02
#       8
#     4   4   2   4   4   4   4   4
#     4  10  21  39  61  88 118 152 192 234 282 344
#     4  10  22  38  60  84 112 147 193 242 288 339
#     4  10  24  38  58  78 120 150 190 244 280 346
#     4  11  21  42  56  84 113 155 194 236 290 337
#     4  10  22  38  60  84 112 147 193 242 288 339
#     4  10  21  39  61  88 118 152 192 234 282 344
#     4  10  21  39  59  86 118 151 191 241 289 340
#     4  10  21  39  59  86 118 151 191 241 289 340
#
# _framework density 18.247478999999998
#
# number of rings (size 3 to 8) (size 9 to 14) (size 15 to 20)
#    0.000    1.867    1.333    2.000    1.867    4.267 
#    4.800    2.667    0.000    0.000    0.000    0.000 
#    0.000    0.000    0.000    0.000    0.000    0.000 
#
# Total GULP energy -167080.861133 kJ/mol
# GULP energy per Si atom -5569.362038 kJ/mol
# Density = 1.820595 g / cm^3
# Si number density = 18.247479 Si / 1000 Ang^3
#
#
#
# Elastic Constant Matrix: (Units=GPa)
#
#
# Indices 1 2 3 4 5 6 
#
# 1 122.1994 41.6222 64.0812 0.0000 2.7769 0.0000
# 2 41.6222 53.8669 49.0591 0.0000 10.4514 0.0000
# 3 64.0812 49.0591 161.3046 0.0000 23.7758 0.0000
# 4 0.0000 0.0000 0.0000 37.0219 0.0000 17.3183
# 5 2.7769 10.4514 23.7758 0.0000 34.7739 0.0000
# 6 0.0000 0.0000 0.0000 17.3183 0.0000 35.8609
#
#
#
# Elastic Compliance Matrix: (Units=1/GPa)
#
#
# Indices 1 2 3 4 5 6 
#
# 1 0.012220 -0.007221 -0.003152 0.000000 0.003350 0.000000
# 2 -0.007221 0.030165 -0.005621 0.000000 -0.004646 0.000000
# 3 -0.003152 -0.005621 0.009870 0.000000 -0.004807 0.000000
# 4 0.000000 0.000000 0.000000 0.034894 0.000000 -0.016851
# 5 0.003350 -0.004646 -0.004807 0.000000 0.033173 0.000000
# 6 0.000000 0.000000 0.000000 -0.016851 0.000000 0.036024
#
#
# Mechanical properties :
#
#
# Convention : Reuss Voigt Hill
#
# Bulk Modulus (GPa) = 49.34313 71.87730 60.61021
# Shear Modulus (GPa) = 25.62956 33.70523 29.66740
#
# Velocity S-wave (km/s) = 3.75180 4.30247 4.03654
# Velocity P-wave (km/s) = 6.77258 8.00984 7.41705
#
# Compressibility (1/GPa) = 0.02026625
#
# Stress axis : x y z
#
# Youngs Moduli (GPa) = 81.83470 33.15155 101.32106
#
# Poissons Ratio (x) = 0.23940 0.31936
# Poissons Ratio (y) = 0.59095 0.56948
# Poissons Ratio (z) = 0.25794 0.18633
#
# Static dielectric constant tensor:
#      x y z
#    x 1.604760 0.000000 -0.017320 
#    y 0.000000 1.603570 0.000000 
#    z -0.017320 0.000000 1.654690 
# 
# From -- ./inp_files/17181.got.cif
#   From: 2010.05.17/outbox.cif.g08.bks.cpg/sg13_9_cif.got.tgz:17181.got - 2010.06.03 16:44:36.
