data_PCOD9232132
_publ_section_title
;
Structure prediction by ZEFSAII (Michael W. Deem and Ramdas Pophale) SiO2 
 PCOD9232132
Probable space group: P 2/C
;
_chemical_formula_sum "Si O2"
_cell_formula_units_Z 24
_cell_length_a 13.243062
_cell_length_b 11.803947
_cell_length_c 12.122988
_cell_angle_alpha 90.000000
_cell_angle_beta 142.795702
_cell_angle_gamma 90.000000
_cell_volume 1145.871090
_symmetry_space_group_name_H-M "P 2/C"
_symmetry_group_IT_number 13
_symmetry_cell_setting 'monoclinic'
loop_
_space_group_symop_operation_xyz
x,y,z
-x,y,1/2-z
-x,-y,-z
x,-y,1/2+z
loop_
_atom_site_type_symbol
_atom_site_label
_atom_site_fract_x
_atom_site_fract_y
_atom_site_fract_z
Si Si1 0.402066 0.879614 0.279877
Si Si2 0.575562 0.676935 0.060982
Si Si3 0.783334 0.099170 0.372524
Si Si4 0.964646 0.881387 0.595338
Si Si5 0.640174 0.480165 0.276485
Si Si6 0.189842 0.700041 0.445149
O O1 0.500000 0.877235 0.250000
O O2 0.482084 0.795296 0.437015
O O3 0.211867 0.832932 0.099570
O O4 0.366037 0.010377 0.279866
O O5 0.655028 0.597876 0.225458
O O6 0.705005 0.696530 0.075136
O O7 0.426698 0.606523 0.875023
O O8 0.740061 0.200234 0.416085
O O9 0.880034 0.141220 0.348643
O O10 0.921822 0.016472 0.551867
O O11 0.000000 0.847235 0.750000
O O12 0.500000 0.492959 0.250000
O O13 0.790125 0.417702 0.470153
O O14 0.000000 0.722799 0.250000
#
# Coordination Sequence:
#
# PCOD9232132 Si02
#       6
#     4   4   4   4   4   4
#     4  10  21  34  56  90 115 150 199 248 284 344
#     4  10  21  40  63  81 120 162 191 244 304 355
#     4   9  21  36  58  85 118 158 196 233 298 366
#     4   9  19  37  56  77 119 164 188 225 297 362
#     4   9  21  41  61  86 114 156 201 239 305 356
#     4  11  22  38  64  86 116 153 201 248 286 353
#
# _framework density 20.944765
#
# number of rings (size 3 to 8) (size 9 to 14) (size 15 to 20)
#    1.000    1.333    0.000    2.000    2.333    4.000 
#    0.000    3.333    0.000    0.000    0.000    0.000 
#    0.000    0.000    0.000    0.000    0.000    0.000 
#
# Total GULP energy -133837.338480 kJ/mol
# GULP energy per Si atom -5576.555770 kJ/mol
# Density = 2.089709 g / cm^3
# Si number density = 20.944765 Si / 1000 Ang^3
#
#
#
# Elastic Constant Matrix: (Units=GPa)
#
#
# Indices 1 2 3 4 5 6 
#
# 1 97.6040 52.5537 22.5673 0.0000 -18.8351 0.0000
# 2 52.5537 111.8894 41.8810 0.0000 -11.6492 0.0000
# 3 22.5673 41.8810 42.0140 0.0000 -13.5608 0.0000
# 4 0.0000 0.0000 0.0000 18.8468 0.0000 12.5888
# 5 -18.8351 -11.6492 -13.5608 0.0000 24.1620 0.0000
# 6 0.0000 0.0000 0.0000 12.5888 0.0000 -20.9266
#
#
#
# Elastic Compliance Matrix: (Units=1/GPa)
#
#
# Indices 1 2 3 4 5 6 
#
# 1 0.015415 -0.006863 0.001675 0.000000 0.009648 0.000000
# 2 -0.006863 0.017348 -0.015429 0.000000 -0.005645 0.000000
# 3 0.001675 -0.015429 0.044334 0.000000 0.018749 0.000000
# 4 0.000000 0.000000 0.000000 0.037850 0.000000 0.022770
# 5 0.009648 -0.005645 0.018749 0.000000 0.056709 0.000000
# 6 0.000000 0.000000 0.000000 0.022770 0.000000 -0.034088
#
#
# Mechanical properties :
#
#
# Convention : Reuss Voigt Hill
#
# Bulk Modulus (GPa) = 27.88346 53.94569 40.91458
# Shear Modulus (GPa) = 26.21129 13.38346 19.79738
#
# Velocity S-wave (km/s) = 3.54142 2.53056 3.07778
# Velocity P-wave (km/s) = 5.48306 5.86092 5.67514
#
# Compressibility (1/GPa) = 0.03586355
#
# Stress axis : x y z
#
# Youngs Moduli (GPa) = 64.87067 57.64200 22.55610
#
# Poissons Ratio (x) = 0.39560 -0.03779
# Poissons Ratio (y) = 0.44521 0.34803
# Poissons Ratio (z) = -0.10868 0.88938
#
# Static dielectric constant tensor:
#      x y z
#    x 1.615700 0.000000 -0.189430 
#    y 0.000000 1.773590 0.000000 
#    z -0.189430 0.000000 1.353770 
# 
# From -- ./inp_files/33955.got.cif
#   From: 2010.05.17/outbox.cif.g08.bks.cpg/sg13_17_cif.got.tgz:33955.got - 2010.06.03 16:44:36.
