data_PCOD9232521
_publ_section_title
;
Structure prediction by ZEFSAII (Michael W. Deem and Ramdas Pophale) SiO2 
 PCOD9232521
Probable space group: P 2/C
;
_chemical_formula_sum "Si O2"
_cell_formula_units_Z 28
_cell_length_a 23.119371
_cell_length_b 9.540023
_cell_length_c 20.587383
_cell_angle_alpha 90.000000
_cell_angle_beta 19.108267
_cell_angle_gamma 90.000000
_cell_volume 1486.430298
_symmetry_space_group_name_H-M "P 2/C"
_symmetry_group_IT_number 13
_symmetry_cell_setting 'monoclinic'
loop_
_space_group_symop_operation_xyz
x,y,z
-x,y,1/2-z
-x,-y,-z
x,-y,1/2+z
loop_
_atom_site_type_symbol
_atom_site_label
_atom_site_fract_x
_atom_site_fract_y
_atom_site_fract_z
Si Si1 0.725724 0.778124 0.662512
Si Si2 0.258853 0.101173 0.871129
Si Si3 0.858083 0.897131 0.763112
Si Si4 0.309380 0.587808 0.921544
Si Si5 0.422661 0.858579 0.549609
Si Si6 0.908992 0.828279 0.278920
Si Si7 0.712804 0.274954 0.532305
O O1 0.673089 0.660200 0.667144
O O2 0.639339 0.763101 0.824637
O O3 0.938799 0.780200 0.432465
O O4 0.682327 0.937965 0.685148
O O5 0.414317 0.185262 0.669347
O O6 0.232524 0.168394 0.969143
O O7 0.071553 0.102829 0.032110
O O8 0.000000 0.120493 0.750000
O O9 0.809724 0.042807 0.851157
O O10 0.799364 0.772352 0.873065
O O11 0.500000 0.576058 0.750000
O O12 0.233763 0.431358 0.002925
O O13 0.200371 0.695586 0.081545
O O14 0.500000 0.000000 0.500000
O O15 0.252207 0.887806 0.685840
O O16 0.500000 0.266383 0.750000
#
# Coordination Sequence:
#
# PCOD9232521 Si02
#       7
#     4   4   4   4   4   4   4
#     4   9  20  38  55  82 117 145 187 232 280 346
#     4  10  21  37  60  91 114 151 194 235 291 339
#     4  11  21  36  62  87 117 149 193 237 287 344
#     4  10  22  35  58  86 111 148 193 236 292 339
#     4  10  22  37  57  86 122 154 187 233 286 340
#     4   9  19  35  56  86 114 143 190 242 288 338
#     4  11  21  37  60  85 116 150 193 245 286 339
#
# _framework density 18.837077000000001
#
# number of rings (size 3 to 8) (size 9 to 14) (size 15 to 20)
#    0.000    2.000    1.429    3.000    4.000    9.714 
#    0.000    0.714    0.000    1.714    0.000    0.000 
#    0.000    0.000    0.000    0.000    0.000    0.000 
#
# Total GULP energy -156119.311502 kJ/mol
# GULP energy per Si atom -5575.689696 kJ/mol
# Density = 1.879420 g / cm^3
# Si number density = 18.837077 Si / 1000 Ang^3
#
#
#
# Elastic Constant Matrix: (Units=GPa)
#
#
# Indices 1 2 3 4 5 6 
#
# 1 87.1966 35.1758 19.3587 0.0000 -8.4231 0.0000
# 2 35.1758 79.4484 -3.7319 0.0000 -2.6196 0.0000
# 3 19.3587 -3.7319 45.0631 0.0000 -2.9231 0.0000
# 4 0.0000 0.0000 0.0000 12.0852 0.0000 -11.0811
# 5 -8.4231 -2.6196 -2.9231 0.0000 29.3548 0.0000
# 6 0.0000 0.0000 0.0000 -11.0811 0.0000 0.6107
#
#
#
# Elastic Compliance Matrix: (Units=1/GPa)
#
#
# Indices 1 2 3 4 5 6 
#
# 1 0.016498 -0.007547 -0.007497 0.000000 0.003314 0.000000
# 2 -0.007547 0.016134 0.004561 0.000000 -0.000272 0.000000
# 3 -0.007497 0.004561 0.025843 0.000000 0.000829 0.000000
# 4 0.000000 0.000000 0.000000 -0.005292 0.000000 -0.096015
# 5 0.003314 -0.000272 0.000829 0.000000 0.035075 0.000000
# 6 0.000000 0.000000 0.000000 -0.096015 0.000000 -0.104715
#
#
# Mechanical properties :
#
#
# Convention : Reuss Voigt Hill
#
# Bulk Modulus (GPa) = 26.66176 34.81259 30.73717
# Shear Modulus (GPa) = 293.90123 19.13718 156.51920
#
# Velocity S-wave (km/s) = 12.50446 3.19083 9.12532
# Velocity P-wave (km/s) = 14.92202 5.66535 11.28633
#
# Compressibility (1/GPa) = 0.03750690
#
# Stress axis : x y z
#
# Youngs Moduli (GPa) = 60.61516 61.98258 38.69470
#
# Poissons Ratio (x) = 0.46779 0.29010
# Poissons Ratio (y) = 0.45747 -0.17647
# Poissons Ratio (z) = 0.45445 -0.28268
#
# Static dielectric constant tensor:
#      x y z
#    x 1.648170 0.000000 0.013970 
#    y 0.000000 1.669820 0.000000 
#    z 0.013970 0.000000 1.744160 
# 
# From -- ./inp_files/82120.got.cif
#   From: 2010.05.17/outbox.cif.g08.bks.cpg/sg13_42_cif.got.tgz:82120.got - 2010.06.03 16:44:36.
