data_PCOD9232999
_publ_section_title
;
Structure prediction by ZEFSAII (Michael W. Deem and Ramdas Pophale) SiO2 
 PCOD9232999
Probable space group: P 2/C
;
_chemical_formula_sum "Si O2"
_cell_formula_units_Z 30
_cell_length_a 12.891232
_cell_length_b 11.815853
_cell_length_c 21.422472
_cell_angle_alpha 90.000000
_cell_angle_beta 28.185518
_cell_angle_gamma 90.000000
_cell_volume 1541.248875
_symmetry_space_group_name_H-M "P 2/C"
_symmetry_group_IT_number 13
_symmetry_cell_setting 'monoclinic'
loop_
_space_group_symop_operation_xyz
x,y,z
-x,y,1/2-z
-x,-y,-z
x,-y,1/2+z
loop_
_atom_site_type_symbol
_atom_site_label
_atom_site_fract_x
_atom_site_fract_y
_atom_site_fract_z
Si Si1 0.760059 0.587967 0.894109
Si Si2 0.071135 0.110822 0.545452
Si Si3 0.631772 0.657736 0.483804
Si Si4 0.692663 0.798140 0.004851
Si Si5 0.247604 0.855686 0.178429
Si Si6 0.505803 0.773271 0.818912
Si Si7 0.005462 0.849393 0.941301
Si Si8 0.000000 0.059883 0.250000
O O1 0.771680 0.456279 0.904491
O O2 0.671854 0.667878 0.995586
O O3 0.000000 0.628176 0.750000
O O4 0.600324 0.615567 0.921484
O O5 0.335325 0.120823 0.409334
O O6 0.998586 0.167576 0.519236
O O7 0.955292 0.165094 0.666852
O O8 0.998638 0.981638 0.575044
O O9 0.715335 0.760396 0.394765
O O10 0.594304 0.694491 0.574558
O O11 0.791422 0.801213 0.021242
O O12 0.877787 0.863050 0.865452
O O13 0.464181 0.856589 0.106835
O O14 0.184023 0.975362 0.180933
O O15 0.500000 0.731090 0.750000
O O16 0.755402 0.802311 0.704737
#
# Coordination Sequence:
#
# PCOD9232999 Si02
#       8
#     4   4   4   4   4   4   4   2
#     4  10  21  39  62  86 114 155 196 249 307 350
#     4  10  22  37  56  90 123 165 198 235 297 356
#     4  10  23  39  63  88 116 151 200 253 299 351
#     4  11  23  38  59  88 120 162 196 244 302 357
#     4  11  24  36  58  93 123 153 197 248 303 351
#     4  10  22  40  62  85 118 163 206 243 293 361
#     4  10  22  38  60  83 124 166 202 236 290 362
#     4  12  22  36  54  92 126 154 192 244 294 364
#
# _framework density 19.464735000000001
#
# number of rings (size 3 to 8) (size 9 to 14) (size 15 to 20)
#    0.000    1.600    2.000    2.000    6.533    0.533 
#    0.000    0.000    8.800    2.400    0.000    0.000 
#    0.000    0.000    0.000    0.000    0.000    0.000 
#
# Total GULP energy -167315.639728 kJ/mol
# GULP energy per Si atom -5577.187991 kJ/mol
# Density = 1.942043 g / cm^3
# Si number density = 19.464735 Si / 1000 Ang^3
#
#
#
# Elastic Constant Matrix: (Units=GPa)
#
#
# Indices 1 2 3 4 5 6 
#
# 1 93.9600 23.6720 30.9299 0.0000 -3.8810 0.0000
# 2 23.6720 67.2853 14.8019 0.0000 6.5678 0.0000
# 3 30.9299 14.8019 63.0311 0.0000 10.0168 0.0000
# 4 0.0000 0.0000 0.0000 8.1167 0.0000 12.8963
# 5 -3.8810 6.5678 10.0168 0.0000 37.3125 0.0000
# 6 0.0000 0.0000 0.0000 12.8963 0.0000 -7.6482
#
#
#
# Elastic Compliance Matrix: (Units=1/GPa)
#
#
# Indices 1 2 3 4 5 6 
#
# 1 0.013926 -0.003838 -0.006549 0.000000 0.003882 0.000000
# 2 -0.003838 0.016852 -0.001608 0.000000 -0.002934 0.000000
# 3 -0.006549 -0.001608 0.020390 0.000000 -0.005872 0.000000
# 4 0.000000 0.000000 0.000000 0.033487 0.000000 0.056465
# 5 0.003882 -0.002934 -0.005872 0.000000 0.029297 0.000000
# 6 0.000000 0.000000 0.000000 0.056465 0.000000 -0.035538
#
#
# Mechanical properties :
#
#
# Convention : Reuss Voigt Hill
#
# Bulk Modulus (GPa) = 36.79447 40.34268 38.56857
# Shear Modulus (GPa) = 44.85774 17.88104 31.36939
#
# Velocity S-wave (km/s) = 4.80580 3.03419 4.01883
# Velocity P-wave (km/s) = 7.05255 5.74858 6.43368
#
# Compressibility (1/GPa) = 0.02717800
#
# Stress axis : x y z
#
# Youngs Moduli (GPa) = 71.80858 59.33898 49.04411
#
# Poissons Ratio (x) = 0.22772 0.32121
# Poissons Ratio (y) = 0.27557 0.07887
# Poissons Ratio (z) = 0.47030 0.09543
#
# Static dielectric constant tensor:
#      x y z
#    x 1.723540 0.000000 -0.005750 
#    y 0.000000 1.675740 0.000000 
#    z -0.005750 0.000000 1.683220 
# 
# From -- ./inp_files/33900.got.cif
#   From: 2010.05.17/outbox.cif.g08.bks.cpg/sg13_17_cif.got.tgz:33900.got - 2010.06.03 16:44:36.
