data_PCOD9232801
_publ_section_title
;
Structure prediction by ZEFSAII (Michael W. Deem and Ramdas Pophale) SiO2 
 PCOD9232801
Probable space group: P 2/C
;
_chemical_formula_sum "Si O2"
_cell_formula_units_Z 26
_cell_length_a 23.797945
_cell_length_b 8.714574
_cell_length_c 7.820810
_cell_angle_alpha 90.000000
_cell_angle_beta 139.197279
_cell_angle_gamma 90.000000
_cell_volume 1059.873592
_symmetry_space_group_name_H-M "P 2/C"
_symmetry_group_IT_number 13
_symmetry_cell_setting 'monoclinic'
loop_
_space_group_symop_operation_xyz
x,y,z
-x,y,1/2-z
-x,-y,-z
x,-y,1/2+z
loop_
_atom_site_type_symbol
_atom_site_label
_atom_site_fract_x
_atom_site_fract_y
_atom_site_fract_z
Si Si1 0.815555 0.903413 0.902353
Si Si2 0.525194 0.170426 0.005310
Si Si3 0.773311 0.778932 0.430234
Si Si4 0.374346 0.626258 0.247612
Si Si5 0.689206 0.703460 0.781241
Si Si6 0.954865 0.655152 0.825865
Si Si7 0.000000 0.869617 0.250000
O O1 0.796256 0.830501 0.675658
O O2 0.783626 0.779001 0.970728
O O3 0.915599 0.950867 0.127324
O O4 0.769407 0.063890 0.819268
O O5 0.500000 0.191129 0.750000
O O6 0.472238 0.308115 0.978346
O O7 0.627732 0.177968 0.235613
O O8 0.500000 0.000000 0.000000
O O9 0.679695 0.708387 0.228806
O O10 0.850855 0.662760 0.557204
O O11 0.339395 0.453527 0.192086
O O12 0.341880 0.676596 0.985469
O O13 0.000000 0.693544 0.750000
O O14 0.000000 0.500000 0.000000
O O15 0.972703 0.769211 0.023777
#
# Coordination Sequence:
#
# PCOD9232801 Si02
#       7
#     4   4   4   4   4   4   2
#     4  10  23  41  60  88 123 159 207 259 313 372
#     4  10  21  38  62  90 125 160 203 252 306 372
#     4  10  24  39  61  89 121 159 207 257 313 378
#     4  10  22  39  60  91 123 161 205 252 312 369
#     4  10  22  39  61  89 124 159 204 258 303 376
#     4  11  24  40  64  91 124 164 212 260 321 375
#     4  10  24  42  62  92 128 162 214 268 312 386
#
# _framework density 24.531227999999999
#
# number of rings (size 3 to 8) (size 9 to 14) (size 15 to 20)
#    0.000    1.846    0.769    1.385    5.385    4.923 
#    0.000    0.000    0.000    0.000    0.000    0.000 
#    0.000    0.000    0.000    0.000    0.000    0.000 
#
# Total GULP energy -145033.507799 kJ/mol
# GULP energy per Si atom -5578.211838 kJ/mol
# Density = 2.447539 g / cm^3
# Si number density = 24.531228 Si / 1000 Ang^3
#
#
#
# Elastic Constant Matrix: (Units=GPa)
#
#
# Indices 1 2 3 4 5 6 
#
# 1 187.3344 69.7590 52.8977 0.0000 24.5068 0.0000
# 2 69.7590 100.4654 -1.2475 0.0000 13.2570 0.0000
# 3 52.8977 -1.2475 43.0184 0.0000 -1.4788 0.0000
# 4 0.0000 0.0000 0.0000 19.0678 0.0000 9.6002
# 5 24.5068 13.2570 -1.4788 0.0000 35.6075 0.0000
# 6 0.0000 0.0000 0.0000 9.6002 0.0000 35.5457
#
#
#
# Elastic Compliance Matrix: (Units=1/GPa)
#
#
# Indices 1 2 3 4 5 6 
#
# 1 0.015826 -0.010191 -0.020028 0.000000 -0.007929 0.000000
# 2 -0.010191 0.017032 0.013067 0.000000 0.001216 0.000000
# 3 -0.020028 0.013067 0.048628 0.000000 0.010939 0.000000
# 4 0.000000 0.000000 0.000000 0.060698 0.000000 -0.016393
# 5 -0.007929 0.001216 0.010939 0.000000 0.033543 0.000000
# 6 0.000000 0.000000 0.000000 -0.016393 0.000000 0.032560
#
#
# Mechanical properties :
#
#
# Convention : Reuss Voigt Hill
#
# Bulk Modulus (GPa) = 21.19469 63.73740 42.46605
# Shear Modulus (GPa) = 19.35596 32.00482 25.68039
#
# Velocity S-wave (km/s) = 2.81202 3.61592 3.23901
# Velocity P-wave (km/s) = 4.38200 6.59331 5.59793
#
# Compressibility (1/GPa) = 0.04718163
#
# Stress axis : x y z
#
# Youngs Moduli (GPa) = 63.18888 58.71400 20.56415
#
# Poissons Ratio (x) = 0.59835 0.41186
# Poissons Ratio (y) = 0.64396 -0.26871
# Poissons Ratio (z) = 1.26555 -0.76722
#
# Static dielectric constant tensor:
#      x y z
#    x 1.961170 0.000000 0.071950 
#    y 0.000000 1.979660 0.000000 
#    z 0.071950 0.000000 2.011550 
# 
# From -- ./inp_files/22854.got.cif
#   From: 2010.05.17/outbox.cif.g08.bks.cpg/sg13_12_cif.got.tgz:22854.got - 2010.06.03 16:44:36.
