data_PCOD9232327
_publ_section_title
;
Structure prediction by ZEFSAII (Michael W. Deem and Ramdas Pophale) SiO2 
 PCOD9232327
Probable space group: P 2/C
;
_chemical_formula_sum "Si O2"
_cell_formula_units_Z 24
_cell_length_a 25.195843
_cell_length_b 8.166042
_cell_length_c 15.746445
_cell_angle_alpha 90.000000
_cell_angle_beta 159.264521
_cell_angle_gamma 90.000000
_cell_volume 1147.076972
_symmetry_space_group_name_H-M "P 2/C"
_symmetry_group_IT_number 13
_symmetry_cell_setting 'monoclinic'
loop_
_space_group_symop_operation_xyz
x,y,z
-x,y,1/2-z
-x,-y,-z
x,-y,1/2+z
loop_
_atom_site_type_symbol
_atom_site_label
_atom_site_fract_x
_atom_site_fract_y
_atom_site_fract_z
Si Si1 0.401815 0.838105 0.476685
Si Si2 0.324132 0.681071 0.001739
Si Si3 0.350277 0.794928 0.869576
Si Si4 0.340013 0.331300 0.708185
Si Si5 0.157323 0.331047 0.941703
Si Si6 0.293954 0.706167 0.482709
O O1 0.338047 0.761822 0.294559
O O2 0.294415 0.808592 0.396960
O O3 0.557269 0.756005 0.740649
O O4 0.425041 0.029381 0.495085
O O5 0.500000 0.722740 0.250000
O O6 0.276834 0.743005 0.024292
O O7 0.308120 0.484962 0.979645
O O8 0.257279 0.748420 0.814531
O O9 0.244523 0.798619 0.630197
O O10 0.481973 0.662450 0.047934
O O11 0.255450 0.502487 0.590952
O O12 0.158113 0.276342 0.845102
O O13 0.000000 0.362538 0.750000
#
# Coordination Sequence:
#
# PCOD9232327 Si02
#       6
#     4   4   4   4   4   4
#     4  11  21  34  61  97 124 151 193 260 315 352
#     4   9  18  32  56  87 118 153 192 250 292 344
#     4  11  22  36  63  94 122 156 199 257 304 358
#     4  10  21  37  61  88 119 157 206 251 297 351
#     4  11  24  42  62  86 120 168 210 246 295 361
#     4  10  21  36  58  91 125 153 199 253 297 360
#
# _framework density 20.922747000000001
#
# number of rings (size 3 to 8) (size 9 to 14) (size 15 to 20)
#    0.000    1.667    3.333    2.000    9.333    0.000 
#    0.000    9.167    0.000    0.000    0.000    0.000 
#    0.000    0.000    0.000    0.000    0.000    0.000 
#
# Total GULP energy -133800.213612 kJ/mol
# GULP energy per Si atom -5575.008901 kJ/mol
# Density = 2.087513 g / cm^3
# Si number density = 20.922747 Si / 1000 Ang^3
#
#
#
# Elastic Constant Matrix: (Units=GPa)
#
#
# Indices 1 2 3 4 5 6 
#
# 1 197.6206 24.5507 29.3585 0.0000 1.0848 0.0000
# 2 24.5507 55.9829 10.5325 0.0000 3.5460 0.0000
# 3 29.3585 10.5325 18.2429 0.0000 11.4625 0.0000
# 4 0.0000 0.0000 0.0000 4.1815 0.0000 -8.3262
# 5 1.0848 3.5460 11.4625 0.0000 20.4609 0.0000
# 6 0.0000 0.0000 0.0000 -8.3262 0.0000 14.3617
#
#
#
# Elastic Compliance Matrix: (Units=1/GPa)
#
#
# Indices 1 2 3 4 5 6 
#
# 1 0.007851 -0.000571 -0.018680 0.000000 0.010148 0.000000
# 2 -0.000571 0.020371 -0.013337 0.000000 0.003972 0.000000
# 3 -0.018680 -0.013337 0.139666 0.000000 -0.074941 0.000000
# 4 0.000000 0.000000 0.000000 -1.548841 0.000000 -0.897942
# 5 0.010148 0.003972 -0.074941 0.000000 0.089630 0.000000
# 6 0.000000 0.000000 0.000000 -0.897942 0.000000 -0.450953
#
#
# Mechanical properties :
#
#
# Convention : Reuss Voigt Hill
#
# Bulk Modulus (GPa) = 9.73623 44.52552 27.13088
# Shear Modulus (GPa) = -3.04347 21.62782 9.29217
#
# Velocity S-wave (km/s) = -1.20739 3.21861 2.10970
# Velocity P-wave (km/s) = 1.64919 5.92787 4.35083
#
# Compressibility (1/GPa) = 0.10270914
#
# Stress axis : x y z
#
# Youngs Moduli (GPa) = 127.37884 49.08999 7.15996
#
# Poissons Ratio (x) = 0.02803 0.13375
# Poissons Ratio (y) = 0.07274 0.09550
# Poissons Ratio (z) = 2.37949 0.65474
#
# Static dielectric constant tensor:
#      x y z
#    x 1.866050 0.000000 -0.031310 
#    y 0.000000 1.731190 0.000000 
#    z -0.031310 0.000000 1.760230 
# 
# From -- ./inp_files/71853.got.cif
#   From: 2010.05.17/outbox.cif.g08.bks.cpg/sg13_36_cif.got.tgz:71853.got - 2010.06.03 16:44:36.
