data_PCOD9232755
_publ_section_title
;
Structure prediction by ZEFSAII (Michael W. Deem and Ramdas Pophale) SiO2 
 PCOD9232755
Probable space group: P 2/C
;
_chemical_formula_sum "Si O2"
_cell_formula_units_Z 18
_cell_length_a 10.040159
_cell_length_b 9.654582
_cell_length_c 8.655902
_cell_angle_alpha 90.000000
_cell_angle_beta 58.359235
_cell_angle_gamma 90.000000
_cell_volume 714.326123
_symmetry_space_group_name_H-M "P 2/C"
_symmetry_group_IT_number 13
_symmetry_cell_setting 'monoclinic'
loop_
_space_group_symop_operation_xyz
x,y,z
-x,y,1/2-z
-x,-y,-z
x,-y,1/2+z
loop_
_atom_site_type_symbol
_atom_site_label
_atom_site_fract_x
_atom_site_fract_y
_atom_site_fract_z
Si Si1 0.827194 0.863916 0.913943
Si Si2 0.751565 0.133621 0.131131
Si Si3 0.048889 0.656622 0.441229
Si Si4 0.500000 0.560641 0.250000
Si Si5 0.334889 0.664854 0.050203
O O1 0.715501 0.858651 0.834070
O O2 0.000000 0.910737 0.750000
O O3 0.849682 0.715094 0.976641
O O4 0.780031 0.975156 0.069884
O O5 0.644705 0.197149 0.062235
O O6 0.906425 0.232995 0.024681
O O7 0.160696 0.659447 0.225368
O O8 0.000000 0.500000 0.500000
O O9 0.438533 0.645472 0.140539
O O10 0.373347 0.456572 0.404578
#
# Coordination Sequence:
#
# PCOD9232755 Si02
#       5
#     4   4   4   2   4
#     4  10  21  38  60  97 140 169 199 245 326 402
#     4  11  22  39  66  97 131 169 204 259 325 389
#     4  11  23  38  65 104 135 161 202 264 328 387
#     4  10  26  44  62  90 126 174 218 272 314 368
#     4  11  23  42  65  90 128 169 218 264 320 378
#
# _framework density 25.198575000000002
#
# number of rings (size 3 to 8) (size 9 to 14) (size 15 to 20)
#    0.000    1.333    0.000    7.333    0.000   16.000 
#    0.000    0.000    0.000   16.000    0.000    0.000 
#    0.000    0.000    0.000    0.000    0.000    0.000 
#
# Total GULP energy -100760.634198 kJ/mol
# GULP energy per Si atom -5597.813011 kJ/mol
# Density = 2.514122 g / cm^3
# Si number density = 25.198575 Si / 1000 Ang^3
#
#
#
# Elastic Constant Matrix: (Units=GPa)
#
#
# Indices 1 2 3 4 5 6 
#
# 1 82.3706 41.9299 35.5483 0.0000 36.7614 0.0000
# 2 41.9299 156.8209 40.9121 0.0000 33.3384 0.0000
# 3 35.5483 40.9121 126.1178 0.0000 36.3176 0.0000
# 4 0.0000 0.0000 0.0000 34.7378 0.0000 19.3993
# 5 36.7614 33.3384 36.3176 0.0000 58.8634 0.0000
# 6 0.0000 0.0000 0.0000 19.3993 0.0000 28.4213
#
#
#
# Elastic Compliance Matrix: (Units=1/GPa)
#
#
# Indices 1 2 3 4 5 6 
#
# 1 0.018104 -0.002512 -0.001753 0.000000 -0.008802 0.000000
# 2 -0.002512 0.007814 -0.001221 0.000000 -0.002104 0.000000
# 3 -0.001753 -0.001221 0.010099 0.000000 -0.004444 0.000000
# 4 0.000000 0.000000 0.000000 0.046519 0.000000 -0.031752
# 5 -0.008802 -0.002104 -0.004444 0.000000 0.026419 0.000000
# 6 0.000000 0.000000 0.000000 -0.031752 0.000000 0.056857
#
#
# Mechanical properties :
#
#
# Convention : Reuss Voigt Hill
#
# Bulk Modulus (GPa) = 39.92919 66.89886 53.41402
# Shear Modulus (GPa) = 27.00759 40.86578 33.93669
#
# Velocity S-wave (km/s) = 3.27737 4.03146 3.67382
# Velocity P-wave (km/s) = 5.49561 6.94813 6.26412
#
# Compressibility (1/GPa) = 0.02504434
#
# Stress axis : x y z
#
# Youngs Moduli (GPa) = 55.23713 127.97434 99.01698
#
# Poissons Ratio (x) = 0.32146 0.17362
# Poissons Ratio (y) = 0.13875 0.12091
# Poissons Ratio (z) = 0.09685 0.15627
#
# Static dielectric constant tensor:
#      x y z
#    x 2.226540 0.000000 -0.013400 
#    y 0.000000 1.911570 0.000000 
#    z -0.013400 0.000000 1.973000 
# 
# From -- ./inp_files/14516.got.cif
#   From: 2010.05.17/outbox.cif.g08.bks.cpg/sg13_8_cif.got.tgz:14516.got - 2010.06.03 16:44:36.
