data_PCOD9232213
_publ_section_title
;
Structure prediction by ZEFSAII (Michael W. Deem and Ramdas Pophale) SiO2 
 PCOD9232213
Probable space group: P 2/C
;
_chemical_formula_sum "Si O2"
_cell_formula_units_Z 22
_cell_length_a 10.365227
_cell_length_b 11.712808
_cell_length_c 8.497387
_cell_angle_alpha 90.000000
_cell_angle_beta 79.909072
_cell_angle_gamma 90.000000
_cell_volume 1015.674634
_symmetry_space_group_name_H-M "P 2/C"
_symmetry_group_IT_number 13
_symmetry_cell_setting 'monoclinic'
loop_
_space_group_symop_operation_xyz
x,y,z
-x,y,1/2-z
-x,-y,-z
x,-y,1/2+z
loop_
_atom_site_type_symbol
_atom_site_label
_atom_site_fract_x
_atom_site_fract_y
_atom_site_fract_z
Si Si1 0.663011 0.717851 0.076742
Si Si2 0.366446 0.547468 0.861975
Si Si3 0.379489 0.767646 0.058386
Si Si4 0.858837 0.350586 0.279066
Si Si5 0.844971 0.131135 0.073448
Si Si6 0.000000 0.041695 0.750000
O O1 0.622364 0.584337 0.097180
O O2 0.537444 0.778737 0.023321
O O3 0.670218 0.769722 0.250276
O O4 0.795313 0.710055 0.946342
O O5 0.500000 0.583437 0.750000
O O6 0.248514 0.563888 0.765788
O O7 0.346932 0.639602 0.003472
O O8 0.302595 0.855087 0.961821
O O9 0.000000 0.408747 0.250000
O O10 0.123824 0.249339 0.348969
O O11 0.934644 0.112600 0.902396
O O12 0.887502 0.035380 0.190175
#
# Coordination Sequence:
#
# PCOD9232213 Si02
#       6
#     4   4   4   4   4   2
#     4  11  21  36  64  91 136 173 220 251 307 373
#     4  11  19  38  62  93 131 184 225 253 305 369
#     4  10  21  35  62 100 122 169 217 270 303 371
#     4  11  24  38  59  95 135 174 212 270 316 377
#     4  10  23  40  69  96 117 164 211 264 333 390
#     4  10  22  46  70  92 124 162 212 262 344 428
#
# _framework density 21.66048
#
# number of rings (size 3 to 8) (size 9 to 14) (size 15 to 20)
#    0.000    1.455    4.545    1.636    2.545    0.727 
#    0.000    0.000    0.000   13.091    0.000    0.000 
#    0.000    0.000    0.000    0.000    0.000    0.000 
#
# Total GULP energy -122829.787810 kJ/mol
# GULP energy per Si atom -5583.172173 kJ/mol
# Density = 2.161118 g / cm^3
# Si number density = 21.660480 Si / 1000 Ang^3
#
#
#
# Elastic Constant Matrix: (Units=GPa)
#
#
# Indices 1 2 3 4 5 6 
#
# 1 162.7217 8.9745 48.4239 0.0000 -3.2351 0.0000
# 2 8.9745 29.8988 22.0132 0.0000 -8.9824 0.0000
# 3 48.4239 22.0132 100.1131 0.0000 3.7806 0.0000
# 4 0.0000 0.0000 0.0000 18.9870 0.0000 -0.5604
# 5 -3.2351 -8.9824 3.7806 0.0000 19.3445 0.0000
# 6 0.0000 0.0000 0.0000 -0.5604 0.0000 -358.7788
#
#
#
# Elastic Compliance Matrix: (Units=1/GPa)
#
#
# Indices 1 2 3 4 5 6 
#
# 1 0.007296 0.001551 -0.003973 0.000000 0.002717 0.000000
# 2 0.001551 0.050223 -0.012778 0.000000 0.026077 0.000000
# 3 -0.003973 -0.012778 0.015080 0.000000 -0.009545 0.000000
# 4 0.000000 0.000000 0.000000 0.052665 0.000000 -0.000082
# 5 0.002717 0.026077 -0.009545 0.000000 0.066123 0.000000
# 6 0.000000 0.000000 0.000000 -0.000082 0.000000 -0.002787
#
#
# Mechanical properties :
#
#
# Convention : Reuss Voigt Hill
#
# Bulk Modulus (GPa) = 23.69671 50.17299 36.93485
# Shear Modulus (GPa) = 21.45308 -49.86799 -14.20746
#
# Velocity S-wave (km/s) = 3.15052 -4.80339 -2.56386
# Velocity P-wave (km/s) = 4.91916 2.74768 2.88517
#
# Compressibility (1/GPa) = 0.04219994
#
# Stress axis : x y z
#
# Youngs Moduli (GPa) = 137.05826 19.91119 66.31097
#
# Poissons Ratio (x) = -0.03089 0.26344
# Poissons Ratio (y) = -0.21260 0.84734
# Poissons Ratio (z) = 0.54450 0.25443
#
# Static dielectric constant tensor:
#      x y z
#    x 1.886820 0.000000 0.025860 
#    y 0.000000 1.743180 0.000000 
#    z 0.025860 0.000000 1.827320 
# 
# From -- ./inp_files/12421.got.cif
#   From: 2010.05.17/outbox.cif.g08.bks.cpg/sg13_7_cif.got.tgz:12421.got - 2010.06.03 16:44:36.
