data_PCOD9232790
_publ_section_title
;
Structure prediction by ZEFSAII (Michael W. Deem and Ramdas Pophale) SiO2 
 PCOD9232790
Probable space group: P 2/C
;
_chemical_formula_sum "Si O2"
_cell_formula_units_Z 32
_cell_length_a 21.953426
_cell_length_b 12.901385
_cell_length_c 11.131779
_cell_angle_alpha 90.000000
_cell_angle_beta 31.135403
_cell_angle_gamma 90.000000
_cell_volume 1630.219575
_symmetry_space_group_name_H-M "P 2/C"
_symmetry_group_IT_number 13
_symmetry_cell_setting 'monoclinic'
loop_
_space_group_symop_operation_xyz
x,y,z
-x,y,1/2-z
-x,-y,-z
x,-y,1/2+z
loop_
_atom_site_type_symbol
_atom_site_label
_atom_site_fract_x
_atom_site_fract_y
_atom_site_fract_z
Si Si1 0.666507 0.165876 0.224073
Si Si2 0.927937 0.019110 0.997660
Si Si3 0.872243 0.749799 0.515822
Si Si4 0.521747 0.665921 0.402701
Si Si5 0.565047 0.006215 0.016856
Si Si6 0.678828 0.402777 0.421968
Si Si7 0.370271 0.633089 0.025021
Si Si8 0.275502 0.847582 0.141886
O O1 0.784932 0.228264 0.051081
O O2 0.546614 0.228215 0.450957
O O3 0.667785 0.076011 0.320225
O O4 0.674536 0.128378 0.075034
O O5 0.000000 0.011139 0.750000
O O6 0.886371 0.141135 0.065567
O O7 0.834440 0.923626 0.154344
O O8 0.000000 0.000000 0.000000
O O9 0.802295 0.656046 0.697996
O O10 0.000000 0.721639 0.250000
O O11 0.407243 0.601949 0.550007
O O12 0.596829 0.629319 0.389673
O O13 0.609116 0.660915 0.142204
O O14 0.624088 0.116294 0.935734
O O15 0.500000 0.977953 0.250000
O O16 0.500000 0.000000 0.000000
O O17 0.677903 0.525297 0.447726
O O18 0.500000 0.655585 0.750000
O O19 0.277084 0.724078 0.153417
#
# Coordination Sequence:
#
# PCOD9232790 Si02
#       8
#     4   4   4   4   4   4   4   4
#     4  11  22  39  63  93 130 171 210 268 327 387
#     4  11  25  45  70  91 127 173 227 282 327 383
#     4  10  22  43  66  94 122 169 231 275 318 380
#     4  10  21  38  61  95 129 167 216 257 328 400
#     4  12  24  37  56  90 136 167 199 257 324 398
#     4  10  23  38  66  94 123 174 216 273 318 387
#     4  12  22  39  62  94 137 169 205 256 335 404
#     4  12  24  41  62  95 131 173 213 259 332 400
#
# _framework density 19.629258
#
# number of rings (size 3 to 8) (size 9 to 14) (size 15 to 20)
#    0.000    1.000    5.000    3.000    3.500    1.000 
#    0.000    0.625    0.000    3.750    0.000    0.000 
#    0.000    0.000    0.000    0.000    0.000    0.000 
#
# Total GULP energy -178171.920999 kJ/mol
# GULP energy per Si atom -5567.872531 kJ/mol
# Density = 1.958458 g / cm^3
# Si number density = 19.629258 Si / 1000 Ang^3
#
#
#
# Elastic Constant Matrix: (Units=GPa)
#
#
# Indices 1 2 3 4 5 6 
#
# 1 101.9569 18.4246 39.9871 0.0000 4.1119 0.0000
# 2 18.4246 107.3542 68.8327 0.0000 -7.2371 0.0000
# 3 39.9871 68.8327 105.9788 0.0000 -9.1599 0.0000
# 4 0.0000 0.0000 0.0000 -2.9511 0.0000 1.9463
# 5 4.1119 -7.2371 -9.1599 0.0000 27.6608 0.0000
# 6 0.0000 0.0000 0.0000 1.9463 0.0000 19.1909
#
#
#
# Elastic Compliance Matrix: (Units=1/GPa)
#
#
# Indices 1 2 3 4 5 6 
#
# 1 0.011917 0.001368 -0.005669 0.000000 -0.003291 0.000000
# 2 0.001368 0.016135 -0.010962 0.000000 0.000388 0.000000
# 3 -0.005669 -0.010962 0.019066 0.000000 0.004288 0.000000
# 4 0.000000 0.000000 0.000000 -0.317616 0.000000 0.032212
# 5 -0.003291 0.000388 0.004288 0.000000 0.038163 0.000000
# 6 0.000000 0.000000 0.000000 0.032212 0.000000 0.048841
#
#
# Mechanical properties :
#
#
# Convention : Reuss Voigt Hill
#
# Bulk Modulus (GPa) = 60.27611 63.30872 61.79241
# Shear Modulus (GPa) = -33.91281 21.31650 -6.29816
#
# Velocity S-wave (km/s) = -4.16103 3.29896 -1.79319
# Velocity P-wave (km/s) = 2.77279 6.84347 5.22118
#
# Compressibility (1/GPa) = 0.01659032
#
# Stress axis : x y z
#
# Youngs Moduli (GPa) = 83.91296 61.97693 52.45070
#
# Poissons Ratio (x) = -0.08478 0.29736
# Poissons Ratio (y) = -0.11479 0.57498
# Poissons Ratio (z) = 0.47574 0.67940
#
# Static dielectric constant tensor:
#      x y z
#    x 1.601900 0.000000 0.013340 
#    y 0.000000 1.814490 0.000000 
#    z 0.013340 0.000000 1.698280 
# 
# From -- ./inp_files/41848.got.cif
#   From: 2010.05.17/outbox.cif.g08.bks.cpg/sg13_21_cif.got.tgz:41848.got - 2010.06.03 16:44:36.
