data_PCOD9232797
_publ_section_title
;
Structure prediction by ZEFSAII (Michael W. Deem and Ramdas Pophale) SiO2 
 PCOD9232797
Probable space group: P 2/C
;
_chemical_formula_sum "Si O2"
_cell_formula_units_Z 24
_cell_length_a 18.335187
_cell_length_b 4.933377
_cell_length_c 26.635592
_cell_angle_alpha 90.000000
_cell_angle_beta 19.772884
_cell_angle_gamma 90.000000
_cell_volume 815.050461
_symmetry_space_group_name_H-M "P 2/C"
_symmetry_group_IT_number 13
_symmetry_cell_setting 'monoclinic'
loop_
_space_group_symop_operation_xyz
x,y,z
-x,y,1/2-z
-x,-y,-z
x,-y,1/2+z
loop_
_atom_site_type_symbol
_atom_site_label
_atom_site_fract_x
_atom_site_fract_y
_atom_site_fract_z
Si Si1 0.726442 0.342843 0.325369
Si Si2 0.052933 0.666595 0.162289
Si Si3 0.984050 0.862517 0.948687
Si Si4 0.640132 0.134016 0.743544
Si Si5 0.320715 0.727437 0.900140
Si Si6 0.382380 0.038038 0.000797
O O1 0.826069 0.636292 0.278757
O O2 0.520710 0.231238 0.427052
O O3 0.924583 0.249034 0.162354
O O4 0.683168 0.193878 0.406481
O O5 0.174452 0.937685 0.103826
O O6 0.000000 0.528637 0.250000
O O7 0.234437 0.573554 0.004828
O O8 0.193612 0.900277 0.846480
O O9 0.803371 0.715199 0.099740
O O10 0.878995 0.149472 0.000618
O O11 0.449845 0.991660 0.836600
O O12 0.538593 0.215351 0.863030
O O13 0.500000 0.589047 0.750000
#
# Coordination Sequence:
#
# PCOD9232797 Si02
#       6
#     4   4   4   4   4   4
#     4  10  21  38  62  88 116 159 205 248 305 361
#     4  11  23  37  59  88 121 156 202 252 304 361
#     4   9  16  32  58  84 109 147 197 241 292 354
#     4   8  16  31  58  84 108 148 196 242 290 349
#     4   9  18  35  56  79 115 156 191 242 301 351
#     4   9  20  41  63  85 119 158 201 252 302 361
#
# _framework density 29.446027000000001
#
# number of rings (size 3 to 8) (size 9 to 14) (size 15 to 20)
#    0.000    2.667    0.000    1.000    0.000    4.000 
#    0.000    5.833    0.000   35.000    0.000    0.000 
#    0.000    0.000    0.000    0.000    0.000    0.000 
#
# Total GULP energy -133816.790037 kJ/mol
# GULP energy per Si atom -5575.699585 kJ/mol
# Density = 2.937901 g / cm^3
# Si number density = 29.446027 Si / 1000 Ang^3
#
#
#
# Elastic Constant Matrix: (Units=GPa)
#
#
# Indices 1 2 3 4 5 6 
#
# 1 122.5221 26.1732 81.1860 0.0000 48.2520 0.0000
# 2 26.1732 62.7910 43.2330 0.0000 9.2895 0.0000
# 3 81.1860 43.2330 236.3663 0.0000 93.2953 0.0000
# 4 0.0000 0.0000 0.0000 -4.0253 0.0000 -35.7956
# 5 48.2520 9.2895 93.2953 0.0000 69.5962 0.0000
# 6 0.0000 0.0000 0.0000 -35.7956 0.0000 -3.2970
#
#
#
# Elastic Compliance Matrix: (Units=1/GPa)
#
#
# Indices 1 2 3 4 5 6 
#
# 1 0.012153 -0.003476 -0.000841 0.000000 -0.006835 0.000000
# 2 -0.003476 0.019848 -0.004974 0.000000 0.006428 0.000000
# 3 -0.000841 -0.004974 0.010485 0.000000 -0.012808 0.000000
# 4 0.000000 0.000000 0.000000 0.002600 0.000000 -0.028229
# 5 -0.006835 0.006428 -0.012808 0.000000 0.035419 0.000000
# 6 0.000000 0.000000 0.000000 -0.028229 0.000000 0.003174
#
#
# Mechanical properties :
#
#
# Convention : Reuss Voigt Hill
#
# Bulk Modulus (GPa) = 41.83095 80.31822 61.07459
# Shear Modulus (GPa) = 45.36045 30.52726 37.94386
#
# Velocity S-wave (km/s) = 3.92913 3.22331 3.59359
# Velocity P-wave (km/s) = 5.90092 6.41783 6.16480
#
# Compressibility (1/GPa) = 0.02390574
#
# Stress axis : x y z
#
# Youngs Moduli (GPa) = 82.28323 50.38262 95.37728
#
# Poissons Ratio (x) = 0.17512 0.08019
# Poissons Ratio (y) = 0.28599 0.47437
# Poissons Ratio (z) = 0.06918 0.25058
#
# Static dielectric constant tensor:
#      x y z
#    x 2.273530 0.000000 0.066600 
#    y 0.000000 2.249010 0.000000 
#    z 0.066600 0.000000 2.271620 
# 
# From -- ./inp_files/97418.got.cif
#   From: 2010.05.17/outbox.cif.g08.bks.cpg/sg13_49_cif.got.tgz:97418.got - 2010.06.03 16:44:36.
