data_PCOD9232687
_publ_section_title
;
Structure prediction by ZEFSAII (Michael W. Deem and Ramdas Pophale) SiO2 
 PCOD9232687
Probable space group: P 2/C
;
_chemical_formula_sum "Si O2"
_cell_formula_units_Z 16
_cell_length_a 5.263963
_cell_length_b 7.329377
_cell_length_c 19.932270
_cell_angle_alpha 90.000000
_cell_angle_beta 121.882901
_cell_angle_gamma 90.000000
_cell_volume 652.995976
_symmetry_space_group_name_H-M "P 2/C"
_symmetry_group_IT_number 13
_symmetry_cell_setting 'monoclinic'
loop_
_space_group_symop_operation_xyz
x,y,z
-x,y,1/2-z
-x,-y,-z
x,-y,1/2+z
loop_
_atom_site_type_symbol
_atom_site_label
_atom_site_fract_x
_atom_site_fract_y
_atom_site_fract_z
Si Si1 0.153488 0.720477 0.202591
Si Si2 0.843123 0.720477 0.797409
Si Si3 0.019691 0.796454 0.971290
Si Si4 0.634531 0.203546 0.528710
O O1 0.500000 0.777428 0.250000
O O2 0.146460 0.500000 0.198230
O O3 0.000000 0.778624 0.250000
O O4 0.935143 0.789335 0.113971
O O5 0.500000 0.778624 0.750000
O O6 0.000000 0.777428 0.750000
O O7 0.979260 0.789335 0.886029
O O8 0.349651 0.710965 0.027746
O O9 0.738668 0.710965 0.972254
O O10 0.000000 0.000000 0.000000
O O11 0.500000 0.000000 0.500000
#
# Coordination Sequence:
#
# PCOD9232687 Si02
#       4
#     4   4   4   4
#     4  10  21  38  61  89 121 161 210 260 309 366
#     4  10  21  38  61  89 121 161 210 260 309 366
#     4  10  21  38  58  86 121 158 202 250 310 373
#     4  10  21  38  58  86 121 158 202 250 310 373
#
# _framework density 24.502448000000001
#
# number of rings (size 3 to 8) (size 9 to 14) (size 15 to 20)
#    0.000    2.000    0.000    3.000    0.000    2.000 
#    0.000   20.000    0.000    0.000    0.000    0.000 
#    0.000    0.000    0.000    0.000    0.000    0.000 
#
# Total GULP energy -89374.792407 kJ/mol
# GULP energy per Si atom -5585.924525 kJ/mol
# Density = 2.444668 g / cm^3
# Si number density = 24.502448 Si / 1000 Ang^3
#
#
#
# Elastic Constant Matrix: (Units=GPa)
#
#
# Indices 1 2 3 4 5 6 
#
# 1 295.2001 33.3902 96.6138 0.0000 -1.1788 0.0000
# 2 33.3902 105.3382 26.5828 0.0000 -0.0884 0.0000
# 3 96.6138 26.5828 174.0793 0.0000 -0.3952 0.0000
# 4 0.0000 0.0000 0.0000 -2.1967 0.0000 0.3967
# 5 -1.1788 -0.0884 -0.3952 0.0000 53.9496 0.0000
# 6 0.0000 0.0000 0.0000 0.3967 0.0000 -32.7180
#
#
#
# Elastic Compliance Matrix: (Units=1/GPa)
#
#
# Indices 1 2 3 4 5 6 
#
# 1 0.004199 -0.000773 -0.002212 0.000000 0.000074 0.000000
# 2 -0.000773 0.010016 -0.001101 0.000000 -0.000009 0.000000
# 3 -0.002212 -0.001101 0.007141 0.000000 0.000002 0.000000
# 4 0.000000 0.000000 0.000000 -0.456217 0.000000 -0.005532
# 5 0.000074 -0.000009 0.000002 0.000000 0.018537 0.000000
# 6 0.000000 0.000000 0.000000 -0.005532 0.000000 -0.030631
#
#
# Mechanical properties :
#
#
# Convention : Reuss Voigt Hill
#
# Bulk Modulus (GPa) = 75.84889 98.64349 87.24619
# Shear Modulus (GPa) = -11.51041 31.67569 10.08264
#
# Velocity S-wave (km/s) = -2.16976 3.59939 2.03073
# Velocity P-wave (km/s) = 4.97450 7.59080 6.41739
#
# Compressibility (1/GPa) = 0.01318411
#
# Stress axis : x y z
#
# Youngs Moduli (GPa) = 238.13320 99.84105 140.04620
#
# Poissons Ratio (x) = 0.07715 0.30985
# Poissons Ratio (y) = 0.18401 0.15414
# Poissons Ratio (z) = 0.52686 0.10989
#
# Static dielectric constant tensor:
#      x y z
#    x 2.165540 0.000000 -0.002140 
#    y 0.000000 2.066150 0.000000 
#    z -0.002140 0.000000 2.000530 
# 
# From -- ./inp_files/60789.got.cif
#   From: 2010.05.17/outbox.cif.g08.bks.cpg/sg13_31_cif.got.tgz:60789.got - 2010.06.03 16:44:36.
