data_PCOD9232018
_publ_section_title
;
Structure prediction by ZEFSAII (Michael W. Deem and Ramdas Pophale) SiO2 
 PCOD9232018
Probable space group: P 2/C
;
_chemical_formula_sum "Si O2"
_cell_formula_units_Z 30
_cell_length_a 10.931309
_cell_length_b 12.182805
_cell_length_c 11.373819
_cell_angle_alpha 90.000000
_cell_angle_beta 116.469318
_cell_angle_gamma 90.000000
_cell_volume 1355.916155
_symmetry_space_group_name_H-M "P 2/C"
_symmetry_group_IT_number 13
_symmetry_cell_setting 'monoclinic'
loop_
_space_group_symop_operation_xyz
x,y,z
-x,y,1/2-z
-x,-y,-z
x,-y,1/2+z
loop_
_atom_site_type_symbol
_atom_site_label
_atom_site_fract_x
_atom_site_fract_y
_atom_site_fract_z
Si Si1 0.354853 0.447511 0.668364
Si Si2 0.194469 0.293629 0.260886
Si Si3 0.853031 0.623505 0.016026
Si Si4 0.196220 0.110701 0.589681
Si Si5 0.720017 0.722423 0.180778
Si Si6 0.000000 0.518578 0.750000
Si Si7 0.591632 0.762765 0.473512
Si Si8 0.928551 0.931249 0.825124
O O1 0.500000 0.505059 0.750000
O O2 0.253373 0.527500 0.560643
O O3 0.303634 0.397132 0.769530
O O4 0.382771 0.340902 0.601095
O O5 0.126514 0.397164 0.296832
O O6 0.347564 0.275855 0.374739
O O7 0.131443 0.175950 0.261892
O O8 0.147892 0.312928 0.106954
O O9 0.798245 0.702673 0.094102
O O10 0.981761 0.559546 0.128402
O O11 0.200872 0.204894 0.690357
O O12 0.319291 0.140525 0.551778
O O13 0.049684 0.105130 0.463743
O O14 0.191104 0.995913 0.658488
O O15 0.571118 0.777600 0.096323
O O16 0.000000 0.999676 0.750000
#
# Coordination Sequence:
#
# PCOD9232018 Si02
#       8
#     4   4   4   4   4   2   4   4
#     4   9  20  37  61  90 127 175 222 264 317 388
#     4  12  24  41  66  94 136 171 225 272 339 394
#     4  12  26  37  63  99 136 181 226 273 328 400
#     4  10  22  43  70  95 126 167 227 268 347 400
#     4  10  24  41  66  96 135 177 224 277 339 400
#     4  12  24  44  62  96 142 186 224 278 334 396
#     4  10  20  44  69  93 132 181 218 275 335 407
#     4  11  23  42  72  97 125 168 218 286 337 401
#
# _framework density 22.125261999999999
#
# number of rings (size 3 to 8) (size 9 to 14) (size 15 to 20)
#    0.000    1.333    3.333    2.400    5.600    3.200 
#    0.000    0.667    2.933    0.000    0.000    0.000 
#    0.000    0.000    0.000    0.000    0.000    0.000 
#
# Total GULP energy -167364.685350 kJ/mol
# GULP energy per Si atom -5578.822845 kJ/mol
# Density = 2.207490 g / cm^3
# Si number density = 22.125262 Si / 1000 Ang^3
#
#
#
# Elastic Constant Matrix: (Units=GPa)
#
#
# Indices 1 2 3 4 5 6 
#
# 1 52.1187 34.6440 16.0692 0.0000 7.3951 0.0000
# 2 34.6440 62.5112 19.4037 0.0000 -0.8997 0.0000
# 3 16.0692 19.4037 108.9962 0.0000 1.1496 0.0000
# 4 0.0000 0.0000 0.0000 29.5686 0.0000 -1.5408
# 5 7.3951 -0.8997 1.1496 0.0000 35.5213 0.0000
# 6 0.0000 0.0000 0.0000 -1.5408 0.0000 26.4016
#
#
#
# Elastic Compliance Matrix: (Units=1/GPa)
#
#
# Indices 1 2 3 4 5 6 
#
# 1 0.032340 -0.017538 -0.001571 0.000000 -0.007126 0.000000
# 2 -0.017538 0.026454 -0.002170 0.000000 0.004392 0.000000
# 3 -0.001571 -0.002170 0.009793 0.000000 -0.000045 0.000000
# 4 0.000000 0.000000 0.000000 0.033923 0.000000 0.001980
# 5 -0.007126 0.004392 -0.000045 0.000000 0.029748 0.000000
# 6 0.000000 0.000000 0.000000 0.001980 0.000000 0.037992
#
#
# Mechanical properties :
#
#
# Convention : Reuss Voigt Hill
#
# Bulk Modulus (GPa) = 38.41811 40.42886 39.42349
# Shear Modulus (GPa) = 22.57498 28.53224 25.55361
#
# Velocity S-wave (km/s) = 3.19772 3.59496 3.40215
# Velocity P-wave (km/s) = 5.57095 5.96189 5.76973
#
# Compressibility (1/GPa) = 0.02602939
#
# Stress axis : x y z
#
# Youngs Moduli (GPa) = 30.92124 37.80191 102.11417
#
# Poissons Ratio (x) = 0.66298 0.16037
# Poissons Ratio (y) = 0.54230 0.22159
# Poissons Ratio (z) = 0.04856 0.08203
#
# Static dielectric constant tensor:
#      x y z
#    x 1.841280 0.000000 -0.021270 
#    y 0.000000 1.819320 0.000000 
#    z -0.021270 0.000000 1.836640 
# 
# From -- ./inp_files/33902.got.cif
#   From: 2010.05.17/outbox.cif.g08.bks.cpg/sg13_17_cif.got.tgz:33902.got - 2010.06.03 16:44:36.
