data_PCOD9232376
_publ_section_title
;
Structure prediction by ZEFSAII (Michael W. Deem and Ramdas Pophale) SiO2 
 PCOD9232376
Probable space group: P 2/C
;
_chemical_formula_sum "Si O2"
_cell_formula_units_Z 32
_cell_length_a 14.775402
_cell_length_b 5.362146
_cell_length_c 21.902567
_cell_angle_alpha 90.000000
_cell_angle_beta 68.245253
_cell_angle_gamma 90.000000
_cell_volume 1611.703966
_symmetry_space_group_name_H-M "P 2/C"
_symmetry_group_IT_number 13
_symmetry_cell_setting 'monoclinic'
loop_
_space_group_symop_operation_xyz
x,y,z
-x,y,1/2-z
-x,-y,-z
x,-y,1/2+z
loop_
_atom_site_type_symbol
_atom_site_label
_atom_site_fract_x
_atom_site_fract_y
_atom_site_fract_z
Si Si1 0.112448 0.342973 0.793703
Si Si2 0.566414 0.806105 0.448084
Si Si3 0.114242 0.272835 0.652021
Si Si4 0.723295 0.113811 0.357214
Si Si5 0.584658 0.883084 0.678242
Si Si6 0.409330 0.612543 0.402375
Si Si7 0.775824 0.825044 0.710735
Si Si8 0.724028 0.491718 0.464726
O O1 0.121890 0.393126 0.717992
O O2 0.150987 0.591853 0.817574
O O3 0.999842 0.271308 0.833092
O O4 0.172944 0.095043 0.795243
O O5 0.492005 0.620773 0.434243
O O6 0.647729 0.714796 0.475000
O O7 0.500000 0.000000 0.500000
O O8 0.635842 0.915955 0.377817
O O9 0.170960 0.412407 0.583316
O O10 0.174510 0.016796 0.648473
O O11 0.730738 0.228617 0.288903
O O12 0.696853 0.300424 0.417803
O O13 0.500000 0.892741 0.750000
O O14 0.573564 0.636415 0.640095
O O15 0.689417 0.850759 0.684446
O O16 0.581996 0.136978 0.639639
O O17 0.303595 0.612854 0.462554
#
# Coordination Sequence:
#
# PCOD9232376 Si02
#       8
#     4   4   4   4   4   4   4   4
#     4  10  21  38  65  94 129 163 205 261 321 389
#     4  11  22  37  58  95 133 166 202 254 326 390
#     4   9  21  35  60 100 129 159 199 258 335 387
#     4  10  21  36  62  93 131 159 202 259 326 388
#     4  12  28  46  66  89 126 175 224 260 299 367
#     4  12  26  42  66  92 127 172 216 261 312 375
#     4  11  23  41  63  89 126 168 214 262 310 367
#     4  11  22  37  64  95 132 160 201 264 330 385
#
# _framework density 19.854762999999998
#
# number of rings (size 3 to 8) (size 9 to 14) (size 15 to 20)
#    0.000    1.250    2.500    3.000    7.000    1.000 
#    0.000    0.000    0.000    4.500    0.000    0.000 
#    0.000    0.000    0.000    0.000    0.000    0.000 
#
# Total GULP energy -178570.194517 kJ/mol
# GULP energy per Si atom -5580.318579 kJ/mol
# Density = 1.980957 g / cm^3
# Si number density = 19.854763 Si / 1000 Ang^3
#
#
#
# Elastic Constant Matrix: (Units=GPa)
#
#
# Indices 1 2 3 4 5 6 
#
# 1 99.9941 23.7423 28.6653 0.0000 -9.4372 0.0000
# 2 23.7423 85.5085 37.2799 0.0000 1.7453 0.0000
# 3 28.6653 37.2799 94.9799 0.0000 -12.5198 0.0000
# 4 0.0000 0.0000 0.0000 38.0976 0.0000 -0.3292
# 5 -9.4372 1.7453 -12.5198 0.0000 26.6140 0.0000
# 6 0.0000 0.0000 0.0000 -0.3292 0.0000 19.2949
#
#
#
# Elastic Compliance Matrix: (Units=1/GPa)
#
#
# Indices 1 2 3 4 5 6 
#
# 1 0.011465 -0.002323 -0.002124 0.000000 0.003218 0.000000
# 2 -0.002323 0.014943 -0.005759 0.000000 -0.004513 0.000000
# 3 -0.002124 -0.005759 0.014265 0.000000 0.006335 0.000000
# 4 0.000000 0.000000 0.000000 0.026252 0.000000 0.000448
# 5 0.003218 -0.004513 0.006335 0.000000 0.041991 0.000000
# 6 0.000000 0.000000 0.000000 0.000448 0.000000 0.051835
#
#
# Mechanical properties :
#
#
# Convention : Reuss Voigt Hill
#
# Bulk Modulus (GPa) = 49.35661 51.09528 50.22595
# Shear Modulus (GPa) = 26.60766 29.52099 28.06432
#
# Velocity S-wave (km/s) = 3.66473 3.86015 3.76371
# Velocity P-wave (km/s) = 6.54368 6.75707 6.65123
#
# Compressibility (1/GPa) = 0.02026071
#
# Stress axis : x y z
#
# Youngs Moduli (GPa) = 87.22333 66.92310 70.10175
#
# Poissons Ratio (x) = 0.15546 0.14891
# Poissons Ratio (y) = 0.20261 0.40370
# Poissons Ratio (z) = 0.18527 0.38539
#
# Static dielectric constant tensor:
#      x y z
#    x 1.687610 0.000000 -0.011740 
#    y 0.000000 1.783650 0.000000 
#    z -0.011740 0.000000 1.734510 
# 
# From -- ./inp_files/79322.got.cif
#   From: 2010.05.17/outbox.cif.g08.bks.cpg/sg13_40_cif.got.tgz:79322.got - 2010.06.03 16:44:36.
