data_PCOD9232215
_publ_section_title
;
Structure prediction by ZEFSAII (Michael W. Deem and Ramdas Pophale) SiO2 
 PCOD9232215
Probable space group: P 2/C
;
_chemical_formula_sum "Si O2"
_cell_formula_units_Z 28
_cell_length_a 5.770649
_cell_length_b 12.909800
_cell_length_c 21.587269
_cell_angle_alpha 90.000000
_cell_angle_beta 117.070731
_cell_angle_gamma 90.000000
_cell_volume 1432.020288
_symmetry_space_group_name_H-M "P 2/C"
_symmetry_group_IT_number 13
_symmetry_cell_setting 'monoclinic'
loop_
_space_group_symop_operation_xyz
x,y,z
-x,y,1/2-z
-x,-y,-z
x,-y,1/2+z
loop_
_atom_site_type_symbol
_atom_site_label
_atom_site_fract_x
_atom_site_fract_y
_atom_site_fract_z
Si Si1 0.014773 0.573300 0.822838
Si Si2 0.500000 0.444643 0.750000
Si Si3 0.756684 0.640988 0.173372
Si Si4 0.500000 0.126794 0.250000
Si Si5 0.635737 0.165668 0.574782
Si Si6 0.244040 0.030505 0.326294
Si Si7 0.993891 0.211446 0.367217
Si Si8 0.992485 0.125234 0.998660
O O1 0.735556 0.519909 0.796130
O O2 0.077682 0.669603 0.873609
O O3 0.000000 0.611701 0.750000
O O4 0.205376 0.474596 0.849247
O O5 0.473688 0.370508 0.805783
O O6 0.717505 0.728844 0.118975
O O7 0.000000 0.659434 0.250000
O O8 0.475355 0.054418 0.307030
O O9 0.748911 0.197616 0.291381
O O10 0.317636 0.157479 0.537615
O O11 0.807441 0.157752 0.532285
O O12 0.722546 0.068565 0.627363
O O13 0.000000 0.017749 0.250000
O O14 0.200244 0.129922 0.364800
O O15 0.914175 0.175504 0.425632
O O16 0.000000 0.000000 0.000000
#
# Coordination Sequence:
#
# PCOD9232215 Si02
#       8
#     4   2   4   2   4   4   4   4
#     4   9  18  36  61  95 124 161 208 272 330 382
#     4   8  17  35  64  94 128 165 205 268 338 382
#     4   9  21  39  65  96 129 164 217 268 329 379
#     4  10  21  35  62  94 126 153 209 278 332 372
#     4  12  26  44  68  91 134 173 221 258 323 388
#     4  10  22  37  61  95 123 159 211 275 324 381
#     4  11  22  39  63  92 128 164 221 264 328 381
#     4  12  27  46  66  92 131 187 216 261 320 396
#
# _framework density 19.552796000000001
#
# number of rings (size 3 to 8) (size 9 to 14) (size 15 to 20)
#    0.000    2.000    1.429    3.429    8.000    1.714 
#    0.000    1.429    0.000    0.000    0.000    0.000 
#    0.000    0.000    0.000    0.000    0.000    0.000 
#
# Total GULP energy -156002.478766 kJ/mol
# GULP energy per Si atom -5571.517099 kJ/mol
# Density = 1.950829 g / cm^3
# Si number density = 19.552796 Si / 1000 Ang^3
#
#
#
# Elastic Constant Matrix: (Units=GPa)
#
#
# Indices 1 2 3 4 5 6 
#
# 1 92.2872 36.9255 43.9047 0.0000 -33.7430 0.0000
# 2 36.9255 137.8940 63.0531 0.0000 -33.7715 0.0000
# 3 43.9047 63.0531 83.1261 0.0000 -25.8657 0.0000
# 4 0.0000 0.0000 0.0000 -12.0171 0.0000 9.7165
# 5 -33.7430 -33.7715 -25.8657 0.0000 40.0963 0.0000
# 6 0.0000 0.0000 0.0000 9.7165 0.0000 -5.7627
#
#
#
# Elastic Compliance Matrix: (Units=1/GPa)
#
#
# Indices 1 2 3 4 5 6 
#
# 1 0.017798 0.001114 -0.006622 0.000000 0.011644 0.000000
# 2 0.001114 0.012000 -0.007825 0.000000 0.005997 0.000000
# 3 -0.006622 -0.007825 0.022118 0.000000 0.002105 0.000000
# 4 0.000000 0.000000 0.000000 0.229043 0.000000 0.386192
# 5 0.011644 0.005997 0.002105 0.000000 0.041148 0.000000
# 6 0.000000 0.000000 0.000000 0.386192 0.000000 0.477632
#
#
# Mechanical properties :
#
#
# Convention : Reuss Voigt Hill
#
# Bulk Modulus (GPa) = 39.60401 66.78598 53.19500
# Shear Modulus (GPa) = 5.98931 15.75823 10.87377
#
# Velocity S-wave (km/s) = 1.75208 2.84197 2.36079
# Velocity P-wave (km/s) = 4.93882 6.70820 5.89033
#
# Compressibility (1/GPa) = 0.02524997
#
# Stress axis : x y z
#
# Youngs Moduli (GPa) = 56.18664 83.33081 45.21295
#
# Poissons Ratio (x) = -0.09280 0.29939
# Poissons Ratio (y) = -0.06257 0.35378
# Poissons Ratio (z) = 0.37206 0.65204
#
# Static dielectric constant tensor:
#      x y z
#    x 1.807350 0.000000 0.012600 
#    y 0.000000 1.661610 0.000000 
#    z 0.012600 0.000000 1.682930 
# 
# From -- ./inp_files/73692.got.cif
#   From: 2010.05.17/outbox.cif.g08.bks.cpg/sg13_37_cif.got.tgz:73692.got - 2010.06.03 16:44:36.
