data_PCOD9232064
_publ_section_title
;
Structure prediction by ZEFSAII (Michael W. Deem and Ramdas Pophale) SiO2 
 PCOD9232064
Probable space group: P 2/C
;
_chemical_formula_sum "Si O2"
_cell_formula_units_Z 24
_cell_length_a 26.297356
_cell_length_b 5.154208
_cell_length_c 28.919677
_cell_angle_alpha 90.000000
_cell_angle_beta 160.008576
_cell_angle_gamma 90.000000
_cell_volume 1340.110185
_symmetry_space_group_name_H-M "P 2/C"
_symmetry_group_IT_number 13
_symmetry_cell_setting 'monoclinic'
loop_
_space_group_symop_operation_xyz
x,y,z
-x,y,1/2-z
-x,-y,-z
x,-y,1/2+z
loop_
_atom_site_type_symbol
_atom_site_label
_atom_site_fract_x
_atom_site_fract_y
_atom_site_fract_z
Si Si1 0.322684 0.675628 0.428468
Si Si2 0.047982 0.139264 0.738989
Si Si3 0.041434 0.632331 0.678178
Si Si4 0.662380 0.396593 0.214220
Si Si5 0.044228 0.373025 0.988805
Si Si6 0.251280 0.095873 0.769008
O O1 0.220042 0.421499 0.331348
O O2 0.492323 0.622629 0.584071
O O3 0.311218 0.835562 0.370867
O O4 0.226194 0.821942 0.385024
O O5 0.004934 0.908793 0.667683
O O6 0.000000 0.090013 0.750000
O O7 0.984086 0.407955 0.664041
O O8 0.985852 0.561814 0.579857
O O9 0.781198 0.326326 0.355616
O O10 0.691090 0.680099 0.216742
O O11 0.697489 0.182045 0.204926
O O12 0.928369 0.135656 0.883446
O O13 0.000000 0.500000 0.000000
#
# Coordination Sequence:
#
# PCOD9232064 Si02
#       6
#     4   4   4   4   4   4
#     4   9  22  32  56  77 109 135 182 222 272 305
#     4  10  21  37  60  81  99 138 189 239 271 307
#     4   9  21  35  56  79 108 134 183 221 271 317
#     4  11  21  32  51  80 112 146 170 213 259 325
#     4   9  20  34  53  79 113 149 177 204 260 333
#     4  10  21  32  50  76 114 144 181 203 258 319
#
# _framework density 17.908977
#
# number of rings (size 3 to 8) (size 9 to 14) (size 15 to 20)
#    1.000    1.333    0.000    2.000    9.333    2.667 
#    0.000    0.000    0.000    1.000    0.000    0.000 
#    0.000    0.000    0.000    0.000    0.000    0.000 
#
# Total GULP energy -133763.602074 kJ/mol
# GULP energy per Si atom -5573.483420 kJ/mol
# Density = 1.786822 g / cm^3
# Si number density = 17.908977 Si / 1000 Ang^3
#
#
#
# Elastic Constant Matrix: (Units=GPa)
#
#
# Indices 1 2 3 4 5 6 
#
# 1 87.6664 3.1564 36.3635 0.0000 -2.4723 0.0000
# 2 3.1564 51.6620 -10.9390 0.0000 0.9680 0.0000
# 3 36.3635 -10.9390 108.5992 0.0000 15.5812 0.0000
# 4 0.0000 0.0000 0.0000 4.2707 0.0000 -2.3230
# 5 -2.4723 0.9680 15.5812 0.0000 16.1349 0.0000
# 6 0.0000 0.0000 0.0000 -2.3230 0.0000 19.5741
#
#
#
# Elastic Compliance Matrix: (Units=1/GPa)
#
#
# Indices 1 2 3 4 5 6 
#
# 1 0.014309 -0.002349 -0.006225 0.000000 0.008345 0.000000
# 2 -0.002349 0.020347 0.003555 0.000000 -0.005014 0.000000
# 3 -0.006225 0.003555 0.013719 0.000000 -0.014415 0.000000
# 4 0.000000 0.000000 0.000000 0.250314 0.000000 0.029706
# 5 0.008345 -0.005014 -0.014415 0.000000 0.077478 0.000000
# 6 0.000000 0.000000 0.000000 0.029706 0.000000 0.054613
#
#
# Mechanical properties :
#
#
# Convention : Reuss Voigt Hill
#
# Bulk Modulus (GPa) = 26.08396 33.89881 29.99139
# Shear Modulus (GPa) = 11.02304 22.61903 16.82104
#
# Velocity S-wave (km/s) = 2.48363 3.55773 3.06805
# Velocity P-wave (km/s) = 4.77712 5.98716 5.41604
#
# Compressibility (1/GPa) = 0.03833774
#
# Stress axis : x y z
#
# Youngs Moduli (GPa) = 69.88664 49.14769 72.89206
#
# Poissons Ratio (x) = 0.11543 0.45376
# Poissons Ratio (y) = 0.16414 -0.25915
# Poissons Ratio (z) = 0.43505 -0.17473
#
# Static dielectric constant tensor:
#      x y z
#    x 1.600420 0.000000 0.021700 
#    y 0.000000 1.659090 0.000000 
#    z 0.021700 0.000000 1.640970 
# 
# From -- ./inp_files/93962.got.cif
#   From: 2010.05.17/outbox.cif.g08.bks.cpg/sg13_47_cif.got.tgz:93962.got - 2010.06.03 16:44:36.
