data_PCOD9232520
_publ_section_title
;
Structure prediction by ZEFSAII (Michael W. Deem and Ramdas Pophale) SiO2 
 PCOD9232520
Probable space group: P 2/C
;
_chemical_formula_sum "Si O2"
_cell_formula_units_Z 16
_cell_length_a 7.968153
_cell_length_b 18.302299
_cell_length_c 7.870422
_cell_angle_alpha 90.000000
_cell_angle_beta 143.350070
_cell_angle_gamma 90.000000
_cell_volume 685.141948
_symmetry_space_group_name_H-M "P 2/C"
_symmetry_group_IT_number 13
_symmetry_cell_setting 'monoclinic'
loop_
_space_group_symop_operation_xyz
x,y,z
-x,y,1/2-z
-x,-y,-z
x,-y,1/2+z
loop_
_atom_site_type_symbol
_atom_site_label
_atom_site_fract_x
_atom_site_fract_y
_atom_site_fract_z
Si Si1 0.684876 0.179043 0.056818
Si Si2 0.197935 0.941639 0.565838
Si Si3 0.095070 0.420083 0.632537
Si Si4 0.402907 0.666436 0.868659
O O1 0.714250 0.122405 0.234523
O O2 0.554022 0.255197 0.013388
O O3 0.000000 0.192684 0.250000
O O4 0.500000 0.150458 0.750000
O O5 0.500000 0.972824 0.750000
O O6 0.000000 0.000000 0.500000
O O7 0.000000 0.914817 0.250000
O O8 0.000000 0.414473 0.750000
O O9 0.000000 0.500000 0.500000
O O10 0.917982 0.359160 0.389918
O O11 0.418252 0.397130 0.894668
O O12 0.500000 0.670760 0.750000
#
# Coordination Sequence:
#
# PCOD9232520 Si02
#       4
#     4   4   4   4
#     4  12  26  45  70 104 139 179 232 291 349 418
#     4  12  27  49  76 106 144 190 236 293 356 426
#     4  10  21  37  60  90 125 167 218 274 335 404
#     4  10  22  41  63  90 128 174 220 272 339 408
#
# _framework density 23.352824999999999
#
# number of rings (size 3 to 8) (size 9 to 14) (size 15 to 20)
#    0.000    1.000    0.000    6.000    0.000    8.000 
#    0.000    0.000    0.000    0.000    0.000    0.000 
#    0.000    0.000    0.000    0.000    0.000    0.000 
#
# Total GULP energy -89598.645770 kJ/mol
# GULP energy per Si atom -5599.915361 kJ/mol
# Density = 2.329967 g / cm^3
# Si number density = 23.352825 Si / 1000 Ang^3
#
#
#
# Elastic Constant Matrix: (Units=GPa)
#
#
# Indices 1 2 3 4 5 6 
#
# 1 77.2551 30.0804 46.9115 0.0000 -3.1332 0.0000
# 2 30.0804 134.8992 49.3722 0.0000 -24.9205 0.0000
# 3 46.9115 49.3722 180.0885 0.0000 -18.4964 0.0000
# 4 0.0000 0.0000 0.0000 35.8801 0.0000 -13.4338
# 5 -3.1332 -24.9205 -18.4964 0.0000 47.0042 0.0000
# 6 0.0000 0.0000 0.0000 -13.4338 0.0000 -43.9249
#
#
#
# Elastic Compliance Matrix: (Units=1/GPa)
#
#
# Indices 1 2 3 4 5 6 
#
# 1 0.016101 -0.002568 -0.003668 0.000000 -0.001731 0.000000
# 2 -0.002568 0.009288 -0.001448 0.000000 0.004183 0.000000
# 3 -0.003668 -0.001448 0.007088 0.000000 0.001777 0.000000
# 4 0.000000 0.000000 0.000000 0.025007 0.000000 -0.007648
# 5 -0.001731 0.004183 0.001777 0.000000 0.024077 0.000000
# 6 0.000000 0.000000 0.000000 -0.007648 0.000000 -0.020427
#
#
# Mechanical properties :
#
#
# Convention : Reuss Voigt Hill
#
# Bulk Modulus (GPa) = 58.44599 71.66342 65.05470
# Shear Modulus (GPa) = 60.82423 25.51712 43.17068
#
# Velocity S-wave (km/s) = 5.10904 3.30915 4.30423
# Velocity P-wave (km/s) = 7.73853 6.73458 7.25394
#
# Compressibility (1/GPa) = 0.01710981
#
# Stress axis : x y z
#
# Youngs Moduli (GPa) = 62.10785 107.66306 141.08787
#
# Poissons Ratio (x) = 0.27644 0.51752
# Poissons Ratio (y) = 0.15947 0.20428
# Poissons Ratio (z) = 0.22782 0.15588
#
# Static dielectric constant tensor:
#      x y z
#    x 1.884510 0.000000 -0.029340 
#    y 0.000000 1.857000 0.000000 
#    z -0.029340 0.000000 1.855930 
# 
# From -- ./inp_files/12930.got.cif
#   From: 2010.05.17/outbox.cif.g08.bks.cpg/sg13_7_cif.got.tgz:12930.got - 2010.06.03 16:44:36.
