data_PCOD9232134
_publ_section_title
;
Structure prediction by ZEFSAII (Michael W. Deem and Ramdas Pophale) SiO2 
 PCOD9232134
Probable space group: P 2/C
;
_chemical_formula_sum "Si O2"
_cell_formula_units_Z 22
_cell_length_a 9.241436
_cell_length_b 9.602147
_cell_length_c 18.474743
_cell_angle_alpha 90.000000
_cell_angle_beta 44.410653
_cell_angle_gamma 90.000000
_cell_volume 1147.249237
_symmetry_space_group_name_H-M "P 2/C"
_symmetry_group_IT_number 13
_symmetry_cell_setting 'monoclinic'
loop_
_space_group_symop_operation_xyz
x,y,z
-x,y,1/2-z
-x,-y,-z
x,-y,1/2+z
loop_
_atom_site_type_symbol
_atom_site_label
_atom_site_fract_x
_atom_site_fract_y
_atom_site_fract_z
Si Si1 0.701533 0.761394 0.879662
Si Si2 0.800012 0.369048 0.491062
Si Si3 0.661916 0.548368 0.344571
Si Si4 0.223219 0.221123 0.580153
Si Si5 0.000000 0.014167 0.250000
Si Si6 0.114578 0.619830 0.378648
O O1 0.732170 0.608993 0.833877
O O2 0.820035 0.878360 0.792237
O O3 0.792300 0.744610 0.929591
O O4 0.459713 0.798686 0.971924
O O5 0.584550 0.450683 0.554468
O O6 0.791352 0.332178 0.578902
O O7 0.999503 0.469116 0.418334
O O8 0.764173 0.655475 0.364417
O O9 0.721603 0.605955 0.244563
O O10 0.070962 0.275781 0.573348
O O11 0.114704 0.086640 0.652926
#
# Coordination Sequence:
#
# PCOD9232134 Si02
#       6
#     4   4   4   4   2   4
#     4  11  22  39  60  88 118 155 200 246 288 349
#     4  10  21  34  57  92 115 147 185 255 300 341
#     4  11  19  37  63  86 113 151 200 243 295 348
#     4  11  21  39  61  85 114 154 199 246 288 347
#     4  12  24  36  62  86 118 162 208 236 282 356
#     4  11  19  34  59  89 119 142 191 245 308 338
#
# _framework density 19.176303999999998
#
# number of rings (size 3 to 8) (size 9 to 14) (size 15 to 20)
#    0.000    1.091    5.455    3.273    0.000    0.000 
#    0.000    0.909    0.000    2.182    0.000    0.000 
#    0.000    0.000    0.000    0.000    0.000    0.000 
#
# Total GULP energy -122682.637542 kJ/mol
# GULP energy per Si atom -5576.483525 kJ/mol
# Density = 1.913266 g / cm^3
# Si number density = 19.176304 Si / 1000 Ang^3
#
#
#
# Elastic Constant Matrix: (Units=GPa)
#
#
# Indices 1 2 3 4 5 6 
#
# 1 83.5535 27.6817 24.6525 0.0000 11.7018 0.0000
# 2 27.6817 93.1710 26.1114 0.0000 -9.2374 0.0000
# 3 24.6525 26.1114 85.8077 0.0000 -15.8282 0.0000
# 4 0.0000 0.0000 0.0000 32.0909 0.0000 -10.7463
# 5 11.7018 -9.2374 -15.8282 0.0000 31.8243 0.0000
# 6 0.0000 0.0000 0.0000 -10.7463 0.0000 9.6469
#
#
#
# Elastic Compliance Matrix: (Units=1/GPa)
#
#
# Indices 1 2 3 4 5 6 
#
# 1 0.016324 -0.004376 -0.005174 0.000000 -0.009846 0.000000
# 2 -0.004376 0.013001 -0.001878 0.000000 0.004448 0.000000
# 3 -0.005174 -0.001878 0.015373 0.000000 0.009003 0.000000
# 4 0.000000 0.000000 0.000000 0.049702 0.000000 0.055367
# 5 -0.009846 0.004448 0.009003 0.000000 0.040812 0.000000
# 6 0.000000 0.000000 0.000000 0.055367 0.000000 0.165337
#
#
# Mechanical properties :
#
#
# Convention : Reuss Voigt Hill
#
# Bulk Modulus (GPa) = 45.78779 46.60261 46.19520
# Shear Modulus (GPa) = 15.12008 26.98484 21.05246
#
# Velocity S-wave (km/s) = 2.81103 3.75533 3.31696
# Velocity P-wave (km/s) = 5.87069 6.56950 6.22990
#
# Compressibility (1/GPa) = 0.02183988
#
# Stress axis : x y z
#
# Youngs Moduli (GPa) = 61.26017 76.92000 65.04942
#
# Poissons Ratio (x) = 0.33660 0.33659
# Poissons Ratio (y) = 0.26807 0.12218
# Poissons Ratio (z) = 0.31699 0.14448
#
# Static dielectric constant tensor:
#      x y z
#    x 1.672360 0.000000 -0.003530 
#    y 0.000000 1.689650 0.000000 
#    z -0.003530 0.000000 1.719780 
# 
# From -- ./inp_files/46196.got.cif
#   From: 2010.05.17/outbox.cif.g08.bks.cpg/sg13_24_cif.got.tgz:46196.got - 2010.06.03 16:44:36.
