data_PCOD9232127
_publ_section_title
;
Structure prediction by ZEFSAII (Michael W. Deem and Ramdas Pophale) SiO2 
 PCOD9232127
Probable space group: P 2/C
;
_chemical_formula_sum "Si O2"
_cell_formula_units_Z 24
_cell_length_a 19.178177
_cell_length_b 11.360228
_cell_length_c 20.212693
_cell_angle_alpha 90.000000
_cell_angle_beta 13.837375
_cell_angle_gamma 90.000000
_cell_volume 1053.221251
_symmetry_space_group_name_H-M "P 2/C"
_symmetry_group_IT_number 13
_symmetry_cell_setting 'monoclinic'
loop_
_space_group_symop_operation_xyz
x,y,z
-x,y,1/2-z
-x,-y,-z
x,-y,1/2+z
loop_
_atom_site_type_symbol
_atom_site_label
_atom_site_fract_x
_atom_site_fract_y
_atom_site_fract_z
Si Si1 0.757326 0.429278 0.063641
Si Si2 0.016991 0.661757 0.867195
Si Si3 0.144704 0.083775 0.272395
Si Si4 0.343509 0.069293 0.240239
Si Si5 0.642612 0.303924 0.973193
Si Si6 0.631649 0.613458 0.341593
O O1 0.500000 0.404878 0.250000
O O2 0.857999 0.565404 0.968690
O O3 0.607124 0.394806 0.271919
O O4 0.047075 0.351575 0.787787
O O5 0.914996 0.619394 0.034719
O O6 0.981727 0.801390 0.894903
O O7 0.364523 0.649991 0.541038
O O8 0.220775 0.103098 0.280187
O O9 0.932339 0.971965 0.464155
O O10 0.446580 0.043512 0.961884
O O11 0.522716 0.177518 0.104622
O O12 0.675033 0.300851 0.863902
O O13 0.500000 0.500000 0.500000
#
# Coordination Sequence:
#
# PCOD9232127 Si02
#       6
#     4   4   4   4   4   4
#     4  12  26  42  61  85 116 161 208 255 297 343
#     4  12  22  37  59  89 125 157 192 244 301 369
#     4  10  21  34  55  88 131 156 186 228 296 370
#     4  10  21  35  55  89 125 158 185 232 294 368
#     4  12  23  39  63  88 124 157 195 248 304 367
#     4  12  21  34  57  94 123 151 189 239 319 369
#
# _framework density 22.787237000000001
#
# number of rings (size 3 to 8) (size 9 to 14) (size 15 to 20)
#    0.000    0.667    5.000    4.000    4.667    0.000 
#    0.000    0.000    0.000    6.000    0.000    0.000 
#    0.000    0.000    0.000    0.000    0.000    0.000 
#
# Total GULP energy -134065.434135 kJ/mol
# GULP energy per Si atom -5586.059756 kJ/mol
# Density = 2.273537 g / cm^3
# Si number density = 22.787237 Si / 1000 Ang^3
#
#
#
# Elastic Constant Matrix: (Units=GPa)
#
#
# Indices 1 2 3 4 5 6 
#
# 1 11.1190 1.2883 12.7904 0.0000 2.1680 0.0000
# 2 1.2883 118.4103 39.9303 0.0000 -19.3643 0.0000
# 3 12.7904 39.9303 139.0367 0.0000 -7.3730 0.0000
# 4 0.0000 0.0000 0.0000 42.3593 0.0000 4.0442
# 5 2.1680 -19.3643 -7.3730 0.0000 25.8468 0.0000
# 6 0.0000 0.0000 0.0000 4.0442 0.0000 3.2475
#
#
#
# Elastic Compliance Matrix: (Units=1/GPa)
#
#
# Indices 1 2 3 4 5 6 
#
# 1 0.103929 0.000498 -0.010302 0.000000 -0.011283 0.000000
# 2 0.000498 0.010500 -0.002687 0.000000 0.007058 0.000000
# 3 -0.010302 -0.002687 0.008987 0.000000 0.001414 0.000000
# 4 0.000000 0.000000 0.000000 0.026793 0.000000 -0.033365
# 5 -0.011283 0.007058 0.001414 0.000000 0.045327 0.000000
# 6 0.000000 0.000000 0.000000 -0.033365 0.000000 0.349475
#
#
# Mechanical properties :
#
#
# Convention : Reuss Voigt Hill
#
# Bulk Modulus (GPa) = 10.15914 41.84267 26.00091
# Shear Modulus (GPa) = 8.29456 28.59454 18.44455
#
# Velocity S-wave (km/s) = 1.90995 3.54623 2.84813
# Velocity P-wave (km/s) = 3.05480 5.93042 4.71708
#
# Compressibility (1/GPa) = 0.09843350
#
# Stress axis : x y z
#
# Youngs Moduli (GPa) = 9.62200 95.23584 111.27441
#
# Poissons Ratio (x) = -0.04744 1.14636
# Poissons Ratio (y) = -0.00479 0.29901
# Poissons Ratio (z) = 0.09913 0.25591
#
# Static dielectric constant tensor:
#      x y z
#    x 1.898300 0.000000 -0.008290 
#    y 0.000000 1.943540 0.000000 
#    z -0.008290 0.000000 1.802770 
# 
# From -- ./inp_files/93857.got.cif
#   From: 2010.05.17/outbox.cif.g08.bks.cpg/sg13_47_cif.got.tgz:93857.got - 2010.06.03 16:44:36.
