data_PCOD9232141
_publ_section_title
;
Structure prediction by ZEFSAII (Michael W. Deem and Ramdas Pophale) SiO2 
 PCOD9232141
Probable space group: P 2/C
;
_chemical_formula_sum "Si O2"
_cell_formula_units_Z 30
_cell_length_a 7.318453
_cell_length_b 9.200477
_cell_length_c 17.925174
_cell_angle_alpha 90.000000
_cell_angle_beta 109.268410
_cell_angle_gamma 90.000000
_cell_volume 1139.350120
_symmetry_space_group_name_H-M "P 2/C"
_symmetry_group_IT_number 13
_symmetry_cell_setting 'monoclinic'
loop_
_space_group_symop_operation_xyz
x,y,z
-x,y,1/2-z
-x,-y,-z
x,-y,1/2+z
loop_
_atom_site_type_symbol
_atom_site_label
_atom_site_fract_x
_atom_site_fract_y
_atom_site_fract_z
Si Si1 0.668343 0.182860 0.447517
Si Si2 0.488053 0.945854 0.330775
Si Si3 0.717143 0.626904 0.808884
Si Si4 0.228319 0.745591 0.947906
Si Si5 0.774265 0.511550 0.664517
Si Si6 0.372308 0.363911 0.619189
Si Si7 0.116125 0.943714 0.385984
Si Si8 0.000000 0.236768 0.750000
O O1 0.738937 0.283470 0.388557
O O2 0.452195 0.225726 0.449287
O O3 0.807647 0.158989 0.536890
O O4 0.637211 0.026257 0.405307
O O5 0.500000 0.011381 0.250000
O O6 0.537041 0.778113 0.333540
O O7 0.284487 0.958117 0.345809
O O8 0.500000 0.657187 0.750000
O O9 0.808056 0.619902 0.739105
O O10 0.738636 0.459090 0.836148
O O11 0.149118 0.606203 0.893249
O O12 0.106738 0.892360 0.916497
O O13 0.246472 0.693508 0.034466
O O14 0.548093 0.471467 0.618690
O O15 0.857140 0.353233 0.692899
O O16 0.948951 0.868381 0.314004
#
# Coordination Sequence:
#
# PCOD9232141 Si02
#       8
#     4   4   4   4   4   4   4   2
#     4  11  19  37  61  96 126 148 193 252 323 366
#     4  11  20  32  62  96 124 149 191 254 318 357
#     4  10  21  34  59  96 129 148 189 257 319 357
#     4  11  20  37  63  92 122 153 200 255 316 363
#     4  11  23  39  61  90 123 167 203 247 301 365
#     4  11  19  35  60  97 121 147 194 261 318 362
#     4  11  24  40  60  89 123 166 204 244 298 372
#     4  12  26  44  62  78 122 172 222 240 282 360
#
# _framework density 26.330801000000001
#
# number of rings (size 3 to 8) (size 9 to 14) (size 15 to 20)
#    0.000    1.067    6.667    2.800    3.733    0.533 
#    0.000    0.667    0.000    1.600    0.000    0.000 
#    0.000    0.000    0.000    0.000    0.000    0.000 
#
# Total GULP energy -167736.430083 kJ/mol
# GULP energy per Si atom -5591.214336 kJ/mol
# Density = 2.627087 g / cm^3
# Si number density = 26.330801 Si / 1000 Ang^3
#
#
#
# Elastic Constant Matrix: (Units=GPa)
#
#
# Indices 1 2 3 4 5 6 
#
# 1 69.9608 13.2922 8.2163 0.0000 -2.2651 0.0000
# 2 13.2922 112.1129 31.5833 0.0000 16.4568 0.0000
# 3 8.2163 31.5833 171.5569 0.0000 5.1773 0.0000
# 4 0.0000 0.0000 0.0000 30.6662 0.0000 11.7630
# 5 -2.2651 16.4568 5.1773 0.0000 26.6477 0.0000
# 6 0.0000 0.0000 0.0000 11.7630 0.0000 14.8844
#
#
#
# Elastic Compliance Matrix: (Units=1/GPa)
#
#
# Indices 1 2 3 4 5 6 
#
# 1 0.014810 -0.002018 -0.000416 0.000000 0.002586 0.000000
# 2 -0.002018 0.010560 -0.001655 0.000000 -0.006372 0.000000
# 3 -0.000416 -0.001655 0.006160 0.000000 -0.000210 0.000000
# 4 0.000000 0.000000 0.000000 0.046795 0.000000 -0.036981
# 5 0.002586 -0.006372 -0.000210 0.000000 0.041722 0.000000
# 6 0.000000 0.000000 0.000000 -0.036981 0.000000 0.096411
#
#
# Mechanical properties :
#
#
# Convention : Reuss Voigt Hill
#
# Bulk Modulus (GPa) = 42.82370 51.09047 46.95708
# Shear Modulus (GPa) = 21.51276 34.47560 27.99418
#
# Velocity S-wave (km/s) = 2.86146 3.62239 3.26417
# Velocity P-wave (km/s) = 5.21692 6.07791 5.66380
#
# Compressibility (1/GPa) = 0.02335156
#
# Stress axis : x y z
#
# Youngs Moduli (GPa) = 67.52312 94.69290 162.33934
#
# Poissons Ratio (x) = 0.19112 0.06749
# Poissons Ratio (y) = 0.13628 0.26870
# Poissons Ratio (z) = 0.02807 0.15674
#
# Static dielectric constant tensor:
#      x y z
#    x 2.298180 0.000000 0.050790 
#    y 0.000000 2.024330 0.000000 
#    z 0.050790 0.000000 2.027880 
# 
# From -- ./inp_files/66318.got.cif
#   From: 2010.05.17/outbox.cif.g08.bks.cpg/sg13_34_cif.got.tgz:66318.got - 2010.06.03 16:44:36.
