data_PCOD9232085
_publ_section_title
;
Structure prediction by ZEFSAII (Michael W. Deem and Ramdas Pophale) SiO2 
 PCOD9232085
Probable space group: P 2/C
;
_chemical_formula_sum "Si O2"
_cell_formula_units_Z 28
_cell_length_a 9.511733
_cell_length_b 6.814609
_cell_length_c 26.724984
_cell_angle_alpha 90.000000
_cell_angle_beta 139.173556
_cell_angle_gamma 90.000000
_cell_volume 1132.512432
_symmetry_space_group_name_H-M "P 2/C"
_symmetry_group_IT_number 13
_symmetry_cell_setting 'monoclinic'
loop_
_space_group_symop_operation_xyz
x,y,z
-x,y,1/2-z
-x,-y,-z
x,-y,1/2+z
loop_
_atom_site_type_symbol
_atom_site_label
_atom_site_fract_x
_atom_site_fract_y
_atom_site_fract_z
Si Si1 0.745871 0.851192 0.007631
Si Si2 0.723694 0.278689 0.768105
Si Si3 0.628416 0.974088 0.665230
Si Si4 0.242779 0.555510 0.808887
Si Si5 0.947471 0.811193 0.521282
Si Si6 0.239429 0.723936 0.384779
Si Si7 0.841925 0.586086 0.404664
O O1 0.585117 0.887306 0.918299
O O2 0.855562 0.067688 0.043201
O O3 0.646183 0.788540 0.033398
O O4 0.920101 0.684022 0.040058
O O5 0.654858 0.451831 0.711639
O O6 0.706691 0.334084 0.821734
O O7 0.985740 0.265826 0.831172
O O8 0.623379 0.082285 0.717217
O O9 0.769621 0.781645 0.706124
O O10 0.719665 0.126463 0.649471
O O11 0.328695 0.480271 0.885523
O O12 0.000000 0.481332 0.750000
O O13 0.785844 0.681946 0.443307
O O14 0.123658 0.648242 0.584243
O O15 0.000000 0.000000 0.500000
#
# Coordination Sequence:
#
# PCOD9232085 Si02
#       7
#     4   4   4   4   4   4   4
#     4  10  21  33  53  82 110 142 177 227 286 325
#     4   9  19  34  52  77 107 142 185 226 265 319
#     4  11  20  32  51  79 115 146 177 220 270 326
#     4   9  18  31  48  71 105 149 189 222 259 312
#     4   9  19  37  60  81 101 133 183 233 278 332
#     4   9  19  34  49  74 108 146 190 222 255 317
#     4   9  19  37  59  80 104 138 185 233 277 332
#
# _framework density 24.723790000000001
#
# number of rings (size 3 to 8) (size 9 to 14) (size 15 to 20)
#    0.000    2.571    0.000    2.571    0.000    9.714 
#    0.000    0.714    0.000    0.000    0.000    0.000 
#    0.000    0.000    0.000    0.000    0.000    0.000 
#
# Total GULP energy -156121.552516 kJ/mol
# GULP energy per Si atom -5575.769733 kJ/mol
# Density = 2.466752 g / cm^3
# Si number density = 24.723790 Si / 1000 Ang^3
#
#
#
# Elastic Constant Matrix: (Units=GPa)
#
#
# Indices 1 2 3 4 5 6 
#
# 1 58.5307 24.3671 18.4691 0.0000 -24.1893 0.0000
# 2 24.3671 149.4319 50.0570 0.0000 -30.2518 0.0000
# 3 18.4691 50.0570 136.1032 0.0000 -27.0664 0.0000
# 4 0.0000 0.0000 0.0000 34.6482 0.0000 -0.8793
# 5 -24.1893 -30.2518 -27.0664 0.0000 44.3776 0.0000
# 6 0.0000 0.0000 0.0000 -0.8793 0.0000 21.8036
#
#
#
# Elastic Compliance Matrix: (Units=1/GPa)
#
#
# Indices 1 2 3 4 5 6 
#
# 1 0.022304 -0.001277 -0.000356 0.000000 0.011070 0.000000
# 2 -0.001277 0.008375 -0.002174 0.000000 0.003687 0.000000
# 3 -0.000356 -0.002174 0.008947 0.000000 0.003781 0.000000
# 4 0.000000 0.000000 0.000000 0.028891 0.000000 0.001165
# 5 0.011070 0.003687 0.003781 0.000000 0.033388 0.000000
# 6 0.000000 0.000000 0.000000 0.001165 0.000000 0.045911
#
#
# Mechanical properties :
#
#
# Convention : Reuss Voigt Hill
#
# Bulk Modulus (GPa) = 31.23651 58.87247 45.05449
# Shear Modulus (GPa) = 30.10257 36.91072 33.50665
#
# Velocity S-wave (km/s) = 3.49313 3.86803 3.68535
# Velocity P-wave (km/s) = 5.37875 6.61911 6.03090
#
# Compressibility (1/GPa) = 0.03201382
#
# Stress axis : x y z
#
# Youngs Moduli (GPa) = 44.83538 119.40554 111.76908
#
# Poissons Ratio (x) = 0.15245 0.03974
# Poissons Ratio (y) = 0.05724 0.24294
# Poissons Ratio (z) = 0.01594 0.25954
#
# Static dielectric constant tensor:
#      x y z
#    x 2.219980 0.000000 0.069290 
#    y 0.000000 1.979090 0.000000 
#    z 0.069290 0.000000 2.097260 
# 
# From -- ./inp_files/96809.got.cif
#   From: 2010.05.17/outbox.cif.g08.bks.cpg/sg13_49_cif.got.tgz:96809.got - 2010.06.03 16:44:36.
