data_PCOD9232513
_publ_section_title
;
Structure prediction by ZEFSAII (Michael W. Deem and Ramdas Pophale) SiO2 
 PCOD9232513
Probable space group: P 2/C
;
_chemical_formula_sum "Si O2"
_cell_formula_units_Z 22
_cell_length_a 16.888532
_cell_length_b 5.836376
_cell_length_c 28.129827
_cell_angle_alpha 90.000000
_cell_angle_beta 19.839304
_cell_angle_gamma 90.000000
_cell_volume 941.006568
_symmetry_space_group_name_H-M "P 2/C"
_symmetry_group_IT_number 13
_symmetry_cell_setting 'monoclinic'
loop_
_space_group_symop_operation_xyz
x,y,z
-x,y,1/2-z
-x,-y,-z
x,-y,1/2+z
loop_
_atom_site_type_symbol
_atom_site_label
_atom_site_fract_x
_atom_site_fract_y
_atom_site_fract_z
Si Si1 0.724084 0.414517 0.844682
Si Si2 0.423480 0.475375 0.173381
Si Si3 0.015578 0.093021 0.413199
Si Si4 0.814795 0.697439 0.115187
Si Si5 0.143066 0.733753 0.594722
Si Si6 0.000000 0.047898 0.750000
O O1 0.677614 0.382116 0.814758
O O2 0.897878 0.627897 0.747534
O O3 0.850515 0.204297 0.798616
O O4 0.500000 0.500000 0.000000
O O5 0.406398 0.581922 0.235763
O O6 0.251942 0.253250 0.274401
O O7 0.694715 0.511767 0.007024
O O8 0.822690 0.172964 0.561175
O O9 0.890305 0.113318 0.433472
O O10 0.095853 0.859375 0.392541
O O11 0.000000 0.500000 0.000000
O O12 0.188494 0.902700 0.612822
#
# Coordination Sequence:
#
# PCOD9232513 Si02
#       6
#     4   4   4   4   4   2
#     4  11  24  42  60  85 124 165 210 271 331 392
#     4  10  21  37  60  88 124 162 207 261 319 384
#     4   9  20  39  62  89 128 166 204 261 323 382
#     4   9  18  37  63  90 121 162 206 256 319 386
#     4  11  24  39  61  95 124 165 221 265 323 393
#     4  12  24  40  64  88 120 164 220 276 330 392
#
# _framework density 23.379218999999999
#
# number of rings (size 3 to 8) (size 9 to 14) (size 15 to 20)
#    0.000    1.818    0.000    3.818    0.000    8.000 
#    0.000    0.000    0.000   17.455    0.000    0.000 
#    0.000    0.000    0.000    0.000    0.000    0.000 
#
# Total GULP energy -122529.879118 kJ/mol
# GULP energy per Si atom -5569.539960 kJ/mol
# Density = 2.332601 g / cm^3
# Si number density = 23.379219 Si / 1000 Ang^3
#
#
#
# Elastic Constant Matrix: (Units=GPa)
#
#
# Indices 1 2 3 4 5 6 
#
# 1 105.6976 33.7204 38.6663 0.0000 36.7953 0.0000
# 2 33.7204 56.1910 32.7215 0.0000 23.0419 0.0000
# 3 38.6663 32.7215 122.2079 0.0000 31.5692 0.0000
# 4 0.0000 0.0000 0.0000 19.2892 0.0000 15.6616
# 5 36.7953 23.0419 31.5692 0.0000 39.3352 0.0000
# 6 0.0000 0.0000 0.0000 15.6616 0.0000 45.7715
#
#
#
# Elastic Compliance Matrix: (Units=1/GPa)
#
#
# Indices 1 2 3 4 5 6 
#
# 1 0.014808 -0.003948 -0.000817 0.000000 -0.010884 0.000000
# 2 -0.003948 0.025681 -0.003400 0.000000 -0.008622 0.000000
# 3 -0.000817 -0.003400 0.010899 0.000000 -0.005992 0.000000
# 4 0.000000 0.000000 0.000000 0.071786 0.000000 -0.024563
# 5 -0.010884 -0.008622 -0.005992 0.000000 0.045463 0.000000
# 6 0.000000 0.000000 0.000000 -0.024563 0.000000 0.030252
#
#
# Mechanical properties :
#
#
# Convention : Reuss Voigt Hill
#
# Bulk Modulus (GPa) = 28.52253 54.92365 41.72309
# Shear Modulus (GPa) = 22.03567 32.81175 27.42371
#
# Velocity S-wave (km/s) = 3.07340 3.75034 3.42862
# Velocity P-wave (km/s) = 4.98205 6.50361 5.79300
#
# Compressibility (1/GPa) = 0.03506001
#
# Stress axis : x y z
#
# Youngs Moduli (GPa) = 67.53100 38.93958 91.74870
#
# Poissons Ratio (x) = 0.15372 0.07492
# Poissons Ratio (y) = 0.26659 0.31193
# Poissons Ratio (z) = 0.05515 0.13239
#
# Static dielectric constant tensor:
#      x y z
#    x 1.915370 0.000000 -0.005540 
#    y 0.000000 1.965380 0.000000 
#    z -0.005540 0.000000 1.919610 
# 
# From -- ./inp_files/56635.got.cif
#   From: 2010.05.17/outbox.cif.g08.bks.cpg/sg13_29_cif.got.tgz:56635.got - 2010.06.03 16:44:36.
