data_PCOD9232423
_publ_section_title
;
Structure prediction by ZEFSAII (Michael W. Deem and Ramdas Pophale) SiO2 
 PCOD9232423
Probable space group: P 2/C
;
_chemical_formula_sum "Si O2"
_cell_formula_units_Z 32
_cell_length_a 16.835624
_cell_length_b 15.998164
_cell_length_c 5.450776
_cell_angle_alpha 90.000000
_cell_angle_beta 90.000036
_cell_angle_gamma 90.000000
_cell_volume 1468.106959
_symmetry_space_group_name_H-M "P 2/C"
_symmetry_group_IT_number 13
_symmetry_cell_setting 'monoclinic'
loop_
_space_group_symop_operation_xyz
x,y,z
-x,y,1/2-z
-x,-y,-z
x,-y,1/2+z
loop_
_atom_site_type_symbol
_atom_site_label
_atom_site_fract_x
_atom_site_fract_y
_atom_site_fract_z
Si Si1 0.840183 0.953431 0.999997
Si Si2 0.273225 0.581017 0.500002
Si Si3 0.649988 0.045338 0.499996
Si Si4 0.790354 0.394780 0.999998
Si Si5 0.025028 0.630539 0.000000
Si Si6 0.549478 0.795256 0.000000
Si Si7 0.550241 0.399388 0.500000
Si Si8 0.958900 0.817745 0.000000
O O1 0.127388 0.141284 0.000001
O O2 0.866903 1.000000 0.749996
O O3 0.745180 0.955649 0.999996
O O4 0.219166 0.496611 0.500002
O O5 0.252810 0.629849 0.748289
O O6 0.365342 0.554020 0.500000
O O7 0.252809 0.629849 0.251715
O O8 0.620294 0.139650 0.499999
O O9 0.622083 0.999999 0.749994
O O10 0.880002 0.361871 1.000000
O O11 0.000000 0.588105 0.750000
O O12 0.973995 0.717680 1.000000
O O13 0.000000 0.588105 0.250000
O O14 0.500000 0.808942 0.750000
O O15 0.500000 0.808942 0.250000
O O16 0.573467 0.698344 0.000002
O O17 0.500000 0.413032 0.750000
O O18 0.500000 0.413031 0.250000
O O19 0.000000 0.847460 0.250000
O O20 0.000000 0.847459 0.750000
#
# Coordination Sequence:
#
# PCOD9232423 Si02
#       8
#     4   4   4   4   4   4   4   4
#     4  10  21  37  57  81 117 154 193 246 297 349
#     4  10  21  40  63  91 124 156 200 243 300 368
#     4  10  21  37  56  84 118 153 196 242 297 349
#     4  10  21  40  61  91 124 152 198 249 303 360
#     4  10  21  40  61  85 122 157 198 257 296 363
#     4  10  21  37  58  86 118 155 200 242 291 348
#     4  10  21  40  63  88 124 163 203 248 297 353
#     4  10  21  37  57  84 113 147 202 240 294 352
#
# _framework density 21.796776999999999
#
# number of rings (size 3 to 8) (size 9 to 14) (size 15 to 20)
#    0.000    2.000    0.000    3.000    0.000    3.000 
#    9.000   15.000    0.000    0.000    0.000    0.000 
#    0.000    0.000    0.000    0.000    0.000    0.000 
#
# Total GULP energy -178576.956094 kJ/mol
# GULP energy per Si atom -5580.529878 kJ/mol
# Density = 2.174717 g / cm^3
# Si number density = 21.796777 Si / 1000 Ang^3
#
#
#
# Elastic Constant Matrix: (Units=GPa)
#
#
# Indices 1 2 3 4 5 6 
#
# 1 59.0143 30.7640 43.3126 0.0000 -0.0005 0.0000
# 2 30.7640 112.8824 21.8229 0.0000 -0.0014 0.0000
# 3 43.3126 21.8229 237.4818 0.0000 -0.0016 0.0000
# 4 0.0000 0.0000 0.0000 -24.2323 0.0000 0.0010
# 5 -0.0005 -0.0014 -0.0016 0.0000 21.1878 0.0000
# 6 0.0000 0.0000 0.0000 0.0010 0.0000 -26.1950
#
#
#
# Elastic Compliance Matrix: (Units=1/GPa)
#
#
# Indices 1 2 3 4 5 6 
#
# 1 0.022399 -0.005411 -0.003588 0.000000 0.000000 0.000000
# 2 -0.005411 0.010326 0.000038 0.000000 0.000001 0.000000
# 3 -0.003588 0.000038 0.004862 0.000000 0.000000 0.000000
# 4 0.000000 0.000000 0.000000 -0.041267 0.000000 -0.000002
# 5 0.000000 0.000001 0.000000 0.000000 0.047197 0.000000
# 6 0.000000 0.000000 0.000000 -0.000002 0.000000 -0.038175
#
#
# Mechanical properties :
#
#
# Convention : Reuss Voigt Hill
#
# Bulk Modulus (GPa) = 50.85138 66.79750 58.82444
# Shear Modulus (GPa) = 167.68451 15.05072 91.36761
#
# Velocity S-wave (km/s) = 8.78054 2.63059 6.48143
# Velocity P-wave (km/s) = 11.23288 6.31971 9.11363
#
# Compressibility (1/GPa) = 0.01966515
#
# Stress axis : x y z
#
# Youngs Moduli (GPa) = 44.64486 96.84250 205.68728
#
# Poissons Ratio (x) = 0.52399 0.73800
# Poissons Ratio (y) = 0.24156 -0.00780
# Poissons Ratio (z) = 0.16018 -0.00367
#
# Static dielectric constant tensor:
#      x y z
#    x 1.772510 0.000000 0.000000 
#    y 0.000000 1.797670 0.000000 
#    z 0.000000 0.000000 1.855760 
# 
# From -- ./inp_files/5357.got.cif
#   From: 2010.05.17/outbox.cif.g08.bks.cpg/sg13_3_cif.got.tgz:5357.got - 2010.06.03 16:44:36.
