data_PCOD9232501
_publ_section_title
;
Structure prediction by ZEFSAII (Michael W. Deem and Ramdas Pophale) SiO2 
 PCOD9232501
Probable space group: P 2/C
;
_chemical_formula_sum "Si O2"
_cell_formula_units_Z 32
_cell_length_a 22.552731
_cell_length_b 9.433884
_cell_length_c 13.723507
_cell_angle_alpha 90.000000
_cell_angle_beta 31.579054
_cell_angle_gamma 90.000000
_cell_volume 1529.030703
_symmetry_space_group_name_H-M "P 2/C"
_symmetry_group_IT_number 13
_symmetry_cell_setting 'monoclinic'
loop_
_space_group_symop_operation_xyz
x,y,z
-x,y,1/2-z
-x,-y,-z
x,-y,1/2+z
loop_
_atom_site_type_symbol
_atom_site_label
_atom_site_fract_x
_atom_site_fract_y
_atom_site_fract_z
Si Si1 0.380447 0.452385 0.941664
Si Si2 0.604683 0.869821 0.035286
Si Si3 0.235434 0.660147 0.273725
Si Si4 0.053135 0.632896 0.370969
Si Si5 0.814814 0.580870 0.939514
Si Si6 0.724833 0.035991 0.715870
Si Si7 0.182866 0.897148 0.623668
Si Si8 0.030569 0.911034 0.093381
O O1 0.500000 0.521126 0.750000
O O2 0.405710 0.299896 0.954165
O O3 0.312017 0.546675 0.112389
O O4 0.305505 0.431327 0.948778
O O5 0.500000 0.920382 0.250000
O O6 0.722132 0.896790 0.927334
O O7 0.626418 0.939191 0.899481
O O8 0.140410 0.696412 0.326982
O O9 0.189712 0.593154 0.438077
O O10 0.296437 0.804532 0.218295
O O11 0.115928 0.556197 0.192728
O O12 0.970517 0.757141 0.454268
O O13 0.000000 0.500000 0.500000
O O14 0.857994 0.735949 0.842746
O O15 0.748940 0.045449 0.566818
O O16 0.848157 0.984543 0.580853
O O17 0.073141 0.991751 0.798796
O O18 0.000000 0.890933 0.250000
#
# Coordination Sequence:
#
# PCOD9232501 Si02
#       8
#     4   4   4   4   4   4   4   4
#     4   9  20  39  60  86 115 152 198 240 296 351
#     4  10  21  37  60  84 115 155 195 245 294 348
#     4  10  22  38  57  83 115 153 193 239 293 341
#     4  11  25  35  55  87 112 154 191 233 285 344
#     4   9  21  39  58  82 120 152 193 241 287 350
#     4  10  22  38  60  86 116 154 198 241 294 347
#     4   9  20  40  59  84 118 155 194 238 293 350
#     4  10  23  39  59  87 121 155 192 240 290 350
#
# _framework density 20.928291999999999
#
# number of rings (size 3 to 8) (size 9 to 14) (size 15 to 20)
#    0.000    2.250    0.000    0.750    8.750    3.500 
#    0.000    0.000    0.000    0.000    0.000    0.000 
#    0.000    0.000    0.000    0.000    0.000    0.000 
#
# Total GULP energy -178703.871355 kJ/mol
# GULP energy per Si atom -5584.495980 kJ/mol
# Density = 2.088066 g / cm^3
# Si number density = 20.928292 Si / 1000 Ang^3
#
#
#
# Elastic Constant Matrix: (Units=GPa)
#
#
# Indices 1 2 3 4 5 6 
#
# 1 40.1916 21.2554 12.7531 0.0000 22.5524 0.0000
# 2 21.2554 55.5756 13.6723 0.0000 6.5390 0.0000
# 3 12.7531 13.6723 59.1250 0.0000 17.9525 0.0000
# 4 0.0000 0.0000 0.0000 25.1438 0.0000 2.2595
# 5 22.5524 6.5390 17.9525 0.0000 23.7780 0.0000
# 6 0.0000 0.0000 0.0000 2.2595 0.0000 20.3189
#
#
#
# Elastic Compliance Matrix: (Units=1/GPa)
#
#
# Indices 1 2 3 4 5 6 
#
# 1 0.073717 -0.022457 0.011219 0.000000 -0.072212 0.000000
# 2 -0.022457 0.026034 -0.007097 0.000000 0.019499 0.000000
# 3 0.011219 -0.007097 0.024356 0.000000 -0.027078 0.000000
# 4 0.000000 0.000000 0.000000 0.040173 0.000000 -0.004467
# 5 -0.072212 0.019499 -0.027078 0.000000 0.125628 0.000000
# 6 0.000000 0.000000 0.000000 -0.004467 0.000000 0.049712
#
#
# Mechanical properties :
#
#
# Convention : Reuss Voigt Hill
#
# Bulk Modulus (GPa) = 11.43678 27.80599 19.62139
# Shear Modulus (GPa) = 12.33237 20.99558 16.66398
#
# Velocity S-wave (km/s) = 2.43012 3.17079 2.82484
# Velocity P-wave (km/s) = 3.65384 5.16918 4.47610
#
# Compressibility (1/GPa) = 0.08743718
#
# Stress axis : x y z
#
# Youngs Moduli (GPa) = 13.56530 38.41087 41.05696
#
# Poissons Ratio (x) = 0.86261 -0.46060
# Poissons Ratio (y) = 0.30464 0.29137
# Poissons Ratio (z) = -0.15218 0.27259
#
# Static dielectric constant tensor:
#      x y z
#    x 1.402450 0.000000 0.506590 
#    y 0.000000 1.790490 0.000000 
#    z 0.506590 0.000000 1.161220 
# 
# From -- ./inp_files/58790.got.cif
#   From: 2010.05.17/outbox.cif.g08.bks.cpg/sg13_30_cif.got.tgz:58790.got - 2010.06.03 16:44:36.
