data_PCOD9232022
_publ_section_title
;
Structure prediction by ZEFSAII (Michael W. Deem and Ramdas Pophale) SiO2 
 PCOD9232022
Probable space group: P 2/C
;
_chemical_formula_sum "Si O2"
_cell_formula_units_Z 14
_cell_length_a 14.732296
_cell_length_b 7.764328
_cell_length_c 10.076169
_cell_angle_alpha 90.000000
_cell_angle_beta 152.919282
_cell_angle_gamma 90.000000
_cell_volume 524.705018
_symmetry_space_group_name_H-M "P 2/C"
_symmetry_group_IT_number 13
_symmetry_cell_setting 'monoclinic'
loop_
_space_group_symop_operation_xyz
x,y,z
-x,y,1/2-z
-x,-y,-z
x,-y,1/2+z
loop_
_atom_site_type_symbol
_atom_site_label
_atom_site_fract_x
_atom_site_fract_y
_atom_site_fract_z
Si Si1 0.222329 0.345443 0.374503
Si Si2 0.683621 0.019962 0.140414
Si Si3 0.000000 0.106800 0.250000
Si Si4 0.137019 0.715790 0.293180
O O1 0.349603 0.215140 0.452767
O O2 0.177408 0.235874 0.445861
O O3 0.269729 0.540983 0.467302
O O4 0.011443 0.324146 0.022087
O O5 0.891567 0.005079 0.495137
O O6 0.727489 0.881630 0.077216
O O7 0.500000 0.000000 0.000000
O O8 0.000000 0.704636 0.250000
#
# Coordination Sequence:
#
# PCOD9232022 Si02
#       4
#     4   4   2   4
#     4  10  22  39  68  98 131 179 232 274 340 406
#     4  11  26  42  69 105 137 176 229 281 349 406
#     4  10  20  44  70  96 134 182 226 282 332 410
#     4  10  21  41  71  96 134 184 230 277 340 407
#
# _framework density 26.681659
#
# number of rings (size 3 to 8) (size 9 to 14) (size 15 to 20)
#    0.000    1.714    1.429    3.429    8.000    2.286 
#    0.000    0.000    6.286    0.000    0.000    0.000 
#    0.000    0.000    0.000    0.000    0.000    0.000 
#
# Total GULP energy -77993.636762 kJ/mol
# GULP energy per Si atom -5570.974054 kJ/mol
# Density = 2.662093 g / cm^3
# Si number density = 26.681659 Si / 1000 Ang^3
#
#
#
# Elastic Constant Matrix: (Units=GPa)
#
#
# Indices 1 2 3 4 5 6 
#
# 1 181.8313 83.3720 36.1513 0.0000 45.3954 0.0000
# 2 83.3720 223.0787 14.7826 0.0000 26.8504 0.0000
# 3 36.1513 14.7826 107.0255 0.0000 17.1862 0.0000
# 4 0.0000 0.0000 0.0000 -0.4185 0.0000 -11.8608
# 5 45.3954 26.8504 17.1862 0.0000 59.3061 0.0000
# 6 0.0000 0.0000 0.0000 -11.8608 0.0000 7.3499
#
#
#
# Elastic Compliance Matrix: (Units=1/GPa)
#
#
# Indices 1 2 3 4 5 6 
#
# 1 0.008059 -0.002345 -0.001655 0.000000 -0.004627 0.000000
# 2 -0.002345 0.005434 0.000156 0.000000 -0.000710 0.000000
# 3 -0.001655 0.000156 0.010162 0.000000 -0.001748 0.000000
# 4 0.000000 0.000000 0.000000 -0.051128 0.000000 -0.082507
# 5 -0.004627 -0.000710 -0.001748 0.000000 0.021232 0.000000
# 6 0.000000 0.000000 0.000000 -0.082507 0.000000 0.002911
#
#
# Mechanical properties :
#
#
# Convention : Reuss Voigt Hill
#
# Bulk Modulus (GPa) = 62.63419 86.72746 74.68082
# Shear Modulus (GPa) = 516.36017 38.42281 277.39149
#
# Velocity S-wave (km/s) = 13.92646 3.79891 10.20730
# Velocity P-wave (km/s) = 16.79645 7.19843 12.92165
#
# Compressibility (1/GPa) = 0.01596572
#
# Stress axis : x y z
#
# Youngs Moduli (GPa) = 124.07932 184.01133 98.40652
#
# Poissons Ratio (x) = 0.43158 0.16289
# Poissons Ratio (y) = 0.29101 -0.01532
# Poissons Ratio (z) = 0.20539 -0.02864
#
# Static dielectric constant tensor:
#      x y z
#    x 2.517730 0.000000 -0.029010 
#    y 0.000000 2.226050 0.000000 
#    z -0.029010 0.000000 2.118880 
# 
# From -- ./inp_files/35815.got.cif
#   From: 2010.05.17/outbox.cif.g08.bks.cpg/sg13_18_cif.got.tgz:35815.got - 2010.06.03 16:44:36.
