data_PCOD9232676
_publ_section_title
;
Structure prediction by ZEFSAII (Michael W. Deem and Ramdas Pophale) SiO2 
 PCOD9232676
Probable space group: P 2/C
;
_chemical_formula_sum "Si O2"
_cell_formula_units_Z 14
_cell_length_a 21.593372
_cell_length_b 4.972738
_cell_length_c 4.909891
_cell_angle_alpha 90.000000
_cell_angle_beta 118.796941
_cell_angle_gamma 90.000000
_cell_volume 462.015732
_symmetry_space_group_name_H-M "P 2/C"
_symmetry_group_IT_number 13
_symmetry_cell_setting 'monoclinic'
loop_
_space_group_symop_operation_xyz
x,y,z
-x,y,1/2-z
-x,-y,-z
x,-y,1/2+z
loop_
_atom_site_type_symbol
_atom_site_label
_atom_site_fract_x
_atom_site_fract_y
_atom_site_fract_z
Si Si1 0.000000 0.500000 0.000000
Si Si2 0.573646 0.192030 0.831823
Si Si3 0.867452 0.186090 0.453047
Si Si4 0.279085 0.192431 0.207986
O O1 0.937766 0.363472 0.633623
O O2 0.000000 0.736791 0.750000
O O3 0.500000 0.333119 0.750000
O O4 0.573659 0.069663 0.532063
O O5 0.647242 0.333452 0.062044
O O6 0.794312 0.335672 0.372989
O O7 0.865585 0.062108 0.153885
O O8 0.279144 0.930962 0.408724
#
# Coordination Sequence:
#
# PCOD9232676 Si02
#       4
#     2   4   4   4
#     4  12  26  40  58  84 108 136 184 228 274 330
#     4   8  12  18  31  55  88 123 159 199 239 287
#     4  10  21  38  58  79 108 144 180 223 271 321
#     4   8  14  25  42  64  92 130 169 203 249 305
#
# _framework density 30.301997
#
# number of rings (size 3 to 8) (size 9 to 14) (size 15 to 20)
#    0.000    2.857    0.000    1.714    0.000    3.429 
#    0.000    0.000    0.000    0.000    0.000    0.000 
#    0.000    2.286    0.000    0.000    0.000   21.143 
#
# Total GULP energy -78277.460287 kJ/mol
# GULP energy per Si atom -5591.247163 kJ/mol
# Density = 3.023303 g / cm^3
# Si number density = 30.301997 Si / 1000 Ang^3
#
#
#
# Elastic Constant Matrix: (Units=GPa)
#
#
# Indices 1 2 3 4 5 6 
#
# 1 250.8937 41.6495 87.9469 0.0000 66.2379 0.0000
# 2 41.6495 87.7207 41.7352 0.0000 -2.3693 0.0000
# 3 87.9469 41.7352 197.8982 0.0000 -6.9587 0.0000
# 4 0.0000 0.0000 0.0000 32.1077 0.0000 -63.0556
# 5 66.2379 -2.3693 -6.9587 0.0000 115.7204 0.0000
# 6 0.0000 0.0000 0.0000 -63.0556 0.0000 -18.0388
#
#
#
# Elastic Compliance Matrix: (Units=1/GPa)
#
#
# Indices 1 2 3 4 5 6 
#
# 1 0.006131 -0.001837 -0.002467 0.000000 -0.003695 0.000000
# 2 -0.001837 0.013223 -0.001930 0.000000 0.001206 0.000000
# 3 -0.002467 -0.001930 0.006619 0.000000 0.001771 0.000000
# 4 0.000000 0.000000 0.000000 0.003960 0.000000 -0.013843
# 5 -0.003695 0.001206 0.001771 0.000000 0.010888 0.000000
# 6 0.000000 0.000000 0.000000 -0.013843 0.000000 -0.007049
#
#
# Mechanical properties :
#
#
# Convention : Reuss Voigt Hill
#
# Bulk Modulus (GPa) = 74.04876 97.68622 85.86749
# Shear Modulus (GPa) = 98.53800 50.30325 74.42063
#
# Velocity S-wave (km/s) = 5.70870 4.07881 4.96115
# Velocity P-wave (km/s) = 8.24271 7.38172 7.82407
#
# Compressibility (1/GPa) = 0.01350462
#
# Stress axis : x y z
#
# Youngs Moduli (GPa) = 163.10039 75.62721 151.08464
#
# Poissons Ratio (x) = 0.13893 0.37276
# Poissons Ratio (y) = 0.29962 0.29156
# Poissons Ratio (z) = 0.40241 0.14594
#
# Static dielectric constant tensor:
#      x y z
#    x 2.699370 0.000000 0.031890 
#    y 0.000000 2.073470 0.000000 
#    z 0.031890 0.000000 2.416460 
# 
# From -- ./inp_files/7673.got.cif
#   From: 2010.05.17/outbox.cif.g08.bks.cpg/sg13_4_cif.got.tgz:7673.got - 2010.06.03 16:44:36.
