data_PCOD9232289
_publ_section_title
;
Structure prediction by ZEFSAII (Michael W. Deem and Ramdas Pophale) SiO2 
 PCOD9232289
Probable space group: P 2/C
;
_chemical_formula_sum "Si O2"
_cell_formula_units_Z 28
_cell_length_a 24.764495
_cell_length_b 10.628845
_cell_length_c 24.393281
_cell_angle_alpha 90.000000
_cell_angle_beta 11.661218
_cell_angle_gamma 90.000000
_cell_volume 1297.790516
_symmetry_space_group_name_H-M "P 2/C"
_symmetry_group_IT_number 13
_symmetry_cell_setting 'monoclinic'
loop_
_space_group_symop_operation_xyz
x,y,z
-x,y,1/2-z
-x,-y,-z
x,-y,1/2+z
loop_
_atom_site_type_symbol
_atom_site_label
_atom_site_fract_x
_atom_site_fract_y
_atom_site_fract_z
Si Si1 0.164173 0.918616 0.934773
Si Si2 0.366296 0.878831 0.105088
Si Si3 0.179483 0.202852 0.625963
Si Si4 0.771764 0.717880 0.871467
Si Si5 0.000000 0.569710 0.750000
Si Si6 0.726899 0.059923 0.488028
Si Si7 0.500000 0.596436 0.750000
Si Si8 0.255937 0.781650 0.328964
O O1 0.427721 0.849573 0.648875
O O2 0.238992 0.069034 0.865234
O O3 0.924010 0.912116 0.129404
O O4 0.028558 0.841477 0.120033
O O5 0.334959 0.783689 0.186732
O O6 0.500000 0.000000 0.000000
O O7 0.378132 0.320645 0.421486
O O8 0.000000 0.215822 0.750000
O O9 0.363051 0.078966 0.437836
O O10 0.878480 0.647116 0.819405
O O11 0.976143 0.714083 0.618392
O O12 0.776822 0.863100 0.884755
O O13 0.470873 0.704056 0.150839
O O14 0.248866 0.487393 0.481456
O O15 0.500000 0.123918 0.750000
O O16 0.000000 0.054183 0.250000
#
# Coordination Sequence:
#
# PCOD9232289 Si02
#       8
#     4   4   4   4   2   4   2   4
#     4  11  22  36  61  94 134 174 201 251 326 396
#     4  10  21  36  56  89 137 175 207 242 311 402
#     4  11  25  40  64  95 130 166 214 263 328 391
#     4  12  23  38  62  91 127 170 214 258 323 383
#     4  12  28  46  62  92 126 182 230 270 324 394
#     4  11  22  34  55  88 128 158 193 249 313 388
#     4  12  26  48  64  84 134 174 228 278 314 390
#     4  11  21  36  60  92 130 171 208 257 312 391
#
# _framework density 21.575130000000001
#
# number of rings (size 3 to 8) (size 9 to 14) (size 15 to 20)
#    0.000    0.857    3.571    6.000    5.000    0.000 
#    0.000    0.000    0.000    0.000    0.000   20.000 
#    0.000    0.000    0.000    0.000    0.000    0.000 
#
# Total GULP energy -156187.197222 kJ/mol
# GULP energy per Si atom -5578.114187 kJ/mol
# Density = 2.152602 g / cm^3
# Si number density = 21.575130 Si / 1000 Ang^3
#
#
#
# Elastic Constant Matrix: (Units=GPa)
#
#
# Indices 1 2 3 4 5 6 
#
# 1 89.0410 16.5044 38.0690 0.0000 14.1020 0.0000
# 2 16.5044 51.2140 28.7990 0.0000 -1.1078 0.0000
# 3 38.0690 28.7990 144.8599 0.0000 14.2823 0.0000
# 4 0.0000 0.0000 0.0000 35.6977 0.0000 3.0226
# 5 14.1020 -1.1078 14.2823 0.0000 56.8177 0.0000
# 6 0.0000 0.0000 0.0000 3.0226 0.0000 5.8049
#
#
#
# Elastic Compliance Matrix: (Units=1/GPa)
#
#
# Indices 1 2 3 4 5 6 
#
# 1 0.013327 -0.002852 -0.002670 0.000000 -0.002692 0.000000
# 2 -0.002852 0.022730 -0.003982 0.000000 0.002152 0.000000
# 3 -0.002670 -0.003982 0.008551 0.000000 -0.001564 0.000000
# 4 0.000000 0.000000 0.000000 0.029305 0.000000 -0.015259
# 5 -0.002692 0.002152 -0.001564 0.000000 0.018704 0.000000
# 6 0.000000 0.000000 0.000000 -0.015259 0.000000 0.180214
#
#
# Mechanical properties :
#
#
# Convention : Reuss Voigt Hill
#
# Bulk Modulus (GPa) = 39.06000 50.20664 44.63332
# Shear Modulus (GPa) = 16.64606 33.11356 24.87981
#
# Velocity S-wave (km/s) = 2.78067 3.92191 3.39952
# Velocity P-wave (km/s) = 5.33414 6.62039 6.01176
#
# Compressibility (1/GPa) = 0.02560164
#
# Stress axis : x y z
#
# Youngs Moduli (GPa) = 75.03390 43.99388 116.94933
#
# Poissons Ratio (x) = 0.12546 0.31226
# Poissons Ratio (y) = 0.21398 0.46565
# Poissons Ratio (z) = 0.20034 0.17517
#
# Static dielectric constant tensor:
#      x y z
#    x 1.848010 0.000000 0.003130 
#    y 0.000000 1.817950 0.000000 
#    z 0.003130 0.000000 1.844990 
# 
# From -- ./inp_files/94157.got.cif
#   From: 2010.05.17/outbox.cif.g08.bks.cpg/sg13_48_cif.got.tgz:94157.got - 2010.06.03 16:44:36.
