data_PCOD9232568
_publ_section_title
;
Structure prediction by ZEFSAII (Michael W. Deem and Ramdas Pophale) SiO2 
 PCOD9232568
Probable space group: P 2/C
;
_chemical_formula_sum "Si O2"
_cell_formula_units_Z 30
_cell_length_a 9.289011
_cell_length_b 29.462647
_cell_length_c 5.233737
_cell_angle_alpha 90.000000
_cell_angle_beta 100.337526
_cell_angle_gamma 90.000000
_cell_volume 1409.112615
_symmetry_space_group_name_H-M "P 2/C"
_symmetry_group_IT_number 13
_symmetry_cell_setting 'monoclinic'
loop_
_space_group_symop_operation_xyz
x,y,z
-x,y,1/2-z
-x,-y,-z
x,-y,1/2+z
loop_
_atom_site_type_symbol
_atom_site_label
_atom_site_fract_x
_atom_site_fract_y
_atom_site_fract_z
Si Si1 0.668460 0.980242 0.559972
Si Si2 0.595859 0.355060 0.523716
Si Si3 0.000000 0.532131 0.750000
Si Si4 0.169078 0.829971 0.305532
Si Si5 0.348362 0.744124 0.337577
Si Si6 0.912690 0.705323 0.488886
Si Si7 0.171762 0.889542 0.800615
Si Si8 0.139483 0.396783 0.611895
O O1 0.704948 0.928156 0.625190
O O2 0.500000 0.000000 0.500000
O O3 0.737670 0.991982 0.312325
O O4 0.500000 0.351512 0.750000
O O5 0.648840 0.302700 0.496261
O O6 0.724298 0.389322 0.652100
O O7 0.500000 0.369355 0.250000
O O8 0.868877 0.566407 0.618625
O O9 0.000000 0.500000 0.500000
O O10 0.276863 0.789392 0.421483
O O11 0.186704 0.867710 0.527342
O O12 0.000000 0.813492 0.250000
O O13 0.192596 0.852599 0.034613
O O14 0.500000 0.753321 0.250000
O O15 0.237158 0.730985 0.079092
O O16 0.877573 0.652458 0.521157
O O17 0.000000 0.707339 0.250000
O O18 0.000000 0.724679 0.750000
O O19 0.000000 0.905641 0.750000
O O20 0.000000 0.405217 0.750000
#
# Coordination Sequence:
#
# PCOD9232568 Si02
#       8
#     4   4   2   4   4   4   4   4
#     4  10  21  39  62  91 121 147 193 258 311 368
#     4  10  24  41  65  93 134 172 213 275 329 380
#     4  12  24  38  64 100 136 164 210 286 344 394
#     4  10  22  41  62  88 128 173 211 249 302 382
#     4  10  23  40  60  94 129 167 215 262 314 370
#     4  10  21  37  62  90 121 164 212 269 309 373
#     4  10  22  41  64  89 120 162 206 248 309 373
#     4  10  22  39  66  95 127 164 226 263 331 389
#
# _framework density 21.289992000000002
#
# number of rings (size 3 to 8) (size 9 to 14) (size 15 to 20)
#    0.000    1.867    1.333    1.200    1.867   12.267 
#    7.200    0.000    0.000    2.400    0.000    0.000 
#    0.000    0.000    0.000    0.000    0.000    0.000 
#
# Total GULP energy -167236.654848 kJ/mol
# GULP energy per Si atom -5574.555162 kJ/mol
# Density = 2.124154 g / cm^3
# Si number density = 21.289992 Si / 1000 Ang^3
#
#
#
# Elastic Constant Matrix: (Units=GPa)
#
#
# Indices 1 2 3 4 5 6 
#
# 1 84.9973 38.5480 33.4159 0.0000 25.2645 0.0000
# 2 38.5480 94.8391 24.1296 0.0000 13.5921 0.0000
# 3 33.4159 24.1296 147.7415 0.0000 18.7870 0.0000
# 4 0.0000 0.0000 0.0000 -19.6365 0.0000 40.7208
# 5 25.2645 13.5921 18.7870 0.0000 25.4422 0.0000
# 6 0.0000 0.0000 0.0000 40.7208 0.0000 -2.6576
#
#
#
# Elastic Compliance Matrix: (Units=1/GPa)
#
#
# Indices 1 2 3 4 5 6 
#
# 1 0.019279 -0.005262 -0.001572 0.000000 -0.015173 0.000000
# 2 -0.005262 0.013051 -0.000794 0.000000 -0.001161 0.000000
# 3 -0.001572 -0.000794 0.007727 0.000000 -0.003721 0.000000
# 4 0.000000 0.000000 0.000000 0.001655 0.000000 0.025356
# 5 -0.015173 -0.001161 -0.003721 0.000000 0.057740 0.000000
# 6 0.000000 0.000000 0.000000 0.025356 0.000000 0.012227
#
#
# Mechanical properties :
#
#
# Convention : Reuss Voigt Hill
#
# Bulk Modulus (GPa) = 40.31814 57.75166 49.03490
# Shear Modulus (GPa) = 36.98195 16.06190 26.52193
#
# Velocity S-wave (km/s) = 4.17232 2.74968 3.53334
# Velocity P-wave (km/s) = 6.49537 6.10459 6.30301
#
# Compressibility (1/GPa) = 0.02480273
#
# Stress axis : x y z
#
# Youngs Moduli (GPa) = 51.86908 76.62098 129.41851
#
# Poissons Ratio (x) = 0.40316 0.20342
# Poissons Ratio (y) = 0.27292 0.10273
# Poissons Ratio (z) = 0.08153 0.06082
#
# Static dielectric constant tensor:
#      x y z
#    x 1.854780 0.000000 0.009240 
#    y 0.000000 1.825970 0.000000 
#    z 0.009240 0.000000 1.815440 
# 
# From -- ./inp_files/2734.got.cif
#   From: 2010.05.17/outbox.cif.g08.bks.cpg/sg13_2_cif.got.tgz:2734.got - 2010.06.03 16:44:36.
