data_PCOD9232556
_publ_section_title
;
Structure prediction by ZEFSAII (Michael W. Deem and Ramdas Pophale) SiO2 
 PCOD9232556
Probable space group: P 2/C
;
_chemical_formula_sum "Si O2"
_cell_formula_units_Z 14
_cell_length_a 7.537197
_cell_length_b 10.012738
_cell_length_c 9.404631
_cell_angle_alpha 90.000000
_cell_angle_beta 59.199781
_cell_angle_gamma 90.000000
_cell_volume 609.644103
_symmetry_space_group_name_H-M "P 2/C"
_symmetry_group_IT_number 13
_symmetry_cell_setting 'monoclinic'
loop_
_space_group_symop_operation_xyz
x,y,z
-x,y,1/2-z
-x,-y,-z
x,-y,1/2+z
loop_
_atom_site_type_symbol
_atom_site_label
_atom_site_fract_x
_atom_site_fract_y
_atom_site_fract_z
Si Si1 0.745496 0.330015 0.146617
Si Si2 0.714610 0.431530 0.462969
Si Si3 0.000000 0.975095 0.250000
Si Si4 0.136392 0.831034 0.456721
O O1 0.500000 0.302302 0.250000
O O2 0.802446 0.383638 0.278047
O O3 0.804709 0.444639 0.011225
O O4 0.893660 0.208833 0.055299
O O5 0.500000 0.500000 0.500000
O O6 0.729118 0.300448 0.558935
O O7 0.153557 0.892167 0.291899
O O8 0.860001 0.065415 0.413725
#
# Coordination Sequence:
#
# PCOD9232556 Si02
#       4
#     4   4   2   4
#     4  10  21  37  61  94 128 161 211 275 328 370
#     4  10  21  37  63  93 125 160 210 276 325 370
#     4  10  24  38  68  88 126 184 212 256 310 392
#     4  11  21  42  63  92 128 168 225 253 321 384
#
# _framework density 22.964220000000001
#
# number of rings (size 3 to 8) (size 9 to 14) (size 15 to 20)
#    0.000    1.714    2.857    0.857    4.000    0.000 
#    0.000    1.429    0.000    0.000    0.000    0.000 
#    0.000    0.000    0.000    0.000    0.000    0.000 
#
# Total GULP energy -78035.720812 kJ/mol
# GULP energy per Si atom -5573.980058 kJ/mol
# Density = 2.291195 g / cm^3
# Si number density = 22.964220 Si / 1000 Ang^3
#
#
#
# Elastic Constant Matrix: (Units=GPa)
#
#
# Indices 1 2 3 4 5 6 
#
# 1 127.7978 24.8261 34.5295 0.0000 7.7065 0.0000
# 2 24.8261 77.5628 46.2564 0.0000 16.1314 0.0000
# 3 34.5295 46.2564 79.6415 0.0000 35.5841 0.0000
# 4 0.0000 0.0000 0.0000 23.1131 0.0000 23.3723
# 5 7.7065 16.1314 35.5841 0.0000 42.1532 0.0000
# 6 0.0000 0.0000 0.0000 23.3723 0.0000 34.6570
#
#
#
# Elastic Compliance Matrix: (Units=1/GPa)
#
#
# Indices 1 2 3 4 5 6 
#
# 1 0.009065 -0.000624 -0.004710 0.000000 0.002558 0.000000
# 2 -0.000624 0.020078 -0.012859 0.000000 0.003285 0.000000
# 3 -0.004710 -0.012859 0.031283 0.000000 -0.020626 0.000000
# 4 0.000000 0.000000 0.000000 0.136034 0.000000 -0.091740
# 5 0.002558 0.003285 -0.020626 0.000000 0.039409 0.000000
# 6 0.000000 0.000000 0.000000 -0.091740 0.000000 0.090723
#
#
# Mechanical properties :
#
#
# Convention : Reuss Voigt Hill
#
# Bulk Modulus (GPa) = 41.60038 55.13624 48.36831
# Shear Modulus (GPa) = 13.47744 31.94399 22.71072
#
# Velocity S-wave (km/s) = 2.42521 3.73370 3.14819
# Velocity P-wave (km/s) = 5.09871 6.53063 5.85858
#
# Compressibility (1/GPa) = 0.02403824
#
# Stress axis : x y z
#
# Youngs Moduli (GPa) = 110.31950 49.80609 31.96663
#
# Poissons Ratio (x) = 0.03109 0.15058
# Poissons Ratio (y) = 0.06886 0.41105
# Poissons Ratio (z) = 0.51966 0.64044
#
# Static dielectric constant tensor:
#      x y z
#    x 1.805090 0.000000 0.164830 
#    y 0.000000 1.909870 0.000000 
#    z 0.164830 0.000000 1.709930 
# 
# From -- ./inp_files/10801.got.cif
#   From: 2010.05.17/outbox.cif.g08.bks.cpg/sg13_6_cif.got.tgz:10801.got - 2010.06.03 16:44:36.
