data_PCOD9232383
_publ_section_title
;
Structure prediction by ZEFSAII (Michael W. Deem and Ramdas Pophale) SiO2 
 PCOD9232383
Probable space group: P 2/C
;
_chemical_formula_sum "Si O2"
_cell_formula_units_Z 32
_cell_length_a 13.174910
_cell_length_b 8.838875
_cell_length_c 16.733579
_cell_angle_alpha 90.000000
_cell_angle_beta 44.607331
_cell_angle_gamma 90.000000
_cell_volume 1368.426949
_symmetry_space_group_name_H-M "P 2/C"
_symmetry_group_IT_number 13
_symmetry_cell_setting 'monoclinic'
loop_
_space_group_symop_operation_xyz
x,y,z
-x,y,1/2-z
-x,-y,-z
x,-y,1/2+z
loop_
_atom_site_type_symbol
_atom_site_label
_atom_site_fract_x
_atom_site_fract_y
_atom_site_fract_z
Si Si1 0.658589 0.448235 0.885181
Si Si2 0.552656 0.866496 0.415198
Si Si3 0.892758 0.868766 0.533402
Si Si4 0.931365 0.432953 0.956968
Si Si5 0.762007 0.273081 0.416924
Si Si6 0.335711 0.557478 0.310559
Si Si7 0.949057 0.719746 0.665827
Si Si8 0.662298 0.093407 0.688007
O O1 0.650502 0.267024 0.897799
O O2 0.748695 0.549785 0.897520
O O3 0.675428 0.480416 0.778924
O O4 0.500000 0.500000 0.000000
O O5 0.398782 0.787362 0.474253
O O6 0.646233 0.935242 0.291241
O O7 0.500000 0.000000 0.500000
O O8 0.947809 0.746464 0.438753
O O9 0.884193 0.768084 0.618183
O O10 0.748275 0.960307 0.596973
O O11 0.000000 0.000000 0.500000
O O12 0.763443 0.466317 0.071177
O O13 0.017462 0.538964 0.847380
O O14 0.000000 0.500000 0.000000
O O15 0.884832 0.228758 0.412131
O O16 0.839514 0.215720 0.292461
O O17 0.500000 0.546695 0.250000
O O18 0.285191 0.732820 0.345869
O O19 0.500000 0.094536 0.750000
#
# Coordination Sequence:
#
# PCOD9232383 Si02
#       8
#     4   4   4   4   4   4   4   4
#     4   9  19  35  57  84 119 158 202 256 314 362
#     4  10  21  37  60  87 126 163 201 256 320 386
#     4  11  23  39  60  89 128 168 202 266 326 384
#     4  10  21  37  60  85 117 158 208 260 313 369
#     4  10  21  39  63  88 117 162 216 260 316 385
#     4  10  21  36  63  91 121 162 212 263 314 382
#     4  10  22  39  64  86 119 163 216 264 314 384
#     4  10  22  38  61  92 126 168 210 258 322 387
#
# _framework density 23.384512999999998
#
# number of rings (size 3 to 8) (size 9 to 14) (size 15 to 20)
#    0.000    2.000    0.000    3.750    8.750    2.500 
#    2.250    0.000    0.000    3.000    0.000    0.000 
#    0.000    0.000    0.000    0.000    0.000    0.000 
#
# Total GULP energy -178232.167495 kJ/mol
# GULP energy per Si atom -5569.755234 kJ/mol
# Density = 2.333129 g / cm^3
# Si number density = 23.384513 Si / 1000 Ang^3
#
#
#
# Elastic Constant Matrix: (Units=GPa)
#
#
# Indices 1 2 3 4 5 6 
#
# 1 52.7578 2.0174 2.1160 0.0000 -7.8487 0.0000
# 2 2.0174 107.3353 12.4319 0.0000 -2.7473 0.0000
# 3 2.1160 12.4319 81.7702 0.0000 0.3397 0.0000
# 4 0.0000 0.0000 0.0000 36.6885 0.0000 -4.2298
# 5 -7.8487 -2.7473 0.3397 0.0000 34.3780 0.0000
# 6 0.0000 0.0000 0.0000 -4.2298 0.0000 20.0477
#
#
#
# Elastic Compliance Matrix: (Units=1/GPa)
#
#
# Indices 1 2 3 4 5 6 
#
# 1 0.019648 -0.000197 -0.000497 0.000000 0.004475 0.000000
# 2 -0.000197 0.009506 -0.001443 0.000000 0.000729 0.000000
# 3 -0.000497 -0.001443 0.012463 0.000000 -0.000352 0.000000
# 4 0.000000 0.000000 0.000000 0.027936 0.000000 0.005894
# 5 0.004475 0.000729 -0.000352 0.000000 0.030172 0.000000
# 6 0.000000 0.000000 0.000000 0.005894 0.000000 0.051125
#
#
# Mechanical properties :
#
#
# Convention : Reuss Voigt Hill
#
# Bulk Modulus (GPa) = 26.77937 30.55487 28.66712
# Shear Modulus (GPa) = 29.83799 33.24270 31.54035
#
# Velocity S-wave (km/s) = 3.57595 3.77446 3.67655
# Velocity P-wave (km/s) = 5.34102 5.66481 5.50530
#
# Compressibility (1/GPa) = 0.03734218
#
# Stress axis : x y z
#
# Youngs Moduli (GPa) = 50.89644 105.19544 80.23666
#
# Poissons Ratio (x) = 0.02074 0.03988
# Poissons Ratio (y) = 0.01004 0.11580
# Poissons Ratio (z) = 0.02530 0.15182
#
# Static dielectric constant tensor:
#      x y z
#    x 2.026000 0.000000 0.010870 
#    y 0.000000 1.983080 0.000000 
#    z 0.010870 0.000000 1.940300 
# 
# From -- ./inp_files/79812.got.cif
#   From: 2010.05.17/outbox.cif.g08.bks.cpg/sg13_40_cif.got.tgz:79812.got - 2010.06.03 16:44:36.
