data_PCOD9232744
_publ_section_title
;
Structure prediction by ZEFSAII (Michael W. Deem and Ramdas Pophale) SiO2 
 PCOD9232744
Probable space group: P 2/C
;
_chemical_formula_sum "Si O2"
_cell_formula_units_Z 32
_cell_length_a 8.682210
_cell_length_b 25.604593
_cell_length_c 14.678670
_cell_angle_alpha 90.000000
_cell_angle_beta 30.533202
_cell_angle_gamma 90.000000
_cell_volume 1657.794548
_symmetry_space_group_name_H-M "P 2/C"
_symmetry_group_IT_number 13
_symmetry_cell_setting 'monoclinic'
loop_
_space_group_symop_operation_xyz
x,y,z
-x,y,1/2-z
-x,-y,-z
x,-y,1/2+z
loop_
_atom_site_type_symbol
_atom_site_label
_atom_site_fract_x
_atom_site_fract_y
_atom_site_fract_z
Si Si1 0.645730 0.662866 0.906604
Si Si2 0.643415 0.784076 0.919292
Si Si3 0.375912 0.378864 0.719507
Si Si4 0.645141 0.861436 0.577527
Si Si5 0.698298 0.585855 0.558881
Si Si6 0.626942 0.854030 0.289095
Si Si7 0.269884 0.523944 0.545597
Si Si8 0.636140 0.057357 0.932551
O O1 0.619302 0.723951 0.899304
O O2 0.502376 0.620333 0.909897
O O3 0.000000 0.653297 0.750000
O O4 0.449557 0.656700 0.097247
O O5 0.489071 0.816699 0.918169
O O6 0.000000 0.795529 0.750000
O O7 0.487329 0.804008 0.093220
O O8 0.500000 0.357336 0.750000
O O9 0.568251 0.431716 0.596644
O O10 0.019514 0.386889 0.909572
O O11 0.500000 0.860579 0.750000
O O12 0.557280 0.913533 0.566793
O O13 0.007532 0.854882 0.399604
O O14 0.500000 0.581309 0.750000
O O15 0.800093 0.527431 0.477383
O O16 0.500000 0.855246 0.250000
O O17 0.542921 0.904817 0.395133
O O18 0.500000 0.500000 0.500000
O O19 0.000000 0.541646 0.750000
O O20 0.000000 0.054069 0.750000
O O21 0.500000 0.000000 0.000000
#
# Coordination Sequence:
#
# PCOD9232744 Si02
#       8
#     4   4   4   4   4   4   4   4
#     4  11  24  44  65  88 120 153 194 247 298 353
#     4  10  22  40  64  89 115 153 196 246 304 355
#     4  12  26  41  64  91 121 157 195 240 291 351
#     4  10  21  38  60  88 120 158 202 248 296 352
#     4  12  26  42  63  91 120 157 198 237 292 353
#     4  10  21  38  60  88 120 158 202 248 295 353
#     4  12  23  41  67  90 119 157 196 239 293 349
#     4   9  20  36  55  84 121 161 203 246 297 347
#
# _framework density 19.302755000000001
#
# number of rings (size 3 to 8) (size 9 to 14) (size 15 to 20)
#    0.000    1.250    2.500    3.750    1.750    7.500 
#    0.000    2.500    0.000    0.000    0.000    0.000 
#    0.000    0.000    0.000    0.000    0.000    0.000 
#
# Total GULP energy -178527.556333 kJ/mol
# GULP energy per Si atom -5578.986135 kJ/mol
# Density = 1.925882 g / cm^3
# Si number density = 19.302755 Si / 1000 Ang^3
#
#
#
# Elastic Constant Matrix: (Units=GPa)
#
#
# Indices 1 2 3 4 5 6 
#
# 1 114.9633 37.3053 37.8103 0.0000 13.9732 0.0000
# 2 37.3053 99.6325 22.0974 0.0000 -4.3359 0.0000
# 3 37.8103 22.0974 113.9878 0.0000 10.6015 0.0000
# 4 0.0000 0.0000 0.0000 12.6098 0.0000 -19.0045
# 5 13.9732 -4.3359 10.6015 0.0000 37.4305 0.0000
# 6 0.0000 0.0000 0.0000 -19.0045 0.0000 2.0161
#
#
#
# Elastic Compliance Matrix: (Units=1/GPa)
#
#
# Indices 1 2 3 4 5 6 
#
# 1 0.011276 -0.003807 -0.002639 0.000000 -0.003903 0.000000
# 2 -0.003807 0.011898 -0.001339 0.000000 0.003179 0.000000
# 3 -0.002639 -0.001339 0.010097 0.000000 -0.002030 0.000000
# 4 0.000000 0.000000 0.000000 -0.006005 0.000000 -0.056603
# 5 -0.003903 0.003179 -0.002030 0.000000 0.029116 0.000000
# 6 0.000000 0.000000 0.000000 -0.056603 0.000000 -0.037557
#
#
# Mechanical properties :
#
#
# Convention : Reuss Voigt Hill
#
# Bulk Modulus (GPa) = 56.49816 58.11219 57.30517
# Shear Modulus (GPa) = 124.08402 25.83599 74.96001
#
# Velocity S-wave (km/s) = 8.02637 3.66247 6.23844
# Velocity P-wave (km/s) = 10.73452 6.93224 9.03564
#
# Compressibility (1/GPa) = 0.01769969
#
# Stress axis : x y z
#
# Youngs Moduli (GPa) = 88.68313 84.05081 99.04136
#
# Poissons Ratio (x) = 0.31994 0.26141
# Poissons Ratio (y) = 0.33758 0.13266
# Poissons Ratio (z) = 0.23407 0.11258
#
# Static dielectric constant tensor:
#      x y z
#    x 1.692100 0.000000 -0.008700 
#    y 0.000000 1.743760 0.000000 
#    z -0.008700 0.000000 1.695930 
# 
# From -- ./inp_files/48293.got.cif
#   From: 2010.05.17/outbox.cif.g08.bks.cpg/sg13_25_cif.got.tgz:48293.got - 2010.06.03 16:44:36.
