data_PCOD9232262
_publ_section_title
;
Structure prediction by ZEFSAII (Michael W. Deem and Ramdas Pophale) SiO2 
 PCOD9232262
Probable space group: P 2/C
;
_chemical_formula_sum "Si O2"
_cell_formula_units_Z 20
_cell_length_a 8.672548
_cell_length_b 24.456818
_cell_length_c 9.760065
_cell_angle_alpha 90.000000
_cell_angle_beta 31.387216
_cell_angle_gamma 90.000000
_cell_volume 1078.167749
_symmetry_space_group_name_H-M "P 2/C"
_symmetry_group_IT_number 13
_symmetry_cell_setting 'monoclinic'
loop_
_space_group_symop_operation_xyz
x,y,z
-x,y,1/2-z
-x,-y,-z
x,-y,1/2+z
loop_
_atom_site_type_symbol
_atom_site_label
_atom_site_fract_x
_atom_site_fract_y
_atom_site_fract_z
Si Si1 0.153407 0.629733 0.987302
Si Si2 0.837975 0.039925 0.518814
Si Si3 0.183654 0.533375 0.751711
Si Si4 0.839572 0.165484 0.516988
Si Si5 0.853578 0.754636 0.503765
O O1 0.500000 0.633332 0.750000
O O2 0.157917 0.592433 0.846933
O O3 0.048083 0.691714 0.042021
O O4 0.000000 0.610382 0.250000
O O5 0.500000 0.023108 0.750000
O O6 0.835868 0.102794 0.572738
O O7 0.000000 0.000000 0.500000
O O8 0.000000 0.038973 0.250000
O O9 0.500000 0.500000 0.500000
O O10 0.000000 0.534388 0.750000
O O11 0.000000 0.500000 0.000000
O O12 0.500000 0.182854 0.750000
O O13 0.020743 0.205492 0.477049
O O14 0.000000 0.164774 0.250000
O O15 0.500000 0.756820 0.750000
O O16 0.000000 0.770885 0.250000
#
# Coordination Sequence:
#
# PCOD9232262 Si02
#       5
#     4   4   4   4   4
#     4  10  21  39  59  82 115 147 183 232 279 330
#     4  10  21  36  55  81 113 151 193 239 289 338
#     4  12  24  39  60  85 112 146 184 224 274 330
#     4  10  21  37  56  82 117 151 187 237 291 339
#     4  10  21  37  59  84 110 147 189 230 280 337
#
# _framework density 18.549989
#
# number of rings (size 3 to 8) (size 9 to 14) (size 15 to 20)
#    0.000    1.600    0.000    5.400    0.000    2.400 
#    0.000    2.000    0.000    0.000    0.000    0.000 
#    0.000    0.000    0.000    0.000    0.000    0.000 
#
# Total GULP energy -111421.399502 kJ/mol
# GULP energy per Si atom -5571.069975 kJ/mol
# Density = 1.850777 g / cm^3
# Si number density = 18.549989 Si / 1000 Ang^3
#
#
#
# Elastic Constant Matrix: (Units=GPa)
#
#
# Indices 1 2 3 4 5 6 
#
# 1 151.7685 96.9886 49.0539 0.0000 4.7439 0.0000
# 2 96.9886 100.0776 23.8146 0.0000 6.3993 0.0000
# 3 49.0539 23.8146 135.8010 0.0000 -10.2347 0.0000
# 4 0.0000 0.0000 0.0000 40.1841 0.0000 11.3794
# 5 4.7439 6.3993 -10.2347 0.0000 30.9864 0.0000
# 6 0.0000 0.0000 0.0000 11.3794 0.0000 38.3721
#
#
#
# Elastic Compliance Matrix: (Units=1/GPa)
#
#
# Indices 1 2 3 4 5 6 
#
# 1 0.019025 -0.017485 -0.003849 0.000000 -0.000573 0.000000
# 2 -0.017485 0.026745 0.001447 0.000000 -0.002368 0.000000
# 3 -0.003849 0.001447 0.008740 0.000000 0.003177 0.000000
# 4 0.000000 0.000000 0.000000 0.027167 0.000000 -0.008056
# 5 -0.000573 -0.002368 0.003177 0.000000 0.033898 0.000000
# 6 0.000000 0.000000 0.000000 -0.008056 0.000000 0.028450
#
#
# Mechanical properties :
#
#
# Convention : Reuss Voigt Hill
#
# Bulk Modulus (GPa) = 67.86232 80.81790 74.34011
# Shear Modulus (GPa) = 26.49567 36.42788 31.46178
#
# Velocity S-wave (km/s) = 3.78344 4.43625 4.12278
# Velocity P-wave (km/s) = 7.46651 8.36078 7.92627
#
# Compressibility (1/GPa) = 0.01473572
#
# Stress axis : x y z
#
# Youngs Moduli (GPa) = 52.56238 37.39049 114.42050
#
# Poissons Ratio (x) = 0.65378 0.44042
# Poissons Ratio (y) = 0.91906 -0.16562
# Poissons Ratio (z) = 0.20232 -0.05412
#
# Static dielectric constant tensor:
#      x y z
#    x 1.580780 0.000000 0.005750 
#    y 0.000000 1.739790 0.000000 
#    z 0.005750 0.000000 1.630600 
# 
# From -- ./inp_files/10279.got.cif
#   From: 2010.05.17/outbox.cif.g08.bks.cpg/sg13_6_cif.got.tgz:10279.got - 2010.06.03 16:44:36.
