data_PCOD9232266
_publ_section_title
;
Structure prediction by ZEFSAII (Michael W. Deem and Ramdas Pophale) SiO2 
 PCOD9232266
Probable space group: P 2/C
;
_chemical_formula_sum "Si O2"
_cell_formula_units_Z 20
_cell_length_a 19.686763
_cell_length_b 5.409982
_cell_length_c 9.498591
_cell_angle_alpha 90.000000
_cell_angle_beta 48.881098
_cell_angle_gamma 90.000000
_cell_volume 762.121275
_symmetry_space_group_name_H-M "P 2/C"
_symmetry_group_IT_number 13
_symmetry_cell_setting 'monoclinic'
loop_
_space_group_symop_operation_xyz
x,y,z
-x,y,1/2-z
-x,-y,-z
x,-y,1/2+z
loop_
_atom_site_type_symbol
_atom_site_label
_atom_site_fract_x
_atom_site_fract_y
_atom_site_fract_z
Si Si1 0.626919 0.350618 0.894179
Si Si2 0.202714 0.644271 0.163703
Si Si3 0.577098 0.854028 0.033299
Si Si4 0.028849 0.249754 0.045973
Si Si5 0.246640 0.856674 0.519191
O O1 0.692809 0.386864 0.937216
O O2 0.692170 0.243064 0.688230
O O3 0.590080 0.621212 0.913925
O O4 0.556465 0.132072 0.013555
O O5 0.137806 0.730960 0.377916
O O6 0.179155 0.366277 0.149071
O O7 0.201033 0.875799 0.058876
O O8 0.500000 0.780457 0.250000
O O9 0.677988 0.891254 0.961004
O O10 0.000000 0.244910 0.250000
O O11 0.000000 0.500000 0.000000
O O12 0.000000 0.000000 0.000000
#
# Coordination Sequence:
#
# PCOD9232266 Si02
#       5
#     4   4   4   4   4
#     4  10  21  37  59  85 116 166 208 258 327 389
#     4  10  23  39  64  87 126 165 216 273 324 413
#     4  10  21  36  55  88 122 155 207 263 319 393
#     4  12  28  49  73 110 146 189 238 297 366 427
#     4  10  21  39  60  89 118 166 215 260 330 394
#
# _framework density 26.242542
#
# number of rings (size 3 to 8) (size 9 to 14) (size 15 to 20)
#    0.000    1.600    0.000    3.600    5.600    1.600 
#    0.000    0.000    0.000    0.000    0.000    0.000 
#    0.000    0.000    0.000    0.000    0.000    0.000 
#
# Total GULP energy -111709.693262 kJ/mol
# GULP energy per Si atom -5585.484663 kJ/mol
# Density = 2.618281 g / cm^3
# Si number density = 26.242542 Si / 1000 Ang^3
#
#
#
# Elastic Constant Matrix: (Units=GPa)
#
#
# Indices 1 2 3 4 5 6 
#
# 1 77.1584 63.9100 16.4037 0.0000 -4.7702 0.0000
# 2 63.9100 217.1819 33.3739 0.0000 1.9382 0.0000
# 3 16.4037 33.3739 132.9089 0.0000 15.1412 0.0000
# 4 0.0000 0.0000 0.0000 54.9103 0.0000 -8.5763
# 5 -4.7702 1.9382 15.1412 0.0000 37.3807 0.0000
# 6 0.0000 0.0000 0.0000 -8.5763 0.0000 43.8162
#
#
#
# Elastic Compliance Matrix: (Units=1/GPa)
#
#
# Indices 1 2 3 4 5 6 
#
# 1 0.017554 -0.005000 -0.001254 0.000000 0.003007 0.000000
# 2 -0.005000 0.006216 -0.000875 0.000000 -0.000606 0.000000
# 3 -0.001254 -0.000875 0.008294 0.000000 -0.003474 0.000000
# 4 0.000000 0.000000 0.000000 0.018786 0.000000 0.003677
# 5 0.003007 -0.000606 -0.003474 0.000000 0.028574 0.000000
# 6 0.000000 0.000000 0.000000 0.003677 0.000000 0.023542
#
#
# Mechanical properties :
#
#
# Convention : Reuss Voigt Hill
#
# Bulk Modulus (GPa) = 56.15594 72.73605 64.44599
# Shear Modulus (GPa) = 40.59821 48.12554 44.36188
#
# Velocity S-wave (km/s) = 3.93751 4.28702 4.11598
# Velocity P-wave (km/s) = 6.48978 7.23061 6.87019
#
# Compressibility (1/GPa) = 0.01780755
#
# Stress axis : x y z
#
# Youngs Moduli (GPa) = 56.96669 160.88695 120.56795
#
# Poissons Ratio (x) = 0.80441 0.15115
# Poissons Ratio (y) = 0.28482 0.10545
# Poissons Ratio (z) = 0.07142 0.14072
#
# Static dielectric constant tensor:
#      x y z
#    x 2.265140 0.000000 0.002700 
#    y 0.000000 2.180130 0.000000 
#    z 0.002700 0.000000 2.038160 
# 
# From -- ./inp_files/42027.got.cif
#   From: 2010.05.17/outbox.cif.g08.bks.cpg/sg13_22_cif.got.tgz:42027.got - 2010.06.03 16:44:36.
