data_PCOD9232217
_publ_section_title
;
Structure prediction by ZEFSAII (Michael W. Deem and Ramdas Pophale) SiO2 
 PCOD9232217
Probable space group: P 2/C
;
_chemical_formula_sum "Si O2"
_cell_formula_units_Z 24
_cell_length_a 10.335582
_cell_length_b 11.469711
_cell_length_c 12.272247
_cell_angle_alpha 90.000000
_cell_angle_beta 132.287550
_cell_angle_gamma 90.000000
_cell_volume 1076.248382
_symmetry_space_group_name_H-M "P 2/C"
_symmetry_group_IT_number 13
_symmetry_cell_setting 'monoclinic'
loop_
_space_group_symop_operation_xyz
x,y,z
-x,y,1/2-z
-x,-y,-z
x,-y,1/2+z
loop_
_atom_site_type_symbol
_atom_site_label
_atom_site_fract_x
_atom_site_fract_y
_atom_site_fract_z
Si Si1 0.260325 0.418140 0.976358
Si Si2 0.743141 0.104231 0.610920
Si Si3 0.320890 0.676269 0.085062
Si Si4 0.683945 0.805846 0.861509
Si Si5 0.129259 0.672321 0.195286
Si Si6 0.323578 0.156515 0.383460
O O1 0.265171 0.399470 0.848776
O O2 0.057847 0.388918 0.893318
O O3 0.325439 0.543985 0.045126
O O4 0.352188 0.315468 0.095934
O O5 0.792709 0.122984 0.511908
O O6 0.845598 0.198784 0.740348
O O7 0.535440 0.136865 0.504208
O O8 0.761089 0.970911 0.653589
O O9 0.500000 0.707443 0.250000
O O10 0.174303 0.677792 0.095144
O O11 0.285538 0.761339 0.964316
O O12 0.500000 0.873348 0.750000
O O13 0.739076 0.791801 0.768357
#
# Coordination Sequence:
#
# PCOD9232217 Si02
#       6
#     4   4   4   4   4   4
#     4  10  23  41  63  82 127 175 212 256 311 385
#     4   9  19  38  64  89 127 167 205 262 316 383
#     4  12  24  37  64  98 128 160 215 269 313 373
#     4   9  19  37  60  88 119 164 211 256 317 370
#     4  10  22  43  63  86 126 175 211 253 327 374
#     4  10  21  35  63  98 125 157 212 267 313 372
#
# _framework density 22.299683999999999
#
# number of rings (size 3 to 8) (size 9 to 14) (size 15 to 20)
#    0.000    2.000    1.667    1.000    4.667    1.333 
#    0.000    0.833    7.333    0.000    0.000    0.000 
#    0.000    0.000    0.000    0.000    0.000    0.000 
#
# Total GULP energy -133931.823500 kJ/mol
# GULP energy per Si atom -5580.492646 kJ/mol
# Density = 2.224893 g / cm^3
# Si number density = 22.299684 Si / 1000 Ang^3
#
#
#
# Elastic Constant Matrix: (Units=GPa)
#
#
# Indices 1 2 3 4 5 6 
#
# 1 65.2030 -0.7754 29.0244 0.0000 -32.2622 0.0000
# 2 -0.7754 85.4826 8.5066 0.0000 -29.8053 0.0000
# 3 29.0244 8.5066 67.5890 0.0000 -31.6121 0.0000
# 4 0.0000 0.0000 0.0000 -233.0466 0.0000 -176.5286
# 5 -32.2622 -29.8053 -31.6121 0.0000 51.7494 0.0000
# 6 0.0000 0.0000 0.0000 -176.5286 0.0000 -112.0663
#
#
#
# Elastic Compliance Matrix: (Units=1/GPa)
#
#
# Indices 1 2 3 4 5 6 
#
# 1 0.025850 0.006810 -0.003620 0.000000 0.017827 0.000000
# 2 0.006810 0.016862 0.002074 0.000000 0.015224 0.000000
# 3 -0.003620 0.002074 0.021829 0.000000 0.012272 0.000000
# 4 0.000000 0.000000 0.000000 0.022210 0.000000 -0.034986
# 5 0.017827 0.015224 0.012272 0.000000 0.046703 0.000000
# 6 0.000000 0.000000 0.000000 -0.034986 0.000000 0.046187
#
#
# Mechanical properties :
#
#
# Convention : Reuss Voigt Hill
#
# Bulk Modulus (GPa) = 13.32115 32.42064 22.87089
# Shear Modulus (GPa) = 25.75528 -46.57144 -10.40808
#
# Velocity S-wave (km/s) = 3.40216 -4.57490 -2.16275
# Velocity P-wave (km/s) = 4.62813 3.65186 2.01041
#
# Compressibility (1/GPa) = 0.07506862
#
# Stress axis : x y z
#
# Youngs Moduli (GPa) = 38.68530 59.30499 45.81160
#
# Poissons Ratio (x) = -0.40389 0.16583
# Poissons Ratio (y) = -0.26346 -0.09501
# Poissons Ratio (z) = 0.14004 -0.12299
#
# Static dielectric constant tensor:
#      x y z
#    x 1.922160 0.000000 0.035550 
#    y 0.000000 1.784390 0.000000 
#    z 0.035550 0.000000 1.886410 
# 
# From -- ./inp_files/33958.got.cif
#   From: 2010.05.17/outbox.cif.g08.bks.cpg/sg13_17_cif.got.tgz:33958.got - 2010.06.03 16:44:36.
