data_PCOD9232159
_publ_section_title
;
Structure prediction by ZEFSAII (Michael W. Deem and Ramdas Pophale) SiO2 
 PCOD9232159
Probable space group: P 2/C
;
_chemical_formula_sum "Si O2"
_cell_formula_units_Z 20
_cell_length_a 9.487229
_cell_length_b 8.217461
_cell_length_c 20.969541
_cell_angle_alpha 90.000000
_cell_angle_beta 35.362017
_cell_angle_gamma 90.000000
_cell_volume 946.128152
_symmetry_space_group_name_H-M "P 2/C"
_symmetry_group_IT_number 13
_symmetry_cell_setting 'monoclinic'
loop_
_space_group_symop_operation_xyz
x,y,z
-x,y,1/2-z
-x,-y,-z
x,-y,1/2+z
loop_
_atom_site_type_symbol
_atom_site_label
_atom_site_fract_x
_atom_site_fract_y
_atom_site_fract_z
Si Si1 0.023543 0.375069 0.549467
Si Si2 0.499831 0.197705 0.176507
Si Si3 0.730466 0.403255 0.337046
Si Si4 0.763610 0.117451 0.580806
Si Si5 0.294395 0.637931 0.512082
O O1 0.264632 0.269957 0.446376
O O2 0.088520 0.495009 0.582932
O O3 0.000000 0.500000 0.500000
O O4 0.799630 0.251131 0.623772
O O5 0.500000 0.253969 0.250000
O O6 0.283087 0.272320 0.215012
O O7 0.534701 0.003679 0.165184
O O8 0.539529 0.548554 0.396396
O O9 0.660377 0.320430 0.430950
O O10 0.000000 0.464127 0.250000
O O11 0.770375 0.216453 0.511787
O O12 0.000000 0.000000 0.500000
#
# Coordination Sequence:
#
# PCOD9232159 Si02
#       5
#     4   4   4   4   4
#     4   8  16  33  58  80 102 149 184 229 279 323
#     4  10  21  35  53  88 115 144 188 230 284 347
#     4  10  22  37  60  82 114 157 187 238 285 329
#     4   9  18  34  59  84 112 149 181 231 291 334
#     4   9  19  39  58  85 113 146 201 232 279 344
#
# _framework density 21.138786
#
# number of rings (size 3 to 8) (size 9 to 14) (size 15 to 20)
#    0.000    2.800    0.000    0.000    8.400    0.800 
#    3.600    3.000    0.000    0.000    0.000    0.000 
#    0.000    0.000    0.000    0.000    0.000    0.000 
#
# Total GULP energy -111368.573345 kJ/mol
# GULP energy per Si atom -5568.428667 kJ/mol
# Density = 2.109067 g / cm^3
# Si number density = 21.138786 Si / 1000 Ang^3
#
#
#
# Elastic Constant Matrix: (Units=GPa)
#
#
# Indices 1 2 3 4 5 6 
#
# 1 132.3404 64.2434 23.2996 0.0000 17.0861 0.0000
# 2 64.2434 109.8056 25.2320 0.0000 1.9104 0.0000
# 3 23.2996 25.2320 32.5860 0.0000 5.1059 0.0000
# 4 0.0000 0.0000 0.0000 19.1909 0.0000 -3.6920
# 5 17.0861 1.9104 5.1059 0.0000 37.3838 0.0000
# 6 0.0000 0.0000 0.0000 -3.6920 0.0000 36.8335
#
#
#
# Elastic Compliance Matrix: (Units=1/GPa)
#
#
# Indices 1 2 3 4 5 6 
#
# 1 0.011588 -0.006035 -0.002893 0.000000 -0.004593 0.000000
# 2 -0.006035 0.014235 -0.007179 0.000000 0.003011 0.000000
# 3 -0.002893 -0.007179 0.038883 0.000000 -0.003622 0.000000
# 4 0.000000 0.000000 0.000000 0.053133 0.000000 0.005326
# 5 -0.004593 0.003011 -0.003622 0.000000 0.029189 0.000000
# 6 0.000000 0.000000 0.000000 0.005326 0.000000 0.027683
#
#
# Mechanical properties :
#
#
# Convention : Reuss Voigt Hill
#
# Bulk Modulus (GPa) = 30.77703 55.58688 43.18195
# Shear Modulus (GPa) = 22.96133 29.47878 26.22006
#
# Velocity S-wave (km/s) = 3.29936 3.73840 3.52572
# Velocity P-wave (km/s) = 5.39495 6.70727 6.08658
#
# Compressibility (1/GPa) = 0.03249177
#
# Stress axis : x y z
#
# Youngs Moduli (GPa) = 86.29381 70.24777 25.71808
#
# Poissons Ratio (x) = 0.42396 0.07440
# Poissons Ratio (y) = 0.52080 0.18464
# Poissons Ratio (z) = 0.24965 0.50433
#
# Static dielectric constant tensor:
#      x y z
#    x 1.793510 0.000000 -0.004500 
#    y 0.000000 1.782420 0.000000 
#    z -0.004500 0.000000 1.788880 
# 
# From -- ./inp_files/38815.got.cif
#   From: 2010.05.17/outbox.cif.g08.bks.cpg/sg13_20_cif.got.tgz:38815.got - 2010.06.03 16:44:36.
