data_PCOD9232879
_publ_section_title
;
Structure prediction by ZEFSAII (Michael W. Deem and Ramdas Pophale) SiO2 
 PCOD9232879
Probable space group: P 2/C
;
_chemical_formula_sum "Si O2"
_cell_formula_units_Z 24
_cell_length_a 13.589714
_cell_length_b 5.406390
_cell_length_c 14.715218
_cell_angle_alpha 90.000000
_cell_angle_beta 79.913816
_cell_angle_gamma 90.000000
_cell_volume 1064.437467
_symmetry_space_group_name_H-M "P 2/C"
_symmetry_group_IT_number 13
_symmetry_cell_setting 'monoclinic'
loop_
_space_group_symop_operation_xyz
x,y,z
-x,y,1/2-z
-x,-y,-z
x,-y,1/2+z
loop_
_atom_site_type_symbol
_atom_site_label
_atom_site_fract_x
_atom_site_fract_y
_atom_site_fract_z
Si Si1 0.211033 0.946785 0.077310
Si Si2 0.667661 0.042884 0.768892
Si Si3 0.793345 0.747877 0.096009
Si Si4 0.425431 0.440467 0.144766
Si Si5 0.646903 0.583409 0.534439
Si Si6 0.993811 0.251543 0.941665
O O1 0.241147 0.996092 0.175012
O O2 0.113405 0.769529 0.089722
O O3 0.311714 0.830816 0.017574
O O4 0.187762 0.163433 0.010280
O O5 0.716626 0.082504 0.663293
O O6 0.608754 0.297085 0.805827
O O7 0.603290 0.796916 0.791424
O O8 0.734006 0.496501 0.089137
O O9 0.900196 0.739734 0.128142
O O10 0.542292 0.427714 0.102567
O O11 0.371171 0.420004 0.054424
O O12 0.000000 0.500000 0.000000
O O13 0.000000 0.000000 0.000000
#
# Coordination Sequence:
#
# PCOD9232879 Si02
#       6
#     4   4   4   4   4   4
#     4  10  22  42  66  88 132 166 210 273 320 378
#     4  11  25  41  63  96 130 165 218 266 319 388
#     4  11  23  40  65  95 128 170 218 263 331 389
#     4  10  24  42  62  93 126 167 217 265 320 385
#     4  10  21  40  68  86 126 172 213 263 331 378
#     4  10  21  38  65  93 121 165 213 257 321 384
#
# _framework density 22.54712
#
# number of rings (size 3 to 8) (size 9 to 14) (size 15 to 20)
#    0.000    1.667    3.333    0.000    4.667    3.333 
#    0.000    0.000    0.000    4.000    0.000    0.000 
#    0.000    0.000    0.000    0.000    0.000    0.000 
#
# Total GULP energy -133830.537536 kJ/mol
# GULP energy per Si atom -5576.272397 kJ/mol
# Density = 2.249580 g / cm^3
# Si number density = 22.547120 Si / 1000 Ang^3
#
#
#
# Elastic Constant Matrix: (Units=GPa)
#
#
# Indices 1 2 3 4 5 6 
#
# 1 103.0228 10.0431 14.5325 0.0000 -14.0876 0.0000
# 2 10.0431 108.6420 18.3473 0.0000 -9.8739 0.0000
# 3 14.5325 18.3473 65.4292 0.0000 -2.7477 0.0000
# 4 0.0000 0.0000 0.0000 25.7318 0.0000 -7.7025
# 5 -14.0876 -9.8739 -2.7477 0.0000 37.2427 0.0000
# 6 0.0000 0.0000 0.0000 -7.7025 0.0000 17.0454
#
#
#
# Elastic Compliance Matrix: (Units=1/GPa)
#
#
# Indices 1 2 3 4 5 6 
#
# 1 0.010545 -0.000277 -0.002106 0.000000 0.003760 0.000000
# 2 -0.000277 0.009882 -0.002612 0.000000 0.002322 0.000000
# 3 -0.002106 -0.002612 0.016473 0.000000 -0.000274 0.000000
# 4 0.000000 0.000000 0.000000 0.044942 0.000000 0.020308
# 5 0.003760 0.002322 -0.000274 0.000000 0.028869 0.000000
# 6 0.000000 0.000000 0.000000 0.020308 0.000000 0.067844
#
#
# Mechanical properties :
#
#
# Convention : Reuss Voigt Hill
#
# Bulk Modulus (GPa) = 37.16354 40.32666 38.74510
# Shear Modulus (GPa) = 25.31457 31.61539 28.46498
#
# Velocity S-wave (km/s) = 3.35437 3.74865 3.55697
# Velocity P-wave (km/s) = 5.61434 6.05482 5.83873
#
# Compressibility (1/GPa) = 0.02690810
#
# Stress axis : x y z
#
# Youngs Moduli (GPa) = 94.83264 101.19033 60.70720
#
# Poissons Ratio (x) = 0.02806 0.12788
# Poissons Ratio (y) = 0.02630 0.15857
# Poissons Ratio (z) = 0.19976 0.26431
#
# Static dielectric constant tensor:
#      x y z
#    x 1.882650 0.000000 -0.050080 
#    y 0.000000 1.662120 0.000000 
#    z -0.050080 0.000000 1.783350 
# 
# From -- ./inp_files/51846.got.cif
#   From: 2010.05.17/outbox.cif.g08.bks.cpg/sg13_26_cif.got.tgz:51846.got - 2010.06.03 16:44:36.
