data_PCOD9232309
_publ_section_title
;
Structure prediction by ZEFSAII (Michael W. Deem and Ramdas Pophale) SiO2 
 PCOD9232309
Probable space group: P 2/C
;
_chemical_formula_sum "Si O2"
_cell_formula_units_Z 22
_cell_length_a 7.604117
_cell_length_b 15.751126
_cell_length_c 8.111784
_cell_angle_alpha 90.000000
_cell_angle_beta 98.165767
_cell_angle_gamma 90.000000
_cell_volume 961.725445
_symmetry_space_group_name_H-M "P 2/C"
_symmetry_group_IT_number 13
_symmetry_cell_setting 'monoclinic'
loop_
_space_group_symop_operation_xyz
x,y,z
-x,y,1/2-z
-x,-y,-z
x,-y,1/2+z
loop_
_atom_site_type_symbol
_atom_site_label
_atom_site_fract_x
_atom_site_fract_y
_atom_site_fract_z
Si Si1 0.620776 0.066930 0.611838
Si Si2 0.000000 0.908201 0.250000
Si Si3 0.503157 0.770404 0.553905
Si Si4 0.073239 0.215536 0.449741
Si Si5 0.053654 0.405120 0.445660
Si Si6 0.535994 0.406311 0.059835
O O1 0.500000 0.089518 0.750000
O O2 0.818220 0.039910 0.691040
O O3 0.625568 0.154198 0.512771
O O4 0.500000 0.000000 0.500000
O O5 0.969998 0.851668 0.411264
O O6 0.500000 0.766553 0.750000
O O7 0.709971 0.785289 0.533860
O O8 0.441750 0.678159 0.479663
O O9 0.999530 0.309639 0.496482
O O10 0.000000 0.200725 0.250000
O O11 0.263583 0.396983 0.471200
O O12 0.000000 0.406495 0.250000
O O13 0.000000 0.500000 0.500000
O O14 0.500000 0.406072 0.250000
O O15 0.500000 0.500000 0.000000
#
# Coordination Sequence:
#
# PCOD9232309 Si02
#       6
#     4   2   4   4   4   4
#     4  12  27  49  74 111 146 182 242 300 366 444
#     4  12  26  48  80 108 142 196 238 292 382 446
#     4  10  21  44  70  96 143 187 231 304 362 421
#     4  10  22  42  69 103 139 190 245 296 366 438
#     4  10  21  36  57  90 135 178 233 296 348 415
#     4  10  21  37  60  91 129 181 228 281 353 414
#
# _framework density 22.875551000000002
#
# number of rings (size 3 to 8) (size 9 to 14) (size 15 to 20)
#    0.000    1.455    1.818    2.727    1.273    5.818 
#    1.636    0.000    0.000    0.000    0.000    0.000 
#    0.000    0.000    0.000    0.000    0.000    0.000 
#
# Total GULP energy -122595.318280 kJ/mol
# GULP energy per Si atom -5572.514467 kJ/mol
# Density = 2.282349 g / cm^3
# Si number density = 22.875551 Si / 1000 Ang^3
#
#
#
# Elastic Constant Matrix: (Units=GPa)
#
#
# Indices 1 2 3 4 5 6 
#
# 1 118.8099 21.3551 13.1497 0.0000 13.8312 0.0000
# 2 21.3551 98.1190 31.3145 0.0000 21.1451 0.0000
# 3 13.1497 31.3145 62.9834 0.0000 2.6496 0.0000
# 4 0.0000 0.0000 0.0000 16.8017 0.0000 16.0978
# 5 13.8312 21.1451 2.6496 0.0000 40.1814 0.0000
# 6 0.0000 0.0000 0.0000 16.0978 0.0000 13.7842
#
#
#
# Elastic Compliance Matrix: (Units=1/GPa)
#
#
# Indices 1 2 3 4 5 6 
#
# 1 0.009031 -0.001024 -0.001272 0.000000 -0.002486 0.000000
# 2 -0.001024 0.013864 -0.006405 0.000000 -0.006521 0.000000
# 3 -0.001272 -0.006405 0.019220 0.000000 0.002541 0.000000
# 4 0.000000 0.000000 0.000000 -0.500494 0.000000 0.584499
# 5 -0.002486 -0.006521 0.002541 0.000000 0.029007 0.000000
# 6 0.000000 0.000000 0.000000 0.584499 0.000000 -0.610056
#
#
# Mechanical properties :
#
#
# Convention : Reuss Voigt Hill
#
# Bulk Modulus (GPa) = 40.46294 45.72787 43.09540
# Shear Modulus (GPa) = -4.93199 28.42634 11.74717
#
# Velocity S-wave (km/s) = -1.46993 3.52895 2.26857
# Velocity P-wave (km/s) = 3.85302 6.05292 5.07364
#
# Compressibility (1/GPa) = 0.02471398
#
# Stress axis : x y z
#
# Youngs Moduli (GPa) = 110.72948 72.12946 52.02840
#
# Poissons Ratio (x) = 0.07385 0.06617
# Poissons Ratio (y) = 0.11338 0.33324
# Poissons Ratio (z) = 0.14083 0.46198
#
# Static dielectric constant tensor:
#      x y z
#    x 2.237570 0.000000 0.329540 
#    y 0.000000 1.952290 0.000000 
#    z 0.329540 0.000000 2.086520 
# 
# From -- ./inp_files/12359.got.cif
#   From: 2010.05.17/outbox.cif.g08.bks.cpg/sg13_7_cif.got.tgz:12359.got - 2010.06.03 16:44:36.
