data_PCOD9233414
_publ_section_title
;
Structure prediction by ZEFSAII (Michael W. Deem and Ramdas Pophale) SiO2 
 PCOD9233414
Probable space group: P 2/C
;
_chemical_formula_sum "Si O2"
_cell_formula_units_Z 28
_cell_length_a 5.552428
_cell_length_b 15.947240
_cell_length_c 17.438404
_cell_angle_alpha 90.000000
_cell_angle_beta 119.354842
_cell_angle_gamma 90.000000
_cell_volume 1345.837565
_symmetry_space_group_name_H-M "P 2/C"
_symmetry_group_IT_number 13
_symmetry_cell_setting 'monoclinic'
loop_
_space_group_symop_operation_xyz
x,y,z
-x,y,1/2-z
-x,-y,-z
x,-y,1/2+z
loop_
_atom_site_type_symbol
_atom_site_label
_atom_site_fract_x
_atom_site_fract_y
_atom_site_fract_z
Si Si1 0.672056 0.179755 0.977569
Si Si2 0.779911 0.759502 0.913971
Si Si3 0.910335 0.496885 0.074268
Si Si4 0.329905 0.071518 0.803382
Si Si5 0.823824 0.362608 0.298992
Si Si6 0.712194 0.876148 0.662257
Si Si7 0.555988 0.354781 0.510041
O O1 0.488628 0.123504 0.893634
O O2 0.698187 0.141290 0.068054
O O3 0.545689 0.274182 0.959003
O O4 0.991838 0.189695 0.002445
O O5 0.938054 0.710814 0.871585
O O6 0.541477 0.820073 0.848015
O O7 0.653533 0.686197 0.945911
O O8 0.672620 0.425704 0.041969
O O9 0.145419 0.455514 0.161767
O O10 0.802456 0.587878 0.081956
O O11 0.000000 0.500000 0.000000
O O12 0.500000 0.083045 0.750000
O O13 0.000000 0.093415 0.750000
O O14 0.339532 0.973220 0.827188
O O15 0.500000 0.344340 0.250000
O O16 0.000000 0.359147 0.250000
O O17 0.000000 0.854024 0.750000
#
# Coordination Sequence:
#
# PCOD9233414 Si02
#       7
#     4   4   4   4   4   4   4
#     4  11  24  44  75 103 138 190 242 300 356 439
#     4  11  24  40  69 106 141 181 234 291 365 439
#     4  11  21  41  68  91 130 187 227 285 340 436
#     4  11  28  51  74 102 146 195 244 305 362 421
#     4  12  27  41  63 101 145 177 221 287 360 422
#     4  10  26  44  69 109 146 188 234 293 368 443
#     4  10  21  40  70  95 129 179 241 281 355 415
#
# _framework density 20.804888999999999
#
# number of rings (size 3 to 8) (size 9 to 14) (size 15 to 20)
#    0.000    1.143    2.857    1.286   14.000    0.571 
#    0.000    0.714    0.000    0.000    0.000    0.000 
#    0.000    0.000    0.000    0.000    0.000    0.000 
#
# Total GULP energy -156345.738297 kJ/mol
# GULP energy per Si atom -5583.776368 kJ/mol
# Density = 2.075754 g / cm^3
# Si number density = 20.804889 Si / 1000 Ang^3
#
#
#
# Elastic Constant Matrix: (Units=GPa)
#
#
# Indices 1 2 3 4 5 6 
#
# 1 121.8142 54.4650 63.2827 0.0000 6.6854 0.0000
# 2 54.4650 133.6764 76.6101 0.0000 21.2563 0.0000
# 3 63.2827 76.6101 111.0539 0.0000 15.7087 0.0000
# 4 0.0000 0.0000 0.0000 42.7147 0.0000 14.0869
# 5 6.6854 21.2563 15.7087 0.0000 34.2656 0.0000
# 6 0.0000 0.0000 0.0000 14.0869 0.0000 34.3978
#
#
#
# Elastic Compliance Matrix: (Units=1/GPa)
#
#
# Indices 1 2 3 4 5 6 
#
# 1 0.011923 -0.001778 -0.005769 0.000000 0.001421 0.000000
# 2 -0.001778 0.013178 -0.007454 0.000000 -0.004411 0.000000
# 3 -0.005769 -0.007454 0.017773 0.000000 -0.002398 0.000000
# 4 0.000000 0.000000 0.000000 0.027067 0.000000 -0.011085
# 5 0.001421 -0.004411 -0.002398 0.000000 0.032742 0.000000
# 6 0.000000 0.000000 0.000000 -0.011085 0.000000 0.033611
#
#
# Mechanical properties :
#
#
# Convention : Reuss Voigt Hill
#
# Bulk Modulus (GPa) = 77.67954 83.91779 80.79867
# Shear Modulus (GPa) = 29.31047 33.75475 31.53261
#
# Velocity S-wave (km/s) = 3.75751 4.03233 3.89734
# Velocity P-wave (km/s) = 7.49956 7.88053 7.69240
#
# Compressibility (1/GPa) = 0.01287340
#
# Stress axis : x y z
#
# Youngs Moduli (GPa) = 83.87143 75.88147 56.26396
#
# Poissons Ratio (x) = 0.13490 0.32458
# Poissons Ratio (y) = 0.14910 0.41940
# Poissons Ratio (z) = 0.48384 0.56563
#
# Static dielectric constant tensor:
#      x y z
#    x 1.849340 0.000000 0.030570 
#    y 0.000000 1.721890 0.000000 
#    z 0.030570 0.000000 1.801840 
# 
# From -- ./inp_files/61522.got.cif
#   From: 2010.05.17/outbox.cif.g08.bks.cpg/sg13_31_cif.got.tgz:61522.got - 2010.06.03 16:44:36.
