data_PCOD9233754
_publ_section_title
;
Structure prediction by ZEFSAII (Michael W. Deem and Ramdas Pophale) SiO2 
 PCOD9233754
Probable space group: P 2/C
;
_chemical_formula_sum "Si O2"
_cell_formula_units_Z 28
_cell_length_a 9.615011
_cell_length_b 13.211404
_cell_length_c 11.388702
_cell_angle_alpha 90.000000
_cell_angle_beta 55.890334
_cell_angle_gamma 90.000000
_cell_volume 1197.802886
_symmetry_space_group_name_H-M "P 2/C"
_symmetry_group_IT_number 13
_symmetry_cell_setting 'monoclinic'
loop_
_space_group_symop_operation_xyz
x,y,z
-x,y,1/2-z
-x,-y,-z
x,-y,1/2+z
loop_
_atom_site_type_symbol
_atom_site_label
_atom_site_fract_x
_atom_site_fract_y
_atom_site_fract_z
Si Si1 0.691287 0.649718 0.655659
Si Si2 0.441586 0.818684 0.163307
Si Si3 0.228588 0.921057 0.585216
Si Si4 0.823485 0.308988 0.840662
Si Si5 0.166661 0.442226 0.882321
Si Si6 0.306343 0.023956 0.318260
Si Si7 0.975644 0.721517 0.886889
O O1 0.500000 0.687039 0.750000
O O2 0.768089 0.652457 0.490841
O O3 0.695685 0.530723 0.686565
O O4 0.833160 0.716929 0.654699
O O5 0.500000 0.756077 0.250000
O O6 0.328863 0.755850 0.132514
O O7 0.332506 0.906215 0.274690
O O8 0.587356 0.873546 0.022676
O O9 0.225918 0.940774 0.729344
O O10 0.103314 0.831849 0.600968
O O11 0.219562 0.014058 0.491177
O O12 0.848565 0.400267 0.740031
O O13 0.000000 0.250213 0.750000
O O14 0.000000 0.500000 0.000000
O O15 0.153386 0.343211 0.972465
O O16 0.500000 0.063435 0.250000
O O17 0.000000 0.668607 0.750000
#
# Coordination Sequence:
#
# PCOD9233754 Si02
#       7
#     4   4   4   4   4   4   4
#     4  11  28  46  71 108 139 189 244 300 357 429
#     4   9  20  37  68 101 141 181 234 290 356 426
#     4  10  21  42  70 106 140 198 230 307 362 437
#     4  12  23  43  72 104 143 188 244 293 354 430
#     4  10  22  42  69  99 140 185 233 292 360 417
#     4   9  18  39  69 103 145 180 243 290 365 426
#     4  11  25  45  71  98 153 186 234 295 372 418
#
# _framework density 23.376134
#
# number of rings (size 3 to 8) (size 9 to 14) (size 15 to 20)
#    0.000    2.000    2.857    3.429    6.000    2.286 
#    5.143    1.429    0.000    0.000    0.000    1.000 
#    0.000    0.000    0.000    0.000    0.000    0.000 
#
# Total GULP energy -155934.721351 kJ/mol
# GULP energy per Si atom -5569.097191 kJ/mol
# Density = 2.332293 g / cm^3
# Si number density = 23.376134 Si / 1000 Ang^3
#
#
#
# Elastic Constant Matrix: (Units=GPa)
#
#
# Indices 1 2 3 4 5 6 
#
# 1 116.0725 54.4435 55.3549 0.0000 25.5197 0.0000
# 2 54.4435 60.5774 30.8508 0.0000 7.9346 0.0000
# 3 55.3549 30.8508 122.4485 0.0000 26.8627 0.0000
# 4 0.0000 0.0000 0.0000 23.4156 0.0000 -3.0042
# 5 25.5197 7.9346 26.8627 0.0000 43.0379 0.0000
# 6 0.0000 0.0000 0.0000 -3.0042 0.0000 35.2454
#
#
#
# Elastic Compliance Matrix: (Units=1/GPa)
#
#
# Indices 1 2 3 4 5 6 
#
# 1 0.017923 -0.013612 -0.003351 0.000000 -0.006027 0.000000
# 2 -0.013612 0.029289 -0.002099 0.000000 0.003982 0.000000
# 3 -0.003351 -0.002099 0.011227 0.000000 -0.004634 0.000000
# 4 0.000000 0.000000 0.000000 0.043179 0.000000 0.003680
# 5 -0.006027 0.003982 -0.004634 0.000000 0.028967 0.000000
# 6 0.000000 0.000000 0.000000 0.003680 0.000000 0.028686
#
#
# Mechanical properties :
#
#
# Convention : Reuss Voigt Hill
#
# Bulk Modulus (GPa) = 49.22571 64.48852 56.85712
# Shear Modulus (GPa) = 24.48969 30.90308 27.69639
#
# Velocity S-wave (km/s) = 3.24023 3.63987 3.44585
# Velocity P-wave (km/s) = 5.92475 6.73142 6.34093
#
# Compressibility (1/GPa) = 0.02031459
#
# Stress axis : x y z
#
# Youngs Moduli (GPa) = 55.79379 34.14197 89.07215
#
# Poissons Ratio (x) = 0.46476 0.29845
# Poissons Ratio (y) = 0.75949 0.18699
# Poissons Ratio (z) = 0.18695 0.07167
#
# Static dielectric constant tensor:
#      x y z
#    x 2.025390 0.000000 0.005350 
#    y 0.000000 1.939520 0.000000 
#    z 0.005350 0.000000 1.885180 
# 
# From -- ./inp_files/30278.got.cif
#   From: 2010.05.17/outbox.cif.g08.bks.cpg/sg13_16_cif.got.tgz:30278.got - 2010.06.03 16:44:36.
