data_PCOD9233260
_publ_section_title
;
Structure prediction by ZEFSAII (Michael W. Deem and Ramdas Pophale) SiO2 
 PCOD9233260
Probable space group: P 2/C
;
_chemical_formula_sum "Si O2"
_cell_formula_units_Z 24
_cell_length_a 14.354418
_cell_length_b 4.790725
_cell_length_c 30.129794
_cell_angle_alpha 90.000000
_cell_angle_beta 150.721513
_cell_angle_gamma 90.000000
_cell_volume 1013.306149
_symmetry_space_group_name_H-M "P 2/C"
_symmetry_group_IT_number 13
_symmetry_cell_setting 'monoclinic'
loop_
_space_group_symop_operation_xyz
x,y,z
-x,y,1/2-z
-x,-y,-z
x,-y,1/2+z
loop_
_atom_site_type_symbol
_atom_site_label
_atom_site_fract_x
_atom_site_fract_y
_atom_site_fract_z
Si Si1 0.236010 0.907816 0.242289
Si Si2 0.585762 0.727529 0.093639
Si Si3 0.335201 0.217126 0.973660
Si Si4 0.584428 0.166391 0.334043
Si Si5 0.003281 0.577562 0.879689
Si Si6 0.837667 0.335890 0.959111
O O1 0.423233 0.038394 0.298321
O O2 0.083585 0.159061 0.182167
O O3 0.284641 0.784189 0.310497
O O4 0.162775 0.651711 0.181601
O O5 0.679851 0.806693 0.085706
O O6 0.517980 0.410325 0.060941
O O7 0.394104 0.917747 0.017336
O O8 0.158195 0.384462 0.919564
O O9 0.500000 0.204619 0.250000
O O10 0.658259 0.455278 0.384559
O O11 0.761991 0.951269 0.407224
O O12 0.084544 0.696903 0.959126
O O13 0.000000 0.500000 0.000000
#
# Coordination Sequence:
#
# PCOD9233260 Si02
#       6
#     4   4   4   4   4   4
#     4  12  24  40  62  93 128 164 209 260 315 375
#     4  10  21  40  63  87 118 160 206 253 310 371
#     4  10  21  40  63  87 118 160 206 253 310 371
#     4  12  24  42  65  92 127 167 212 259 314 374
#     4  12  24  40  62  93 128 164 209 260 316 376
#     4  12  24  42  65  92 127 167 212 259 314 375
#
# _framework density 23.684847999999999
#
# number of rings (size 3 to 8) (size 9 to 14) (size 15 to 20)
#    0.000    0.667    0.000    9.000    0.000    0.667 
#    0.000    1.667    0.000    0.000    0.000    0.000 
#    0.000    0.000    0.000    0.000    0.000    0.000 
#
# Total GULP energy -134538.579463 kJ/mol
# GULP energy per Si atom -5605.774144 kJ/mol
# Density = 2.363094 g / cm^3
# Si number density = 23.684848 Si / 1000 Ang^3
#
#
#
# Elastic Constant Matrix: (Units=GPa)
#
#
# Indices 1 2 3 4 5 6 
#
# 1 56.9426 -16.0736 33.9687 0.0000 -14.8530 0.0000
# 2 -16.0736 105.7637 20.4968 0.0000 -5.0812 0.0000
# 3 33.9687 20.4968 108.4259 0.0000 -22.6917 0.0000
# 4 0.0000 0.0000 0.0000 34.5340 0.0000 7.2536
# 5 -14.8530 -5.0812 -22.6917 0.0000 34.0082 0.0000
# 6 0.0000 0.0000 0.0000 7.2536 0.0000 31.3860
#
#
#
# Elastic Compliance Matrix: (Units=1/GPa)
#
#
# Indices 1 2 3 4 5 6 
#
# 1 0.025516 0.005687 -0.007624 0.000000 0.006907 0.000000
# 2 0.005687 0.011084 -0.003499 0.000000 0.001805 0.000000
# 3 -0.007624 -0.003499 0.013328 0.000000 0.005040 0.000000
# 4 0.000000 0.000000 0.000000 0.030434 0.000000 -0.007034
# 5 0.006907 0.001805 0.005040 0.000000 0.036054 0.000000
# 6 0.000000 0.000000 0.000000 -0.007034 0.000000 0.033487
#
#
# Mechanical properties :
#
#
# Convention : Reuss Voigt Hill
#
# Bulk Modulus (GPa) = 25.60375 38.65733 32.13054
# Shear Modulus (GPa) = 28.76970 35.50167 32.13568
#
# Velocity S-wave (km/s) = 3.48902 3.87579 3.68748
# Velocity P-wave (km/s) = 5.20237 6.03208 5.63252
#
# Compressibility (1/GPa) = 0.03905677
#
# Stress axis : x y z
#
# Youngs Moduli (GPa) = 39.19059 90.21828 75.03213
#
# Poissons Ratio (x) = -0.51308 0.57201
# Poissons Ratio (y) = -0.22288 0.26256
# Poissons Ratio (z) = 0.29877 0.31570
#
# Static dielectric constant tensor:
#      x y z
#    x 1.898490 0.000000 0.067730 
#    y 0.000000 1.828590 0.000000 
#    z 0.067730 0.000000 1.898920 
# 
# From -- ./inp_files/96889.got.cif
#   From: 2010.05.17/outbox.cif.g08.bks.cpg/sg13_49_cif.got.tgz:96889.got - 2010.06.03 16:44:36.
