data_PCOD9233878
_publ_section_title
;
Structure prediction by ZEFSAII (Michael W. Deem and Ramdas Pophale) SiO2 
 PCOD9233878
Probable space group: P 2/C
;
_chemical_formula_sum "Si O2"
_cell_formula_units_Z 20
_cell_length_a 10.740710
_cell_length_b 18.325030
_cell_length_c 8.670711
_cell_angle_alpha 90.000000
_cell_angle_beta 149.704870
_cell_angle_gamma 90.000000
_cell_volume 860.902897
_symmetry_space_group_name_H-M "P 2/C"
_symmetry_group_IT_number 13
_symmetry_cell_setting 'monoclinic'
loop_
_space_group_symop_operation_xyz
x,y,z
-x,y,1/2-z
-x,-y,-z
x,-y,1/2+z
loop_
_atom_site_type_symbol
_atom_site_label
_atom_site_fract_x
_atom_site_fract_y
_atom_site_fract_z
Si Si1 0.576888 0.285651 0.150675
Si Si2 0.500000 0.025470 0.250000
Si Si3 0.318475 0.433849 0.841271
Si Si4 0.000000 0.224867 0.750000
Si Si5 0.312548 0.857132 0.340991
Si Si6 0.000000 0.067771 0.250000
Si Si7 0.000000 0.502446 0.250000
O O1 0.500000 0.286640 0.250000
O O2 0.869564 0.274766 0.481119
O O3 0.461518 0.359195 0.964347
O O4 0.468408 0.213210 0.954564
O O5 0.515611 0.076541 0.419282
O O6 0.755704 0.980074 0.526863
O O7 0.098779 0.448968 0.487514
O O8 0.205413 0.445823 0.890782
O O9 0.500000 0.500000 0.000000
O O10 0.184108 0.171644 0.859115
O O11 0.103053 0.883323 0.000153
#
# Coordination Sequence:
#
# PCOD9233878 Si02
#       7
#     4   2   4   2   4   2   2
#     4  10  22  40  69  95 134 181 230 283 344 422
#     4  12  24  46  72 100 140 188 232 288 362 434
#     4  11  23  42  67 103 133 181 236 283 353 423
#     4  10  21  43  72  91 137 180 230 278 346 418
#     4  11  24  44  67 101 134 181 235 282 352 430
#     4  12  29  41  73 105 142 178 232 306 357 415
#     4  10  24  42  67  92 145 172 230 292 353 415
#
# _framework density 23.231424000000001
#
# number of rings (size 3 to 8) (size 9 to 14) (size 15 to 20)
#    0.000    1.200    3.000    3.600    2.800   11.200 
#    0.000    2.000    0.000    0.000    0.000    0.000 
#    0.000    0.000    0.000    0.000    0.000    0.000 
#
# Total GULP energy -111782.634963 kJ/mol
# GULP energy per Si atom -5589.131748 kJ/mol
# Density = 2.317855 g / cm^3
# Si number density = 23.231424 Si / 1000 Ang^3
#
#
#
# Elastic Constant Matrix: (Units=GPa)
#
#
# Indices 1 2 3 4 5 6 
#
# 1 50.9919 21.3135 11.3356 0.0000 13.1040 0.0000
# 2 21.3135 176.7893 89.9012 0.0000 10.5806 0.0000
# 3 11.3356 89.9012 162.1737 0.0000 2.6386 0.0000
# 4 0.0000 0.0000 0.0000 49.5394 0.0000 2.0026
# 5 13.1040 10.5806 2.6386 0.0000 36.1512 0.0000
# 6 0.0000 0.0000 0.0000 2.0026 0.0000 13.3293
#
#
#
# Elastic Compliance Matrix: (Units=1/GPa)
#
#
# Indices 1 2 3 4 5 6 
#
# 1 0.022489 -0.002123 -0.000273 0.000000 -0.007511 0.000000
# 2 -0.002123 0.008223 -0.004389 0.000000 -0.001317 0.000000
# 3 -0.000273 -0.004389 0.008606 0.000000 0.000755 0.000000
# 4 0.000000 0.000000 0.000000 0.020309 0.000000 -0.003051
# 5 -0.007511 -0.001317 0.000755 0.000000 0.030714 0.000000
# 6 0.000000 0.000000 0.000000 -0.003051 0.000000 0.075481
#
#
# Mechanical properties :
#
#
# Convention : Reuss Voigt Hill
#
# Bulk Modulus (GPa) = 38.83656 70.56173 54.69915
# Shear Modulus (GPa) = 26.59942 37.63095 32.11518
#
# Velocity S-wave (km/s) = 3.38742 4.02908 3.72210
# Velocity P-wave (km/s) = 5.66154 7.21692 6.48602
#
# Compressibility (1/GPa) = 0.02574893
#
# Stress axis : x y z
#
# Youngs Moduli (GPa) = 44.46607 121.61192 116.20060
#
# Poissons Ratio (x) = 0.25818 0.03171
# Poissons Ratio (y) = 0.09440 0.50995
# Poissons Ratio (z) = 0.01213 0.53370
#
# Static dielectric constant tensor:
#      x y z
#    x 1.949900 0.000000 0.083460 
#    y 0.000000 1.904800 0.000000 
#    z 0.083460 0.000000 2.048340 
# 
# From -- ./inp_files/9486.got.cif
#   From: 2010.05.17/outbox.cif.g08.bks.cpg/sg13_5_cif.got.tgz:9486.got - 2010.06.03 16:44:36.
