data_PCOD9233212
_publ_section_title
;
Structure prediction by ZEFSAII (Michael W. Deem and Ramdas Pophale) SiO2 
 PCOD9233212
Probable space group: P 2/C
;
_chemical_formula_sum "Si O2"
_cell_formula_units_Z 20
_cell_length_a 5.186017
_cell_length_b 5.287942
_cell_length_c 29.676387
_cell_angle_alpha 90.000000
_cell_angle_beta 107.042840
_cell_angle_gamma 90.000000
_cell_volume 778.087701
_symmetry_space_group_name_H-M "P 2/C"
_symmetry_group_IT_number 13
_symmetry_cell_setting 'monoclinic'
loop_
_space_group_symop_operation_xyz
x,y,z
-x,y,1/2-z
-x,-y,-z
x,-y,1/2+z
loop_
_atom_site_type_symbol
_atom_site_label
_atom_site_fract_x
_atom_site_fract_y
_atom_site_fract_z
Si Si1 0.810561 0.268125 0.782871
Si Si2 0.151162 0.673845 0.043235
Si Si3 0.334992 0.768153 0.695595
Si Si4 0.581318 0.424190 0.119964
Si Si5 0.700889 0.086016 0.577234
O O1 0.500000 0.300753 0.750000
O O2 0.873508 0.541852 0.806668
O O3 0.000000 0.210264 0.750000
O O4 0.802490 0.038954 0.817841
O O5 0.943915 0.861197 0.056297
O O6 0.278138 0.484062 0.086631
O O7 0.413692 0.830032 0.040177
O O8 0.000000 0.500000 0.000000
O O9 0.500000 0.804962 0.750000
O O10 0.535993 0.680816 0.667329
O O11 0.711275 0.699301 0.117591
O O12 0.693313 0.197053 0.095287
#
# Coordination Sequence:
#
# PCOD9233212 Si02
#       5
#     4   4   4   4   4
#     4  10  21  40  60  88 118 161 212 262 312 372
#     4  10  24  45  69 100 132 174 219 274 337 404
#     4  10  21  43  63  93 127 173 216 267 319 385
#     4  10  24  43  65  99 134 176 220 277 331 398
#     4  10  24  42  67  98 134 171 217 274 334 397
#
# _framework density 25.704045000000001
#
# number of rings (size 3 to 8) (size 9 to 14) (size 15 to 20)
#    1.200    0.800    0.000    2.400    2.800    1.600 
#   21.600    0.000    0.000    0.000    0.000    0.000 
#    0.000    0.000    0.000    0.000    0.000    0.000 
#
# Total GULP energy -111931.503227 kJ/mol
# GULP energy per Si atom -5596.575161 kJ/mol
# Density = 2.564554 g / cm^3
# Si number density = 25.704045 Si / 1000 Ang^3
#
#
#
# Elastic Constant Matrix: (Units=GPa)
#
#
# Indices 1 2 3 4 5 6 
#
# 1 151.5821 29.9467 19.2981 0.0000 -4.2551 0.0000
# 2 29.9467 176.1947 0.4364 0.0000 -1.0218 0.0000
# 3 19.2981 0.4364 55.7349 0.0000 12.3724 0.0000
# 4 0.0000 0.0000 0.0000 28.9203 0.0000 -8.1270
# 5 -4.2551 -1.0218 12.3724 0.0000 25.9738 0.0000
# 6 0.0000 0.0000 0.0000 -8.1270 0.0000 48.3427
#
#
#
# Elastic Compliance Matrix: (Units=1/GPa)
#
#
# Indices 1 2 3 4 5 6 
#
# 1 0.007307 -0.001219 -0.003104 0.000000 0.002627 0.000000
# 2 -0.001219 0.005881 0.000413 0.000000 -0.000165 0.000000
# 3 -0.003104 0.000413 0.021384 0.000000 -0.010678 0.000000
# 4 0.000000 0.000000 0.000000 0.036292 0.000000 0.006101
# 5 0.002627 -0.000165 -0.010678 0.000000 0.044011 0.000000
# 6 0.000000 0.000000 0.000000 0.006101 0.000000 0.021711
#
#
# Mechanical properties :
#
#
# Convention : Reuss Voigt Hill
#
# Bulk Modulus (GPa) = 37.38120 53.65265 45.51692
# Shear Modulus (GPa) = 32.61089 42.90272 37.75681
#
# Velocity S-wave (km/s) = 3.56576 4.08990 3.83679
# Velocity P-wave (km/s) = 5.61492 6.57431 6.11346
#
# Compressibility (1/GPa) = 0.02675142
#
# Stress axis : x y z
#
# Youngs Moduli (GPa) = 136.85885 170.04656 46.76410
#
# Poissons Ratio (x) = 0.20728 0.14514
# Poissons Ratio (y) = 0.16683 -0.01930
# Poissons Ratio (z) = 0.42477 -0.07017
#
# Static dielectric constant tensor:
#      x y z
#    x 1.659750 0.000000 -0.156360 
#    y 0.000000 2.069970 0.000000 
#    z -0.156360 0.000000 1.900280 
# 
# From -- ./inp_files/94644.got.cif
#   From: 2010.05.17/outbox.cif.g08.bks.cpg/sg13_48_cif.got.tgz:94644.got - 2010.06.03 16:44:36.
