data_PCOD9233247
_publ_section_title
;
Structure prediction by ZEFSAII (Michael W. Deem and Ramdas Pophale) SiO2 
 PCOD9233247
Probable space group: P 2/C
;
_chemical_formula_sum "Si O2"
_cell_formula_units_Z 22
_cell_length_a 16.656177
_cell_length_b 5.278750
_cell_length_c 10.706115
_cell_angle_alpha 90.000000
_cell_angle_beta 121.852084
_cell_angle_gamma 90.000000
_cell_volume 799.571660
_symmetry_space_group_name_H-M "P 2/C"
_symmetry_group_IT_number 13
_symmetry_cell_setting 'monoclinic'
loop_
_space_group_symop_operation_xyz
x,y,z
-x,y,1/2-z
-x,-y,-z
x,-y,1/2+z
loop_
_atom_site_type_symbol
_atom_site_label
_atom_site_fract_x
_atom_site_fract_y
_atom_site_fract_z
Si Si1 0.856745 0.096858 0.204024
Si Si2 0.572570 0.559997 0.947863
Si Si3 0.739607 0.099299 0.368731
Si Si4 0.500000 0.069231 0.750000
Si Si5 0.917432 0.402356 0.844417
Si Si6 0.709308 0.391883 0.766013
O O1 0.931273 0.875385 0.298251
O O2 0.797896 0.123554 0.286073
O O3 0.897398 0.379774 0.224775
O O4 0.797469 0.991538 0.037444
O O5 0.563502 0.300539 0.865135
O O6 0.542793 0.838931 0.876220
O O7 0.500000 0.500000 0.000000
O O8 0.673882 0.567184 0.098334
O O9 0.689813 0.369709 0.337845
O O10 0.667465 0.877084 0.274103
O O11 0.822876 0.371165 0.851588
O O12 0.000000 0.500000 0.000000
#
# Coordination Sequence:
#
# PCOD9233247 Si02
#       6
#     4   4   4   2   4   4
#     4  10  21  40  62  92 129 173 221 273 329 394
#     4  11  23  47  67 103 138 177 231 285 356 410
#     4  10  21  41  63  96 129 171 223 272 333 401
#     4  10  24  44  70 102 134 180 228 290 340 430
#     4  10  21  41  64  94 131 173 217 273 330 394
#     4  10  22  42  63  95 132 168 221 274 331 410
#
# _framework density 27.514734000000001
#
# number of rings (size 3 to 8) (size 9 to 14) (size 15 to 20)
#    0.000    1.818    0.000    3.273    0.000    0.000 
#   39.273   21.818    0.000    0.000    0.000    0.000 
#    0.000    0.000    0.000    0.000    0.000    0.000 
#
# Total GULP energy -122691.200511 kJ/mol
# GULP energy per Si atom -5576.872751 kJ/mol
# Density = 2.745211 g / cm^3
# Si number density = 27.514734 Si / 1000 Ang^3
#
#
#
# Elastic Constant Matrix: (Units=GPa)
#
#
# Indices 1 2 3 4 5 6 
#
# 1 82.3606 16.2225 -1.7476 0.0000 -18.9370 0.0000
# 2 16.2225 277.6496 26.6125 0.0000 11.4226 0.0000
# 3 -1.7476 26.6125 150.7049 0.0000 15.2423 0.0000
# 4 0.0000 0.0000 0.0000 67.8146 0.0000 2.3937
# 5 -18.9370 11.4226 15.2423 0.0000 24.5332 0.0000
# 6 0.0000 0.0000 0.0000 2.3937 0.0000 18.6570
#
#
#
# Elastic Compliance Matrix: (Units=1/GPa)
#
#
# Indices 1 2 3 4 5 6 
#
# 1 0.015395 -0.001351 -0.000905 0.000000 0.013074 0.000000
# 2 -0.001351 0.003827 -0.000433 0.000000 -0.002555 0.000000
# 3 -0.000905 -0.000433 0.007204 0.000000 -0.004973 0.000000
# 4 0.000000 0.000000 0.000000 0.014813 0.000000 -0.001901
# 5 0.013074 -0.002555 -0.004973 0.000000 0.055133 0.000000
# 6 0.000000 0.000000 0.000000 -0.001901 0.000000 0.053843
#
#
# Mechanical properties :
#
#
# Convention : Reuss Voigt Hill
#
# Bulk Modulus (GPa) = 47.50942 65.87666 56.69304
# Shear Modulus (GPa) = 30.74855 53.50947 42.12901
#
# Velocity S-wave (km/s) = 3.34658 4.41472 3.91723
# Velocity P-wave (km/s) = 5.67778 7.06970 6.41162
#
# Compressibility (1/GPa) = 0.02104846
#
# Stress axis : x y z
#
# Youngs Moduli (GPa) = 64.95733 261.28685 138.80312
#
# Poissons Ratio (x) = 0.35289 0.12566
# Poissons Ratio (y) = 0.08773 0.06011
# Poissons Ratio (z) = 0.05881 0.11315
#
# Static dielectric constant tensor:
#      x y z
#    x 2.696150 0.000000 -0.371400 
#    y 0.000000 2.157020 0.000000 
#    z -0.371400 0.000000 2.062200 
# 
# From -- ./inp_files/41334.got.cif
#   From: 2010.05.17/outbox.cif.g08.bks.cpg/sg13_21_cif.got.tgz:41334.got - 2010.06.03 16:44:36.
