data_PCOD9233244
_publ_section_title
;
Structure prediction by ZEFSAII (Michael W. Deem and Ramdas Pophale) SiO2 
 PCOD9233244
Probable space group: P 2/C
;
_chemical_formula_sum "Si O2"
_cell_formula_units_Z 18
_cell_length_a 18.574143
_cell_length_b 7.718017
_cell_length_c 5.294291
_cell_angle_alpha 90.000000
_cell_angle_beta 66.242638
_cell_angle_gamma 90.000000
_cell_volume 694.651016
_symmetry_space_group_name_H-M "P 2/C"
_symmetry_group_IT_number 13
_symmetry_cell_setting 'monoclinic'
loop_
_space_group_symop_operation_xyz
x,y,z
-x,y,1/2-z
-x,-y,-z
x,-y,1/2+z
loop_
_atom_site_type_symbol
_atom_site_label
_atom_site_fract_x
_atom_site_fract_y
_atom_site_fract_z
Si Si1 0.853629 0.885881 0.443283
Si Si2 0.601424 0.435990 0.047025
Si Si3 0.221914 0.435412 0.302218
Si Si4 0.000000 0.619861 0.250000
Si Si5 0.589704 0.065971 0.327278
O O1 0.779516 0.758744 0.591682
O O2 0.925661 0.750431 0.359127
O O3 0.855478 0.020097 0.671958
O O4 0.569766 0.432991 0.806509
O O5 0.691928 0.488051 0.872650
O O6 0.591401 0.254947 0.202857
O O7 0.183700 0.550965 0.578457
O O8 0.000000 0.500000 0.500000
O O9 0.500000 0.000000 0.500000
O O10 0.626800 0.051411 0.552708
#
# Coordination Sequence:
#
# PCOD9233244 Si02
#       5
#     4   4   4   2   4
#     4  12  24  41  64  96 130 165 212 268 316 365
#     4  10  21  40  63  88 121 163 206 253 307 381
#     4  10  21  41  62  88 123 166 211 252 311 378
#     4  12  24  42  68  94 130 174 214 258 312 380
#     4  10  21  40  62  91 123 156 200 254 312 369
#
# _framework density 25.912295
#
# number of rings (size 3 to 8) (size 9 to 14) (size 15 to 20)
#    0.000    1.333    0.000    6.000    0.000    0.000 
#    0.000   40.000    0.000    0.000    0.000    0.000 
#    0.000    0.000    0.000    0.000    0.000    0.000 
#
# Total GULP energy -100704.098718 kJ/mol
# GULP energy per Si atom -5594.672151 kJ/mol
# Density = 2.585332 g / cm^3
# Si number density = 25.912295 Si / 1000 Ang^3
#
#
#
# Elastic Constant Matrix: (Units=GPa)
#
#
# Indices 1 2 3 4 5 6 
#
# 1 72.9443 26.7924 37.8859 0.0000 -12.9849 0.0000
# 2 26.7924 143.8668 67.8364 0.0000 -4.5857 0.0000
# 3 37.8859 67.8364 246.3958 0.0000 45.8784 0.0000
# 4 0.0000 0.0000 0.0000 121.5431 0.0000 3.7493
# 5 -12.9849 -4.5857 45.8784 0.0000 56.3611 0.0000
# 6 0.0000 0.0000 0.0000 3.7493 0.0000 47.3588
#
#
#
# Elastic Compliance Matrix: (Units=1/GPa)
#
#
# Indices 1 2 3 4 5 6 
#
# 1 0.017236 -0.001325 -0.003542 0.000000 0.006746 0.000000
# 2 -0.001325 0.008506 -0.002605 0.000000 0.002507 0.000000
# 3 -0.003542 -0.002605 0.006496 0.000000 -0.006316 0.000000
# 4 0.000000 0.000000 0.000000 0.008248 0.000000 -0.000653
# 5 0.006746 0.002507 -0.006316 0.000000 0.024642 0.000000
# 6 0.000000 0.000000 0.000000 -0.000653 0.000000 0.021167
#
#
# Mechanical properties :
#
#
# Convention : Reuss Voigt Hill
#
# Bulk Modulus (GPa) = 57.81910 80.91515 69.36713
# Shear Modulus (GPa) = 46.72777 67.09873 56.91325
#
# Velocity S-wave (km/s) = 4.25114 5.09419 4.69164
# Velocity P-wave (km/s) = 6.81602 8.11760 7.49511
#
# Compressibility (1/GPa) = 0.01729532
#
# Stress axis : x y z
#
# Youngs Moduli (GPa) = 58.01802 117.56688 153.93565
#
# Poissons Ratio (x) = 0.15577 0.54517
# Poissons Ratio (y) = 0.07687 0.40098
# Poissons Ratio (z) = 0.20547 0.30625
#
# Static dielectric constant tensor:
#      x y z
#    x 2.421390 0.000000 0.097090 
#    y 0.000000 2.085330 0.000000 
#    z 0.097090 0.000000 2.077420 
# 
# From -- ./inp_files/7625.got.cif
#   From: 2010.05.17/outbox.cif.g08.bks.cpg/sg13_4_cif.got.tgz:7625.got - 2010.06.03 16:44:36.
