data_PCOD9233191
_publ_section_title
;
Structure prediction by ZEFSAII (Michael W. Deem and Ramdas Pophale) SiO2 
 PCOD9233191
Probable space group: P 2/C
;
_chemical_formula_sum "Si O2"
_cell_formula_units_Z 20
_cell_length_a 10.184503
_cell_length_b 9.901686
_cell_length_c 9.030021
_cell_angle_alpha 90.000000
_cell_angle_beta 111.143574
_cell_angle_gamma 90.000000
_cell_volume 849.317699
_symmetry_space_group_name_H-M "P 2/C"
_symmetry_group_IT_number 13
_symmetry_cell_setting 'monoclinic'
loop_
_space_group_symop_operation_xyz
x,y,z
-x,y,1/2-z
-x,-y,-z
x,-y,1/2+z
loop_
_atom_site_type_symbol
_atom_site_label
_atom_site_fract_x
_atom_site_fract_y
_atom_site_fract_z
Si Si1 0.821575 0.669527 0.241865
Si Si2 0.153055 0.061316 0.583845
Si Si3 0.735047 0.172521 0.180275
Si Si4 0.542159 0.651964 0.977176
Si Si5 0.810952 0.395578 0.409450
O O1 0.870705 0.811388 0.320242
O O2 0.835046 0.545054 0.360096
O O3 0.653559 0.693294 0.148629
O O4 0.874957 0.629942 0.098289
O O5 0.210556 0.114351 0.451700
O O6 0.256099 0.949477 0.698113
O O7 0.000000 0.000000 0.500000
O O8 0.584662 0.243443 0.088281
O O9 0.838176 0.287777 0.291668
O O10 0.645549 0.633348 0.878155
O O11 0.500000 0.500000 0.000000
#
# Coordination Sequence:
#
# PCOD9233191 Si02
#       5
#     4   4   4   4   4
#     4  10  22  41  72 109 148 186 232 289 366 424
#     4  12  28  49  68  95 142 198 255 303 341 411
#     4  12  24  45  71 101 144 193 236 297 370 424
#     4  10  21  39  73 110 156 174 227 290 375 439
#     4  10  21  40  71 114 147 180 227 289 366 440
#
# _framework density 23.548316
#
# number of rings (size 3 to 8) (size 9 to 14) (size 15 to 20)
#    1.200    0.000    2.000    4.800    0.000    3.200 
#    3.600    1.000    0.000    2.400    0.000    0.000 
#    0.000    0.000    0.000    0.000    0.000    0.000 
#
# Total GULP energy -111844.100613 kJ/mol
# GULP energy per Si atom -5592.205031 kJ/mol
# Density = 2.349472 g / cm^3
# Si number density = 23.548316 Si / 1000 Ang^3
#
#
#
# Elastic Constant Matrix: (Units=GPa)
#
#
# Indices 1 2 3 4 5 6 
#
# 1 119.4543 67.4491 52.9541 0.0000 -1.2011 0.0000
# 2 67.4491 210.3559 97.2382 0.0000 20.2410 0.0000
# 3 52.9541 97.2382 143.6304 0.0000 12.5465 0.0000
# 4 0.0000 0.0000 0.0000 70.6659 0.0000 7.2636
# 5 -1.2011 20.2410 12.5465 0.0000 21.7361 0.0000
# 6 0.0000 0.0000 0.0000 7.2636 0.0000 50.2000
#
#
#
# Elastic Compliance Matrix: (Units=1/GPa)
#
#
# Indices 1 2 3 4 5 6 
#
# 1 0.011180 -0.002832 -0.002621 0.000000 0.004768 0.000000
# 2 -0.002832 0.007972 -0.003887 0.000000 -0.005337 0.000000
# 3 -0.002621 -0.003887 0.010801 0.000000 -0.002760 0.000000
# 4 0.000000 0.000000 0.000000 0.014365 0.000000 -0.002078
# 5 0.004768 -0.005337 -0.002760 0.000000 0.052833 0.000000
# 6 0.000000 0.000000 0.000000 -0.002078 0.000000 0.020221
#
#
# Mechanical properties :
#
#
# Convention : Reuss Voigt Hill
#
# Bulk Modulus (GPa) = 88.70339 100.96925 94.83632
# Shear Modulus (GPa) = 35.76272 45.57368 40.66820
#
# Velocity S-wave (km/s) = 3.90127 4.40401 4.16024
# Velocity P-wave (km/s) = 7.61864 8.29644 7.96475
#
# Compressibility (1/GPa) = 0.01127353
#
# Stress axis : x y z
#
# Youngs Moduli (GPa) = 89.44191 125.43641 92.58186
#
# Poissons Ratio (x) = 0.35524 0.24268
# Poissons Ratio (y) = 0.25330 0.35985
# Poissons Ratio (z) = 0.23445 0.48756
#
# Static dielectric constant tensor:
#      x y z
#    x 1.973270 0.000000 0.052000 
#    y 0.000000 1.912340 0.000000 
#    z 0.052000 0.000000 1.960060 
# 
# From -- ./inp_files/14983.got.cif
#   From: 2010.05.17/outbox.cif.g08.bks.cpg/sg13_8_cif.got.tgz:14983.got - 2010.06.03 16:44:36.
