data_PCOD9233100
_publ_section_title
;
Structure prediction by ZEFSAII (Michael W. Deem and Ramdas Pophale) SiO2 
 PCOD9233100
Probable space group: P 2/C
;
_chemical_formula_sum "Si O2"
_cell_formula_units_Z 20
_cell_length_a 9.306351
_cell_length_b 11.857717
_cell_length_c 7.755109
_cell_angle_alpha 90.000000
_cell_angle_beta 79.098271
_cell_angle_gamma 90.000000
_cell_volume 840.347901
_symmetry_space_group_name_H-M "P 2/C"
_symmetry_group_IT_number 13
_symmetry_cell_setting 'monoclinic'
loop_
_space_group_symop_operation_xyz
x,y,z
-x,y,1/2-z
-x,-y,-z
x,-y,1/2+z
loop_
_atom_site_type_symbol
_atom_site_label
_atom_site_fract_x
_atom_site_fract_y
_atom_site_fract_z
Si Si1 0.385610 0.570044 0.639228
Si Si2 0.163500 0.371516 0.667761
Si Si3 0.656884 0.934795 0.622696
Si Si4 0.835919 0.733121 0.717163
Si Si5 0.660505 0.827761 0.244987
O O1 0.500000 0.620197 0.750000
O O2 0.500000 0.500000 0.500000
O O3 0.270941 0.470364 0.703929
O O4 0.278042 0.673676 0.624655
O O5 0.175701 0.337693 0.461921
O O6 0.212031 0.261416 0.761880
O O7 0.000000 0.404988 0.750000
O O8 0.500000 0.921298 0.750000
O O9 0.778060 0.857894 0.688085
O O10 0.645080 0.888046 0.433711
O O11 0.691345 0.067776 0.613031
O O12 0.000000 0.730199 0.750000
O O13 0.500000 0.773876 0.250000
#
# Coordination Sequence:
#
# PCOD9233100 Si02
#       5
#     4   4   4   4   4
#     4  12  25  45  70  95 124 166 217 265 318 384
#     4  11  26  43  64  95 133 169 210 264 321 382
#     4  10  21  39  65  94 129 166 213 262 311 376
#     4  11  26  43  64  95 132 170 209 263 326 378
#     4  10  21  40  64  97 127 167 214 260 314 373
#
# _framework density 23.799666999999999
#
# number of rings (size 3 to 8) (size 9 to 14) (size 15 to 20)
#    0.000    1.200    2.000    4.200    5.600    5.600 
#    0.000    4.000    0.000    0.000    0.000    0.000 
#    0.000    0.000    0.000    0.000    0.000    0.000 
#
# Total GULP energy -111859.577936 kJ/mol
# GULP energy per Si atom -5592.978897 kJ/mol
# Density = 2.374550 g / cm^3
# Si number density = 23.799667 Si / 1000 Ang^3
#
#
#
# Elastic Constant Matrix: (Units=GPa)
#
#
# Indices 1 2 3 4 5 6 
#
# 1 201.4485 57.6952 19.8049 0.0000 -0.6384 0.0000
# 2 57.6952 78.8690 -10.2089 0.0000 3.3740 0.0000
# 3 19.8049 -10.2089 57.9084 0.0000 7.4127 0.0000
# 4 0.0000 0.0000 0.0000 -22.6536 0.0000 -111.8331
# 5 -0.6384 3.3740 7.4127 0.0000 37.7183 0.0000
# 6 0.0000 0.0000 0.0000 -111.8331 0.0000 -270.6769
#
#
#
# Elastic Compliance Matrix: (Units=1/GPa)
#
#
# Indices 1 2 3 4 5 6 
#
# 1 0.006906 -0.005562 -0.003509 0.000000 0.001304 0.000000
# 2 -0.005562 0.017556 0.005345 0.000000 -0.002715 0.000000
# 3 -0.003509 0.005345 0.019983 0.000000 -0.004465 0.000000
# 4 0.000000 0.000000 0.000000 0.042460 0.000000 -0.017543
# 5 0.001304 -0.002715 -0.004465 0.000000 0.027655 0.000000
# 6 0.000000 0.000000 0.000000 -0.017543 0.000000 0.003554
#
#
# Mechanical properties :
#
#
# Convention : Reuss Voigt Hill
#
# Bulk Modulus (GPa) = 27.03322 52.53426 39.78374
# Shear Modulus (GPa) = 36.25875 -33.06013 1.59931
#
# Velocity S-wave (km/s) = 3.90744 -3.73111 0.82064
# Velocity P-wave (km/s) = 5.63389 1.88677 4.20123
#
# Compressibility (1/GPa) = 0.03699152
#
# Stress axis : x y z
#
# Youngs Moduli (GPa) = 144.79678 56.95997 50.04333
#
# Poissons Ratio (x) = 0.31682 0.17563
# Poissons Ratio (y) = 0.80539 -0.26748
# Poissons Ratio (z) = 0.50816 -0.30444
#
# Static dielectric constant tensor:
#      x y z
#    x 1.824560 0.000000 0.015200 
#    y 0.000000 2.027070 0.000000 
#    z 0.015200 0.000000 2.052180 
# 
# From -- ./inp_files/11697.got.cif
#   From: 2010.05.17/outbox.cif.g08.bks.cpg/sg13_6_cif.got.tgz:11697.got - 2010.06.03 16:44:36.
