data_PCOD9233342
_publ_section_title
;
Structure prediction by ZEFSAII (Michael W. Deem and Ramdas Pophale) SiO2 
 PCOD9233342
Probable space group: P 2/C
;
_chemical_formula_sum "Si O2"
_cell_formula_units_Z 28
_cell_length_a 23.119367
_cell_length_b 10.923371
_cell_length_c 28.148812
_cell_angle_alpha 90.000000
_cell_angle_beta 168.311114
_cell_angle_gamma 90.000000
_cell_volume 1440.212067
_symmetry_space_group_name_H-M "P 2/C"
_symmetry_group_IT_number 13
_symmetry_cell_setting 'monoclinic'
loop_
_space_group_symop_operation_xyz
x,y,z
-x,y,1/2-z
-x,-y,-z
x,-y,1/2+z
loop_
_atom_site_type_symbol
_atom_site_label
_atom_site_fract_x
_atom_site_fract_y
_atom_site_fract_z
Si Si1 0.300935 0.069410 0.233792
Si Si2 0.455463 0.566920 0.355977
Si Si3 0.690797 0.932837 0.614726
Si Si4 0.341407 0.976375 0.167825
Si Si5 0.726699 0.736638 0.497352
Si Si6 0.134495 0.333941 0.242115
Si Si7 0.867584 0.333970 0.371729
O O1 0.266706 0.200628 0.230389
O O2 0.567487 0.992387 0.468070
O O3 0.340242 0.071576 0.209394
O O4 0.000000 0.000000 0.000000
O O5 0.594464 0.621519 0.419702
O O6 0.691284 0.568849 0.586940
O O7 0.314841 0.433462 0.245960
O O8 0.187909 0.657878 0.149599
O O9 0.669017 0.787438 0.596907
O O10 0.500000 0.000000 0.500000
O O11 0.018596 0.952204 0.892192
O O12 0.500000 0.026746 0.250000
O O13 0.504831 0.849663 0.314148
O O14 0.853294 0.697661 0.547640
O O15 0.000000 0.775277 0.750000
O O16 0.101529 0.363710 0.159996
#
# Coordination Sequence:
#
# PCOD9233342 Si02
#       7
#     4   4   4   4   4   4   4
#     4  12  23  39  64  93 132 171 207 262 324 383
#     4  10  23  38  61  90 124 158 212 265 313 375
#     4  12  22  37  63 100 124 162 211 263 326 386
#     4  12  25  39  63  97 130 160 212 269 321 385
#     4  10  21  40  66  92 124 161 213 273 319 370
#     4  11  20  39  66  90 121 159 217 266 314 370
#     4  11  23  39  61  92 124 165 207 260 319 376
#
# _framework density 19.441582
#
# number of rings (size 3 to 8) (size 9 to 14) (size 15 to 20)
#    0.000    0.857    4.286    4.714    0.000    0.000 
#    0.000    0.000   15.714    0.000    0.000    0.000 
#    0.000    0.000    0.000    0.000    0.000    0.000 
#
# Total GULP energy -156270.223509 kJ/mol
# GULP energy per Si atom -5581.079411 kJ/mol
# Density = 1.939733 g / cm^3
# Si number density = 19.441582 Si / 1000 Ang^3
#
#
#
# Elastic Constant Matrix: (Units=GPa)
#
#
# Indices 1 2 3 4 5 6 
#
# 1 127.8439 17.6214 30.4495 0.0000 12.9367 0.0000
# 2 17.6214 45.4970 25.2221 0.0000 12.8568 0.0000
# 3 30.4495 25.2221 119.4581 0.0000 -1.6564 0.0000
# 4 0.0000 0.0000 0.0000 28.8272 0.0000 2.4577
# 5 12.9367 12.8568 -1.6564 0.0000 35.2474 0.0000
# 6 0.0000 0.0000 0.0000 2.4577 0.0000 24.1368
#
#
#
# Elastic Compliance Matrix: (Units=1/GPa)
#
#
# Indices 1 2 3 4 5 6 
#
# 1 0.008777 -0.001541 -0.001950 0.000000 -0.002751 0.000000
# 2 -0.001541 0.028663 -0.005800 0.000000 -0.010162 0.000000
# 3 -0.001950 -0.005800 0.010139 0.000000 0.003308 0.000000
# 4 0.000000 0.000000 0.000000 0.034993 0.000000 -0.003563
# 5 -0.002751 -0.010162 0.003308 0.000000 0.033243 0.000000
# 6 0.000000 0.000000 0.000000 -0.003563 0.000000 0.041793
#
#
# Mechanical properties :
#
#
# Convention : Reuss Voigt Hill
#
# Bulk Modulus (GPa) = 34.48629 48.82056 41.65343
# Shear Modulus (GPa) = 26.90244 32.27601 29.58923
#
# Velocity S-wave (km/s) = 3.72393 4.07892 3.90546
# Velocity P-wave (km/s) = 6.02222 6.88109 6.46593
#
# Compressibility (1/GPa) = 0.02899703
#
# Stress axis : x y z
#
# Youngs Moduli (GPa) = 113.93035 34.88768 98.63217
#
# Poissons Ratio (x) = 0.05376 0.19234
# Poissons Ratio (y) = 0.17558 0.57207
# Poissons Ratio (z) = 0.22217 0.20235
#
# Static dielectric constant tensor:
#      x y z
#    x 1.734070 0.000000 -0.021600 
#    y 0.000000 1.474940 0.000000 
#    z -0.021600 0.000000 1.710480 
# 
# From -- ./inp_files/97716.got.cif
#   From: 2010.05.17/outbox.cif.g08.bks.cpg/sg13_49_cif.got.tgz:97716.got - 2010.06.03 16:44:36.
