data_PCOD9233585
_publ_section_title
;
Structure prediction by ZEFSAII (Michael W. Deem and Ramdas Pophale) SiO2 
 PCOD9233585
Probable space group: P 2/C
;
_chemical_formula_sum "Si O2"
_cell_formula_units_Z 26
_cell_length_a 19.021768
_cell_length_b 9.010520
_cell_length_c 9.343672
_cell_angle_alpha 90.000000
_cell_angle_beta 130.995268
_cell_angle_gamma 90.000000
_cell_volume 1208.730163
_symmetry_space_group_name_H-M "P 2/C"
_symmetry_group_IT_number 13
_symmetry_cell_setting 'monoclinic'
loop_
_space_group_symop_operation_xyz
x,y,z
-x,y,1/2-z
-x,-y,-z
x,-y,1/2+z
loop_
_atom_site_type_symbol
_atom_site_label
_atom_site_fract_x
_atom_site_fract_y
_atom_site_fract_z
Si Si1 0.900014 0.808830 0.630868
Si Si2 0.701729 0.095386 0.407696
Si Si3 0.500000 0.620008 0.250000
Si Si4 0.726743 0.347549 0.751450
Si Si5 0.832009 0.029865 0.317067
Si Si6 0.666691 0.585258 0.892330
Si Si7 0.434038 0.863408 0.365078
O O1 0.811914 0.719395 0.453424
O O2 0.878188 0.859016 0.764365
O O3 0.000000 0.733065 0.750000
O O4 0.902032 0.946769 0.519416
O O5 0.755673 0.091724 0.327575
O O6 0.642151 0.245068 0.327445
O O7 0.777224 0.080882 0.635524
O O8 0.637070 0.950202 0.335793
O O9 0.412809 0.511478 0.139424
O O10 0.493301 0.733171 0.372781
O O11 0.695080 0.493142 0.793691
O O12 0.747490 0.397282 0.618210
O O13 0.639976 0.228831 0.636183
O O14 0.500000 0.000000 0.500000
#
# Coordination Sequence:
#
# PCOD9233585 Si02
#       7
#     4   4   2   4   4   4   4
#     4  11  22  42  70 101 132 165 214 275 334 400
#     4  11  22  40  70  93 132 177 222 268 332 384
#     4  10  28  40  58  96 132 174 228 268 332 380
#     4  11  25  45  63  94 133 175 215 272 335 389
#     4  10  21  41  69 101 128 168 216 276 331 388
#     4  11  26  43  64  89 137 178 217 266 332 400
#     4  11  25  39  66  95 130 172 233 279 318 380
#
# _framework density 21.510179000000001
#
# number of rings (size 3 to 8) (size 9 to 14) (size 15 to 20)
#    0.000    1.231    4.615    0.462   10.769    1.231 
#    0.000    0.769    0.000    0.000    0.000    0.000 
#    0.000    0.000    0.000    0.000    0.000    0.000 
#
# Total GULP energy -144969.304989 kJ/mol
# GULP energy per Si atom -5575.742500 kJ/mol
# Density = 2.146122 g / cm^3
# Si number density = 21.510179 Si / 1000 Ang^3
#
#
#
# Elastic Constant Matrix: (Units=GPa)
#
#
# Indices 1 2 3 4 5 6 
#
# 1 62.7777 26.1256 26.4343 0.0000 -12.9564 0.0000
# 2 26.1256 108.3405 10.6054 0.0000 -5.3285 0.0000
# 3 26.4343 10.6054 77.9016 0.0000 -18.6098 0.0000
# 4 0.0000 0.0000 0.0000 22.5154 0.0000 2.8358
# 5 -12.9564 -5.3285 -18.6098 0.0000 32.5460 0.0000
# 6 0.0000 0.0000 0.0000 2.8358 0.0000 7.8351
#
#
#
# Elastic Compliance Matrix: (Units=1/GPa)
#
#
# Indices 1 2 3 4 5 6 
#
# 1 0.020941 -0.004295 -0.005441 0.000000 0.004522 0.000000
# 2 -0.004295 0.010260 0.000062 0.000000 0.000005 0.000000
# 3 -0.005441 0.000062 0.016400 0.000000 0.007221 0.000000
# 4 0.000000 0.000000 0.000000 0.046535 0.000000 -0.016843
# 5 0.004522 0.000005 0.007221 0.000000 0.036656 0.000000
# 6 0.000000 0.000000 0.000000 -0.016843 0.000000 0.133726
#
#
# Mechanical properties :
#
#
# Convention : Reuss Voigt Hill
#
# Bulk Modulus (GPa) = 35.39443 41.70560 38.55002
# Shear Modulus (GPa) = 17.04836 24.96961 21.00898
#
# Velocity S-wave (km/s) = 2.81832 3.41079 3.12861
# Velocity P-wave (km/s) = 5.20394 5.91119 5.56881
#
# Compressibility (1/GPa) = 0.02825303
#
# Stress axis : x y z
#
# Youngs Moduli (GPa) = 47.75348 97.46576 60.97692
#
# Poissons Ratio (x) = 0.41859 0.33177
# Poissons Ratio (y) = 0.20509 -0.00377
# Poissons Ratio (z) = 0.25982 -0.00603
#
# Static dielectric constant tensor:
#      x y z
#    x 1.827810 0.000000 -0.003990 
#    y 0.000000 1.807290 0.000000 
#    z -0.003990 0.000000 1.839550 
# 
# From -- ./inp_files/23018.got.cif
#   From: 2010.05.17/outbox.cif.g08.bks.cpg/sg13_12_cif.got.tgz:23018.got - 2010.06.03 16:44:36.
