data_PCOD9233211
_publ_section_title
;
Structure prediction by ZEFSAII (Michael W. Deem and Ramdas Pophale) SiO2 
 PCOD9233211
Probable space group: P 2/C
;
_chemical_formula_sum "Si O2"
_cell_formula_units_Z 32
_cell_length_a 13.050936
_cell_length_b 19.486897
_cell_length_c 16.388765
_cell_angle_alpha 90.000000
_cell_angle_beta 155.521861
_cell_angle_gamma 90.000000
_cell_volume 1727.005613
_symmetry_space_group_name_H-M "P 2/C"
_symmetry_group_IT_number 13
_symmetry_cell_setting 'monoclinic'
loop_
_space_group_symop_operation_xyz
x,y,z
-x,y,1/2-z
-x,-y,-z
x,-y,1/2+z
loop_
_atom_site_type_symbol
_atom_site_label
_atom_site_fract_x
_atom_site_fract_y
_atom_site_fract_z
Si Si1 0.124729 0.554987 0.751925
Si Si2 0.756984 0.650854 0.387972
Si Si3 0.692458 0.042302 0.197025
Si Si4 0.246633 0.267758 0.878387
Si Si5 0.751739 0.933799 0.382641
Si Si6 0.596761 0.825200 0.729830
Si Si7 0.705053 0.590413 0.171100
Si Si8 0.168018 0.208826 0.643381
O O1 0.127729 0.476520 0.722651
O O2 0.000000 0.555173 0.750000
O O3 0.973448 0.611600 0.592086
O O4 0.413663 0.573680 0.959018
O O5 0.500000 0.640838 0.250000
O O6 0.752452 0.617638 0.295656
O O7 0.794392 0.731121 0.395758
O O8 0.578029 0.112213 0.151568
O O9 0.978098 0.060380 0.376007
O O10 0.739324 0.993904 0.308009
O O11 0.500000 0.000000 0.000000
O O12 0.248275 0.348592 0.859336
O O13 0.266492 0.231655 0.803672
O O14 0.000000 0.249853 0.750000
O O15 0.460734 0.239839 0.091711
O O16 0.500000 0.940224 0.250000
O O17 0.732735 0.861993 0.320605
O O18 0.500000 0.843781 0.750000
O O19 0.879436 0.804920 0.945694
#
# Coordination Sequence:
#
# PCOD9233211 Si02
#       8
#     4   4   4   4   4   4   4   4
#     4  11  21  39  60  84 117 152 195 245 298 354
#     4  11  21  38  61  87 115 156 196 242 300 357
#     4  10  22  39  60  88 122 156 202 245 295 357
#     4  11  21  38  60  86 118 153 197 242 302 354
#     4  10  21  40  60  87 121 157 197 245 297 352
#     4  11  21  38  60  88 118 157 198 245 300 356
#     4  10  23  38  59  84 117 154 195 246 293 356
#     4  10  22  38  60  86 121 154 198 248 293 357
#
# _framework density 18.529181000000001
#
# number of rings (size 3 to 8) (size 9 to 14) (size 15 to 20)
#    0.000    1.500    2.500    3.000    0.000    0.500 
#    2.250    0.000    0.000    0.000    0.000    0.000 
#    0.000    0.000    0.000    0.000    0.000    0.000 
#
# Total GULP energy -178380.054392 kJ/mol
# GULP energy per Si atom -5574.376700 kJ/mol
# Density = 1.848701 g / cm^3
# Si number density = 18.529181 Si / 1000 Ang^3
#
#
#
# Elastic Constant Matrix: (Units=GPa)
#
#
# Indices 1 2 3 4 5 6 
#
# 1 79.4022 -24.6037 -5.7823 0.0000 21.7307 0.0000
# 2 -24.6037 -189.6239 -262.3199 0.0000 71.4910 0.0000
# 3 -5.7823 -262.3199 -226.6622 0.0000 86.5797 0.0000
# 4 0.0000 0.0000 0.0000 27.6588 0.0000 -5.2790
# 5 21.7307 71.4910 86.5797 0.0000 -2.8024 0.0000
# 6 0.0000 0.0000 0.0000 -5.2790 0.0000 -4.3155
#
#
#
# Elastic Compliance Matrix: (Units=1/GPa)
#
#
# Indices 1 2 3 4 5 6 
#
# 1 0.014935 -0.000104 -0.003978 0.000000 -0.009731 0.000000
# 2 -0.000104 0.011530 -0.009139 0.000000 0.011003 0.000000
# 3 -0.003978 -0.009139 0.008755 0.000000 0.006517 0.000000
# 4 0.000000 0.000000 0.000000 0.029311 0.000000 -0.035855
# 5 -0.009731 0.011003 0.006517 0.000000 0.049749 0.000000
# 6 0.000000 0.000000 0.000000 -0.035855 0.000000 -0.187862
#
#
# Mechanical properties :
#
#
# Convention : Reuss Voigt Hill
#
# Bulk Modulus (GPa) = 113.89126 -102.47728 5.70699
# Shear Modulus (GPa) = -113.09039 1.16298 -55.96370
#
# Velocity S-wave (km/s) = -7.82088 0.79310 -5.50169
# Velocity P-wave (km/s) = 4.46716 7.38832 6.10503
#
# Compressibility (1/GPa) = 0.00878030
#
# Stress axis : x y z
#
# Youngs Moduli (GPa) = 66.95474 86.72834 114.21688
#
# Poissons Ratio (x) = 0.00902 0.45433
# Poissons Ratio (y) = 0.00696 1.04378
# Poissons Ratio (z) = 0.26633 0.79257
#
# Static dielectric constant tensor:
#      x y z
#    x 1.660550 0.000000 0.085930 
#    y 0.000000 1.670510 0.000000 
#    z 0.085930 0.000000 1.805280 
# 
# From -- ./inp_files/51674.got.cif
#   From: 2010.05.17/outbox.cif.g08.bks.cpg/sg13_26_cif.got.tgz:51674.got - 2010.06.03 16:44:36.
