data_PCOD9233433
_publ_section_title
;
Structure prediction by ZEFSAII (Michael W. Deem and Ramdas Pophale) SiO2 
 PCOD9233433
Probable space group: P 2/C
;
_chemical_formula_sum "Si O2"
_cell_formula_units_Z 16
_cell_length_a 12.267546
_cell_length_b 10.858615
_cell_length_c 8.798128
_cell_angle_alpha 90.000000
_cell_angle_beta 140.197213
_cell_angle_gamma 90.000000
_cell_volume 750.243374
_symmetry_space_group_name_H-M "P 2/C"
_symmetry_group_IT_number 13
_symmetry_cell_setting 'monoclinic'
loop_
_space_group_symop_operation_xyz
x,y,z
-x,y,1/2-z
-x,-y,-z
x,-y,1/2+z
loop_
_atom_site_type_symbol
_atom_site_label
_atom_site_fract_x
_atom_site_fract_y
_atom_site_fract_z
Si Si1 0.168754 0.651792 0.135163
Si Si2 0.000000 0.447305 0.750000
Si Si3 0.336105 0.944069 0.964760
Si Si4 0.000000 0.855079 0.750000
Si Si5 0.526268 0.206994 0.453359
O O1 0.366485 0.688991 0.347845
O O2 0.106401 0.627979 0.239855
O O3 0.123763 0.534821 0.982571
O O4 0.065153 0.764807 0.952199
O O5 0.159825 0.931864 0.862187
O O6 0.361153 0.081054 0.927639
O O7 0.500000 0.924845 0.250000
O O8 0.357648 0.839291 0.859059
O O9 0.500000 0.240011 0.250000
#
# Coordination Sequence:
#
# PCOD9233433 Si02
#       5
#     4   2   4   2   4
#     4  10  21  41  64  88 122 170 207 267 317 353
#     4   9  22  41  64  88 124 157 232 271 294 372
#     4  10  21  41  59  97 136 161 207 248 307 394
#     4  11  22  37  70  90 126 175 200 253 324 374
#     4  10  22  39  62  91 135 165 200 261 310 378
#
# _framework density 21.326411
#
# number of rings (size 3 to 8) (size 9 to 14) (size 15 to 20)
#    0.000    2.000    2.500    0.000    3.500    2.000 
#    0.000    1.250    0.000    0.000    0.000    0.000 
#    0.000    0.000    0.000    0.000    0.000    0.000 
#
# Total GULP energy -89390.140060 kJ/mol
# GULP energy per Si atom -5586.883754 kJ/mol
# Density = 2.127787 g / cm^3
# Si number density = 21.326411 Si / 1000 Ang^3
#
#
#
# Elastic Constant Matrix: (Units=GPa)
#
#
# Indices 1 2 3 4 5 6 
#
# 1 133.7770 20.6945 31.7575 0.0000 11.8351 0.0000
# 2 20.6945 28.1201 7.0452 0.0000 5.3548 0.0000
# 3 31.7575 7.0452 72.5362 0.0000 -3.0850 0.0000
# 4 0.0000 0.0000 0.0000 -1.5323 0.0000 16.8470
# 5 11.8351 5.3548 -3.0850 0.0000 40.2033 0.0000
# 6 0.0000 0.0000 0.0000 16.8470 0.0000 13.2998
#
#
#
# Elastic Compliance Matrix: (Units=1/GPa)
#
#
# Indices 1 2 3 4 5 6 
#
# 1 0.009414 -0.005566 -0.003679 0.000000 -0.002312 0.000000
# 2 -0.005566 0.040831 -0.001696 0.000000 -0.003930 0.000000
# 3 -0.003679 -0.001696 0.015669 0.000000 0.002511 0.000000
# 4 0.000000 0.000000 0.000000 -0.043721 0.000000 0.055381
# 5 -0.002312 -0.003930 0.002511 0.000000 0.026270 0.000000
# 6 0.000000 0.000000 0.000000 0.055381 0.000000 0.005037
#
#
# Mechanical properties :
#
#
# Convention : Reuss Voigt Hill
#
# Bulk Modulus (GPa) = 22.71123 39.26975 30.99049
# Shear Modulus (GPa) = 55.51800 22.05658 38.78729
#
# Velocity S-wave (km/s) = 5.10774 3.21945 4.26930
# Velocity P-wave (km/s) = 6.74224 5.68097 6.23423
#
# Compressibility (1/GPa) = 0.04403108
#
# Stress axis : x y z
#
# Youngs Moduli (GPa) = 106.22264 24.49106 63.82162
#
# Poissons Ratio (x) = 0.13632 0.23483
# Poissons Ratio (y) = 0.59124 0.10825
# Poissons Ratio (z) = 0.39084 0.04154
#
# Static dielectric constant tensor:
#      x y z
#    x 1.790860 0.000000 -0.022810 
#    y 0.000000 1.755380 0.000000 
#    z -0.022810 0.000000 1.802660 
# 
# From -- ./inp_files/10885.got.cif
#   From: 2010.05.17/outbox.cif.g08.bks.cpg/sg13_6_cif.got.tgz:10885.got - 2010.06.03 16:44:36.
