data_PCOD9233910
_publ_section_title
;
Structure prediction by ZEFSAII (Michael W. Deem and Ramdas Pophale) SiO2 
 PCOD9233910
Probable space group: P 2/C
;
_chemical_formula_sum "Si O2"
_cell_formula_units_Z 16
_cell_length_a 7.500447
_cell_length_b 17.940905
_cell_length_c 5.413218
_cell_angle_alpha 90.000000
_cell_angle_beta 67.232211
_cell_angle_gamma 90.000000
_cell_volume 671.670105
_symmetry_space_group_name_H-M "P 2/C"
_symmetry_group_IT_number 13
_symmetry_cell_setting 'monoclinic'
loop_
_space_group_symop_operation_xyz
x,y,z
-x,y,1/2-z
-x,-y,-z
x,-y,1/2+z
loop_
_atom_site_type_symbol
_atom_site_label
_atom_site_fract_x
_atom_site_fract_y
_atom_site_fract_z
Si Si1 0.718320 0.683631 0.235969
Si Si2 0.500000 0.047952 0.750000
Si Si3 0.792570 0.167811 0.458633
Si Si4 0.500000 0.748922 0.750000
Si Si5 0.786877 0.472698 0.457970
O O1 0.500000 0.688343 0.250000
O O2 0.666259 0.694393 0.549547
O O3 0.829298 0.757637 0.098544
O O4 0.799189 0.609515 0.070335
O O5 0.686915 0.101653 0.656929
O O6 0.500000 0.000000 0.500000
O O7 0.628711 0.196449 0.352344
O O8 0.000000 0.143503 0.250000
O O9 0.694937 0.519944 0.733326
O O10 0.000000 0.497477 0.250000
#
# Coordination Sequence:
#
# PCOD9233910 Si02
#       5
#     4   2   4   2   4
#     4  10  22  40  67  97 135 184 242 300 350 422
#     4  12  27  50  76 109 156 184 234 304 355 444
#     4  11  24  46  74 106 143 192 244 291 362 427
#     4  10  21  44  68 105 144 180 240 316 345 418
#     4  10  23  41  60  92 138 184 238 301 362 425
#
# _framework density 23.821216
#
# number of rings (size 3 to 8) (size 9 to 14) (size 15 to 20)
#    0.000    1.500    3.750    1.500    7.000    3.000 
#    4.500    0.000    0.000    0.000    0.000    0.000 
#    0.000    0.000    0.000    0.000    0.000    0.000 
#
# Total GULP energy -89169.418346 kJ/mol
# GULP energy per Si atom -5573.088647 kJ/mol
# Density = 2.376700 g / cm^3
# Si number density = 23.821216 Si / 1000 Ang^3
#
#
#
# Elastic Constant Matrix: (Units=GPa)
#
#
# Indices 1 2 3 4 5 6 
#
# 1 85.8337 27.0645 38.8137 0.0000 -15.8277 0.0000
# 2 27.0645 167.2359 96.9056 0.0000 -9.1966 0.0000
# 3 38.8137 96.9056 198.9395 0.0000 -3.8696 0.0000
# 4 0.0000 0.0000 0.0000 69.9019 0.0000 -7.8418
# 5 -15.8277 -9.1966 -3.8696 0.0000 37.1378 0.0000
# 6 0.0000 0.0000 0.0000 -7.8418 0.0000 16.3586
#
#
#
# Elastic Compliance Matrix: (Units=1/GPa)
#
#
# Indices 1 2 3 4 5 6 
#
# 1 0.013907 -0.000608 -0.002310 0.000000 0.005536 0.000000
# 2 -0.000608 0.008459 -0.003974 0.000000 0.001422 0.000000
# 3 -0.002310 -0.003974 0.007390 0.000000 -0.001198 0.000000
# 4 0.000000 0.000000 0.000000 0.015119 0.000000 0.007248
# 5 0.005536 0.001422 -0.001198 0.000000 0.029513 0.000000
# 6 0.000000 0.000000 0.000000 0.007248 0.000000 0.064604
#
#
# Mechanical properties :
#
#
# Convention : Reuss Voigt Hill
#
# Bulk Modulus (GPa) = 62.60675 86.39741 74.50208
# Shear Modulus (GPa) = 31.62553 43.96136 37.79345
#
# Velocity S-wave (km/s) = 3.64761 4.30055 3.98747
# Velocity P-wave (km/s) = 6.63920 7.81073 7.24867
#
# Compressibility (1/GPa) = 0.01597272
#
# Stress axis : x y z
#
# Youngs Moduli (GPa) = 71.90452 118.21711 135.32137
#
# Poissons Ratio (x) = 0.07188 0.31253
# Poissons Ratio (y) = 0.04372 0.53779
# Poissons Ratio (z) = 0.16607 0.46982
#
# Static dielectric constant tensor:
#      x y z
#    x 2.158110 0.000000 0.232610 
#    y 0.000000 1.952800 0.000000 
#    z 0.232610 0.000000 2.236890 
# 
# From -- ./inp_files/1270.got.cif
#   From: 2010.05.17/outbox.cif.g08.bks.cpg/sg13_1_cif.got.tgz:1270.got - 2010.06.03 16:44:36.
