data_PCOD9233299
_publ_section_title
;
Structure prediction by ZEFSAII (Michael W. Deem and Ramdas Pophale) SiO2 
 PCOD9233299
Probable space group: P 2/C
;
_chemical_formula_sum "Si O2"
_cell_formula_units_Z 14
_cell_length_a 5.267264
_cell_length_b 16.674942
_cell_length_c 8.626419
_cell_angle_alpha 90.000000
_cell_angle_beta 61.664766
_cell_angle_gamma 90.000000
_cell_volume 666.890067
_symmetry_space_group_name_H-M "P 2/C"
_symmetry_group_IT_number 13
_symmetry_cell_setting 'monoclinic'
loop_
_space_group_symop_operation_xyz
x,y,z
-x,y,1/2-z
-x,-y,-z
x,-y,1/2+z
loop_
_atom_site_type_symbol
_atom_site_label
_atom_site_fract_x
_atom_site_fract_y
_atom_site_fract_z
Si Si1 0.842298 0.572047 0.131511
Si Si2 0.780967 0.887855 0.590133
Si Si3 0.000000 0.975306 0.250000
Si Si4 0.160828 0.248806 0.871072
O O1 0.500000 0.557334 0.250000
O O2 0.877129 0.661371 0.050395
O O3 0.000000 0.576856 0.250000
O O4 0.000000 0.500000 0.000000
O O5 0.500000 0.850683 0.750000
O O6 0.779583 0.921506 0.414240
O O7 0.029620 0.821421 0.513570
O O8 0.843348 0.965457 0.677005
O O9 0.500000 0.236318 0.750000
O O10 0.000000 0.246330 0.750000
#
# Coordination Sequence:
#
# PCOD9233299 Si02
#       4
#     4   4   2   4
#     4  10  21  40  64  94 127 169 205 258 312 371
#     4  11  23  40  64  91 123 169 216 260 322 377
#     4  10  24  40  60  92 128 158 218 270 318 368
#     4  10  23  42  64  90 132 168 207 262 321 370
#
# _framework density 20.992965000000002
#
# number of rings (size 3 to 8) (size 9 to 14) (size 15 to 20)
#    0.000    1.714    1.429    1.714    4.000    5.714 
#    2.571    0.000    0.000    0.000    0.000    0.000 
#    0.000    0.000    0.000    0.000    0.000    0.000 
#
# Total GULP energy -78150.558664 kJ/mol
# GULP energy per Si atom -5582.182762 kJ/mol
# Density = 2.094518 g / cm^3
# Si number density = 20.992965 Si / 1000 Ang^3
#
#
#
# Elastic Constant Matrix: (Units=GPa)
#
#
# Indices 1 2 3 4 5 6 
#
# 1 106.1690 29.5757 37.5675 0.0000 -24.2939 0.0000
# 2 29.5757 168.3252 79.5021 0.0000 -29.1435 0.0000
# 3 37.5675 79.5021 117.5802 0.0000 -20.8940 0.0000
# 4 0.0000 0.0000 0.0000 -82.4587 0.0000 -33.4066
# 5 -24.2939 -29.1435 -20.8940 0.0000 32.6045 0.0000
# 6 0.0000 0.0000 0.0000 -33.4066 0.0000 24.1540
#
#
#
# Elastic Compliance Matrix: (Units=1/GPa)
#
#
# Indices 1 2 3 4 5 6 
#
# 1 0.012021 0.000561 -0.002866 0.000000 0.007622 0.000000
# 2 0.000561 0.009393 -0.005602 0.000000 0.005224 0.000000
# 3 -0.002866 -0.005602 0.013473 0.000000 0.001492 0.000000
# 4 0.000000 0.000000 0.000000 -0.007772 0.000000 -0.010750
# 5 0.007622 0.005224 0.001492 0.000000 0.041975 0.000000
# 6 0.000000 0.000000 0.000000 -0.010750 0.000000 0.026534
#
#
# Mechanical properties :
#
#
# Convention : Reuss Voigt Hill
#
# Bulk Modulus (GPa) = 52.42856 76.15170 64.29013
# Shear Modulus (GPa) = 42.44737 11.22193 26.83465
#
# Velocity S-wave (km/s) = 4.50152 2.31456 3.57917
# Velocity P-wave (km/s) = 7.21435 6.59519 6.91171
#
# Compressibility (1/GPa) = 0.01907357
#
# Stress axis : x y z
#
# Youngs Moduli (GPa) = 83.18995 106.46778 74.22193
#
# Poissons Ratio (x) = -0.05972 0.21269
# Poissons Ratio (y) = -0.04667 0.41577
# Poissons Ratio (z) = 0.23839 0.59641
#
# Static dielectric constant tensor:
#      x y z
#    x 1.737510 0.000000 0.018370 
#    y 0.000000 1.783890 0.000000 
#    z 0.018370 0.000000 1.750690 
# 
# From -- ./inp_files/8723.got.cif
#   From: 2010.05.17/outbox.cif.g08.bks.cpg/sg13_5_cif.got.tgz:8723.got - 2010.06.03 16:44:36.
