data_PCOD9233024
_publ_section_title
;
Structure prediction by ZEFSAII (Michael W. Deem and Ramdas Pophale) SiO2 
 PCOD9233024
Probable space group: P 2/C
;
_chemical_formula_sum "Si O2"
_cell_formula_units_Z 20
_cell_length_a 8.067731
_cell_length_b 15.223835
_cell_length_c 12.527603
_cell_angle_alpha 90.000000
_cell_angle_beta 33.334131
_cell_angle_gamma 90.000000
_cell_volume 845.526931
_symmetry_space_group_name_H-M "P 2/C"
_symmetry_group_IT_number 13
_symmetry_cell_setting 'monoclinic'
loop_
_space_group_symop_operation_xyz
x,y,z
-x,y,1/2-z
-x,-y,-z
x,-y,1/2+z
loop_
_atom_site_type_symbol
_atom_site_label
_atom_site_fract_x
_atom_site_fract_y
_atom_site_fract_z
Si Si1 0.284011 0.128541 0.159281
Si Si2 0.203628 0.507604 0.228253
Si Si3 0.849181 0.791681 0.447212
Si Si4 0.708145 0.945422 0.242988
Si Si5 0.859970 0.619369 0.575915
O O1 0.000000 0.168213 0.250000
O O2 0.190949 0.043322 0.278552
O O3 0.496929 0.191316 0.113505
O O4 0.500529 0.090524 0.950572
O O5 0.105872 0.410290 0.319976
O O6 0.000000 0.552736 0.250000
O O7 0.130119 0.565864 0.370898
O O8 0.500000 0.500000 0.000000
O O9 0.893213 0.715157 0.508936
O O10 0.000000 0.771571 0.250000
O O11 0.008175 0.879752 0.405518
O O12 0.500000 0.944574 0.250000
O O13 0.500000 0.593759 0.750000
#
# Coordination Sequence:
#
# PCOD9233024 Si02
#       5
#     4   4   4   4   4
#     4  10  21  39  66  92 128 185 249 297 356 418
#     4  11  23  46  77 106 141 186 229 289 355 449
#     4  10  23  43  65  95 147 191 235 312 364 420
#     4  10  21  39  62  95 133 188 242 293 357 427
#     4  11  24  42  72 107 143 187 237 288 368 431
#
# _framework density 23.653888999999999
#
# number of rings (size 3 to 8) (size 9 to 14) (size 15 to 20)
#    0.000    1.600    2.000    3.600    0.000    5.600 
#    3.600    1.000    0.000    0.000    0.000    0.000 
#    0.000    0.000    0.000    0.000    0.000    0.000 
#
# Total GULP energy -111594.786697 kJ/mol
# GULP energy per Si atom -5579.739335 kJ/mol
# Density = 2.360005 g / cm^3
# Si number density = 23.653889 Si / 1000 Ang^3
#
#
#
# Elastic Constant Matrix: (Units=GPa)
#
#
# Indices 1 2 3 4 5 6 
#
# 1 95.8693 36.2828 26.8018 0.0000 14.5450 0.0000
# 2 36.2828 107.8543 50.5595 0.0000 13.9853 0.0000
# 3 26.8018 50.5595 151.3712 0.0000 14.8352 0.0000
# 4 0.0000 0.0000 0.0000 24.9665 0.0000 -4.2852
# 5 14.5450 13.9853 14.8352 0.0000 55.4254 0.0000
# 6 0.0000 0.0000 0.0000 -4.2852 0.0000 31.1710
#
#
#
# Elastic Compliance Matrix: (Units=1/GPa)
#
#
# Indices 1 2 3 4 5 6 
#
# 1 0.012298 -0.003483 -0.000805 0.000000 -0.002133 0.000000
# 2 -0.003483 0.012165 -0.003322 0.000000 -0.001266 0.000000
# 3 -0.000805 -0.003322 0.007965 0.000000 -0.001082 0.000000
# 4 0.000000 0.000000 0.000000 0.041022 0.000000 0.005639
# 5 -0.002133 -0.001266 -0.001082 0.000000 0.019211 0.000000
# 6 0.000000 0.000000 0.000000 0.005639 0.000000 0.032856
#
#
# Mechanical properties :
#
#
# Convention : Reuss Voigt Hill
#
# Bulk Modulus (GPa) = 58.11800 64.70922 61.41361
# Shear Modulus (GPa) = 34.13593 38.40930 36.27262
#
# Velocity S-wave (km/s) = 3.80299 4.03402 3.92021
# Velocity P-wave (km/s) = 6.62625 7.00813 6.81986
#
# Compressibility (1/GPa) = 0.01720637
#
# Stress axis : x y z
#
# Youngs Moduli (GPa) = 81.31580 82.20175 125.55532
#
# Poissons Ratio (x) = 0.28632 0.10107
# Poissons Ratio (y) = 0.28323 0.41715
# Poissons Ratio (z) = 0.06546 0.27311
#
# Static dielectric constant tensor:
#      x y z
#    x 1.960910 0.000000 -0.008600 
#    y 0.000000 1.920140 0.000000 
#    z -0.008600 0.000000 2.049320 
# 
# From -- ./inp_files/48019.got.cif
#   From: 2010.05.17/outbox.cif.g08.bks.cpg/sg13_25_cif.got.tgz:48019.got - 2010.06.03 16:44:36.
