data_PCOD9233970
_publ_section_title
;
Structure prediction by ZEFSAII (Michael W. Deem and Ramdas Pophale) SiO2 
 PCOD9233970
Probable space group: P 2/C
;
_chemical_formula_sum "Si O2"
_cell_formula_units_Z 22
_cell_length_a 10.280245
_cell_length_b 5.522871
_cell_length_c 21.930986
_cell_angle_alpha 90.000000
_cell_angle_beta 131.426417
_cell_angle_gamma 90.000000
_cell_volume 933.631469
_symmetry_space_group_name_H-M "P 2/C"
_symmetry_group_IT_number 13
_symmetry_cell_setting 'monoclinic'
loop_
_space_group_symop_operation_xyz
x,y,z
-x,y,1/2-z
-x,-y,-z
x,-y,1/2+z
loop_
_atom_site_type_symbol
_atom_site_label
_atom_site_fract_x
_atom_site_fract_y
_atom_site_fract_z
Si Si1 0.847213 0.749237 0.478813
Si Si2 0.086773 0.543479 0.127767
Si Si3 0.353761 0.757352 0.554135
Si Si4 0.300522 0.408664 0.294363
Si Si5 0.000000 0.113125 0.250000
Si Si6 0.231136 0.264291 0.889348
O O1 0.896842 0.727820 0.423540
O O2 0.731614 0.505238 0.456133
O O3 0.016997 0.700084 0.573051
O O4 0.752585 0.999410 0.463830
O O5 0.268454 0.536814 0.220051
O O6 0.933182 0.621699 0.125798
O O7 0.533248 0.757118 0.646216
O O8 0.372181 0.764980 0.486143
O O9 0.121157 0.263337 0.243282
O O10 0.297819 0.582626 0.352637
O O11 0.141624 0.969095 0.332771
#
# Coordination Sequence:
#
# PCOD9233970 Si02
#       6
#     4   4   4   4   2   4
#     4  10  25  47  71 102 133 195 230 292 342 416
#     4  10  21  46  72  95 142 178 251 278 344 422
#     4  11  27  44  69 103 146 178 235 286 363 412
#     4  12  24  43  65 107 137 184 230 302 352 423
#     4  12  22  38  72  96 136 182 238 274 362 408
#     4  11  23  43  66 103 135 186 229 293 353 420
#
# _framework density 23.563901999999999
#
# number of rings (size 3 to 8) (size 9 to 14) (size 15 to 20)
#    0.000    1.091    3.636    1.636    5.091    9.455 
#    0.000    1.818    0.000    0.000    0.000    0.000 
#    0.000    0.000    0.000    0.000    0.000    0.000 
#
# Total GULP energy -122923.429790 kJ/mol
# GULP energy per Si atom -5587.428627 kJ/mol
# Density = 2.351027 g / cm^3
# Si number density = 23.563902 Si / 1000 Ang^3
#
#
#
# Elastic Constant Matrix: (Units=GPa)
#
#
# Indices 1 2 3 4 5 6 
#
# 1 47.5712 36.1819 36.8077 0.0000 -15.4891 0.0000
# 2 36.1819 109.1634 15.2697 0.0000 -4.8201 0.0000
# 3 36.8077 15.2697 136.7689 0.0000 -28.2328 0.0000
# 4 0.0000 0.0000 0.0000 41.0860 0.0000 60.2304
# 5 -15.4891 -4.8201 -28.2328 0.0000 28.7799 0.0000
# 6 0.0000 0.0000 0.0000 60.2304 0.0000 172.8881
#
#
#
# Elastic Compliance Matrix: (Units=1/GPa)
#
#
# Indices 1 2 3 4 5 6 
#
# 1 0.038897 -0.011415 -0.006604 0.000000 0.012544 0.000000
# 2 -0.011415 0.012666 0.001038 0.000000 -0.003004 0.000000
# 3 -0.006604 0.001038 0.010377 0.000000 0.006799 0.000000
# 4 0.000000 0.000000 0.000000 0.049744 0.000000 -0.017330
# 5 0.012544 -0.003004 0.006799 0.000000 0.047664 0.000000
# 6 0.000000 0.000000 0.000000 -0.017330 0.000000 0.011821
#
#
# Mechanical properties :
#
#
# Convention : Reuss Voigt Hill
#
# Bulk Modulus (GPa) = 35.74335 52.22467 43.98401
# Shear Modulus (GPa) = 23.31469 62.23375 42.77422
#
# Velocity S-wave (km/s) = 3.14892 5.14470 4.26519
# Velocity P-wave (km/s) = 5.33128 7.58299 6.55455
#
# Compressibility (1/GPa) = 0.02797723
#
# Stress axis : x y z
#
# Youngs Moduli (GPa) = 25.70879 78.95069 96.37086
#
# Poissons Ratio (x) = 0.90120 0.63647
# Poissons Ratio (y) = 0.29346 -0.10001
# Poissons Ratio (z) = 0.16979 -0.08193
#
# Static dielectric constant tensor:
#      x y z
#    x 1.934280 0.000000 -0.047410 
#    y 0.000000 1.977430 0.000000 
#    z -0.047410 0.000000 2.053650 
# 
# From -- ./inp_files/85913.got.cif
#   From: 2010.05.17/outbox.cif.g08.bks.cpg/sg13_43_cif.got.tgz:85913.got - 2010.06.03 16:44:36.
