data_PCOD9233457
_publ_section_title
;
Structure prediction by ZEFSAII (Michael W. Deem and Ramdas Pophale) SiO2 
 PCOD9233457
Probable space group: P 2/C
;
_chemical_formula_sum "Si O2"
_cell_formula_units_Z 32
_cell_length_a 13.126094
_cell_length_b 7.616728
_cell_length_c 34.207760
_cell_angle_alpha 90.000000
_cell_angle_beta 22.935916
_cell_angle_gamma 90.000000
_cell_volume 1332.786151
_symmetry_space_group_name_H-M "P 2/C"
_symmetry_group_IT_number 13
_symmetry_cell_setting 'monoclinic'
loop_
_space_group_symop_operation_xyz
x,y,z
-x,y,1/2-z
-x,-y,-z
x,-y,1/2+z
loop_
_atom_site_type_symbol
_atom_site_label
_atom_site_fract_x
_atom_site_fract_y
_atom_site_fract_z
Si Si1 0.356755 0.385112 0.499837
Si Si2 0.077962 0.037478 0.629810
Si Si3 0.717374 0.387428 0.139191
Si Si4 0.718708 0.792640 0.138622
Si Si5 0.845624 0.326355 0.375543
Si Si6 0.566332 0.179809 0.841594
Si Si7 0.059924 0.915993 0.552433
Si Si8 0.443415 0.399951 0.154368
O O1 0.220545 0.215634 0.566913
O O2 0.649503 0.409584 0.413351
O O3 0.195012 0.556109 0.571009
O O4 0.386225 0.355976 0.443621
O O5 0.238738 0.875346 0.589942
O O6 0.963455 0.951011 0.630382
O O7 0.846911 0.092049 0.740447
O O8 0.500000 0.377050 0.250000
O O9 0.804648 0.590052 0.105529
O O10 0.581919 0.345303 0.145736
O O11 0.942891 0.256274 0.073023
O O12 0.500000 0.803036 0.250000
O O13 0.579434 0.851000 0.148128
O O14 0.953222 0.920795 0.065713
O O15 0.148949 0.327177 0.257111
O O16 0.590321 0.389090 0.835287
O O17 0.371725 0.103531 0.942581
#
# Coordination Sequence:
#
# PCOD9233457 Si02
#       8
#     4   4   4   4   4   4   4   4
#     4  11  26  49  77 108 141 188 241 309 372 437
#     4  12  26  46  74 106 148 186 238 299 362 437
#     4  10  24  43  68 103 145 195 243 292 351 426
#     4  10  21  41  62  91 139 190 237 286 339 410
#     4  11  25  49  78 105 145 187 240 303 382 432
#     4  11  25  44  65 105 143 185 243 291 353 419
#     4  12  25  41  68 100 144 194 235 285 353 427
#     4  11  24  47  77 106 145 190 245 299 357 435
#
# _framework density 24.009853
#
# number of rings (size 3 to 8) (size 9 to 14) (size 15 to 20)
#    0.000    1.000    2.500    3.000    3.500    5.000 
#    0.000    0.000    0.000    0.000    0.000    0.000 
#    0.000    0.000    0.000    0.000    0.000    0.000 
#
# Total GULP energy -179363.133862 kJ/mol
# GULP energy per Si atom -5605.097933 kJ/mol
# Density = 2.395521 g / cm^3
# Si number density = 24.009853 Si / 1000 Ang^3
#
#
#
# Elastic Constant Matrix: (Units=GPa)
#
#
# Indices 1 2 3 4 5 6 
#
# 1 31.9828 -3.9204 13.8358 0.0001 -2.0530 0.0000
# 2 -3.9204 97.7823 46.6577 -0.0001 -9.6129 0.0000
# 3 13.8358 46.6577 118.4549 -0.0001 7.0336 0.0000
# 4 0.0001 -0.0001 -0.0001 32.3792 0.0001 -6.5207
# 5 -2.0530 -9.6129 7.0336 0.0001 24.0766 0.0000
# 6 0.0000 0.0000 0.0000 -6.5207 0.0000 28.5311
#
#
#
# Elastic Compliance Matrix: (Units=1/GPa)
#
#
# Indices 1 2 3 4 5 6 
#
# 1 0.035217 0.005252 -0.006599 0.000000 0.007028 0.000000
# 2 0.005252 0.014496 -0.006812 0.000000 0.008226 0.000000
# 3 -0.006599 -0.006812 0.012304 0.000000 -0.006877 0.000000
# 4 0.000000 0.000000 0.000000 0.032374 0.000000 0.007399
# 5 0.007028 0.008226 -0.006877 0.000000 0.047427 0.000000
# 6 0.000000 0.000000 0.000000 0.007399 0.000000 0.036740
#
#
# Mechanical properties :
#
#
# Convention : Reuss Voigt Hill
#
# Bulk Modulus (GPa) = 21.88256 40.15181 31.01718
# Shear Modulus (GPa) = 23.79712 29.77383 26.78548
#
# Velocity S-wave (km/s) = 3.15165 3.52528 3.34369
# Velocity P-wave (km/s) = 4.73050 5.77317 5.27765
#
# Compressibility (1/GPa) = 0.04569850
#
# Stress axis : x y z
#
# Youngs Moduli (GPa) = 28.39577 68.98320 81.27298
#
# Poissons Ratio (x) = -0.36228 0.53634
# Poissons Ratio (y) = -0.14913 0.55361
# Poissons Ratio (z) = 0.18739 0.46989
#
# Static dielectric constant tensor:
#      x y z
#    x 1.896890 0.000000 0.004470 
#    y 0.000000 1.908380 0.000000 
#    z 0.004470 0.000000 1.922790 
# 
# From -- ./inp_files/96662.got.cif
#   From: 2010.05.17/outbox.cif.g08.bks.cpg/sg13_49_cif.got.tgz:96662.got - 2010.06.03 16:44:36.
