data_PCOD9233069
_publ_section_title
;
Structure prediction by ZEFSAII (Michael W. Deem and Ramdas Pophale) SiO2 
 PCOD9233069
Probable space group: P 2/C
;
_chemical_formula_sum "Si O2"
_cell_formula_units_Z 20
_cell_length_a 8.169345
_cell_length_b 23.315476
_cell_length_c 8.903437
_cell_angle_alpha 90.000000
_cell_angle_beta 34.464290
_cell_angle_gamma 90.000000
_cell_volume 959.672698
_symmetry_space_group_name_H-M "P 2/C"
_symmetry_group_IT_number 13
_symmetry_cell_setting 'monoclinic'
loop_
_space_group_symop_operation_xyz
x,y,z
-x,y,1/2-z
-x,-y,-z
x,-y,1/2+z
loop_
_atom_site_type_symbol
_atom_site_label
_atom_site_fract_x
_atom_site_fract_y
_atom_site_fract_z
Si Si1 0.201794 0.537561 0.744246
Si Si2 0.354001 0.833244 0.196089
Si Si3 0.208372 0.963530 0.233740
Si Si4 0.135310 0.764595 0.814659
Si Si5 0.819873 0.347581 0.042325
O O1 0.500000 0.500000 0.500000
O O2 0.235173 0.595989 0.813958
O O3 0.000000 0.548108 0.750000
O O4 0.000000 0.500000 0.000000
O O5 0.500000 0.829413 0.250000
O O6 0.323355 0.899998 0.184506
O O7 0.033919 0.808987 0.453631
O O8 0.544086 0.790825 0.948216
O O9 0.000000 0.956778 0.250000
O O10 0.000000 0.000000 0.500000
O O11 0.500000 0.000000 0.000000
O O12 0.062695 0.702859 0.941438
O O13 0.000000 0.763915 0.750000
O O14 0.500000 0.325768 0.250000
O O15 0.000000 0.357515 0.750000
#
# Coordination Sequence:
#
# PCOD9233069 Si02
#       5
#     4   4   4   4   4
#     4  12  25  44  69  97 132 172 218 268 324 385
#     4  10  21  39  64  92 125 165 213 265 320 382
#     4  12  25  42  65  94 129 169 215 266 324 387
#     4  10  22  41  64  91 125 168 213 262 321 381
#     4  12  25  42  65  96 132 170 215 267 318 379
#
# _framework density 20.840437999999999
#
# number of rings (size 3 to 8) (size 9 to 14) (size 15 to 20)
#    0.000    0.800    0.000    8.400    0.000    4.000 
#    0.000    6.000    0.000    0.000    0.000    0.000 
#    0.000    0.000    0.000    0.000    0.000    0.000 
#
# Total GULP energy -111488.970510 kJ/mol
# GULP energy per Si atom -5574.448526 kJ/mol
# Density = 2.079300 g / cm^3
# Si number density = 20.840438 Si / 1000 Ang^3
#
#
#
# Elastic Constant Matrix: (Units=GPa)
#
#
# Indices 1 2 3 4 5 6 
#
# 1 43.8824 6.0312 38.4237 0.0000 1.7062 0.0000
# 2 6.0312 155.8578 55.7279 0.0000 17.0615 0.0000
# 3 38.4237 55.7279 170.7724 0.0000 -2.9726 0.0000
# 4 0.0000 0.0000 0.0000 37.0425 0.0000 0.9656
# 5 1.7062 17.0615 -2.9726 0.0000 27.1957 0.0000
# 6 0.0000 0.0000 0.0000 0.9656 0.0000 35.8404
#
#
#
# Elastic Compliance Matrix: (Units=1/GPa)
#
#
# Indices 1 2 3 4 5 6 
#
# 1 0.028978 0.001864 -0.007194 0.000000 -0.003774 0.000000
# 2 0.001864 0.008076 -0.003151 0.000000 -0.005528 0.000000
# 3 -0.007194 -0.003151 0.008561 0.000000 0.003364 0.000000
# 4 0.000000 0.000000 0.000000 0.027015 0.000000 -0.000728
# 5 -0.003774 -0.005528 0.003364 0.000000 0.040843 0.000000
# 6 0.000000 0.000000 0.000000 -0.000728 0.000000 0.027921
#
#
# Mechanical properties :
#
#
# Convention : Reuss Voigt Hill
#
# Bulk Modulus (GPa) = 34.90050 63.43090 49.16570
# Shear Modulus (GPa) = 29.77850 38.03772 33.90811
#
# Velocity S-wave (km/s) = 3.78415 4.27686 4.03803
# Velocity P-wave (km/s) = 5.98966 7.40886 6.73673
#
# Compressibility (1/GPa) = 0.02865289
#
# Stress axis : x y z
#
# Youngs Moduli (GPa) = 34.50920 123.82783 116.80634
#
# Poissons Ratio (x) = -0.23082 0.84030
# Poissons Ratio (y) = -0.06433 0.36805
# Poissons Ratio (z) = 0.24826 0.39018
#
# Static dielectric constant tensor:
#      x y z
#    x 1.975020 0.000000 -0.064230 
#    y 0.000000 1.728400 0.000000 
#    z -0.064230 0.000000 1.769110 
# 
# From -- ./inp_files/13767.got.cif
#   From: 2010.05.17/outbox.cif.g08.bks.cpg/sg13_7_cif.got.tgz:13767.got - 2010.06.03 16:44:36.
