data_PCOD9233249
_publ_section_title
;
Structure prediction by ZEFSAII (Michael W. Deem and Ramdas Pophale) SiO2 
 PCOD9233249
Probable space group: P 2/C
;
_chemical_formula_sum "Si O2"
_cell_formula_units_Z 32
_cell_length_a 10.296966
_cell_length_b 8.404282
_cell_length_c 18.176730
_cell_angle_alpha 90.000000
_cell_angle_beta 97.530891
_cell_angle_gamma 90.000000
_cell_volume 1559.420815
_symmetry_space_group_name_H-M "P 2/C"
_symmetry_group_IT_number 13
_symmetry_cell_setting 'monoclinic'
loop_
_space_group_symop_operation_xyz
x,y,z
-x,y,1/2-z
-x,-y,-z
x,-y,1/2+z
loop_
_atom_site_type_symbol
_atom_site_label
_atom_site_fract_x
_atom_site_fract_y
_atom_site_fract_z
Si Si1 0.024860 0.327547 0.664698
Si Si2 0.553723 0.126421 0.107537
Si Si3 0.844832 0.003893 0.370806
Si Si4 0.871120 0.344942 0.292912
Si Si5 0.260294 0.304517 0.877638
Si Si6 0.597356 0.427059 0.190726
Si Si7 0.637829 0.893836 0.241327
Si Si8 0.302770 0.031173 0.998144
O O1 0.116932 0.484238 0.663267
O O2 0.115923 0.369532 0.880242
O O3 0.000000 0.313180 0.750000
O O4 0.065600 0.151817 0.638973
O O5 0.524871 0.298412 0.135264
O O6 0.429481 0.049769 0.059139
O O7 0.595366 0.032708 0.183307
O O8 0.670404 0.112773 0.056463
O O9 0.876646 0.180070 0.340288
O O10 0.817636 0.015307 0.455628
O O11 0.712259 0.954993 0.317659
O O12 0.735104 0.360677 0.236187
O O13 0.000000 0.339222 0.250000
O O14 0.363668 0.437553 0.864215
O O15 0.263185 0.207464 0.800620
O O16 0.296704 0.185229 0.945319
O O17 0.500000 0.467060 0.250000
O O18 0.500000 0.811569 0.250000
#
# Coordination Sequence:
#
# PCOD9233249 Si02
#       8
#     4   4   4   4   4   4   4   4
#     4  11  22  43  64  98 134 166 225 292 324 383
#     4  10  21  40  62  92 136 169 211 276 331 400
#     4  12  22  39  71  98 125 183 224 268 335 405
#     4  11  23  41  68 104 130 168 226 289 330 383
#     4  11  24  42  61  93 137 171 214 282 340 394
#     4  12  22  40  70 101 127 168 229 281 332 392
#     4  11  19  35  67  94 121 163 224 277 325 381
#     4  10  24  42  59  95 139 174 216 265 342 415
#
# _framework density 20.520437000000001
#
# number of rings (size 3 to 8) (size 9 to 14) (size 15 to 20)
#    0.000    1.000    6.250    1.875    0.000    1.000 
#    2.250    0.625    0.000    0.000    0.000    0.000 
#    0.000    0.000    0.000    0.000    0.000    0.000 
#
# Total GULP energy -178313.802410 kJ/mol
# GULP energy per Si atom -5572.306325 kJ/mol
# Density = 2.047373 g / cm^3
# Si number density = 20.520437 Si / 1000 Ang^3
#
#
#
# Elastic Constant Matrix: (Units=GPa)
#
#
# Indices 1 2 3 4 5 6 
#
# 1 65.0913 2.0119 6.3008 0.0000 -11.5970 0.0000
# 2 2.0119 104.2491 20.8609 0.0000 -25.9239 0.0000
# 3 6.3008 20.8609 69.0820 0.0000 -27.0671 0.0000
# 4 0.0000 0.0000 0.0000 0.2598 0.0000 -0.2456
# 5 -11.5970 -25.9239 -27.0671 0.0000 28.3138 0.0000
# 6 0.0000 0.0000 0.0000 -0.2456 0.0000 47.5905
#
#
#
# Elastic Compliance Matrix: (Units=1/GPa)
#
#
# Indices 1 2 3 4 5 6 
#
# 1 0.017009 0.001918 0.002058 0.000000 0.010691 0.000000
# 2 0.001918 0.012692 0.001364 0.000000 0.013711 0.000000
# 3 0.002058 0.001364 0.023496 0.000000 0.024554 0.000000
# 4 0.000000 0.000000 0.000000 3.868590 0.000000 0.019963
# 5 0.010691 0.013711 0.024554 0.000000 0.075724 0.000000
# 6 0.000000 0.000000 0.000000 0.019963 0.000000 0.021116
#
#
# Mechanical properties :
#
#
# Convention : Reuss Voigt Hill
#
# Bulk Modulus (GPa) = 15.65454 32.97440 24.31447
# Shear Modulus (GPa) = 1.24093 29.18272 15.21182
#
# Velocity S-wave (km/s) = 0.77849 3.77520 2.72564
# Velocity P-wave (km/s) = 2.90747 5.92510 4.66692
#
# Compressibility (1/GPa) = 0.06387922
#
# Stress axis : x y z
#
# Youngs Moduli (GPa) = 58.79164 78.79093 42.55969
#
# Poissons Ratio (x) = -0.15115 -0.08759
# Poissons Ratio (y) = -0.11278 -0.05807
# Poissons Ratio (z) = -0.12100 -0.10751
#
# Static dielectric constant tensor:
#      x y z
#    x 1.727780 0.000000 0.006040 
#    y 0.000000 1.823350 0.000000 
#    z 0.006040 0.000000 1.700030 
# 
# From -- ./inp_files/66053.got.cif
#   From: 2010.05.17/outbox.cif.g08.bks.cpg/sg13_34_cif.got.tgz:66053.got - 2010.06.03 16:44:36.
