data_PCOD9233078
_publ_section_title
;
Structure prediction by ZEFSAII (Michael W. Deem and Ramdas Pophale) SiO2 
 PCOD9233078
Probable space group: P 2/C
;
_chemical_formula_sum "Si O2"
_cell_formula_units_Z 32
_cell_length_a 13.707732
_cell_length_b 20.427927
_cell_length_c 14.635011
_cell_angle_alpha 90.000000
_cell_angle_beta 160.669077
_cell_angle_gamma 90.000000
_cell_volume 1356.569575
_symmetry_space_group_name_H-M "P 2/C"
_symmetry_group_IT_number 13
_symmetry_cell_setting 'monoclinic'
loop_
_space_group_symop_operation_xyz
x,y,z
-x,y,1/2-z
-x,-y,-z
x,-y,1/2+z
loop_
_atom_site_type_symbol
_atom_site_label
_atom_site_fract_x
_atom_site_fract_y
_atom_site_fract_z
Si Si1 0.314660 0.203600 0.497355
Si Si2 0.256304 0.122402 0.109412
Si Si3 0.902273 0.387016 0.562966
Si Si4 0.267690 0.703168 0.800241
Si Si5 0.523414 0.429360 0.066240
Si Si6 0.907380 0.252269 0.822373
Si Si7 0.391428 0.911446 0.936229
Si Si8 0.239835 0.026340 0.592544
O O1 0.268643 0.269799 0.401778
O O2 0.462346 0.152930 0.558392
O O3 0.000000 0.177080 0.250000
O O4 0.500000 0.213332 0.750000
O O5 0.500000 0.140630 0.250000
O O6 0.385237 0.110895 0.325545
O O7 0.154911 0.048677 0.996010
O O8 0.012623 0.179288 0.893119
O O9 0.638566 0.421133 0.273640
O O10 0.892743 0.307614 0.552846
O O11 0.000000 0.409058 0.750000
O O12 0.194858 0.402674 0.765149
O O13 0.273886 0.625001 0.802863
O O14 0.995015 0.733680 0.504944
O O15 0.562951 0.730272 0.008769
O O16 0.500000 0.500000 0.000000
O O17 0.061281 0.933768 0.671118
O O18 0.617597 0.963944 0.180290
O O19 0.500000 0.044899 0.750000
#
# Coordination Sequence:
#
# PCOD9233078 Si02
#       8
#     4   4   4   4   4   4   4   4
#     4  12  24  40  69  96 123 167 222 271 327 389
#     4  11  26  44  67  97 130 171 221 274 339 402
#     4  10  21  39  64  97 129 170 222 270 314 394
#     4  10  22  42  64  94 132 167 212 268 325 389
#     4  10  21  40  67  93 132 179 216 260 331 393
#     4  10  22  41  65  91 131 171 207 267 334 391
#     4  12  24  45  66  91 130 171 218 273 338 394
#     4  11  25  45  67  95 127 168 221 276 333 404
#
# _framework density 23.588911
#
# number of rings (size 3 to 8) (size 9 to 14) (size 15 to 20)
#    0.000    1.250    1.250    4.500    1.750    4.000 
#    0.000    7.500    0.000    0.000    0.000    0.000 
#    0.000    0.000    0.000    0.000    0.000    0.000 
#
# Total GULP energy -178943.427390 kJ/mol
# GULP energy per Si atom -5591.982106 kJ/mol
# Density = 2.353522 g / cm^3
# Si number density = 23.588911 Si / 1000 Ang^3
#
#
#
# Elastic Constant Matrix: (Units=GPa)
#
#
# Indices 1 2 3 4 5 6 
#
# 1 87.7464 32.8862 21.1681 0.0000 -17.3924 0.0000
# 2 32.8862 132.9500 29.1076 0.0000 -5.5317 0.0000
# 3 21.1681 29.1076 131.7912 0.0000 -14.4166 0.0000
# 4 0.0000 0.0000 0.0000 29.6179 0.0000 -3.2597
# 5 -17.3924 -5.5317 -14.4166 0.0000 42.1851 0.0000
# 6 0.0000 0.0000 0.0000 -3.2597 0.0000 10.2544
#
#
#
# Elastic Compliance Matrix: (Units=1/GPa)
#
#
# Indices 1 2 3 4 5 6 
#
# 1 0.013730 -0.002970 -0.001010 0.000000 0.004926 0.000000
# 2 -0.002970 0.008555 -0.001479 0.000000 -0.000608 0.000000
# 3 -0.001010 -0.001479 0.008321 0.000000 0.002233 0.000000
# 4 0.000000 0.000000 0.000000 0.034987 0.000000 0.011122
# 5 0.004926 -0.000608 0.002233 0.000000 0.026419 0.000000
# 6 0.000000 0.000000 0.000000 0.011122 0.000000 0.101055
#
#
# Mechanical properties :
#
#
# Convention : Reuss Voigt Hill
#
# Bulk Modulus (GPa) = 50.79558 57.64573 54.22066
# Shear Modulus (GPa) = 23.74754 34.36651 29.05702
#
# Velocity S-wave (km/s) = 3.17633 3.82107 3.51352
# Velocity P-wave (km/s) = 5.91883 6.63009 6.28453
#
# Compressibility (1/GPa) = 0.01968675
#
# Stress axis : x y z
#
# Youngs Moduli (GPa) = 72.83474 116.89397 120.17828
#
# Poissons Ratio (x) = 0.34717 0.12144
# Poissons Ratio (y) = 0.21632 0.17773
# Poissons Ratio (z) = 0.07360 0.17288
#
# Static dielectric constant tensor:
#      x y z
#    x 1.939540 0.000000 -0.000050 
#    y 0.000000 1.947450 0.000000 
#    z -0.000050 0.000000 1.885300 
# 
# From -- ./inp_files/54026.got.cif
#   From: 2010.05.17/outbox.cif.g08.bks.cpg/sg13_28_cif.got.tgz:54026.got - 2010.06.03 16:44:36.
