data_PCOD9233285
_publ_section_title
;
Structure prediction by ZEFSAII (Michael W. Deem and Ramdas Pophale) SiO2 
 PCOD9233285
Probable space group: P 2/C
;
_chemical_formula_sum "Si O2"
_cell_formula_units_Z 16
_cell_length_a 10.102693
_cell_length_b 10.981573
_cell_length_c 14.697334
_cell_angle_alpha 90.000000
_cell_angle_beta 155.225285
_cell_angle_gamma 90.000000
_cell_volume 683.293994
_symmetry_space_group_name_H-M "P 2/C"
_symmetry_group_IT_number 13
_symmetry_cell_setting 'monoclinic'
loop_
_space_group_symop_operation_xyz
x,y,z
-x,y,1/2-z
-x,-y,-z
x,-y,1/2+z
loop_
_atom_site_type_symbol
_atom_site_label
_atom_site_fract_x
_atom_site_fract_y
_atom_site_fract_z
Si Si1 0.754781 0.740248 0.015559
Si Si2 0.913256 0.637343 0.923114
Si Si3 0.606149 0.983159 0.670333
Si Si4 0.164053 0.829474 0.952777
O O1 0.612527 0.876018 0.926064
O O2 0.000000 0.729206 0.250000
O O3 0.911997 0.708591 0.018075
O O4 0.449146 0.653537 0.837218
O O5 0.131598 0.702618 0.984762
O O6 0.000000 0.500000 0.000000
O O7 0.951912 0.926420 0.877613
O O8 0.500000 0.000000 0.500000
O O9 0.505161 0.110021 0.652015
O O10 0.000000 0.818198 0.750000
#
# Coordination Sequence:
#
# PCOD9233285 Si02
#       4
#     4   4   4   4
#     4  10  21  40  64  89 126 165 204 269 325 364
#     4  10  23  41  60  90 126 169 224 256 298 385
#     4   9  17  34  62  96 126 158 206 256 320 392
#     4   9  18  35  62  93 128 164 203 262 321 375
#
# _framework density 23.415984000000002
#
# number of rings (size 3 to 8) (size 9 to 14) (size 15 to 20)
#    0.000    2.500    0.000    2.250    0.000    3.000 
#    0.000   22.500    0.000    0.000    0.000    0.000 
#    0.000    0.000    0.000    0.750    0.000    0.000 
#
# Total GULP energy -89536.350996 kJ/mol
# GULP energy per Si atom -5596.021937 kJ/mol
# Density = 2.336269 g / cm^3
# Si number density = 23.415984 Si / 1000 Ang^3
#
#
#
# Elastic Constant Matrix: (Units=GPa)
#
#
# Indices 1 2 3 4 5 6 
#
# 1 127.9813 85.6752 37.6154 0.0000 -16.7118 0.0000
# 2 85.6752 167.6447 38.4321 0.0000 18.4603 0.0000
# 3 37.6154 38.4321 147.1796 0.0000 2.6987 0.0000
# 4 0.0000 0.0000 0.0000 32.3713 0.0000 -5.1787
# 5 -16.7118 18.4603 2.6987 0.0000 26.4008 0.0000
# 6 0.0000 0.0000 0.0000 -5.1787 0.0000 32.7534
#
#
#
# Elastic Compliance Matrix: (Units=1/GPa)
#
#
# Indices 1 2 3 4 5 6 
#
# 1 0.018445 -0.011091 -0.002178 0.000000 0.019654 0.000000
# 2 -0.011091 0.013535 -0.000398 0.000000 -0.016444 0.000000
# 3 -0.002178 -0.000398 0.007489 0.000000 -0.001866 0.000000
# 4 0.000000 0.000000 0.000000 0.031693 0.000000 0.005011
# 5 0.019654 -0.016444 -0.001866 0.000000 0.062008 0.000000
# 6 0.000000 0.000000 0.000000 0.005011 0.000000 0.031323
#
#
# Mechanical properties :
#
#
# Convention : Reuss Voigt Hill
#
# Bulk Modulus (GPa) = 82.41151 85.13898 83.77525
# Shear Modulus (GPa) = 25.52654 37.04398 31.28526
#
# Velocity S-wave (km/s) = 3.30530 3.98175 3.65919
# Velocity P-wave (km/s) = 7.05958 7.58797 7.32854
#
# Compressibility (1/GPa) = 0.01213423
#
# Stress axis : x y z
#
# Youngs Moduli (GPa) = 54.21480 73.88100 133.52321
#
# Poissons Ratio (x) = 0.81943 0.29085
# Poissons Ratio (y) = 0.60131 0.05317
# Poissons Ratio (z) = 0.11810 0.02942
#
# Static dielectric constant tensor:
#      x y z
#    x 1.899590 0.000000 0.017350 
#    y 0.000000 1.857060 0.000000 
#    z 0.017350 0.000000 1.929020 
# 
# From -- ./inp_files/50692.got.cif
#   From: 2010.05.17/outbox.cif.g08.bks.cpg/sg13_26_cif.got.tgz:50692.got - 2010.06.03 16:44:36.
