data_PCOD9233377
_publ_section_title
;
Structure prediction by ZEFSAII (Michael W. Deem and Ramdas Pophale) SiO2 
 PCOD9233377
Probable space group: P 2/C
;
_chemical_formula_sum "Si O2"
_cell_formula_units_Z 28
_cell_length_a 15.329949
_cell_length_b 7.530129
_cell_length_c 21.673598
_cell_angle_alpha 90.000000
_cell_angle_beta 148.063175
_cell_angle_gamma 90.000000
_cell_volume 1323.477533
_symmetry_space_group_name_H-M "P 2/C"
_symmetry_group_IT_number 13
_symmetry_cell_setting 'monoclinic'
loop_
_space_group_symop_operation_xyz
x,y,z
-x,y,1/2-z
-x,-y,-z
x,-y,1/2+z
loop_
_atom_site_type_symbol
_atom_site_label
_atom_site_fract_x
_atom_site_fract_y
_atom_site_fract_z
Si Si1 0.864750 0.664015 0.369594
Si Si2 0.500000 0.000000 0.500000
Si Si3 0.875545 0.375678 0.120659
Si Si4 0.190571 0.003229 0.384211
Si Si5 0.059891 0.274731 0.107280
Si Si6 0.658673 0.014083 0.726196
Si Si7 0.797092 0.717240 0.003335
Si Si8 0.500000 0.151405 0.250000
O O1 0.837527 0.453600 0.347143
O O2 0.915987 0.721184 0.469632
O O3 0.027941 0.701888 0.426505
O O4 0.713374 0.781847 0.257484
O O5 0.307908 0.940438 0.399937
O O6 0.451976 0.034389 0.398570
O O7 0.766542 0.211933 0.079500
O O8 0.781690 0.544517 0.037464
O O9 0.000000 0.431375 0.250000
O O10 0.982966 0.297133 0.128674
O O11 0.000000 0.998985 0.250000
O O12 0.204412 0.888977 0.454142
O O13 0.174774 0.104131 0.173288
O O14 0.565561 0.967199 0.733252
O O15 0.650692 0.732799 0.866628
#
# Coordination Sequence:
#
# PCOD9233377 Si02
#       8
#     4   2   4   4   4   4   4   2
#     4  10  22  40  72  96 121 170 224 269 335 390
#     4  12  26  44  66 104 134 176 238 258 334 420
#     4  10  22  40  68  98 123 167 224 269 334 395
#     4  11  23  44  69  96 135 177 216 280 330 394
#     4  10  21  40  67  99 124 164 226 276 323 401
#     4  12  24  45  64  94 137 172 215 280 326 393
#     4  11  22  44  65  96 129 172 217 274 331 394
#     4  12  26  42  64  96 138 176 216 264 344 398
#
# _framework density 21.156383999999999
#
# number of rings (size 3 to 8) (size 9 to 14) (size 15 to 20)
#    0.000    1.143    2.857    4.286    2.000    1.143 
#    2.571    2.857    0.000    0.000    0.000    0.000 
#    0.000    0.000    0.000    0.000    0.000    0.000 
#
# Total GULP energy -156091.861601 kJ/mol
# GULP energy per Si atom -5574.709343 kJ/mol
# Density = 2.110823 g / cm^3
# Si number density = 21.156384 Si / 1000 Ang^3
#
#
#
# Elastic Constant Matrix: (Units=GPa)
#
#
# Indices 1 2 3 4 5 6 
#
# 1 65.8215 -17.1278 9.9677 0.0000 -19.0923 0.0000
# 2 -17.1278 60.5985 18.1182 0.0000 -9.9134 0.0000
# 3 9.9677 18.1182 36.4736 0.0000 -18.4988 0.0000
# 4 0.0000 0.0000 0.0000 16.7991 0.0000 -15.3281
# 5 -19.0923 -9.9134 -18.4988 0.0000 37.1552 0.0000
# 6 0.0000 0.0000 0.0000 -15.3281 0.0000 12.6974
#
#
#
# Elastic Compliance Matrix: (Units=1/GPa)
#
#
# Indices 1 2 3 4 5 6 
#
# 1 0.021628 0.009412 -0.004917 0.000000 0.011177 0.000000
# 2 0.009412 0.023483 -0.011514 0.000000 0.005369 0.000000
# 3 -0.004917 -0.011514 0.042330 0.000000 0.015476 0.000000
# 4 0.000000 0.000000 0.000000 -0.586606 0.000000 -0.708141
# 5 0.011177 0.005369 0.015476 0.000000 0.041795 0.000000
# 6 0.000000 0.000000 0.000000 -0.708141 0.000000 -0.776101
#
#
# Mechanical properties :
#
#
# Convention : Reuss Voigt Hill
#
# Bulk Modulus (GPa) = 13.62367 20.53444 17.07906
# Shear Modulus (GPa) = -4.18423 23.45936 9.63757
#
# Velocity S-wave (km/s) = -1.40785 3.33356 2.13665
# Velocity P-wave (km/s) = 1.95211 4.95418 3.76528
#
# Compressibility (1/GPa) = 0.07340163
#
# Stress axis : x y z
#
# Youngs Moduli (GPa) = 46.23581 42.58366 23.62396
#
# Poissons Ratio (x) = -0.40079 0.11617
# Poissons Ratio (y) = -0.43516 0.27201
# Poissons Ratio (z) = 0.22736 0.49032
#
# Static dielectric constant tensor:
#      x y z
#    x 1.778500 0.000000 0.012050 
#    y 0.000000 1.764690 0.000000 
#    z 0.012050 0.000000 1.753110 
# 
# From -- ./inp_files/80055.got.cif
#   From: 2010.05.17/outbox.cif.g08.bks.cpg/sg13_41_cif.got.tgz:80055.got - 2010.06.03 16:44:36.
