data_PCOD9233677
_publ_section_title
;
Structure prediction by ZEFSAII (Michael W. Deem and Ramdas Pophale) SiO2 
 PCOD9233677
Probable space group: P 2/C
;
_chemical_formula_sum "Si O2"
_cell_formula_units_Z 22
_cell_length_a 24.657633
_cell_length_b 5.922022
_cell_length_c 13.681999
_cell_angle_alpha 90.000000
_cell_angle_beta 30.868341
_cell_angle_gamma 90.000000
_cell_volume 1025.050063
_symmetry_space_group_name_H-M "P 2/C"
_symmetry_group_IT_number 13
_symmetry_cell_setting 'monoclinic'
loop_
_space_group_symop_operation_xyz
x,y,z
-x,y,1/2-z
-x,-y,-z
x,-y,1/2+z
loop_
_atom_site_type_symbol
_atom_site_label
_atom_site_fract_x
_atom_site_fract_y
_atom_site_fract_z
Si Si1 0.000000 0.422898 0.250000
Si Si2 0.273719 0.634912 0.537061
Si Si3 0.196876 0.724992 0.001244
Si Si4 0.573859 0.800782 0.345743
Si Si5 0.928118 0.885990 0.691844
Si Si6 0.366772 0.566151 0.602309
O O1 0.105098 0.573201 0.094092
O O2 0.003942 0.268341 0.340149
O O3 0.252962 0.419423 0.500138
O O4 0.340690 0.822931 0.372719
O O5 0.158239 0.737261 0.731276
O O6 0.331165 0.564024 0.546454
O O7 0.136358 0.937481 0.140475
O O8 0.290107 0.743702 0.777431
O O9 0.487894 0.636307 0.428424
O O10 0.635779 0.673816 0.337533
O O11 0.500000 0.000000 0.500000
O O12 0.000000 0.000000 0.500000
#
# Coordination Sequence:
#
# PCOD9233677 Si02
#       6
#     2   4   4   4   4   4
#     4  10  24  40  62  88 130 166 218 268 328 378
#     4  10  23  40  62  98 125 167 220 263 327 389
#     4  10  23  41  62  90 129 166 213 271 327 380
#     4  10  21  42  65  94 128 166 212 263 323 387
#     4  11  25  40  64  95 127 172 225 264 326 391
#     4  10  22  39  67  90 129 166 207 266 325 381
#
# _framework density 21.462365999999999
#
# number of rings (size 3 to 8) (size 9 to 14) (size 15 to 20)
#    0.000    1.818    0.000    2.182    7.636    2.909 
#    0.000    5.455    0.000    0.000    0.000    0.000 
#    0.000    0.000    0.000    0.000    0.000    0.000 
#
# Total GULP energy -122854.467815 kJ/mol
# GULP energy per Si atom -5584.293992 kJ/mol
# Density = 2.141352 g / cm^3
# Si number density = 21.462366 Si / 1000 Ang^3
#
#
#
# Elastic Constant Matrix: (Units=GPa)
#
#
# Indices 1 2 3 4 5 6 
#
# 1 169.6314 36.9582 50.1165 0.0000 -18.5753 0.0000
# 2 36.9582 44.6377 -1.1081 0.0000 -3.8239 0.0000
# 3 50.1165 -1.1081 75.9241 0.0000 0.7716 0.0000
# 4 0.0000 0.0000 0.0000 34.8149 0.0000 -4.7394
# 5 -18.5753 -3.8239 0.7716 0.0000 19.6146 0.0000
# 6 0.0000 0.0000 0.0000 -4.7394 0.0000 15.0926
#
#
#
# Elastic Compliance Matrix: (Units=1/GPa)
#
#
# Indices 1 2 3 4 5 6 
#
# 1 0.010910 -0.008448 -0.007416 0.000000 0.008976 0.000000
# 2 -0.008448 0.029331 0.006030 0.000000 -0.002519 0.000000
# 3 -0.007416 0.006030 0.018221 0.000000 -0.006564 0.000000
# 4 0.000000 0.000000 0.000000 0.030006 0.000000 0.009422
# 5 0.008976 -0.002519 -0.006564 0.000000 0.059250 0.000000
# 6 0.000000 0.000000 0.000000 0.009422 0.000000 0.069217
#
#
# Mechanical properties :
#
#
# Convention : Reuss Voigt Hill
#
# Bulk Modulus (GPa) = 25.77714 51.34740 38.56227
# Shear Modulus (GPa) = 20.03743 27.51951 23.77847
#
# Velocity S-wave (km/s) = 3.05881 3.58470 3.33215
# Velocity P-wave (km/s) = 4.95092 6.41169 5.72806
#
# Compressibility (1/GPa) = 0.03879407
#
# Stress axis : x y z
#
# Youngs Moduli (GPa) = 91.66248 34.09369 54.88219
#
# Poissons Ratio (x) = 0.28802 0.40700
# Poissons Ratio (y) = 0.77435 -0.33094
# Poissons Ratio (z) = 0.67975 -0.20558
#
# Static dielectric constant tensor:
#      x y z
#    x 1.728280 0.000000 0.009770 
#    y 0.000000 1.826130 0.000000 
#    z 0.009770 0.000000 1.801570 
# 
# From -- ./inp_files/35358.got.cif
#   From: 2010.05.17/outbox.cif.g08.bks.cpg/sg13_18_cif.got.tgz:35358.got - 2010.06.03 16:44:36.
