data_PCOD9233771
_publ_section_title
;
Structure prediction by ZEFSAII (Michael W. Deem and Ramdas Pophale) SiO2 
 PCOD9233771
Probable space group: P 2/C
;
_chemical_formula_sum "Si O2"
_cell_formula_units_Z 28
_cell_length_a 5.334799
_cell_length_b 8.532840
_cell_length_c 26.872500
_cell_angle_alpha 90.000000
_cell_angle_beta 106.757530
_cell_angle_gamma 90.000000
_cell_volume 1171.314990
_symmetry_space_group_name_H-M "P 2/C"
_symmetry_group_IT_number 13
_symmetry_cell_setting 'monoclinic'
loop_
_space_group_symop_operation_xyz
x,y,z
-x,y,1/2-z
-x,-y,-z
x,-y,1/2+z
loop_
_atom_site_type_symbol
_atom_site_label
_atom_site_fract_x
_atom_site_fract_y
_atom_site_fract_z
Si Si1 0.557782 0.305958 0.622363
Si Si2 0.012845 0.910559 0.895717
Si Si3 0.681064 0.100988 0.801696
Si Si4 0.922372 0.589881 0.295409
Si Si5 0.835771 0.445692 0.390699
Si Si6 0.303457 0.635484 0.471692
Si Si7 0.611621 0.918984 0.956300
O O1 0.426578 0.189300 0.654307
O O2 0.430454 0.477239 0.605894
O O3 0.591949 0.254601 0.567670
O O4 0.831800 0.342101 0.661847
O O5 0.914643 0.732701 0.894909
O O6 0.850635 0.984098 0.934746
O O7 0.330174 0.903209 0.911834
O O8 0.902361 0.992497 0.839390
O O9 0.500000 0.015233 0.750000
O O10 0.771157 0.251249 0.774312
O O11 0.795478 0.485053 0.329752
O O12 0.000000 0.503849 0.250000
O O13 0.049191 0.549152 0.433877
O O14 0.500000 0.500000 0.500000
O O15 0.274798 0.752785 0.516226
O O16 0.500000 0.000000 0.000000
#
# Coordination Sequence:
#
# PCOD9233771 Si02
#       7
#     4   4   4   4   4   4   4
#     4  10  22  40  69  98 132 171 240 285 334 423
#     4  12  28  47  67 103 146 180 230 292 350 420
#     4  11  24  44  69  97 131 183 231 289 355 413
#     4  10  21  42  72  98 130 175 235 289 343 414
#     4  10  24  41  66 103 138 180 230 288 351 421
#     4  11  22  41  69  96 135 188 225 281 350 412
#     4  12  28  45  69 102 143 187 235 283 345 419
#
# _framework density 23.904757
#
# number of rings (size 3 to 8) (size 9 to 14) (size 15 to 20)
#    0.000    1.143    2.857    2.143   12.000    1.143 
#    2.571    0.714    0.000    0.000    0.000    0.000 
#    0.000    0.000    0.000    0.000    0.000    0.000 
#
# Total GULP energy -155968.586131 kJ/mol
# GULP energy per Si atom -5570.306648 kJ/mol
# Density = 2.385035 g / cm^3
# Si number density = 23.904757 Si / 1000 Ang^3
#
#
#
# Elastic Constant Matrix: (Units=GPa)
#
#
# Indices 1 2 3 4 5 6 
#
# 1 58.1258 -9.4755 12.3455 0.0000 1.9453 0.0000
# 2 -9.4755 57.2328 9.4874 0.0000 10.2991 0.0000
# 3 12.3455 9.4874 127.8494 0.0000 -4.3376 0.0000
# 4 0.0000 0.0000 0.0000 -4.5068 0.0000 28.4208
# 5 1.9453 10.2991 -4.3376 0.0000 42.6621 0.0000
# 6 0.0000 0.0000 0.0000 28.4208 0.0000 2.1478
#
#
#
# Elastic Compliance Matrix: (Units=1/GPa)
#
#
# Indices 1 2 3 4 5 6 
#
# 1 0.018327 0.003736 -0.002113 0.000000 -0.001952 0.000000
# 2 0.003736 0.019323 -0.001965 0.000000 -0.005035 0.000000
# 3 -0.002113 -0.001965 0.008219 0.000000 0.001407 0.000000
# 4 0.000000 0.000000 0.000000 -0.002627 0.000000 0.034769
# 5 -0.001952 -0.005035 0.001407 0.000000 0.024888 0.000000
# 6 0.000000 0.000000 0.000000 0.034769 0.000000 0.005513
#
#
# Mechanical properties :
#
#
# Convention : Reuss Voigt Hill
#
# Bulk Modulus (GPa) = 22.13177 29.76920 25.95048
# Shear Modulus (GPa) = 55.93484 23.45067 39.69276
#
# Velocity S-wave (km/s) = 4.84250 3.13550 4.07929
# Velocity P-wave (km/s) = 6.36748 5.05853 5.75037
#
# Compressibility (1/GPa) = 0.04518392
#
# Stress axis : x y z
#
# Youngs Moduli (GPa) = 54.56357 51.75217 121.66436
#
# Poissons Ratio (x) = -0.19334 0.25710
# Poissons Ratio (y) = -0.20385 0.23913
# Poissons Ratio (z) = 0.11530 0.10172
#
# Static dielectric constant tensor:
#      x y z
#    x 2.141710 0.000000 0.017750 
#    y 0.000000 1.965930 0.000000 
#    z 0.017750 0.000000 1.989110 
# 
# From -- ./inp_files/95128.got.cif
#   From: 2010.05.17/outbox.cif.g08.bks.cpg/sg13_48_cif.got.tgz:95128.got - 2010.06.03 16:44:36.
