data_PCOD9233494
_publ_section_title
;
Structure prediction by ZEFSAII (Michael W. Deem and Ramdas Pophale) SiO2 
 PCOD9233494
Probable space group: P 2/C
;
_chemical_formula_sum "Si O2"
_cell_formula_units_Z 24
_cell_length_a 16.975060
_cell_length_b 7.216578
_cell_length_c 16.842299
_cell_angle_alpha 90.000000
_cell_angle_beta 31.420537
_cell_angle_gamma 90.000000
_cell_volume 1075.584847
_symmetry_space_group_name_H-M "P 2/C"
_symmetry_group_IT_number 13
_symmetry_cell_setting 'monoclinic'
loop_
_space_group_symop_operation_xyz
x,y,z
-x,y,1/2-z
-x,-y,-z
x,-y,1/2+z
loop_
_atom_site_type_symbol
_atom_site_label
_atom_site_fract_x
_atom_site_fract_y
_atom_site_fract_z
Si Si1 0.056551 0.289048 0.551966
Si Si2 0.395690 0.649469 0.135304
Si Si3 0.855430 0.626153 0.684480
Si Si4 0.325671 0.424796 0.423034
Si Si5 0.667758 0.772217 0.995727
Si Si6 0.249516 0.158233 0.623257
O O1 0.084408 0.239571 0.435885
O O2 0.211888 0.312738 0.465090
O O3 0.981363 0.494385 0.614143
O O4 0.928705 0.164066 0.703806
O O5 0.248594 0.523189 0.274331
O O6 0.342856 0.818647 0.124725
O O7 0.500000 0.500000 0.000000
O O8 0.494171 0.723812 0.123066
O O9 0.763548 0.721917 0.833683
O O10 0.500000 0.400169 0.250000
O O11 0.289711 0.642392 0.467086
O O12 0.294430 0.342660 0.537167
O O13 0.697772 0.988707 0.975922
#
# Coordination Sequence:
#
# PCOD9233494 Si02
#       6
#     4   4   4   4   4   4
#     4  10  21  41  64  93 127 165 211 264 317 384
#     4   9  16  36  64  92 122 164 202 259 312 374
#     4   9  19  38  69  92 120 166 213 256 322 378
#     4  12  25  43  65  89 132 174 215 268 324 377
#     4  11  22  39  68  96 127 165 217 263 327 376
#     4  11  23  40  64  97 129 168 213 267 323 385
#
# _framework density 22.313441999999998
#
# number of rings (size 3 to 8) (size 9 to 14) (size 15 to 20)
#    0.000    1.667    5.000    2.000    2.333    1.333 
#    6.000    0.000    0.000    0.000    0.000    0.000 
#    0.000    0.000    0.000    0.000    0.000    0.000 
#
# Total GULP energy -133916.208240 kJ/mol
# GULP energy per Si atom -5579.842010 kJ/mol
# Density = 2.226266 g / cm^3
# Si number density = 22.313442 Si / 1000 Ang^3
#
#
#
# Elastic Constant Matrix: (Units=GPa)
#
#
# Indices 1 2 3 4 5 6 
#
# 1 50.6070 -4.2930 13.6457 0.0000 -17.2291 0.0000
# 2 -4.2930 63.0501 7.1422 0.0000 -11.1712 0.0000
# 3 13.6457 7.1422 104.7985 0.0000 -12.3846 0.0000
# 4 0.0000 0.0000 0.0000 20.5453 0.0000 1.4677
# 5 -17.2291 -11.1712 -12.3846 0.0000 33.4606 0.0000
# 6 0.0000 0.0000 0.0000 1.4677 0.0000 13.6012
#
#
#
# Elastic Compliance Matrix: (Units=1/GPa)
#
#
# Indices 1 2 3 4 5 6 
#
# 1 0.025361 0.004395 -0.001971 0.000000 0.013796 0.000000
# 2 0.004395 0.017645 -0.000848 0.000000 0.007840 0.000000
# 3 -0.001971 -0.000848 0.010147 0.000000 0.002457 0.000000
# 4 0.000000 0.000000 0.000000 0.049051 0.000000 -0.005293
# 5 0.013796 0.007840 0.002457 0.000000 0.040517 0.000000
# 6 0.000000 0.000000 0.000000 -0.005293 0.000000 0.074094
#
#
# Mechanical properties :
#
#
# Convention : Reuss Voigt Hill
#
# Bulk Modulus (GPa) = 17.76107 27.93841 22.84974
# Shear Modulus (GPa) = 21.51161 26.98547 24.24854
#
# Velocity S-wave (km/s) = 3.10831 3.48139 3.30013
# Velocity P-wave (km/s) = 4.56719 5.35800 4.97832
#
# Compressibility (1/GPa) = 0.05630291
#
# Stress axis : x y z
#
# Youngs Moduli (GPa) = 39.43005 56.67404 98.55103
#
# Poissons Ratio (x) = -0.24906 0.19428
# Poissons Ratio (y) = -0.17328 0.08360
# Poissons Ratio (z) = 0.07773 0.04808
#
# Static dielectric constant tensor:
#      x y z
#    x 1.894510 0.000000 0.010440 
#    y 0.000000 1.822590 0.000000 
#    z 0.010440 0.000000 1.854410 
# 
# From -- ./inp_files/69421.got.cif
#   From: 2010.05.17/outbox.cif.g08.bks.cpg/sg13_35_cif.got.tgz:69421.got - 2010.06.03 16:44:36.
