data_PCOD9233710
_publ_section_title
;
Structure prediction by ZEFSAII (Michael W. Deem and Ramdas Pophale) SiO2 
 PCOD9233710
Probable space group: P 2/C
;
_chemical_formula_sum "Si O2"
_cell_formula_units_Z 26
_cell_length_a 18.323415
_cell_length_b 11.292066
_cell_length_c 12.008977
_cell_angle_alpha 90.000000
_cell_angle_beta 26.840146
_cell_angle_gamma 90.000000
_cell_volume 1121.879809
_symmetry_space_group_name_H-M "P 2/C"
_symmetry_group_IT_number 13
_symmetry_cell_setting 'monoclinic'
loop_
_space_group_symop_operation_xyz
x,y,z
-x,y,1/2-z
-x,-y,-z
x,-y,1/2+z
loop_
_atom_site_type_symbol
_atom_site_label
_atom_site_fract_x
_atom_site_fract_y
_atom_site_fract_z
Si Si1 0.342884 0.483268 0.637121
Si Si2 0.895744 0.852400 0.575022
Si Si3 0.812184 0.672456 0.521861
Si Si4 0.500000 0.059319 0.250000
Si Si5 0.000000 0.957190 0.750000
Si Si6 0.303852 0.137787 0.929386
Si Si7 0.243963 0.255146 0.643707
Si Si8 0.500000 0.650622 0.250000
O O1 0.500000 0.500000 0.500000
O O2 0.295702 0.353521 0.661814
O O3 0.378928 0.565648 0.481278
O O4 0.207536 0.546119 0.895184
O O5 0.775513 0.774721 0.660764
O O6 0.968246 0.956574 0.399106
O O7 0.054781 0.781183 0.402494
O O8 0.787887 0.882089 0.827670
O O9 0.727208 0.689283 0.519722
O O10 0.000000 0.694587 0.250000
O O11 0.359743 0.142179 0.489711
O O12 0.574062 0.972201 0.242265
O O13 0.159220 0.877085 0.540552
O O14 0.398662 0.260943 0.808218
#
# Coordination Sequence:
#
# PCOD9233710 Si02
#       8
#     4   4   4   2   2   4   4   2
#     4  12  25  44  70  97 139 183 227 291 350 410
#     4  11  21  44  69  96 135 177 231 280 342 417
#     4  10  21  42  67  97 133 180 224 283 340 413
#     4  11  21  42  64 100 131 177 226 272 354 405
#     4  12  22  42  70 100 132 182 228 288 348 412
#     4  11  25  43  70  97 143 177 223 297 339 413
#     4  11  23  42  72  99 133 180 233 283 343 424
#     4  11  25  48  64 102 143 179 230 286 350 413
#
# _framework density 23.175388999999999
#
# number of rings (size 3 to 8) (size 9 to 14) (size 15 to 20)
#    0.000    0.923    5.385    2.769    0.000    3.692 
#    5.538    2.308    0.000    0.000    0.000    0.000 
#    0.000    0.000    0.000    0.000    0.000    0.000 
#
# Total GULP energy -145410.119493 kJ/mol
# GULP energy per Si atom -5592.696904 kJ/mol
# Density = 2.312264 g / cm^3
# Si number density = 23.175389 Si / 1000 Ang^3
#
#
#
# Elastic Constant Matrix: (Units=GPa)
#
#
# Indices 1 2 3 4 5 6 
#
# 1 86.4534 32.1000 5.1057 0.0000 -19.9232 0.0000
# 2 32.1000 102.0424 11.3415 0.0000 -11.5771 0.0000
# 3 5.1057 11.3415 46.0167 0.0000 1.9855 0.0000
# 4 0.0000 0.0000 0.0000 33.9397 0.0000 -9.0700
# 5 -19.9232 -11.5771 1.9855 0.0000 37.3410 0.0000
# 6 0.0000 0.0000 0.0000 -9.0700 0.0000 25.2229
#
#
#
# Elastic Compliance Matrix: (Units=1/GPa)
#
#
# Indices 1 2 3 4 5 6 
#
# 1 0.014536 -0.003708 -0.000986 0.000000 0.006659 0.000000
# 2 -0.003708 0.011435 -0.002480 0.000000 0.001699 0.000000
# 3 -0.000986 -0.002480 0.022560 0.000000 -0.002495 0.000000
# 4 0.000000 0.000000 0.000000 0.032596 0.000000 0.011721
# 5 0.006659 0.001699 -0.002495 0.000000 0.030992 0.000000
# 6 0.000000 0.000000 0.000000 0.011721 0.000000 0.043862
#
#
# Mechanical properties :
#
#
# Convention : Reuss Voigt Hill
#
# Bulk Modulus (GPa) = 29.25503 36.84522 33.05012
# Shear Modulus (GPa) = 27.51436 31.69839 29.60637
#
# Velocity S-wave (km/s) = 3.44935 3.70234 3.57808
# Velocity P-wave (km/s) = 5.33992 5.84887 5.60018
#
# Compressibility (1/GPa) = 0.03418216
#
# Stress axis : x y z
#
# Youngs Moduli (GPa) = 68.79309 87.45408 44.32702
#
# Poissons Ratio (x) = 0.32425 0.04372
# Poissons Ratio (y) = 0.25506 0.10994
# Poissons Ratio (z) = 0.06785 0.21690
#
# Static dielectric constant tensor:
#      x y z
#    x 1.964160 0.000000 -0.008790 
#    y 0.000000 2.217220 0.000000 
#    z -0.008790 0.000000 1.935040 
# 
# From -- ./inp_files/39161.got.cif
#   From: 2010.05.17/outbox.cif.g08.bks.cpg/sg13_20_cif.got.tgz:39161.got - 2010.06.03 16:44:36.
