data_PCOD9233655
_publ_section_title
;
Structure prediction by ZEFSAII (Michael W. Deem and Ramdas Pophale) SiO2 
 PCOD9233655
Probable space group: P 2/C
;
_chemical_formula_sum "Si O2"
_cell_formula_units_Z 20
_cell_length_a 7.704347
_cell_length_b 6.773977
_cell_length_c 19.388956
_cell_angle_alpha 90.000000
_cell_angle_beta 63.749383
_cell_angle_gamma 90.000000
_cell_volume 907.533147
_symmetry_space_group_name_H-M "P 2/C"
_symmetry_group_IT_number 13
_symmetry_cell_setting 'monoclinic'
loop_
_space_group_symop_operation_xyz
x,y,z
-x,y,1/2-z
-x,-y,-z
x,-y,1/2+z
loop_
_atom_site_type_symbol
_atom_site_label
_atom_site_fract_x
_atom_site_fract_y
_atom_site_fract_z
Si Si1 0.292475 0.431530 0.474301
Si Si2 0.294765 0.626624 0.618549
Si Si3 0.275938 0.568715 0.772034
Si Si4 0.898362 0.292258 0.584210
Si Si5 0.963557 0.946658 0.678649
O O1 0.300156 0.478364 0.553749
O O2 0.478465 0.315814 0.414731
O O3 0.271895 0.641658 0.438259
O O4 0.090894 0.316295 0.503983
O O5 0.238440 0.518128 0.698987
O O6 0.151009 0.808195 0.631584
O O7 0.500000 0.531621 0.750000
O O8 0.138805 0.455767 0.849451
O O9 0.218069 0.797930 0.785494
O O10 0.920178 0.096080 0.624744
O O11 0.000000 0.030046 0.750000
#
# Coordination Sequence:
#
# PCOD9233655 Si02
#       5
#     4   4   4   4   4
#     4  10  22  40  65  94 130 170 212 265 347 387
#     4  10  21  42  63  93 129 171 213 273 328 390
#     4  11  22  43  66  88 133 173 217 270 323 391
#     4  11  23  41  66  94 125 175 217 268 330 395
#     4  10  24  40  66  97 125 170 228 272 321 389
#
# _framework density 22.037763999999999
#
# number of rings (size 3 to 8) (size 9 to 14) (size 15 to 20)
#    0.000    1.600    4.000    0.000    2.800    2.400 
#    0.000    2.000    0.000    0.000    0.000    0.000 
#    0.000    0.000    0.000    0.000    0.000    0.000 
#
# Total GULP energy -111516.485115 kJ/mol
# GULP energy per Si atom -5575.824256 kJ/mol
# Density = 2.198761 g / cm^3
# Si number density = 22.037764 Si / 1000 Ang^3
#
#
#
# Elastic Constant Matrix: (Units=GPa)
#
#
# Indices 1 2 3 4 5 6 
#
# 1 78.4264 19.7594 25.7356 0.0000 -14.3947 0.0000
# 2 19.7594 29.3151 7.6248 0.0000 -2.2835 0.0000
# 3 25.7356 7.6248 107.1875 0.0000 2.4192 0.0000
# 4 0.0000 0.0000 0.0000 26.3792 0.0000 12.0050
# 5 -14.3947 -2.2835 2.4192 0.0000 44.6877 0.0000
# 6 0.0000 0.0000 0.0000 12.0050 0.0000 16.2060
#
#
#
# Elastic Compliance Matrix: (Units=1/GPa)
#
#
# Indices 1 2 3 4 5 6 
#
# 1 0.017542 -0.010477 -0.003586 0.000000 0.005309 0.000000
# 2 -0.010477 0.041177 -0.000385 0.000000 -0.001250 0.000000
# 3 -0.003586 -0.000385 0.010257 0.000000 -0.001730 0.000000
# 4 0.000000 0.000000 0.000000 0.057188 0.000000 -0.042363
# 5 0.005309 -0.001250 -0.001730 0.000000 0.024118 0.000000
# 6 0.000000 0.000000 0.000000 -0.042363 0.000000 0.093087
#
#
# Mechanical properties :
#
#
# Convention : Reuss Voigt Hill
#
# Bulk Modulus (GPa) = 24.95147 35.68542 30.31844
# Shear Modulus (GPa) = 17.50541 28.24186 22.87364
#
# Velocity S-wave (km/s) = 2.82146 3.58372 3.22519
# Velocity P-wave (km/s) = 4.68624 5.77512 5.25894
#
# Compressibility (1/GPa) = 0.04007780
#
# Stress axis : x y z
#
# Youngs Moduli (GPa) = 57.00628 24.28534 97.49468
#
# Poissons Ratio (x) = 0.25445 0.34965
# Poissons Ratio (y) = 0.59728 0.03756
# Poissons Ratio (z) = 0.20444 0.00936
#
# Static dielectric constant tensor:
#      x y z
#    x 1.963620 0.000000 0.008030 
#    y 0.000000 1.800590 0.000000 
#    z 0.008030 0.000000 1.825910 
# 
# From -- ./inp_files/74403.got.cif
#   From: 2010.05.17/outbox.cif.g08.bks.cpg/sg13_38_cif.got.tgz:74403.got - 2010.06.03 16:44:36.
