data_PCOD9233110
_publ_section_title
;
Structure prediction by ZEFSAII (Michael W. Deem and Ramdas Pophale) SiO2 
 PCOD9233110
Probable space group: P 2/C
;
_chemical_formula_sum "Si O2"
_cell_formula_units_Z 10
_cell_length_a 7.364977
_cell_length_b 12.836507
_cell_length_c 5.316240
_cell_angle_alpha 90.000000
_cell_angle_beta 116.840666
_cell_angle_gamma 90.000000
_cell_volume 448.453044
_symmetry_space_group_name_H-M "P 2/C"
_symmetry_group_IT_number 13
_symmetry_cell_setting 'monoclinic'
loop_
_space_group_symop_operation_xyz
x,y,z
-x,y,1/2-z
-x,-y,-z
x,-y,1/2+z
loop_
_atom_site_type_symbol
_atom_site_label
_atom_site_fract_x
_atom_site_fract_y
_atom_site_fract_z
Si Si1 0.500000 0.569984 0.250000
Si Si2 0.864064 0.732205 0.414851
Si Si3 0.270692 0.041176 0.808110
O O1 0.500000 0.500000 0.500000
O O2 0.698724 0.642781 0.357502
O O3 0.747795 0.841252 0.295203
O O4 0.000000 0.711932 0.250000
O O5 0.000000 0.741617 0.750000
O O6 0.182978 0.967848 0.533635
O O7 0.500000 0.000000 0.000000
#
# Coordination Sequence:
#
# PCOD9233110 Si02
#       3
#     2   4   4
#     4  12  28  50  76 102 136 182 234 302 366 414
#     4  12  27  46  72 106 142 184 236 289 348 419
#     4  10  21  39  65  97 141 183 222 272 330 404
#
# _framework density 22.298878999999999
#
# number of rings (size 3 to 8) (size 9 to 14) (size 15 to 20)
#    0.000    0.800    0.000    7.200    0.000   16.000 
#    0.000    0.000    0.000    0.000    0.000    0.000 
#    0.000    0.000    0.000    0.000    0.000    0.000 
#
# Total GULP energy -55971.336041 kJ/mol
# GULP energy per Si atom -5597.133604 kJ/mol
# Density = 2.224813 g / cm^3
# Si number density = 22.298879 Si / 1000 Ang^3
#
#
#
# Elastic Constant Matrix: (Units=GPa)
#
#
# Indices 1 2 3 4 5 6 
#
# 1 166.0685 81.0923 94.1198 0.0000 -3.7401 0.0000
# 2 81.0923 196.9607 112.5428 0.0000 3.2406 0.0000
# 3 94.1198 112.5428 243.7853 0.0000 -31.9412 0.0000
# 4 0.0000 0.0000 0.0000 36.8150 0.0000 -6.9113
# 5 -3.7401 3.2406 -31.9412 0.0000 43.9854 0.0000
# 6 0.0000 0.0000 0.0000 -6.9113 0.0000 47.7751
#
#
#
# Elastic Compliance Matrix: (Units=1/GPa)
#
#
# Indices 1 2 3 4 5 6 
#
# 1 0.008365 -0.002063 -0.002391 0.000000 -0.000873 0.000000
# 2 -0.002063 0.007815 -0.003215 0.000000 -0.003086 0.000000
# 3 -0.002391 -0.003215 0.007199 0.000000 0.005261 0.000000
# 4 0.000000 0.000000 0.000000 0.027921 0.000000 0.004039
# 5 -0.000873 -0.003086 0.005261 0.000000 0.026709 0.000000
# 6 0.000000 0.000000 0.000000 0.004039 0.000000 0.021516
#
#
# Mechanical properties :
#
#
# Convention : Reuss Voigt Hill
#
# Bulk Modulus (GPa) = 124.40260 131.36938 127.88599
# Shear Modulus (GPa) = 42.53757 46.98572 44.76164
#
# Velocity S-wave (km/s) = 4.37236 4.59528 4.48521
# Velocity P-wave (km/s) = 9.02219 9.33790 9.18140
#
# Compressibility (1/GPa) = 0.00803842
#
# Stress axis : x y z
#
# Youngs Moduli (GPa) = 119.54991 127.96503 138.90823
#
# Poissons Ratio (x) = 0.26400 0.33219
# Poissons Ratio (y) = 0.24664 0.44665
# Poissons Ratio (z) = 0.28590 0.41147
#
# Static dielectric constant tensor:
#      x y z
#    x 0.643120 0.000000 -0.003100 
#    y 0.000000 1.759640 0.000000 
#    z -0.003100 0.000000 1.804490 
# 
# From -- ./inp_files/832.got.cif
#   From: 2010.05.17/outbox.cif.g08.bks.cpg/sg13_1_cif.got.tgz:832.got - 2010.06.03 16:44:36.
