data_PCOD9233214
_publ_section_title
;
Structure prediction by ZEFSAII (Michael W. Deem and Ramdas Pophale) SiO2 
 PCOD9233214
Probable space group: P 2/C
;
_chemical_formula_sum "Si O2"
_cell_formula_units_Z 28
_cell_length_a 10.031815
_cell_length_b 5.625644
_cell_length_c 20.806532
_cell_angle_alpha 90.000000
_cell_angle_beta 79.758486
_cell_angle_gamma 90.000000
_cell_volume 1155.516486
_symmetry_space_group_name_H-M "P 2/C"
_symmetry_group_IT_number 13
_symmetry_cell_setting 'monoclinic'
loop_
_space_group_symop_operation_xyz
x,y,z
-x,y,1/2-z
-x,-y,-z
x,-y,1/2+z
loop_
_atom_site_type_symbol
_atom_site_label
_atom_site_fract_x
_atom_site_fract_y
_atom_site_fract_z
Si Si1 0.171434 0.297004 0.823725
Si Si2 0.904434 0.971338 0.364329
Si Si3 0.323846 0.249609 0.696847
Si Si4 0.654886 0.664424 0.615920
Si Si5 0.000000 0.656978 0.750000
Si Si6 0.277928 0.955646 0.002457
Si Si7 0.500000 0.650405 0.750000
Si Si8 0.490254 0.714149 0.068409
O O1 0.265877 0.143243 0.767856
O O2 0.257656 0.438099 0.868403
O O3 0.050588 0.143072 0.861950
O O4 0.101048 0.492007 0.782569
O O5 0.806608 0.775965 0.338367
O O6 0.837696 0.037701 0.438388
O O7 0.923647 0.178779 0.309557
O O8 0.391865 0.487653 0.719998
O O9 0.442625 0.159795 0.639302
O O10 0.746209 0.835016 0.564622
O O11 0.586770 0.765518 0.686057
O O12 0.532244 0.550264 0.584651
O O13 0.384016 0.162167 0.976768
O O14 0.361201 0.755128 0.034861
#
# Coordination Sequence:
#
# PCOD9233214 Si02
#       8
#     4   4   4   4   2   4   2   4
#     4  11  22  40  62  91 120 158 217 255 304 359
#     4  11  22  40  63  86 124 160 202 262 299 356
#     4   9  16  39  59  82 121 151 193 254 297 347
#     4  10  21  40  60  88 126 160 199 255 305 361
#     4  12  22  40  62  90 112 168 218 252 308 360
#     4  10  22  40  61  96 122 161 205 240 307 380
#     4   8  18  34  60  88 112 158 194 246 306 356
#     4   9  20  40  61  87 124 160 196 243 304 369
#
# _framework density 24.231590000000001
#
# number of rings (size 3 to 8) (size 9 to 14) (size 15 to 20)
#    0.000    2.000    2.857    0.429    0.000    2.857 
#   25.714    2.143    0.000    0.000    0.000    0.000 
#    0.000    0.000    0.000    0.000    0.000    0.000 
#
# Total GULP energy -156103.070175 kJ/mol
# GULP energy per Si atom -5575.109649 kJ/mol
# Density = 2.417644 g / cm^3
# Si number density = 24.231590 Si / 1000 Ang^3
#
#
#
# Elastic Constant Matrix: (Units=GPa)
#
#
# Indices 1 2 3 4 5 6 
#
# 1 69.3958 32.1276 50.3472 0.0000 -15.3147 0.0000
# 2 32.1276 43.9510 49.6001 0.0000 0.7321 0.0000
# 3 50.3472 49.6001 211.0620 0.0000 -55.0002 0.0000
# 4 0.0000 0.0000 0.0000 10.5554 0.0000 29.9135
# 5 -15.3147 0.7321 -55.0002 0.0000 55.3588 0.0000
# 6 0.0000 0.0000 0.0000 29.9135 0.0000 17.8909
#
#
#
# Elastic Compliance Matrix: (Units=1/GPa)
#
#
# Indices 1 2 3 4 5 6 
#
# 1 0.024192 -0.018332 0.000465 0.000000 0.007397 0.000000
# 2 -0.018332 0.049929 -0.011947 0.000000 -0.017602 0.000000
# 3 0.000465 -0.011947 0.010133 0.000000 0.010354 0.000000
# 4 0.000000 0.000000 0.000000 -0.025342 0.000000 0.042372
# 5 0.007397 -0.017602 0.010354 0.000000 0.030630 0.000000
# 6 0.000000 0.000000 0.000000 0.042372 0.000000 -0.014951
#
#
# Mechanical properties :
#
#
# Convention : Reuss Voigt Hill
#
# Bulk Modulus (GPa) = 40.60884 65.39539 53.00212
# Shear Modulus (GPa) = 35.10558 29.58327 32.34443
#
# Velocity S-wave (km/s) = 3.81038 3.49786 3.65746
# Velocity P-wave (km/s) = 6.01279 6.58481 6.30529
#
# Compressibility (1/GPa) = 0.02462518
#
# Stress axis : x y z
#
# Youngs Moduli (GPa) = 41.33554 20.02844 98.68923
#
# Poissons Ratio (x) = 0.36716 -0.04585
# Poissons Ratio (y) = 0.75775 1.17907
# Poissons Ratio (z) = -0.01921 0.23929
#
# Static dielectric constant tensor:
#      x y z
#    x 1.933370 0.000000 -0.010720 
#    y 0.000000 1.975720 0.000000 
#    z -0.010720 0.000000 1.982890 
# 
# From -- ./inp_files/77503.got.cif
#   From: 2010.05.17/outbox.cif.g08.bks.cpg/sg13_39_cif.got.tgz:77503.got - 2010.06.03 16:44:36.
