data_PCOD9233634
_publ_section_title
;
Structure prediction by ZEFSAII (Michael W. Deem and Ramdas Pophale) SiO2 
 PCOD9233634
Probable space group: P 2/C
;
_chemical_formula_sum "Si O2"
_cell_formula_units_Z 30
_cell_length_a 13.158673
_cell_length_b 7.694828
_cell_length_c 14.874279
_cell_angle_alpha 90.000000
_cell_angle_beta 60.382030
_cell_angle_gamma 90.000000
_cell_volume 1309.292204
_symmetry_space_group_name_H-M "P 2/C"
_symmetry_group_IT_number 13
_symmetry_cell_setting 'monoclinic'
loop_
_space_group_symop_operation_xyz
x,y,z
-x,y,1/2-z
-x,-y,-z
x,-y,1/2+z
loop_
_atom_site_type_symbol
_atom_site_label
_atom_site_fract_x
_atom_site_fract_y
_atom_site_fract_z
Si Si1 0.386509 0.617889 0.356983
Si Si2 0.199022 0.973614 0.260525
Si Si3 0.944446 0.501019 0.364720
Si Si4 0.628475 0.965914 0.662016
Si Si5 0.380812 0.101595 0.535631
Si Si6 0.696136 0.467732 0.927219
Si Si7 0.808486 0.561726 0.193692
Si Si8 0.000000 0.165195 0.250000
O O1 0.500000 0.559435 0.250000
O O2 0.380871 0.825715 0.347431
O O3 0.375050 0.575909 0.467685
O O4 0.275219 0.538433 0.353999
O O5 0.268768 0.063500 0.311590
O O6 0.282295 0.988680 0.137740
O O7 0.187871 0.769258 0.288215
O O8 0.077625 0.054426 0.283524
O O9 0.057131 0.505750 0.379295
O O10 0.926019 0.299131 0.344583
O O11 0.000000 0.585465 0.250000
O O12 0.817184 0.582047 0.427109
O O13 0.500000 0.905906 0.750000
O O14 0.650285 0.891295 0.554904
O O15 0.381030 0.301470 0.565480
O O16 0.500000 0.000000 0.500000
O O17 0.748286 0.529348 0.807666
#
# Coordination Sequence:
#
# PCOD9233634 Si02
#       8
#     4   4   4   4   4   4   4   2
#     4  10  23  40  60  92 125 162 210 260 318 383
#     4  10  22  39  66  91 127 167 207 264 318 378
#     4   8  19  39  60  89 121 158 207 261 311 373
#     4  10  21  42  61  88 127 163 206 260 316 374
#     4  11  23  40  65  95 123 170 213 255 319 380
#     4  10  22  40  62  92 121 166 208 259 313 377
#     4   9  20  41  64  86 124 170 203 256 326 372
#     4  10  22  36  64 100 120 166 216 270 316 370
#
# _framework density 22.913142000000001
#
# number of rings (size 3 to 8) (size 9 to 14) (size 15 to 20)
#    0.400    1.867    1.333    0.000    8.400    2.667 
#    2.400    0.667    0.000    0.000    0.000    0.000 
#    0.000    0.000    0.000    0.000    0.000    0.000 
#
# Total GULP energy -167359.135149 kJ/mol
# GULP energy per Si atom -5578.637838 kJ/mol
# Density = 2.286099 g / cm^3
# Si number density = 22.913142 Si / 1000 Ang^3
#
#
#
# Elastic Constant Matrix: (Units=GPa)
#
#
# Indices 1 2 3 4 5 6 
#
# 1 121.2595 31.7972 21.0762 0.0000 3.2849 0.0000
# 2 31.7972 39.1168 12.5230 0.0000 -4.4780 0.0000
# 3 21.0762 12.5230 98.7964 0.0000 4.7831 0.0000
# 4 0.0000 0.0000 0.0000 19.6223 0.0000 -8.1969
# 5 3.2849 -4.4780 4.7831 0.0000 24.3405 0.0000
# 6 0.0000 0.0000 0.0000 -8.1969 0.0000 7.1898
#
#
#
# Elastic Compliance Matrix: (Units=1/GPa)
#
#
# Indices 1 2 3 4 5 6 
#
# 1 0.010809 -0.008777 -0.001055 0.000000 -0.002866 0.000000
# 2 -0.008777 0.034556 -0.002901 0.000000 0.008112 0.000000
# 3 -0.001055 -0.002901 0.010836 0.000000 -0.002521 0.000000
# 4 0.000000 0.000000 0.000000 0.097302 0.000000 0.110932
# 5 -0.002866 0.008112 -0.002521 0.000000 0.043458 0.000000
# 6 0.000000 0.000000 0.000000 0.110932 0.000000 0.265558
#
#
# Mechanical properties :
#
#
# Convention : Reuss Voigt Hill
#
# Bulk Modulus (GPa) = 32.53340 43.32949 37.93145
# Shear Modulus (GPa) = 10.03550 23.14893 16.59221
#
# Velocity S-wave (km/s) = 2.09507 3.18196 2.69390
# Velocity P-wave (km/s) = 4.48127 5.69659 5.12508
#
# Compressibility (1/GPa) = 0.03073764
#
# Stress axis : x y z
#
# Youngs Moduli (GPa) = 92.51286 28.93820 92.28074
#
# Poissons Ratio (x) = 0.25399 0.09732
# Poissons Ratio (y) = 0.81200 0.26766
# Poissons Ratio (z) = 0.09757 0.08394
#
# Static dielectric constant tensor:
#      x y z
#    x 1.918290 0.000000 0.007860 
#    y 0.000000 1.891760 0.000000 
#    z 0.007860 0.000000 1.888990 
# 
# From -- ./inp_files/50324.got.cif
#   From: 2010.05.17/outbox.cif.g08.bks.cpg/sg13_26_cif.got.tgz:50324.got - 2010.06.03 16:44:36.
