data_PCOD9233982
_publ_section_title
;
Structure prediction by ZEFSAII (Michael W. Deem and Ramdas Pophale) SiO2 
 PCOD9233982
Probable space group: P 2/C
;
_chemical_formula_sum "Si O2"
_cell_formula_units_Z 24
_cell_length_a 23.390733
_cell_length_b 11.346255
_cell_length_c 8.500228
_cell_angle_alpha 90.000000
_cell_angle_beta 145.667848
_cell_angle_gamma 90.000000
_cell_volume 1272.324792
_symmetry_space_group_name_H-M "P 2/C"
_symmetry_group_IT_number 13
_symmetry_cell_setting 'monoclinic'
loop_
_space_group_symop_operation_xyz
x,y,z
-x,y,1/2-z
-x,-y,-z
x,-y,1/2+z
loop_
_atom_site_type_symbol
_atom_site_label
_atom_site_fract_x
_atom_site_fract_y
_atom_site_fract_z
Si Si1 0.960841 0.126980 0.983693
Si Si2 0.394042 0.660447 0.244116
Si Si3 0.500000 0.485554 0.250000
Si Si4 0.238826 0.154258 0.336852
Si Si5 0.000000 0.811796 0.250000
Si Si6 0.471069 0.873235 0.866608
Si Si7 0.272008 0.080874 0.069215
O O1 0.000000 0.141271 0.250000
O O2 0.991205 0.221977 0.917603
O O3 0.840469 0.123098 0.724491
O O4 0.000000 0.000000 0.000000
O O5 0.426720 0.568501 0.185693
O O6 0.426726 0.595332 0.478223
O O7 0.467460 0.773257 0.403095
O O8 0.282037 0.716791 0.976550
O O9 0.291368 0.113752 0.293559
O O10 0.270074 0.059904 0.539549
O O11 0.117878 0.142410 0.031844
O O12 0.500000 0.867291 0.750000
O O13 0.352898 0.861077 0.637508
O O14 0.500000 0.000000 0.000000
#
# Coordination Sequence:
#
# PCOD9233982 Si02
#       7
#     4   4   2   4   2   4   4
#     4  11  18  31  49  72 116 169 206 232 275 359
#     4  11  23  42  63  85 115 160 203 260 304 362
#     4  10  24  44  64  82 110 154 222 256 296 362
#     4  11  22  35  59  86 126 163 201 246 305 366
#     4  10  22  34  52  88 122 162 212 244 296 376
#     4  12  24  36  54  90 130 158 189 238 311 378
#     4  11  22  32  52  87 126 167 195 235 297 377
#
# _framework density 18.863109000000001
#
# number of rings (size 3 to 8) (size 9 to 14) (size 15 to 20)
#    0.000    1.000    5.000    3.000    1.167    0.000 
#    0.000    0.000    0.000    1.000    0.000    0.000 
#    0.000    0.000    0.000    0.000    0.000    0.000 
#
# Total GULP energy -133629.494610 kJ/mol
# GULP energy per Si atom -5567.895609 kJ/mol
# Density = 1.882018 g / cm^3
# Si number density = 18.863109 Si / 1000 Ang^3
#
#
#
# Elastic Constant Matrix: (Units=GPa)
#
#
# Indices 1 2 3 4 5 6 
#
# 1 132.9295 22.9578 55.6209 0.0000 -2.6126 0.0000
# 2 22.9578 78.5650 32.6092 0.0000 -10.9655 0.0000
# 3 55.6209 32.6092 95.1901 0.0000 -2.7398 0.0000
# 4 0.0000 0.0000 0.0000 14.1268 0.0000 1.5302
# 5 -2.6126 -10.9655 -2.7398 0.0000 45.3686 0.0000
# 6 0.0000 0.0000 0.0000 1.5302 0.0000 6.6768
#
#
#
# Elastic Compliance Matrix: (Units=1/GPa)
#
#
# Indices 1 2 3 4 5 6 
#
# 1 0.009980 -0.000563 -0.005636 0.000000 0.000098 0.000000
# 2 -0.000563 0.015375 -0.004840 0.000000 0.003391 0.000000
# 3 -0.005636 -0.004840 0.015440 0.000000 -0.000562 0.000000
# 4 0.000000 0.000000 0.000000 0.072590 0.000000 -0.016637
# 5 0.000098 0.003391 -0.000562 0.000000 0.022833 0.000000
# 6 0.000000 0.000000 0.000000 -0.016637 0.000000 0.153586
#
#
# Mechanical properties :
#
#
# Convention : Reuss Voigt Hill
#
# Bulk Modulus (GPa) = 53.42772 58.78449 56.10611
# Shear Modulus (GPa) = 15.71724 26.26755 20.99239
#
# Velocity S-wave (km/s) = 2.88970 3.73572 3.33961
# Velocity P-wave (km/s) = 6.28643 7.05966 6.68424
#
# Compressibility (1/GPa) = 0.01871688
#
# Stress axis : x y z
#
# Youngs Moduli (GPa) = 100.19911 65.03934 64.76588
#
# Poissons Ratio (x) = 0.03665 0.36500
# Poissons Ratio (y) = 0.05646 0.31348
# Poissons Ratio (z) = 0.56469 0.31481
#
# Static dielectric constant tensor:
#      x y z
#    x 1.708790 0.000000 -0.006120 
#    y 0.000000 1.658460 0.000000 
#    z -0.006120 0.000000 1.714240 
# 
# From -- ./inp_files/24179.got.cif
#   From: 2010.05.17/outbox.cif.g08.bks.cpg/sg13_13_cif.got.tgz:24179.got - 2010.06.03 16:44:36.
