data_PCOD9233700
_publ_section_title
;
Structure prediction by ZEFSAII (Michael W. Deem and Ramdas Pophale) SiO2 
 PCOD9233700
Probable space group: P 2/C
;
_chemical_formula_sum "Si O2"
_cell_formula_units_Z 22
_cell_length_a 28.574655
_cell_length_b 7.084160
_cell_length_c 24.580347
_cell_angle_alpha 90.000000
_cell_angle_beta 10.181677
_cell_angle_gamma 90.000000
_cell_volume 879.560871
_symmetry_space_group_name_H-M "P 2/C"
_symmetry_group_IT_number 13
_symmetry_cell_setting 'monoclinic'
loop_
_space_group_symop_operation_xyz
x,y,z
-x,y,1/2-z
-x,-y,-z
x,-y,1/2+z
loop_
_atom_site_type_symbol
_atom_site_label
_atom_site_fract_x
_atom_site_fract_y
_atom_site_fract_z
Si Si1 0.092789 0.133062 0.844424
Si Si2 0.500000 0.714559 0.750000
Si Si3 0.630654 0.988288 0.182654
Si Si4 0.842268 0.873349 0.047193
Si Si5 0.633467 0.628284 0.893249
Si Si6 0.687628 0.387661 0.458189
O O1 0.940003 0.326621 0.030649
O O2 0.953948 0.053585 0.949578
O O3 0.000000 0.000000 0.000000
O O4 0.402015 0.097170 0.480437
O O5 0.645492 0.572023 0.542539
O O6 0.321569 0.857633 0.918605
O O7 0.846015 0.915470 0.978978
O O8 0.498912 0.792570 0.312995
O O9 0.545692 0.817583 0.403179
O O10 0.025056 0.700588 0.858300
O O11 0.384136 0.427451 0.022909
O O12 0.500000 0.500000 0.000000
#
# Coordination Sequence:
#
# PCOD9233700 Si02
#       6
#     4   2   4   4   4   4
#     4  11  20  40  67 101 138 179 230 287 366 436
#     4  12  26  46  74  94 140 186 252 298 358 444
#     4  10  24  45  69 101 135 189 238 298 364 431
#     4  10  21  42  67  92 136 185 224 288 367 427
#     4  11  24  37  66 105 144 175 229 294 364 440
#     4  10  24  47  65 103 140 184 236 304 358 430
#
# _framework density 25.012481000000001
#
# number of rings (size 3 to 8) (size 9 to 14) (size 15 to 20)
#    0.000    1.455    5.455    1.091    5.091    0.727 
#    0.000   21.818    0.000    0.000    0.000    0.000 
#    0.000    0.000    0.000    0.000    0.000    0.000 
#
# Total GULP energy -122994.996033 kJ/mol
# GULP energy per Si atom -5590.681638 kJ/mol
# Density = 2.495555 g / cm^3
# Si number density = 25.012481 Si / 1000 Ang^3
#
#
#
# Elastic Constant Matrix: (Units=GPa)
#
#
# Indices 1 2 3 4 5 6 
#
# 1 190.8556 66.1477 27.1258 0.0000 -10.9080 0.0000
# 2 66.1477 149.1707 29.2970 0.0000 -2.3275 0.0000
# 3 27.1258 29.2970 65.2114 0.0000 -8.5281 0.0000
# 4 0.0000 0.0000 0.0000 38.9071 0.0000 9.8011
# 5 -10.9080 -2.3275 -8.5281 0.0000 30.9102 0.0000
# 6 0.0000 0.0000 0.0000 9.8011 0.0000 64.4936
#
#
#
# Elastic Compliance Matrix: (Units=1/GPa)
#
#
# Indices 1 2 3 4 5 6 
#
# 1 0.006409 -0.002562 -0.001291 0.000000 0.001713 0.000000
# 2 -0.002562 0.008380 -0.002838 0.000000 -0.001056 0.000000
# 3 -0.001291 -0.002838 0.017698 0.000000 0.004214 0.000000
# 4 0.000000 0.000000 0.000000 0.026725 0.000000 -0.004061
# 5 0.001713 -0.001056 0.004214 0.000000 0.034039 0.000000
# 6 0.000000 0.000000 0.000000 -0.004061 0.000000 0.016123
#
#
# Mechanical properties :
#
#
# Convention : Reuss Voigt Hill
#
# Bulk Modulus (GPa) = 52.33842 72.26432 62.30137
# Shear Modulus (GPa) = 38.72270 45.70664 42.21467
#
# Velocity S-wave (km/s) = 3.93890 4.27939 4.11267
# Velocity P-wave (km/s) = 6.45422 7.30559 6.89306
#
# Compressibility (1/GPa) = 0.01910642
#
# Stress axis : x y z
#
# Youngs Moduli (GPa) = 156.03690 119.32532 56.50477
#
# Poissons Ratio (x) = 0.30566 0.07295
# Poissons Ratio (y) = 0.39970 0.16034
# Poissons Ratio (z) = 0.20145 0.33859
#
# Static dielectric constant tensor:
#      x y z
#    x 2.051270 0.000000 0.098670 
#    y 0.000000 2.015960 0.000000 
#    z 0.098670 0.000000 2.047180 
# 
# From -- ./inp_files/94393.got.cif
#   From: 2010.05.17/outbox.cif.g08.bks.cpg/sg13_48_cif.got.tgz:94393.got - 2010.06.03 16:44:36.
