data_PCOD9233275
_publ_section_title
;
Structure prediction by ZEFSAII (Michael W. Deem and Ramdas Pophale) SiO2 
 PCOD9233275
Probable space group: P 2/C
;
_chemical_formula_sum "Si O2"
_cell_formula_units_Z 32
_cell_length_a 8.887064
_cell_length_b 11.638411
_cell_length_c 13.026532
_cell_angle_alpha 90.000000
_cell_angle_beta 95.022952
_cell_angle_gamma 90.000000
_cell_volume 1342.176957
_symmetry_space_group_name_H-M "P 2/C"
_symmetry_group_IT_number 13
_symmetry_cell_setting 'monoclinic'
loop_
_space_group_symop_operation_xyz
x,y,z
-x,y,1/2-z
-x,-y,-z
x,-y,1/2+z
loop_
_atom_site_type_symbol
_atom_site_label
_atom_site_fract_x
_atom_site_fract_y
_atom_site_fract_z
Si Si1 0.247630 0.168546 0.437474
Si Si2 0.660865 0.964262 0.730174
Si Si3 0.575684 0.194404 0.847470
Si Si4 0.934869 0.430541 0.351827
Si Si5 0.100281 0.835993 0.623885
Si Si6 0.558240 0.359064 0.139749
Si Si7 0.313063 0.241093 0.979480
Si Si8 0.771486 0.486692 0.526896
O O1 0.327105 0.056931 0.391326
O O2 0.301263 0.211485 0.553700
O O3 0.305985 0.266884 0.362025
O O4 0.071185 0.144516 0.418317
O O5 0.500000 0.904628 0.750000
O O6 0.813892 0.911971 0.787354
O O7 0.641474 0.085924 0.788034
O O8 0.500000 0.271158 0.750000
O O9 0.425644 0.183483 0.907475
O O10 0.895019 0.296934 0.339745
O O11 0.794237 0.487737 0.404061
O O12 0.000000 0.479431 0.250000
O O13 0.083176 0.441009 0.430620
O O14 0.202318 0.844704 0.528815
O O15 0.500000 0.385864 0.250000
O O16 0.626580 0.463280 0.076485
O O17 0.423065 0.299541 0.069958
O O18 0.218195 0.353044 0.937980
#
# Coordination Sequence:
#
# PCOD9233275 Si02
#       8
#     4   4   4   4   4   4   4   4
#     4  11  22  42  69  99 133 172 227 294 342 414
#     4  11  23  40  68 100 128 175 225 279 355 404
#     4  10  25  47  66  93 136 182 227 285 351 415
#     4  10  21  40  63  95 139 177 219 290 352 403
#     4  11  22  40  70 102 134 172 231 291 350 407
#     4  11  22  38  66  99 131 172 228 289 347 408
#     4  10  23  42  61  92 135 177 225 276 346 424
#     4  10  22  38  61  97 130 176 231 273 343 420
#
# _framework density 23.841864000000001
#
# number of rings (size 3 to 8) (size 9 to 14) (size 15 to 20)
#    0.000    1.500    1.250    4.125    3.500    5.500 
#    4.500    3.125    0.000    0.000    0.000    0.000 
#    0.000    0.000    0.000    0.000    0.000    0.000 
#
# Total GULP energy -178207.837878 kJ/mol
# GULP energy per Si atom -5568.994934 kJ/mol
# Density = 2.378760 g / cm^3
# Si number density = 23.841864 Si / 1000 Ang^3
#
#
#
# Elastic Constant Matrix: (Units=GPa)
#
#
# Indices 1 2 3 4 5 6 
#
# 1 127.1742 -5.7040 62.1183 0.0000 -6.7574 0.0000
# 2 -5.7040 38.2316 19.0709 0.0000 -3.5890 0.0000
# 3 62.1183 19.0709 153.7138 0.0000 -24.1703 0.0000
# 4 0.0000 0.0000 0.0000 24.2937 0.0000 -6.9274
# 5 -6.7574 -3.5890 -24.1703 0.0000 50.4312 0.0000
# 6 0.0000 0.0000 0.0000 -6.9274 0.0000 28.8753
#
#
#
# Elastic Compliance Matrix: (Units=1/GPa)
#
#
# Indices 1 2 3 4 5 6 
#
# 1 0.010321 0.003849 -0.004746 0.000000 -0.000618 0.000000
# 2 0.003849 0.029323 -0.005174 0.000000 0.000123 0.000000
# 3 -0.004746 -0.005174 0.009633 0.000000 0.003613 0.000000
# 4 0.000000 0.000000 0.000000 0.044186 0.000000 0.010600
# 5 -0.000618 0.000123 0.003613 0.000000 0.021487 0.000000
# 6 0.000000 0.000000 0.000000 0.010600 0.000000 0.037175
#
#
# Mechanical properties :
#
#
# Convention : Reuss Voigt Hill
#
# Bulk Modulus (GPa) = 26.92791 52.23221 39.58006
# Shear Modulus (GPa) = 28.30539 36.96232 32.63386
#
# Velocity S-wave (km/s) = 3.44933 3.94167 3.70369
# Velocity P-wave (km/s) = 5.21371 6.53231 5.90990
#
# Compressibility (1/GPa) = 0.03713620
#
# Stress axis : x y z
#
# Youngs Moduli (GPa) = 96.88961 34.10273 103.80540
#
# Poissons Ratio (x) = -0.13126 0.49261
# Poissons Ratio (y) = -0.37294 0.53711
# Poissons Ratio (z) = 0.45979 0.17646
#
# Static dielectric constant tensor:
#      x y z
#    x 1.935160 0.000000 0.025610 
#    y 0.000000 2.050240 0.000000 
#    z 0.025610 0.000000 2.004820 
# 
# From -- ./inp_files/30429.got.cif
#   From: 2010.05.17/outbox.cif.g08.bks.cpg/sg13_16_cif.got.tgz:30429.got - 2010.06.03 16:44:36.
