data_PCOD9233141
_publ_section_title
;
Structure prediction by ZEFSAII (Michael W. Deem and Ramdas Pophale) SiO2 
 PCOD9233141
Probable space group: P 2/C
;
_chemical_formula_sum "Si O2"
_cell_formula_units_Z 30
_cell_length_a 12.406249
_cell_length_b 8.994499
_cell_length_c 14.104637
_cell_angle_alpha 90.000000
_cell_angle_beta 73.874980
_cell_angle_gamma 90.000000
_cell_volume 1511.987402
_symmetry_space_group_name_H-M "P 2/C"
_symmetry_group_IT_number 13
_symmetry_cell_setting 'monoclinic'
loop_
_space_group_symop_operation_xyz
x,y,z
-x,y,1/2-z
-x,-y,-z
x,-y,1/2+z
loop_
_atom_site_type_symbol
_atom_site_label
_atom_site_fract_x
_atom_site_fract_y
_atom_site_fract_z
Si Si1 0.500000 0.182861 0.750000
Si Si2 0.168885 0.524594 0.390302
Si Si3 0.313732 0.634476 0.181628
Si Si4 0.402241 0.927572 0.461640
Si Si5 0.303106 0.617724 0.542355
Si Si6 0.194657 0.101553 0.596001
Si Si7 0.973997 0.742403 0.502759
Si Si8 0.902867 0.809360 0.843490
O O1 0.586548 0.286188 0.785980
O O2 0.564020 0.083968 0.656353
O O3 0.232398 0.555894 0.277580
O O4 0.255635 0.553223 0.455329
O O5 0.113026 0.364685 0.420344
O O6 0.065822 0.639754 0.427836
O O7 0.352130 0.511079 0.096266
O O8 0.247788 0.763880 0.141878
O O9 0.381092 0.758416 0.501255
O O10 0.500000 0.000000 0.500000
O O11 0.290295 0.022073 0.508985
O O12 0.194205 0.688211 0.621251
O O13 0.096313 0.164955 0.554802
O O14 0.148285 0.968170 0.672981
O O15 0.042742 0.829971 0.565738
O O16 0.000000 0.759942 0.750000
#
# Coordination Sequence:
#
# PCOD9233141 Si02
#       8
#     2   4   4   4   4   4   4   4
#     4  12  26  46  74  94 126 176 224 278 340 390
#     4  10  21  39  66  95 136 170 216 265 327 389
#     4  12  24  43  70 100 126 174 227 275 328 401
#     4  11  24  49  67  93 132 173 218 281 338 390
#     4  10  22  44  67  93 135 169 213 277 331 382
#     4  11  24  40  68  94 134 174 219 271 330 395
#     4  10  21  40  61  97 133 178 209 269 324 386
#     4  10  22  38  61  97 136 172 214 262 320 404
#
# _framework density 19.841436000000002
#
# number of rings (size 3 to 8) (size 9 to 14) (size 15 to 20)
#    0.000    1.333    4.000    1.200    1.867    1.600 
#    4.800    0.000    0.000    0.000    0.000    0.000 
#    0.000    0.000    0.000    0.000    0.000    0.000 
#
# Total GULP energy -167665.578755 kJ/mol
# GULP energy per Si atom -5588.852625 kJ/mol
# Density = 1.979628 g / cm^3
# Si number density = 19.841436 Si / 1000 Ang^3
#
#
#
# Elastic Constant Matrix: (Units=GPa)
#
#
# Indices 1 2 3 4 5 6 
#
# 1 64.8518 6.2808 0.0814 0.0000 17.3097 0.0000
# 2 6.2808 59.6923 22.2693 0.0000 15.2234 0.0000
# 3 0.0814 22.2693 82.2065 0.0000 -5.0884 0.0000
# 4 0.0000 0.0000 0.0000 9.2354 0.0000 10.2889
# 5 17.3097 15.2234 -5.0884 0.0000 28.9144 0.0000
# 6 0.0000 0.0000 0.0000 10.2889 0.0000 35.7225
#
#
#
# Elastic Compliance Matrix: (Units=1/GPa)
#
#
# Indices 1 2 3 4 5 6 
#
# 1 0.018504 0.001594 -0.001201 0.000000 -0.012128 0.000000
# 2 0.001594 0.022853 -0.007073 0.000000 -0.014231 0.000000
# 3 -0.001201 -0.007073 0.014515 0.000000 0.006997 0.000000
# 4 0.000000 0.000000 0.000000 0.159441 0.000000 -0.045923
# 5 -0.012128 -0.014231 0.006997 0.000000 0.050569 0.000000
# 6 0.000000 0.000000 0.000000 -0.045923 0.000000 0.041220
#
#
# Mechanical properties :
#
#
# Convention : Reuss Voigt Hill
#
# Bulk Modulus (GPa) = 23.52283 29.33485 26.42884
# Shear Modulus (GPa) = 14.94175 26.64906 20.79541
#
# Velocity S-wave (km/s) = 2.74717 3.66881 3.24092
# Velocity P-wave (km/s) = 4.68441 5.72395 5.23007
#
# Compressibility (1/GPa) = 0.04251188
#
# Stress axis : x y z
#
# Youngs Moduli (GPa) = 54.04231 43.75794 68.89476
#
# Poissons Ratio (x) = -0.06975 0.08273
# Poissons Ratio (y) = -0.08615 0.48731
# Poissons Ratio (z) = 0.06490 0.30951
#
# Static dielectric constant tensor:
#      x y z
#    x 1.685030 0.000000 -0.014700 
#    y 0.000000 1.689260 0.000000 
#    z -0.014700 0.000000 1.689820 
# 
# From -- ./inp_files/50332.got.cif
#   From: 2010.05.17/outbox.cif.g08.bks.cpg/sg13_26_cif.got.tgz:50332.got - 2010.06.03 16:44:36.
