data_PCOD9233772
_publ_section_title
;
Structure prediction by ZEFSAII (Michael W. Deem and Ramdas Pophale) SiO2 
 PCOD9233772
Probable space group: P 2/C
;
_chemical_formula_sum "Si O2"
_cell_formula_units_Z 14
_cell_length_a 5.684210
_cell_length_b 13.134077
_cell_length_c 8.832153
_cell_angle_alpha 90.000000
_cell_angle_beta 57.148601
_cell_angle_gamma 90.000000
_cell_volume 553.932774
_symmetry_space_group_name_H-M "P 2/C"
_symmetry_group_IT_number 13
_symmetry_cell_setting 'monoclinic'
loop_
_space_group_symop_operation_xyz
x,y,z
-x,y,1/2-z
-x,-y,-z
x,-y,1/2+z
loop_
_atom_site_type_symbol
_atom_site_label
_atom_site_fract_x
_atom_site_fract_y
_atom_site_fract_z
Si Si1 0.709700 0.468648 0.290544
Si Si2 0.790167 0.856106 0.593669
Si Si3 0.000000 0.975976 0.250000
Si Si4 0.175777 0.305719 0.843129
O O1 0.500000 0.411665 0.250000
O O2 0.500000 0.500000 0.500000
O O3 0.810602 0.571109 0.165731
O O4 0.000000 0.422045 0.250000
O O5 0.500000 0.813061 0.750000
O O6 0.798574 0.906131 0.423039
O O7 0.016419 0.766189 0.516392
O O8 0.848770 0.949717 0.685778
O O9 0.500000 0.275617 0.750000
O O10 0.000000 0.287559 0.750000
#
# Coordination Sequence:
#
# PCOD9233772 Si02
#       4
#     4   4   2   4
#     4  10  21  42  72  99 135 180 225 283 349 412
#     4  11  23  41  68  97 138 185 235 283 351 400
#     4  10  24  40  66 100 138 178 242 282 344 410
#     4  10  23  43  67  97 144 177 226 288 341 411
#
# _framework density 25.273824000000001
#
# number of rings (size 3 to 8) (size 9 to 14) (size 15 to 20)
#    0.000    1.714    1.429    1.714    4.000    4.571 
#    0.000   17.143    0.000    0.000    0.000    0.000 
#    0.000    0.000    0.000    0.000    0.000    0.000 
#
# Total GULP energy -78179.898833 kJ/mol
# GULP energy per Si atom -5584.278488 kJ/mol
# Density = 2.521630 g / cm^3
# Si number density = 25.273824 Si / 1000 Ang^3
#
#
#
# Elastic Constant Matrix: (Units=GPa)
#
#
# Indices 1 2 3 4 5 6 
#
# 1 213.6674 35.7267 74.6370 0.0000 -25.9324 0.0000
# 2 35.7267 152.5865 71.6217 0.0000 -16.2495 0.0000
# 3 74.6370 71.6217 171.3527 0.0000 -24.0376 0.0000
# 4 0.0000 0.0000 0.0000 100.7267 0.0000 18.0324
# 5 -25.9324 -16.2495 -24.0376 0.0000 60.5504 0.0000
# 6 0.0000 0.0000 0.0000 18.0324 0.0000 3.6622
#
#
#
# Elastic Compliance Matrix: (Units=1/GPa)
#
#
# Indices 1 2 3 4 5 6 
#
# 1 0.005653 -0.000132 -0.002194 0.000000 0.001514 0.000000
# 2 -0.000132 0.008201 -0.003251 0.000000 0.000854 0.000000
# 3 -0.002194 -0.003251 0.008362 0.000000 0.001507 0.000000
# 4 0.000000 0.000000 0.000000 0.083769 0.000000 -0.412466
# 5 0.001514 0.000854 0.001507 0.000000 0.017991 0.000000
# 6 0.000000 0.000000 0.000000 -0.412466 0.000000 2.303986
#
#
# Mechanical properties :
#
#
# Convention : Reuss Voigt Hill
#
# Bulk Modulus (GPa) = 90.40527 100.17526 95.29027
# Shear Modulus (GPa) = 2.04683 56.69596 29.37139
#
# Velocity S-wave (km/s) = 0.90090 4.74145 3.41270
# Velocity P-wave (km/s) = 6.07702 8.34848 7.30162
#
# Compressibility (1/GPa) = 0.01106130
#
# Stress axis : x y z
#
# Youngs Moduli (GPa) = 176.90932 121.93139 119.58996
#
# Poissons Ratio (x) = 0.01612 0.26244
# Poissons Ratio (y) = 0.02339 0.38874
# Poissons Ratio (z) = 0.38822 0.39635
#
# Static dielectric constant tensor:
#      x y z
#    x 1.666660 0.000000 -0.390000 
#    y 0.000000 1.957570 0.000000 
#    z -0.390000 0.000000 1.297350 
# 
# From -- ./inp_files/8722.got.cif
#   From: 2010.05.17/outbox.cif.g08.bks.cpg/sg13_5_cif.got.tgz:8722.got - 2010.06.03 16:44:36.
