data_PCOD9233495
_publ_section_title
;
Structure prediction by ZEFSAII (Michael W. Deem and Ramdas Pophale) SiO2 
 PCOD9233495
Probable space group: P 2/C
;
_chemical_formula_sum "Si O2"
_cell_formula_units_Z 16
_cell_length_a 5.283902
_cell_length_b 14.190082
_cell_length_c 9.968294
_cell_angle_alpha 90.000000
_cell_angle_beta 117.560727
_cell_angle_gamma 90.000000
_cell_volume 662.597043
_symmetry_space_group_name_H-M "P 2/C"
_symmetry_group_IT_number 13
_symmetry_cell_setting 'monoclinic'
loop_
_space_group_symop_operation_xyz
x,y,z
-x,y,1/2-z
-x,-y,-z
x,-y,1/2+z
loop_
_atom_site_type_symbol
_atom_site_label
_atom_site_fract_x
_atom_site_fract_y
_atom_site_fract_z
Si Si1 0.684329 0.480518 0.174155
Si Si2 0.179485 0.753851 0.152117
Si Si3 0.196425 0.270853 0.191658
Si Si4 0.318146 0.037130 0.580553
O O1 0.500000 0.516704 0.250000
O O2 0.724240 0.368948 0.212655
O O3 0.000000 0.523183 0.250000
O O4 0.500000 0.500000 0.000000
O O5 0.500000 0.711959 0.250000
O O6 0.000000 0.764084 0.250000
O O7 0.265022 0.852058 0.098618
O O8 0.967580 0.708494 0.988014
O O9 0.500000 0.221809 0.250000
O O10 0.000000 0.217362 0.250000
O O11 0.500000 0.002076 0.750000
O O12 0.500000 0.000000 0.500000
O O13 0.000000 0.000000 0.500000
#
# Coordination Sequence:
#
# PCOD9233495 Si02
#       4
#     4   4   4   4
#     4  10  21  41  64  93 130 169 214 268 323 390
#     4  11  23  42  64  91 128 170 216 272 328 388
#     4  10  22  41  63  95 127 166 219 267 325 391
#     4  11  23  40  61  91 125 165 211 263 321 383
#
# _framework density 24.147404000000002
#
# number of rings (size 3 to 8) (size 9 to 14) (size 15 to 20)
#    0.000    1.500    0.000    6.000    0.000    3.000 
#    0.000   30.000    0.000    0.000    0.000    0.000 
#    0.000    0.000    0.000    0.000    0.000    0.000 
#
# Total GULP energy -89346.318685 kJ/mol
# GULP energy per Si atom -5584.144918 kJ/mol
# Density = 2.409244 g / cm^3
# Si number density = 24.147404 Si / 1000 Ang^3
#
#
#
# Elastic Constant Matrix: (Units=GPa)
#
#
# Indices 1 2 3 4 5 6 
#
# 1 286.1380 4.8532 117.5606 0.0000 -0.2830 0.0000
# 2 4.8532 87.3383 21.4412 0.0000 -0.1093 0.0000
# 3 117.5606 21.4412 272.4519 0.0000 5.9618 0.0000
# 4 0.0000 0.0000 0.0000 33.7596 0.0000 8.0307
# 5 -0.2830 -0.1093 5.9618 0.0000 69.0366 0.0000
# 6 0.0000 0.0000 0.0000 8.0307 0.0000 10.3814
#
#
#
# Elastic Compliance Matrix: (Units=1/GPa)
#
#
# Indices 1 2 3 4 5 6 
#
# 1 0.004254 0.000220 -0.001857 0.000000 0.000178 0.000000
# 2 0.000220 0.011687 -0.001017 0.000000 0.000107 0.000000
# 3 -0.001857 -0.001017 0.004560 0.000000 -0.000403 0.000000
# 4 0.000000 0.000000 0.000000 0.036301 0.000000 -0.028082
# 5 0.000178 0.000107 -0.000403 0.000000 0.014521 0.000000
# 6 0.000000 0.000000 0.000000 -0.028082 0.000000 0.118050
#
#
# Mechanical properties :
#
#
# Convention : Reuss Voigt Hill
#
# Bulk Modulus (GPa) = 65.81634 103.73757 84.77695
# Shear Modulus (GPa) = 25.03173 56.10706 40.56939
#
# Velocity S-wave (km/s) = 3.22315 4.82552 4.10332
# Velocity P-wave (km/s) = 6.41614 8.60819 7.59170
#
# Compressibility (1/GPa) = 0.01519380
#
# Stress axis : x y z
#
# Youngs Moduli (GPa) = 235.06488 85.56301 219.27823
#
# Poissons Ratio (x) = -0.01880 0.40716
# Poissons Ratio (y) = -0.05164 0.22298
# Poissons Ratio (z) = 0.43647 0.08701
#
# Static dielectric constant tensor:
#      x y z
#    x 2.124230 0.000000 0.006710 
#    y 0.000000 2.077680 0.000000 
#    z 0.006710 0.000000 1.846380 
# 
# From -- ./inp_files/9623.got.cif
#   From: 2010.05.17/outbox.cif.g08.bks.cpg/sg13_5_cif.got.tgz:9623.got - 2010.06.03 16:44:36.
