data_PCOD9233984
_publ_section_title
;
Structure prediction by ZEFSAII (Michael W. Deem and Ramdas Pophale) SiO2 
 PCOD9233984
Probable space group: P 2/C
;
_chemical_formula_sum "Si O2"
_cell_formula_units_Z 28
_cell_length_a 14.775112
_cell_length_b 8.121673
_cell_length_c 13.867351
_cell_angle_alpha 90.000000
_cell_angle_beta 66.003519
_cell_angle_gamma 90.000000
_cell_volume 1520.238850
_symmetry_space_group_name_H-M "P 2/C"
_symmetry_group_IT_number 13
_symmetry_cell_setting 'monoclinic'
loop_
_space_group_symop_operation_xyz
x,y,z
-x,y,1/2-z
-x,-y,-z
x,-y,1/2+z
loop_
_atom_site_type_symbol
_atom_site_label
_atom_site_fract_x
_atom_site_fract_y
_atom_site_fract_z
Si Si1 0.898960 0.919601 0.507297
Si Si2 0.245170 0.350201 0.023977
Si Si3 0.887513 0.449924 0.065774
Si Si4 0.111468 0.069835 0.176820
Si Si5 0.264096 0.042473 0.283041
Si Si6 0.616824 0.730185 0.213943
Si Si7 0.283313 0.425265 0.223880
O O1 0.893896 0.743113 0.554944
O O2 0.798267 0.994701 0.592949
O O3 0.899260 0.919733 0.392520
O O4 0.000000 0.000000 0.500000
O O5 0.168214 0.211240 0.093312
O O6 0.287749 0.420174 0.106210
O O7 0.181305 0.477357 0.988488
O O8 0.329160 0.286974 0.913893
O O9 0.827179 0.479611 0.191147
O O10 0.000000 0.500000 0.000000
O O11 0.180871 0.025594 0.235940
O O12 0.000000 0.123553 0.250000
O O13 0.299988 0.234740 0.255491
O O14 0.344329 0.896160 0.248647
O O15 0.500000 0.739267 0.250000
O O16 0.646611 0.564401 0.260171
#
# Coordination Sequence:
#
# PCOD9233984 Si02
#       7
#     4   4   4   4   4   4   4
#     4  11  20  35  55  85 125 163 202 239 295 364
#     4  10  22  41  60  87 126 159 203 255 299 376
#     4  10  22  34  55  86 123 168 199 242 296 360
#     4  11  21  34  59  89 124 168 193 240 305 363
#     4  10  22  40  60  90 126 156 206 253 301 371
#     4  11  24  44  69  88 116 162 211 269 315 356
#     4   9  23  41  60  89 126 157 203 255 309 368
#
# _framework density 18.418157999999998
#
# number of rings (size 3 to 8) (size 9 to 14) (size 15 to 20)
#    0.000    1.714    2.857    0.857    8.000    1.143 
#    0.000    2.857    0.000    0.000    0.000    0.000 
#    0.000    0.000    0.000    0.000    0.000    0.000 
#
# Total GULP energy -155932.891975 kJ/mol
# GULP energy per Si atom -5569.031856 kJ/mol
# Density = 1.837624 g / cm^3
# Si number density = 18.418158 Si / 1000 Ang^3
#
#
#
# Elastic Constant Matrix: (Units=GPa)
#
#
# Indices 1 2 3 4 5 6 
#
# 1 129.7773 65.9303 42.7606 0.0000 -13.9655 0.0000
# 2 65.9303 61.9948 27.4104 0.0000 2.3528 0.0000
# 3 42.7606 27.4104 96.2287 0.0000 10.1125 0.0000
# 4 0.0000 0.0000 0.0000 25.7886 0.0000 1.5741
# 5 -13.9655 2.3528 10.1125 0.0000 21.9254 0.0000
# 6 0.0000 0.0000 0.0000 1.5741 0.0000 20.5983
#
#
#
# Elastic Compliance Matrix: (Units=1/GPa)
#
#
# Indices 1 2 3 4 5 6 
#
# 1 0.023789 -0.023398 -0.006056 0.000000 0.020457 0.000000
# 2 -0.023398 0.041473 0.000649 0.000000 -0.019653 0.000000
# 3 -0.006056 0.000649 0.013989 0.000000 -0.010379 0.000000
# 4 0.000000 0.000000 0.000000 0.038959 0.000000 -0.002977
# 5 0.020457 -0.019653 -0.010379 0.000000 0.065535 0.000000
# 6 0.000000 0.000000 0.000000 -0.002977 0.000000 0.048775
#
#
# Mechanical properties :
#
#
# Convention : Reuss Voigt Hill
#
# Bulk Modulus (GPa) = 46.20855 62.24481 54.22668
# Shear Modulus (GPa) = 16.81563 23.78908 20.30236
#
# Velocity S-wave (km/s) = 3.02485 3.59780 3.32369
# Velocity P-wave (km/s) = 6.11087 7.15035 6.65095
#
# Compressibility (1/GPa) = 0.02164101
#
# Stress axis : x y z
#
# Youngs Moduli (GPa) = 42.03611 24.11234 71.48626
#
# Poissons Ratio (x) = 0.56418 0.43292
# Poissons Ratio (y) = 0.98356 -0.04642
# Poissons Ratio (z) = 0.25457 -0.01566
#
# Static dielectric constant tensor:
#      x y z
#    x 0.271650 0.000000 1.099310 
#    y 0.000000 1.700970 0.000000 
#    z 1.099310 0.000000 0.765100 
# 
# From -- ./inp_files/36144.got.cif
#   From: 2010.05.17/outbox.cif.g08.bks.cpg/sg13_19_cif.got.tgz:36144.got - 2010.06.03 16:44:36.
