data_PCOD9233111
_publ_section_title
;
Structure prediction by ZEFSAII (Michael W. Deem and Ramdas Pophale) SiO2 
 PCOD9233111
Probable space group: P 2/C
;
_chemical_formula_sum "Si O2"
_cell_formula_units_Z 18
_cell_length_a 9.766357
_cell_length_b 17.713880
_cell_length_c 9.845024
_cell_angle_alpha 90.000000
_cell_angle_beta 28.215877
_cell_angle_gamma 90.000000
_cell_volume 805.259602
_symmetry_space_group_name_H-M "P 2/C"
_symmetry_group_IT_number 13
_symmetry_cell_setting 'monoclinic'
loop_
_space_group_symop_operation_xyz
x,y,z
-x,y,1/2-z
-x,-y,-z
x,-y,1/2+z
loop_
_atom_site_type_symbol
_atom_site_label
_atom_site_fract_x
_atom_site_fract_y
_atom_site_fract_z
Si Si1 0.295285 0.710072 0.056470
Si Si2 0.596948 0.422345 0.849066
Si Si3 0.610325 0.833598 0.304684
Si Si4 0.893573 0.064674 0.192775
Si Si5 0.000000 0.590322 0.750000
O O1 0.248710 0.632927 0.180179
O O2 0.413501 0.770031 0.061741
O O3 0.000000 0.739861 0.250000
O O4 0.500000 0.695964 0.750000
O O5 0.821614 0.443588 0.532765
O O6 0.500000 0.500000 0.000000
O O7 0.297274 0.379110 0.063311
O O8 0.500000 0.811692 0.250000
O O9 0.435901 0.908425 0.505089
O O10 0.939398 0.859024 0.996033
O O11 0.000000 0.043499 0.250000
O O12 0.000000 0.000000 0.000000
#
# Coordination Sequence:
#
# PCOD9233111 Si02
#       5
#     4   4   4   4   2
#     4  12  27  45  68 101 140 179 228 294 355 404
#     4  11  25  44  70  98 137 177 236 292 350 419
#     4  10  23  43  65  95 134 178 227 268 333 412
#     4  10  21  39  65  98 131 172 219 276 329 394
#     4  10  24  42  68  98 122 180 236 266 368 400
#
# _framework density 22.353038000000002
#
# number of rings (size 3 to 8) (size 9 to 14) (size 15 to 20)
#    0.000    1.333    0.000    4.000    7.778    2.667 
#    4.000    0.000    0.000    0.000    0.000    0.000 
#    0.000    0.000    0.000    0.000    0.000    0.000 
#
# Total GULP energy -100350.691093 kJ/mol
# GULP energy per Si atom -5575.038394 kJ/mol
# Density = 2.230216 g / cm^3
# Si number density = 22.353038 Si / 1000 Ang^3
#
#
#
# Elastic Constant Matrix: (Units=GPa)
#
#
# Indices 1 2 3 4 5 6 
#
# 1 92.8474 57.3512 42.2328 0.0000 22.5314 0.0000
# 2 57.3512 85.9351 16.9321 0.0000 29.7204 0.0000
# 3 42.2328 16.9321 149.8826 0.0000 22.2492 0.0000
# 4 0.0000 0.0000 0.0000 19.9904 0.0000 -12.5074
# 5 22.5314 29.7204 22.2492 0.0000 60.3845 0.0000
# 6 0.0000 0.0000 0.0000 -12.5074 0.0000 9.6418
#
#
#
# Elastic Compliance Matrix: (Units=1/GPa)
#
#
# Indices 1 2 3 4 5 6 
#
# 1 0.020820 -0.013135 -0.004431 0.000000 0.000329 0.000000
# 2 -0.013135 0.022361 0.002202 0.000000 -0.006916 0.000000
# 3 -0.004431 0.002202 0.008026 0.000000 -0.002387 0.000000
# 4 0.000000 0.000000 0.000000 0.265550 0.000000 0.344473
# 5 0.000329 -0.006916 -0.002387 0.000000 0.020721 0.000000
# 6 0.000000 0.000000 0.000000 0.344473 0.000000 0.550567
#
#
# Mechanical properties :
#
#
# Convention : Reuss Voigt Hill
#
# Bulk Modulus (GPa) = 48.83609 62.41082 55.62345
# Shear Modulus (GPa) = 5.40190 32.14661 18.77425
#
# Velocity S-wave (km/s) = 1.55624 3.79638 2.90124
# Velocity P-wave (km/s) = 5.01241 6.87007 6.01340
#
# Compressibility (1/GPa) = 0.02047666
#
# Stress axis : x y z
#
# Youngs Moduli (GPa) = 48.03126 44.72081 124.59151
#
# Poissons Ratio (x) = 0.58743 0.55212
# Poissons Ratio (y) = 0.63091 -0.27431
# Poissons Ratio (z) = 0.21285 -0.09846
#
# Static dielectric constant tensor:
#      x y z
#    x 1.854110 0.000000 -0.077680 
#    y 0.000000 1.800000 0.000000 
#    z -0.077680 0.000000 1.738110 
# 
# From -- ./inp_files/13379.got.cif
#   From: 2010.05.17/outbox.cif.g08.bks.cpg/sg13_7_cif.got.tgz:13379.got - 2010.06.03 16:44:36.
