data_PCOD9233532
_publ_section_title
;
Structure prediction by ZEFSAII (Michael W. Deem and Ramdas Pophale) SiO2 
 PCOD9233532
Probable space group: P 2/C
;
_chemical_formula_sum "Si O2"
_cell_formula_units_Z 30
_cell_length_a 13.127549
_cell_length_b 8.243909
_cell_length_c 13.850679
_cell_angle_alpha 90.000000
_cell_angle_beta 118.381602
_cell_angle_gamma 90.000000
_cell_volume 1318.780381
_symmetry_space_group_name_H-M "P 2/C"
_symmetry_group_IT_number 13
_symmetry_cell_setting 'monoclinic'
loop_
_space_group_symop_operation_xyz
x,y,z
-x,y,1/2-z
-x,-y,-z
x,-y,1/2+z
loop_
_atom_site_type_symbol
_atom_site_label
_atom_site_fract_x
_atom_site_fract_y
_atom_site_fract_z
Si Si1 0.914625 0.009810 0.871903
Si Si2 0.500000 0.627708 0.250000
Si Si3 0.497816 0.881640 0.909246
Si Si4 0.957747 0.331047 0.601313
Si Si5 0.335493 0.886923 0.233111
Si Si6 0.291532 0.725274 0.425252
Si Si7 0.638684 0.433454 0.153941
Si Si8 0.894707 0.352383 0.345241
O O1 0.957323 0.177673 0.843018
O O2 0.785398 0.039205 0.852698
O O3 0.915582 0.834263 0.819232
O O4 0.000000 0.000000 0.000000
O O5 0.391432 0.751710 0.188702
O O6 0.547078 0.516786 0.185421
O O7 0.416812 0.733421 0.901424
O O8 0.428870 0.974681 0.795813
O O9 0.628862 0.816824 0.960226
O O10 0.500000 0.000000 0.000000
O O11 0.160268 0.294474 0.896399
O O12 0.021731 0.501658 0.652467
O O13 0.919802 0.342401 0.471377
O O14 0.308541 0.808423 0.327245
O O15 0.341529 0.547199 0.428540
O O16 0.762983 0.403976 0.261340
#
# Coordination Sequence:
#
# PCOD9233532 Si02
#       8
#     4   2   4   4   4   4   4   4
#     4  10  21  41  66  91 126 169 213 274 332 391
#     4  10  24  36  66 100 122 178 212 270 334 388
#     4  10  22  42  64  92 135 173 216 273 327 399
#     4  10  22  42  64  95 134 165 222 273 332 395
#     4  10  21  42  63  94 132 166 222 270 329 397
#     4  10  23  41  64  94 129 178 213 272 332 393
#     4  11  22  42  66  92 134 171 223 268 330 400
#     4  10  22  41  66  97 126 172 218 276 332 394
#
# _framework density 22.748289
#
# number of rings (size 3 to 8) (size 9 to 14) (size 15 to 20)
#    0.000    1.867    1.333    2.000    1.867    4.800 
#    4.800    1.333    0.000    0.000    0.000    0.000 
#    0.000    0.000    0.000    0.000    0.000    0.000 
#
# Total GULP energy -167521.799825 kJ/mol
# GULP energy per Si atom -5584.059994 kJ/mol
# Density = 2.269651 g / cm^3
# Si number density = 22.748289 Si / 1000 Ang^3
#
#
#
# Elastic Constant Matrix: (Units=GPa)
#
#
# Indices 1 2 3 4 5 6 
#
# 1 143.5847 72.8114 55.1585 0.0000 35.5881 0.0000
# 2 72.8114 182.2907 52.3801 0.0000 32.3986 0.0000
# 3 55.1585 52.3801 122.0761 0.0000 38.2598 0.0000
# 4 0.0000 0.0000 0.0000 31.0422 0.0000 24.0896
# 5 35.5881 32.3986 38.2598 0.0000 32.0056 0.0000
# 6 0.0000 0.0000 0.0000 24.0896 0.0000 18.9815
#
#
#
# Elastic Compliance Matrix: (Units=1/GPa)
#
#
# Indices 1 2 3 4 5 6 
#
# 1 0.010659 -0.002503 -0.001314 0.000000 -0.007748 0.000000
# 2 -0.002503 0.007388 -0.000907 0.000000 -0.003611 0.000000
# 3 -0.001314 -0.000907 0.013479 0.000000 -0.013733 0.000000
# 4 0.000000 0.000000 0.000000 2.128491 0.000000 -2.701290
# 5 -0.007748 -0.003611 -0.013733 0.000000 0.059931 0.000000
# 6 0.000000 0.000000 0.000000 -2.701290 0.000000 3.480918
#
#
# Mechanical properties :
#
#
# Convention : Reuss Voigt Hill
#
# Bulk Modulus (GPa) = 45.29609 89.85017 67.57313
# Shear Modulus (GPa) = 0.87448 34.24598 17.56023
#
# Velocity S-wave (km/s) = 0.62069 3.88420 2.78139
# Velocity P-wave (km/s) = 4.52424 7.72653 6.33119
#
# Compressibility (1/GPa) = 0.02207696
#
# Stress axis : x y z
#
# Youngs Moduli (GPa) = 93.81992 135.35549 74.19109
#
# Poissons Ratio (x) = 0.33877 0.09748
# Poissons Ratio (y) = 0.23481 0.06732
# Poissons Ratio (z) = 0.12328 0.12282
#
# Static dielectric constant tensor:
#      x y z
#    x 1.810390 0.000000 -0.021470 
#    y 0.000000 1.886380 0.000000 
#    z -0.021470 0.000000 1.878610 
# 
# From -- ./inp_files/80770.got.cif
#   From: 2010.05.17/outbox.cif.g08.bks.cpg/sg13_41_cif.got.tgz:80770.got - 2010.06.03 16:44:36.
