data_PCOD9233762
_publ_section_title
;
Structure prediction by ZEFSAII (Michael W. Deem and Ramdas Pophale) SiO2 
 PCOD9233762
Probable space group: P 2/C
;
_chemical_formula_sum "Si O2"
_cell_formula_units_Z 26
_cell_length_a 18.121868
_cell_length_b 5.478078
_cell_length_c 25.970263
_cell_angle_alpha 90.000000
_cell_angle_beta 26.238188
_cell_angle_gamma 90.000000
_cell_volume 1139.808138
_symmetry_space_group_name_H-M "P 2/C"
_symmetry_group_IT_number 13
_symmetry_cell_setting 'monoclinic'
loop_
_space_group_symop_operation_xyz
x,y,z
-x,y,1/2-z
-x,-y,-z
x,-y,1/2+z
loop_
_atom_site_type_symbol
_atom_site_label
_atom_site_fract_x
_atom_site_fract_y
_atom_site_fract_z
Si Si1 0.302572 0.189152 0.222579
Si Si2 0.110276 0.565005 0.604883
Si Si3 0.000000 0.057859 0.250000
Si Si4 0.600931 0.551591 0.133615
Si Si5 0.481636 0.952786 0.700216
Si Si6 0.803546 0.313735 0.760902
Si Si7 0.323254 0.284057 0.550780
O O1 0.222390 0.448262 0.258614
O O2 0.318036 0.150059 0.274734
O O3 0.221715 0.946335 0.249763
O O4 0.494053 0.200841 0.081372
O O5 0.998945 0.771540 0.700237
O O6 0.208350 0.635637 0.491539
O O7 0.248293 0.502316 0.562396
O O8 0.988270 0.342577 0.669041
O O9 0.825403 0.914345 0.361278
O O10 0.500000 0.528310 0.250000
O O11 0.510013 0.774440 0.161141
O O12 0.607189 0.271293 0.110733
O O13 0.500000 0.985093 0.750000
O O14 0.678270 0.342216 0.887624
#
# Coordination Sequence:
#
# PCOD9233762 Si02
#       7
#     4   4   2   4   4   4   4
#     4  12  26  42  67  99 142 184 221 285 353 415
#     4  12  24  41  70  98 142 189 233 289 333 420
#     4  12  22  40  68 100 140 178 254 270 338 394
#     4  10  22  41  72 102 122 170 248 293 330 390
#     4  10  21  42  70  98 122 168 239 292 327 403
#     4  12  26  42  60 103 151 177 220 281 360 407
#     4  12  24  42  64  99 137 198 233 268 327 432
#
# _framework density 22.810859000000001
#
# number of rings (size 3 to 8) (size 9 to 14) (size 15 to 20)
#    0.000    0.615    4.615    3.692    2.154    0.000 
#    0.000    0.000    0.000   22.154    0.000    0.000 
#    0.000    0.000    0.000    0.000    0.000    0.000 
#
# Total GULP energy -144885.717546 kJ/mol
# GULP energy per Si atom -5572.527598 kJ/mol
# Density = 2.275894 g / cm^3
# Si number density = 22.810859 Si / 1000 Ang^3
#
#
#
# Elastic Constant Matrix: (Units=GPa)
#
#
# Indices 1 2 3 4 5 6 
#
# 1 84.8687 22.6685 -7.2999 0.0000 5.9232 0.0000
# 2 22.6685 125.3179 8.0104 0.0000 -13.0850 0.0000
# 3 -7.2999 8.0104 64.2935 0.0000 13.5407 0.0000
# 4 0.0000 0.0000 0.0000 16.4902 0.0000 -26.0734
# 5 5.9232 -13.0850 13.5407 0.0000 28.7803 0.0000
# 6 0.0000 0.0000 0.0000 -26.0734 0.0000 21.0726
#
#
#
# Elastic Compliance Matrix: (Units=1/GPa)
#
#
# Indices 1 2 3 4 5 6 
#
# 1 0.013296 -0.003192 0.003096 0.000000 -0.005644 0.000000
# 2 -0.003192 0.009394 -0.002854 0.000000 0.006271 0.000000
# 3 0.003096 -0.002854 0.018501 0.000000 -0.010639 0.000000
# 4 0.000000 0.000000 0.000000 -0.063409 0.000000 -0.078456
# 5 -0.005644 0.006271 -0.010639 0.000000 0.043764 0.000000
# 6 0.000000 0.000000 0.000000 -0.078456 0.000000 -0.049620
#
#
# Mechanical properties :
#
#
# Convention : Reuss Voigt Hill
#
# Bulk Modulus (GPa) = 28.33498 35.69310 32.01404
# Shear Modulus (GPa) = -480.34341 30.00868 -225.16736
#
# Velocity S-wave (km/s) = -14.52700 3.63098 -9.94610
# Velocity P-wave (km/s) = 16.39908 5.76715 10.85518
#
# Compressibility (1/GPa) = 0.03529207
#
# Stress axis : x y z
#
# Youngs Moduli (GPa) = 75.21152 106.44742 54.04982
#
# Poissons Ratio (x) = 0.33981 -0.16734
# Poissons Ratio (y) = 0.24010 0.15423
# Poissons Ratio (z) = -0.23286 0.30375
#
# Static dielectric constant tensor:
#      x y z
#    x 1.998830 0.000000 0.113220 
#    y 0.000000 1.935360 0.000000 
#    z 0.113220 0.000000 1.960190 
# 
# From -- ./inp_files/93155.got.cif
#   From: 2010.05.17/outbox.cif.g08.bks.cpg/sg13_47_cif.got.tgz:93155.got - 2010.06.03 16:44:36.
