data_PCOD9233406
_publ_section_title
;
Structure prediction by ZEFSAII (Michael W. Deem and Ramdas Pophale) SiO2 
 PCOD9233406
Probable space group: P 2/C
;
_chemical_formula_sum "Si O2"
_cell_formula_units_Z 30
_cell_length_a 7.481891
_cell_length_b 16.699211
_cell_length_c 11.546231
_cell_angle_alpha 90.000000
_cell_angle_beta 73.407377
_cell_angle_gamma 90.000000
_cell_volume 1382.534429
_symmetry_space_group_name_H-M "P 2/C"
_symmetry_group_IT_number 13
_symmetry_cell_setting 'monoclinic'
loop_
_space_group_symop_operation_xyz
x,y,z
-x,y,1/2-z
-x,-y,-z
x,-y,1/2+z
loop_
_atom_site_type_symbol
_atom_site_label
_atom_site_fract_x
_atom_site_fract_y
_atom_site_fract_z
Si Si1 0.682160 0.273699 0.148811
Si Si2 0.806350 0.169530 0.733807
Si Si3 0.656647 0.961268 0.115968
Si Si4 0.000000 0.693291 0.750000
Si Si5 0.398200 0.878203 0.992641
Si Si6 0.715234 0.658677 0.207585
Si Si7 0.702639 0.600543 0.456940
Si Si8 0.749642 0.414026 0.466982
O O1 0.500000 0.303922 0.250000
O O2 0.854326 0.254876 0.201617
O O3 0.607577 0.199523 0.086565
O O4 0.757340 0.343930 0.053165
O O5 0.812078 0.093793 0.647372
O O6 0.696694 0.145737 0.869373
O O7 0.719588 0.246058 0.686552
O O8 0.000000 0.195653 0.750000
O O9 0.500000 0.966474 0.250000
O O10 0.587860 0.915488 0.011529
O O11 0.695166 0.050299 0.064001
O O12 0.131594 0.636255 0.646967
O O13 0.500000 0.631704 0.250000
O O14 0.778896 0.638723 0.324662
O O15 0.808260 0.613229 0.084770
O O16 0.765931 0.509137 0.451604
O O17 0.473904 0.603319 0.501896
#
# Coordination Sequence:
#
# PCOD9233406 Si02
#       8
#     4   4   4   2   4   4   4   4
#     4  12  25  44  68  96 137 177 219 279 341 403
#     4  11  23  37  60  96 132 164 213 271 329 395
#     4   9  20  40  68  90 123 166 222 268 324 404
#     4  12  28  44  64 106 136 178 224 280 346 418
#     4  10  21  42  65  95 122 171 224 268 326 399
#     4  10  21  40  69  94 125 176 225 271 324 394
#     4  10  22  44  69  94 128 180 226 280 329 399
#     4  10  24  42  68  98 135 172 226 277 341 397
#
# _framework density 21.699280999999999
#
# number of rings (size 3 to 8) (size 9 to 14) (size 15 to 20)
#    0.000    1.600    2.667    1.600    5.600    1.600 
#    2.400    0.000    0.000    0.000    0.000    0.000 
#    0.000    0.000    0.000    0.000    0.000    0.000 
#
# Total GULP energy -167451.744773 kJ/mol
# GULP energy per Si atom -5581.724826 kJ/mol
# Density = 2.164989 g / cm^3
# Si number density = 21.699281 Si / 1000 Ang^3
#
#
#
# Elastic Constant Matrix: (Units=GPa)
#
#
# Indices 1 2 3 4 5 6 
#
# 1 43.5281 -6.7160 -7.5484 0.0000 5.3322 0.0000
# 2 -6.7160 77.9380 25.3681 0.0000 3.1125 0.0000
# 3 -7.5484 25.3681 53.7609 0.0000 12.3972 0.0000
# 4 0.0000 0.0000 0.0000 35.3874 0.0000 10.4792
# 5 5.3322 3.1125 12.3972 0.0000 28.1712 0.0000
# 6 0.0000 0.0000 0.0000 10.4792 0.0000 19.3540
#
#
#
# Elastic Compliance Matrix: (Units=1/GPa)
#
#
# Indices 1 2 3 4 5 6 
#
# 1 0.024749 0.000900 0.004622 0.000000 -0.006818 0.000000
# 2 0.000900 0.015260 -0.007397 0.000000 0.001399 0.000000
# 3 0.004622 -0.007397 0.025323 0.000000 -0.011202 0.000000
# 4 0.000000 0.000000 0.000000 0.033655 0.000000 -0.018222
# 5 -0.006818 0.001399 -0.011202 0.000000 0.041563 0.000000
# 6 0.000000 0.000000 0.000000 -0.018222 0.000000 0.061535
#
#
# Mechanical properties :
#
#
# Convention : Reuss Voigt Hill
#
# Bulk Modulus (GPa) = 16.23782 21.93715 19.08748
# Shear Modulus (GPa) = 22.08852 27.52406 24.80629
#
# Velocity S-wave (km/s) = 3.19398 3.56537 3.38477
# Velocity P-wave (km/s) = 4.59362 5.20391 4.90826
#
# Compressibility (1/GPa) = 0.06158462
#
# Stress axis : x y z
#
# Youngs Moduli (GPa) = 40.40505 65.53058 39.48935
#
# Poissons Ratio (x) = -0.05901 -0.18253
# Poissons Ratio (y) = -0.03638 0.29210
# Poissons Ratio (z) = -0.18677 0.48472
#
# Static dielectric constant tensor:
#      x y z
#    x 1.732890 0.000000 0.040660 
#    y 0.000000 1.766910 0.000000 
#    z 0.040660 0.000000 1.770130 
# 
# From -- ./inp_files/30376.got.cif
#   From: 2010.05.17/outbox.cif.g08.bks.cpg/sg13_16_cif.got.tgz:30376.got - 2010.06.03 16:44:36.
