data_PCOD9233103
_publ_section_title
;
Structure prediction by ZEFSAII (Michael W. Deem and Ramdas Pophale) SiO2 
 PCOD9233103
Probable space group: P 2/C
;
_chemical_formula_sum "Si O2"
_cell_formula_units_Z 22
_cell_length_a 11.720990
_cell_length_b 6.322549
_cell_length_c 27.377167
_cell_angle_alpha 90.000000
_cell_angle_beta 30.431710
_cell_angle_gamma 90.000000
_cell_volume 1027.623246
_symmetry_space_group_name_H-M "P 2/C"
_symmetry_group_IT_number 13
_symmetry_cell_setting 'monoclinic'
loop_
_space_group_symop_operation_xyz
x,y,z
-x,y,1/2-z
-x,-y,-z
x,-y,1/2+z
loop_
_atom_site_type_symbol
_atom_site_label
_atom_site_fract_x
_atom_site_fract_y
_atom_site_fract_z
Si Si1 0.823312 0.231397 0.157356
Si Si2 0.807333 0.978034 0.418713
Si Si3 0.524392 0.783301 0.393119
Si Si4 0.824758 0.591042 0.474624
Si Si5 0.625275 0.121821 0.129467
Si Si6 0.000000 0.882588 0.250000
O O1 0.755926 0.111129 0.132398
O O2 0.599848 0.250472 0.272506
O O3 0.949020 0.453997 0.102587
O O4 0.001270 0.088517 0.119653
O O5 0.815281 0.729456 0.428837
O O6 0.882383 0.016413 0.335953
O O7 0.578431 0.078466 0.523923
O O8 0.385047 0.568683 0.446220
O O9 0.790959 0.760100 0.302300
O O10 0.459154 0.912321 0.367806
O O11 0.782729 0.753238 0.533982
#
# Coordination Sequence:
#
# PCOD9233103 Si02
#       6
#     4   4   4   4   4   2
#     4  10  21  39  65  95 126 161 199 244 304 369
#     4  10  23  42  63  92 122 160 205 251 306 360
#     4  10  23  42  63  92 122 160 205 251 306 360
#     4  10  23  39  60  94 130 155 199 252 306 364
#     4  10  21  39  65  95 126 161 199 244 304 369
#     4  12  22  42  68  84 122 166 204 256 300 352
#
# _framework density 21.408625000000001
#
# number of rings (size 3 to 8) (size 9 to 14) (size 15 to 20)
#    0.000    1.818    1.818    1.091    2.545    8.727 
#    0.000   12.727    0.000    0.000    0.000    0.000 
#    0.000    0.000    0.000    0.000    0.000    0.000 
#
# Total GULP energy -122823.707227 kJ/mol
# GULP energy per Si atom -5582.895783 kJ/mol
# Density = 2.135990 g / cm^3
# Si number density = 21.408625 Si / 1000 Ang^3
#
#
#
# Elastic Constant Matrix: (Units=GPa)
#
#
# Indices 1 2 3 4 5 6 
#
# 1 68.2768 16.9498 39.0524 0.0000 3.5920 0.0000
# 2 16.9498 50.2353 10.8539 0.0000 3.4504 0.0000
# 3 39.0524 10.8539 109.6243 0.0000 0.7287 0.0000
# 4 0.0000 0.0000 0.0000 15.2706 0.0000 -2.1595
# 5 3.5920 3.4504 0.7287 0.0000 42.6067 0.0000
# 6 0.0000 0.0000 0.0000 -2.1595 0.0000 3.8026
#
#
#
# Elastic Compliance Matrix: (Units=1/GPa)
#
#
# Indices 1 2 3 4 5 6 
#
# 1 0.019707 -0.005167 -0.006501 0.000000 -0.001132 0.000000
# 2 -0.005167 0.021808 -0.000310 0.000000 -0.001325 0.000000
# 3 -0.006501 -0.000310 0.011466 0.000000 0.000377 0.000000
# 4 0.000000 0.000000 0.000000 0.071204 0.000000 0.040438
# 5 -0.001132 -0.001325 0.000377 0.000000 0.023667 0.000000
# 6 0.000000 0.000000 0.000000 0.040438 0.000000 0.285945
#
#
# Mechanical properties :
#
#
# Convention : Reuss Voigt Hill
#
# Bulk Modulus (GPa) = 34.45303 40.20542 37.32922
# Shear Modulus (GPa) = 10.69684 23.08798 16.89241
#
# Velocity S-wave (km/s) = 2.23771 3.28753 2.81204
# Velocity P-wave (km/s) = 4.77540 5.76465 5.29319
#
# Compressibility (1/GPa) = 0.02902503
#
# Stress axis : x y z
#
# Youngs Moduli (GPa) = 50.74322 45.85560 87.21248
#
# Poissons Ratio (x) = 0.23693 0.56700
# Poissons Ratio (y) = 0.26219 0.02701
# Poissons Ratio (z) = 0.32990 0.01420
#
# Static dielectric constant tensor:
#      x y z
#    x 1.822740 0.000000 0.004160 
#    y 0.000000 1.757480 0.000000 
#    z 0.004160 0.000000 1.796190 
# 
# From -- ./inp_files/48956.got.cif
#   From: 2010.05.17/outbox.cif.g08.bks.cpg/sg13_25_cif.got.tgz:48956.got - 2010.06.03 16:44:36.
