data_PCOD9233009
_publ_section_title
;
Structure prediction by ZEFSAII (Michael W. Deem and Ramdas Pophale) SiO2 
 PCOD9233009
Probable space group: P 2/C
;
_chemical_formula_sum "Si O2"
_cell_formula_units_Z 26
_cell_length_a 15.402695
_cell_length_b 8.228859
_cell_length_c 14.689200
_cell_angle_alpha 90.000000
_cell_angle_beta 140.718611
_cell_angle_gamma 90.000000
_cell_volume 1178.764410
_symmetry_space_group_name_H-M "P 2/C"
_symmetry_group_IT_number 13
_symmetry_cell_setting 'monoclinic'
loop_
_space_group_symop_operation_xyz
x,y,z
-x,y,1/2-z
-x,-y,-z
x,-y,1/2+z
loop_
_atom_site_type_symbol
_atom_site_label
_atom_site_fract_x
_atom_site_fract_y
_atom_site_fract_z
Si Si1 0.500000 0.473947 0.750000
Si Si2 0.503853 0.252123 0.402626
Si Si3 0.260719 0.251418 0.786806
Si Si4 0.264346 0.358602 0.319515
Si Si5 0.007307 0.313021 0.478246
Si Si6 0.218959 0.717410 0.990651
Si Si7 0.372729 0.945033 0.207018
O O1 0.488947 0.587306 0.652083
O O2 0.647668 0.384127 0.865755
O O3 0.655553 0.195906 0.555894
O O4 0.413915 0.289069 0.419307
O O5 0.417678 0.120989 0.276433
O O6 0.270386 0.448743 0.801029
O O7 0.101384 0.222423 0.629692
O O8 0.339738 0.161638 0.769007
O O9 0.215527 0.326999 0.382528
O O10 0.150560 0.267289 0.165022
O O11 0.089207 0.316638 0.448911
O O12 0.000000 0.500000 0.500000
O O13 0.249249 0.907107 0.037681
O O14 0.500000 0.888502 0.250000
#
# Coordination Sequence:
#
# PCOD9233009 Si02
#       7
#     2   4   4   4   4   4   4
#     4  12  22  36  62  94 122 150 212 272 308 372
#     4  12  23  37  59  93 124 163 210 262 315 371
#     4  10  21  39  62  89 122 163 202 258 313 366
#     4  11  22  39  65  94 124 161 216 256 310 373
#     4   9  20  38  62  93 128 161 204 253 312 373
#     4  11  22  38  64  90 127 166 203 261 317 369
#     4  11  22  38  57  89 130 161 204 254 321 374
#
# _framework density 22.056995000000001
#
# number of rings (size 3 to 8) (size 9 to 14) (size 15 to 20)
#    0.000    1.231    3.077    5.077    2.154    0.000 
#    0.000    3.077    0.000    3.692    0.000    2.154 
#    0.000    0.000    0.000    0.000    0.000    0.000 
#
# Total GULP energy -144833.509702 kJ/mol
# GULP energy per Si atom -5570.519604 kJ/mol
# Density = 2.200679 g / cm^3
# Si number density = 22.056995 Si / 1000 Ang^3
#
#
#
# Elastic Constant Matrix: (Units=GPa)
#
#
# Indices 1 2 3 4 5 6 
#
# 1 51.1921 1.8874 4.6924 0.0000 8.9113 0.0000
# 2 1.8874 42.2488 5.6800 0.0000 5.0442 0.0000
# 3 4.6924 5.6800 89.5632 0.0000 16.0420 0.0000
# 4 0.0000 0.0000 0.0000 23.7854 0.0000 -6.5396
# 5 8.9113 5.0442 16.0420 0.0000 21.8267 0.0000
# 6 0.0000 0.0000 0.0000 -6.5396 0.0000 15.0921
#
#
#
# Elastic Compliance Matrix: (Units=1/GPa)
#
#
# Indices 1 2 3 4 5 6 
#
# 1 0.021049 0.000064 0.000501 0.000000 -0.008977 0.000000
# 2 0.000064 0.024371 -0.000617 0.000000 -0.005205 0.000000
# 3 0.000501 -0.000617 0.012886 0.000000 -0.009533 0.000000
# 4 0.000000 0.000000 0.000000 0.047729 0.000000 0.020682
# 5 -0.008977 -0.005205 -0.009533 0.000000 0.057689 0.000000
# 6 0.000000 0.000000 0.000000 0.020682 0.000000 0.075222
#
#
# Mechanical properties :
#
#
# Convention : Reuss Voigt Hill
#
# Bulk Modulus (GPa) = 17.18160 23.05820 20.11990
# Shear Modulus (GPa) = 19.34622 23.52380 21.43501
#
# Velocity S-wave (km/s) = 2.96480 3.26927 3.12075
# Velocity P-wave (km/s) = 4.41889 4.97267 4.70394
#
# Compressibility (1/GPa) = 0.05820179
#
# Stress axis : x y z
#
# Youngs Moduli (GPa) = 47.50916 41.03275 77.60618
#
# Poissons Ratio (x) = -0.00263 -0.03888
# Poissons Ratio (y) = -0.00304 0.04785
# Poissons Ratio (z) = -0.02380 0.02530
#
# Static dielectric constant tensor:
#      x y z
#    x 1.580320 0.000000 -0.023090 
#    y 0.000000 1.850980 0.000000 
#    z -0.023090 0.000000 1.926050 
# 
# From -- ./inp_files/53359.got.cif
#   From: 2010.05.17/outbox.cif.g08.bks.cpg/sg13_27_cif.got.tgz:53359.got - 2010.06.03 16:44:36.
