data_PCOD9233423
_publ_section_title
;
Structure prediction by ZEFSAII (Michael W. Deem and Ramdas Pophale) SiO2 
 PCOD9233423
Probable space group: P 2/C
;
_chemical_formula_sum "Si O2"
_cell_formula_units_Z 28
_cell_length_a 13.522338
_cell_length_b 5.393176
_cell_length_c 17.828655
_cell_angle_alpha 90.000000
_cell_angle_beta 56.277155
_cell_angle_gamma 90.000000
_cell_volume 1081.430975
_symmetry_space_group_name_H-M "P 2/C"
_symmetry_group_IT_number 13
_symmetry_cell_setting 'monoclinic'
loop_
_space_group_symop_operation_xyz
x,y,z
-x,y,1/2-z
-x,-y,-z
x,-y,1/2+z
loop_
_atom_site_type_symbol
_atom_site_label
_atom_site_fract_x
_atom_site_fract_y
_atom_site_fract_z
Si Si1 0.038026 0.227455 0.147482
Si Si2 0.316467 0.661260 0.140295
Si Si3 0.829078 0.078587 0.678381
Si Si4 0.622911 0.722875 0.785374
Si Si5 0.181406 0.269010 0.554660
Si Si6 0.531044 0.880174 0.148788
Si Si7 0.262358 0.426619 0.891833
O O1 0.126749 0.000459 0.091288
O O2 0.000000 0.215051 0.250000
O O3 0.923339 0.138173 0.148593
O O4 0.091085 0.500685 0.111092
O O5 0.199010 0.765546 0.233703
O O6 0.327165 0.371992 0.156681
O O7 0.292395 0.707436 0.064454
O O8 0.438069 0.769729 0.126170
O O9 0.841501 0.265974 0.604006
O O10 0.702600 0.946597 0.722769
O O11 0.655426 0.516093 0.711741
O O12 0.490211 0.823077 0.849132
O O13 0.216837 0.336986 0.455623
O O14 0.500000 0.845595 0.250000
O O15 0.657833 0.749027 0.088431
#
# Coordination Sequence:
#
# PCOD9233423 Si02
#       7
#     4   4   4   4   4   4   4
#     4  12  26  47  75 100 136 197 243 286 346 431
#     4  10  22  42  67 103 130 184 235 282 340 434
#     4  10  22  41  70  99 135 181 245 284 340 423
#     4  10  21  40  72  96 135 183 234 283 339 429
#     4  12  29  46  70 107 148 181 232 300 365 404
#     4  11  21  39  70  98 129 181 237 274 347 420
#     4  11  26  43  66 108 146 176 229 305 354 413
#
# _framework density 25.891621000000001
#
# number of rings (size 3 to 8) (size 9 to 14) (size 15 to 20)
#    0.000    1.143    5.714    1.286   10.000    1.714 
#    0.000    0.714    0.000    0.000    0.000    0.000 
#    0.000    0.000    0.000    0.000    0.000    0.000 
#
# Total GULP energy -156474.982735 kJ/mol
# GULP energy per Si atom -5588.392241 kJ/mol
# Density = 2.583269 g / cm^3
# Si number density = 25.891621 Si / 1000 Ang^3
#
#
#
# Elastic Constant Matrix: (Units=GPa)
#
#
# Indices 1 2 3 4 5 6 
#
# 1 86.7223 0.2984 17.9408 0.0000 13.9160 0.0000
# 2 0.2984 74.2390 14.1951 0.0000 -11.4361 0.0000
# 3 17.9408 14.1951 65.7767 0.0000 1.5171 0.0000
# 4 0.0000 0.0000 0.0000 15.1462 0.0000 -7.6443
# 5 13.9160 -11.4361 1.5171 0.0000 23.5679 0.0000
# 6 0.0000 0.0000 0.0000 -7.6443 0.0000 49.6819
#
#
#
# Elastic Compliance Matrix: (Units=1/GPa)
#
#
# Indices 1 2 3 4 5 6 
#
# 1 0.013527 -0.000658 -0.003361 0.000000 -0.008090 0.000000
# 2 -0.000658 0.015347 -0.003318 0.000000 0.008049 0.000000
# 3 -0.003361 -0.003318 0.016852 0.000000 -0.000710 0.000000
# 4 0.000000 0.000000 0.000000 0.071582 0.000000 0.011014
# 5 -0.008090 0.008049 -0.000710 0.000000 0.051159 0.000000
# 6 0.000000 0.000000 0.000000 0.011014 0.000000 0.021823
#
#
# Mechanical properties :
#
#
# Convention : Reuss Voigt Hill
#
# Bulk Modulus (GPa) = 32.20418 32.40073 32.30246
# Shear Modulus (GPa) = 23.22190 30.63279 26.92735
#
# Velocity S-wave (km/s) = 2.99806 3.44338 3.22841
# Velocity P-wave (km/s) = 4.94465 5.32450 5.13808
#
# Compressibility (1/GPa) = 0.03105187
#
# Stress axis : x y z
#
# Youngs Moduli (GPa) = 73.92739 65.15912 59.33974
#
# Poissons Ratio (x) = 0.04287 0.19943
# Poissons Ratio (y) = 0.04864 0.19690
# Poissons Ratio (z) = 0.24846 0.21621
#
# Static dielectric constant tensor:
#      x y z
#    x 2.070200 0.000000 -0.048420 
#    y 0.000000 2.141550 0.000000 
#    z -0.048420 0.000000 2.030600 
# 
# From -- ./inp_files/67483.got.cif
#   From: 2010.05.17/outbox.cif.g08.bks.cpg/sg13_34_cif.got.tgz:67483.got - 2010.06.03 16:44:36.
