data_PCOD9233379
_publ_section_title
;
Structure prediction by ZEFSAII (Michael W. Deem and Ramdas Pophale) SiO2 
 PCOD9233379
Probable space group: P 2/C
;
_chemical_formula_sum "Si O2"
_cell_formula_units_Z 32
_cell_length_a 20.628812
_cell_length_b 9.538806
_cell_length_c 20.815602
_cell_angle_alpha 90.000000
_cell_angle_beta 19.808810
_cell_angle_gamma 90.000000
_cell_volume 1388.054334
_symmetry_space_group_name_H-M "P 2/C"
_symmetry_group_IT_number 13
_symmetry_cell_setting 'monoclinic'
loop_
_space_group_symop_operation_xyz
x,y,z
-x,y,1/2-z
-x,-y,-z
x,-y,1/2+z
loop_
_atom_site_type_symbol
_atom_site_label
_atom_site_fract_x
_atom_site_fract_y
_atom_site_fract_z
Si Si1 0.185906 0.090693 0.544661
Si Si2 0.102968 0.723236 0.416080
Si Si3 0.362663 0.452699 0.823099
Si Si4 0.931639 0.210895 0.402719
Si Si5 0.469024 0.786014 0.008167
Si Si6 0.476051 0.062346 0.172730
Si Si7 0.259971 0.413758 0.300164
Si Si8 0.615544 0.766234 0.014336
O O1 0.126705 0.930844 0.579353
O O2 0.000000 0.158554 0.750000
O O3 0.293196 0.127029 0.378549
O O4 0.341970 0.108141 0.455129
O O5 0.096058 0.791134 0.493398
O O6 0.195992 0.567321 0.335608
O O7 0.894474 0.696708 0.581932
O O8 0.247583 0.801157 0.233909
O O9 0.500000 0.508128 0.750000
O O10 0.259274 0.568057 0.877058
O O11 0.507399 0.370561 0.640151
O O12 0.204441 0.339054 0.992741
O O13 0.158907 0.234864 0.182128
O O14 0.517537 0.895957 0.907408
O O15 0.534287 0.638806 0.915537
O O16 0.581876 0.789067 0.970027
O O17 0.502670 0.894638 0.152886
#
# Coordination Sequence:
#
# PCOD9233379 Si02
#       8
#     4   4   4   4   4   4   4   4
#     4  11  22  42  63  88 127 176 216 264 327 390
#     4  10  21  40  67  99 127 162 222 276 333 385
#     4  11  24  40  64  96 134 169 222 278 333 393
#     4  11  21  37  66  98 121 165 218 279 330 381
#     4  12  23  41  65  95 131 176 212 270 337 391
#     4  11  25  40  62  95 130 170 218 266 327 410
#     4  10  22  40  65  94 129 171 218 269 331 392
#     4  12  22  39  66  99 130 168 216 280 336 386
#
# _framework density 23.053853
#
# number of rings (size 3 to 8) (size 9 to 14) (size 15 to 20)
#    0.000    1.000    6.250    1.500    0.000    1.000 
#    2.250    1.250    0.000    0.000    0.000    0.000 
#    0.000    0.000    0.000    0.000    0.000    0.000 
#
# Total GULP energy -178722.631639 kJ/mol
# GULP energy per Si atom -5585.082239 kJ/mol
# Density = 2.300138 g / cm^3
# Si number density = 23.053853 Si / 1000 Ang^3
#
#
#
# Elastic Constant Matrix: (Units=GPa)
#
#
# Indices 1 2 3 4 5 6 
#
# 1 96.1920 -3.7671 24.5735 0.0000 4.0149 0.0000
# 2 -3.7671 38.1576 8.0856 0.0000 -1.7541 0.0000
# 3 24.5735 8.0856 135.4440 0.0000 6.1880 0.0000
# 4 0.0000 0.0000 0.0000 20.4526 0.0000 3.5983
# 5 4.0149 -1.7541 6.1880 0.0000 23.6196 0.0000
# 6 0.0000 0.0000 0.0000 3.5983 0.0000 16.6166
#
#
#
# Elastic Compliance Matrix: (Units=1/GPa)
#
#
# Indices 1 2 3 4 5 6 
#
# 1 0.011023 0.001462 -0.002031 0.000000 -0.001233 0.000000
# 2 0.001462 0.026874 -0.001973 0.000000 0.002264 0.000000
# 3 -0.002031 -0.001973 0.007956 0.000000 -0.001886 0.000000
# 4 0.000000 0.000000 0.000000 0.050830 0.000000 -0.011007
# 5 -0.001233 0.002264 -0.001886 0.000000 0.043209 0.000000
# 6 0.000000 0.000000 0.000000 -0.011007 0.000000 0.062564
#
#
# Mechanical properties :
#
#
# Convention : Reuss Voigt Hill
#
# Bulk Modulus (GPa) = 24.52864 36.39752 30.46308
# Shear Modulus (GPa) = 22.61114 28.19785 25.40450
#
# Velocity S-wave (km/s) = 3.13517 3.50112 3.32318
# Velocity P-wave (km/s) = 4.87529 5.67152 5.28841
#
# Compressibility (1/GPa) = 0.04076866
#
# Stress axis : x y z
#
# Youngs Moduli (GPa) = 90.71595 37.21129 125.69894
#
# Poissons Ratio (x) = -0.05440 0.25528
# Poissons Ratio (y) = -0.13262 0.24800
# Poissons Ratio (z) = 0.18424 0.07342
#
# Static dielectric constant tensor:
#      x y z
#    x 1.867430 0.000000 0.006630 
#    y 0.000000 1.889440 0.000000 
#    z 0.006630 0.000000 1.884380 
# 
# From -- ./inp_files/81801.got.cif
#   From: 2010.05.17/outbox.cif.g08.bks.cpg/sg13_41_cif.got.tgz:81801.got - 2010.06.03 16:44:36.
