data_PCOD9233953
_publ_section_title
;
Structure prediction by ZEFSAII (Michael W. Deem and Ramdas Pophale) SiO2 
 PCOD9233953
Probable space group: P 2/C
;
_chemical_formula_sum "Si O2"
_cell_formula_units_Z 28
_cell_length_a 11.141435
_cell_length_b 4.905570
_cell_length_c 19.527175
_cell_angle_alpha 90.000000
_cell_angle_beta 82.805596
_cell_angle_gamma 90.000000
_cell_volume 1058.856893
_symmetry_space_group_name_H-M "P 2/C"
_symmetry_group_IT_number 13
_symmetry_cell_setting 'monoclinic'
loop_
_space_group_symop_operation_xyz
x,y,z
-x,y,1/2-z
-x,-y,-z
x,-y,1/2+z
loop_
_atom_site_type_symbol
_atom_site_label
_atom_site_fract_x
_atom_site_fract_y
_atom_site_fract_z
Si Si1 0.156661 0.720056 0.949962
Si Si2 0.852575 0.704143 0.170744
Si Si3 0.626261 0.042517 0.123594
Si Si4 0.500000 0.404221 0.250000
Si Si5 0.500000 0.000000 0.000000
Si Si6 0.709907 0.283775 0.810656
Si Si7 0.047011 0.886967 0.079458
Si Si8 0.722333 0.221815 0.399381
O O1 0.136248 0.539024 0.884923
O O2 0.299873 0.771813 0.937862
O O3 0.101286 0.648568 0.027446
O O4 0.077164 0.992552 0.943962
O O5 0.733824 0.873324 0.152175
O O6 0.815231 0.641504 0.249937
O O7 0.987997 0.823030 0.156815
O O8 0.565011 0.221600 0.187126
O O9 0.536096 0.894770 0.078009
O O10 0.408943 0.604144 0.217616
O O11 0.387498 0.172858 0.041010
O O12 0.705415 0.968477 0.832442
O O13 0.726866 0.466807 0.876532
O O14 0.154654 0.099534 0.079017
#
# Coordination Sequence:
#
# PCOD9233953 Si02
#       8
#     4   4   4   2   2   4   4   4
#     4  10  21  45  72 107 137 198 254 308 372 460
#     4  11  25  44  75 105 145 203 256 311 373 463
#     4  11  24  46  74 109 151 196 256 309 381 447
#     4  12  24  50  74 106 154 202 254 308 368 476
#     4  12  26  48  76 114 156 200 244 326 384 444
#     4  12  29  48  75 111 151 204 254 307 383 456
#     4  10  24  45  72 104 150 192 250 316 383 447
#     4  12  29  50  74 115 155 195 251 320 387 456
#
# _framework density 26.443612999999999
#
# number of rings (size 3 to 8) (size 9 to 14) (size 15 to 20)
#    0.000    0.857    4.286    1.286    6.000    2.857 
#    0.000    0.000    0.000    0.000    0.000    0.000 
#    0.000    0.000    0.000    0.000    0.000    0.000 
#
# Total GULP energy -156079.560740 kJ/mol
# GULP energy per Si atom -5574.270026 kJ/mol
# Density = 2.638343 g / cm^3
# Si number density = 26.443613 Si / 1000 Ang^3
#
#
#
# Elastic Constant Matrix: (Units=GPa)
#
#
# Indices 1 2 3 4 5 6 
#
# 1 80.0478 5.8036 58.8005 0.0000 -6.4203 0.0000
# 2 5.8036 63.0727 25.1678 0.0000 -1.7296 0.0000
# 3 58.8005 25.1678 150.7451 0.0000 -21.3217 0.0000
# 4 0.0000 0.0000 0.0000 33.8482 0.0000 7.5413
# 5 -6.4203 -1.7296 -21.3217 0.0000 63.2872 0.0000
# 6 0.0000 0.0000 0.0000 7.5413 0.0000 19.0279
#
#
#
# Elastic Compliance Matrix: (Units=1/GPa)
#
#
# Indices 1 2 3 4 5 6 
#
# 1 0.017615 0.001219 -0.007158 0.000000 -0.000591 0.000000
# 2 0.001219 0.017087 -0.003407 0.000000 -0.000557 0.000000
# 3 -0.007158 -0.003407 0.010373 0.000000 0.002675 0.000000
# 4 0.000000 0.000000 0.000000 0.032405 0.000000 -0.012843
# 5 -0.000591 -0.000557 0.002675 0.000000 0.016627 0.000000
# 6 0.000000 0.000000 0.000000 -0.012843 0.000000 0.057644
#
#
# Mechanical properties :
#
#
# Convention : Reuss Voigt Hill
#
# Bulk Modulus (GPa) = 37.90361 52.60104 45.25233
# Shear Modulus (GPa) = 27.89592 36.83892 32.36742
#
# Velocity S-wave (km/s) = 3.25148 3.73649 3.50239
# Velocity P-wave (km/s) = 5.33489 6.20887 5.78840
#
# Compressibility (1/GPa) = 0.02638271
#
# Stress axis : x y z
#
# Youngs Moduli (GPa) = 56.77030 58.52471 96.40301
#
# Poissons Ratio (x) = -0.07136 0.69007
# Poissons Ratio (y) = -0.06922 0.32846
# Poissons Ratio (z) = 0.40637 0.19940
#
# Static dielectric constant tensor:
#      x y z
#    x 2.170420 0.000000 0.082810 
#    y 0.000000 2.194840 0.000000 
#    z 0.082810 0.000000 2.290240 
# 
# From -- ./inp_files/77487.got.cif
#   From: 2010.05.17/outbox.cif.g08.bks.cpg/sg13_39_cif.got.tgz:77487.got - 2010.06.03 16:44:36.
