data_PCOD9233185
_publ_section_title
;
Structure prediction by ZEFSAII (Michael W. Deem and Ramdas Pophale) SiO2 
 PCOD9233185
Probable space group: P 2/C
;
_chemical_formula_sum "Si O2"
_cell_formula_units_Z 24
_cell_length_a 24.066351
_cell_length_b 5.249349
_cell_length_c 14.951521
_cell_angle_alpha 90.000000
_cell_angle_beta 148.333775
_cell_angle_gamma 90.000000
_cell_volume 991.597838
_symmetry_space_group_name_H-M "P 2/C"
_symmetry_group_IT_number 13
_symmetry_cell_setting 'monoclinic'
loop_
_space_group_symop_operation_xyz
x,y,z
-x,y,1/2-z
-x,-y,-z
x,-y,1/2+z
loop_
_atom_site_type_symbol
_atom_site_label
_atom_site_fract_x
_atom_site_fract_y
_atom_site_fract_z
Si Si1 0.286483 0.574187 0.214876
Si Si2 0.382577 0.149599 0.604438
Si Si3 0.182056 0.535688 0.901116
Si Si4 0.985956 0.246713 0.040812
Si Si5 0.237644 0.774092 0.312114
Si Si6 0.604060 0.083797 0.192266
O O1 0.291016 0.548344 0.328833
O O2 0.372603 0.373082 0.299290
O O3 0.312020 0.868734 0.226017
O O4 0.189982 0.485348 0.017531
O O5 0.500000 0.263213 0.750000
O O6 0.291505 0.329723 0.520384
O O7 0.321793 0.995315 0.442977
O O8 0.404348 0.944967 0.712990
O O9 0.187261 0.297017 0.839398
O O10 0.079549 0.709220 0.739855
O O11 0.862445 0.206396 0.893721
O O12 0.000000 0.500000 0.000000
O O13 0.000000 0.000000 0.000000
O O14 0.500000 0.000000 0.000000
#
# Coordination Sequence:
#
# PCOD9233185 Si02
#       6
#     4   4   4   4   4   4
#     4  11  25  40  67  95 134 171 221 282 334 406
#     4  11  23  39  66  95 129 181 224 277 339 407
#     4  10  23  44  63  96 139 168 228 282 345 401
#     4  10  21  39  70  93 128 174 216 276 338 402
#     4  11  23  41  67  96 132 176 229 274 345 414
#     4  11  24  44  61  92 135 174 222 281 331 392
#
# _framework density 24.203361999999998
#
# number of rings (size 3 to 8) (size 9 to 14) (size 15 to 20)
#    0.000    1.333    3.333    1.500    4.667    1.333 
#    0.000    0.000    0.000    4.000    0.000    0.000 
#    0.000    0.000    0.000    0.000    0.000    0.000 
#
# Total GULP energy -133676.249389 kJ/mol
# GULP energy per Si atom -5569.843725 kJ/mol
# Density = 2.414827 g / cm^3
# Si number density = 24.203362 Si / 1000 Ang^3
#
#
#
# Elastic Constant Matrix: (Units=GPa)
#
#
# Indices 1 2 3 4 5 6 
#
# 1 36.1605 3.6112 13.6236 0.0000 -12.7017 0.0000
# 2 3.6112 71.7667 23.0893 0.0000 -3.3332 0.0000
# 3 13.6236 23.0893 153.0078 0.0000 18.5606 0.0000
# 4 0.0000 0.0000 0.0000 35.2326 0.0000 -2.0618
# 5 -12.7017 -3.3332 18.5606 0.0000 50.3682 0.0000
# 6 0.0000 0.0000 0.0000 -2.0618 0.0000 26.0692
#
#
#
# Elastic Compliance Matrix: (Units=1/GPa)
#
#
# Indices 1 2 3 4 5 6 
#
# 1 0.032611 0.000133 -0.004106 0.000000 0.009746 0.000000
# 2 0.000133 0.014815 -0.002481 0.000000 0.001928 0.000000
# 3 -0.004106 -0.002481 0.007768 0.000000 -0.004062 0.000000
# 4 0.000000 0.000000 0.000000 0.028515 0.000000 0.002255
# 5 0.009746 0.001928 -0.004062 0.000000 0.023936 0.000000
# 6 0.000000 0.000000 0.000000 0.002255 0.000000 0.038538
#
#
# Mechanical properties :
#
#
# Convention : Reuss Voigt Hill
#
# Bulk Modulus (GPa) = 23.64861 37.95368 30.80114
# Shear Modulus (GPa) = 28.87035 37.04140 32.95588
#
# Velocity S-wave (km/s) = 3.45748 3.91631 3.69402
# Velocity P-wave (km/s) = 5.07256 6.01375 5.56309
#
# Compressibility (1/GPa) = 0.04228578
#
# Stress axis : x y z
#
# Youngs Moduli (GPa) = 30.66417 67.49804 128.72644
#
# Poissons Ratio (x) = -0.00895 0.52853
# Poissons Ratio (y) = -0.00407 0.31942
# Poissons Ratio (z) = 0.12590 0.16749
#
# Static dielectric constant tensor:
#      x y z
#    x 2.402510 0.000000 0.069520 
#    y 0.000000 1.990490 0.000000 
#    z 0.069520 0.000000 2.078650 
# 
# From -- ./inp_files/52103.got.cif
#   From: 2010.05.17/outbox.cif.g08.bks.cpg/sg13_27_cif.got.tgz:52103.got - 2010.06.03 16:44:36.
