data_PCOD9233181
_publ_section_title
;
Structure prediction by ZEFSAII (Michael W. Deem and Ramdas Pophale) SiO2 
 PCOD9233181
Probable space group: P 2/C
;
_chemical_formula_sum "Si O2"
_cell_formula_units_Z 28
_cell_length_a 12.727648
_cell_length_b 5.312464
_cell_length_c 24.430475
_cell_angle_alpha 90.000000
_cell_angle_beta 46.019461
_cell_angle_gamma 90.000000
_cell_volume 1188.646071
_symmetry_space_group_name_H-M "P 2/C"
_symmetry_group_IT_number 13
_symmetry_cell_setting 'monoclinic'
loop_
_space_group_symop_operation_xyz
x,y,z
-x,y,1/2-z
-x,-y,-z
x,-y,1/2+z
loop_
_atom_site_type_symbol
_atom_site_label
_atom_site_fract_x
_atom_site_fract_y
_atom_site_fract_z
Si Si1 0.831300 0.874362 0.297184
Si Si2 0.722838 0.203844 0.244892
Si Si3 0.748323 0.343203 0.942032
Si Si4 0.636993 0.146931 0.539642
Si Si5 0.034222 0.517112 0.395337
Si Si6 0.629828 0.293009 0.792428
Si Si7 0.128957 0.201828 0.956544
O O1 0.760288 0.124417 0.294866
O O2 0.000000 0.915671 0.250000
O O3 0.757604 0.743686 0.375928
O O4 0.793970 0.689158 0.259926
O O5 0.875253 0.284096 0.162164
O O6 0.609992 0.430679 0.278124
O O7 0.643960 0.954304 0.251370
O O8 0.918237 0.337228 0.899933
O O9 0.693181 0.623706 0.979554
O O10 0.653182 0.122688 0.004654
O O11 0.481434 0.230455 0.618880
O O12 0.730320 0.110555 0.561885
O O13 0.145568 0.685765 0.390184
O O14 0.927191 0.413059 0.481154
O O15 0.000000 0.000000 0.000000
#
# Coordination Sequence:
#
# PCOD9233181 Si02
#       7
#     4   4   4   4   4   4   4
#     4  10  25  40  64  97 130 171 225 270 329 398
#     4  10  24  41  66  89 134 171 216 268 330 390
#     4  11  24  38  68  96 130 177 219 272 335 388
#     4  11  24  43  66  93 137 174 220 274 329 395
#     4  10  22  40  66 101 130 168 222 281 334 386
#     4  10  24  44  62  93 134 176 212 269 326 398
#     4  10  21  39  69  99 125 169 224 279 329 391
#
# _framework density 23.556211000000001
#
# number of rings (size 3 to 8) (size 9 to 14) (size 15 to 20)
#    0.857    0.857    1.429    1.714    8.000    1.714 
#    0.000    0.714    0.000    0.000    0.000    0.000 
#    0.000    0.000    0.000    0.000    0.000    0.000 
#
# Total GULP energy -155913.751803 kJ/mol
# GULP energy per Si atom -5568.348279 kJ/mol
# Density = 2.350260 g / cm^3
# Si number density = 23.556211 Si / 1000 Ang^3
#
#
#
# Elastic Constant Matrix: (Units=GPa)
#
#
# Indices 1 2 3 4 5 6 
#
# 1 56.6973 9.6387 -3.4196 0.0000 5.6120 0.0000
# 2 9.6387 134.3130 25.5167 0.0000 10.1374 0.0000
# 3 -3.4196 25.5167 72.3488 0.0000 -7.3849 0.0000
# 4 0.0000 0.0000 0.0000 43.4018 0.0000 2.8736
# 5 5.6120 10.1374 -7.3849 0.0000 27.4873 0.0000
# 6 0.0000 0.0000 0.0000 2.8736 0.0000 16.8010
#
#
#
# Elastic Compliance Matrix: (Units=1/GPa)
#
#
# Indices 1 2 3 4 5 6 
#
# 1 0.018209 -0.001273 0.001006 0.000000 -0.002978 0.000000
# 2 -0.001273 0.008475 -0.003436 0.000000 -0.003789 0.000000
# 3 0.001006 -0.003436 0.015618 0.000000 0.005258 0.000000
# 4 0.000000 0.000000 0.000000 0.023304 0.000000 -0.003986
# 5 -0.002978 -0.003789 0.005258 0.000000 0.039798 0.000000
# 6 0.000000 0.000000 0.000000 -0.003986 0.000000 0.060202
#
#
# Mechanical properties :
#
#
# Convention : Reuss Voigt Hill
#
# Bulk Modulus (GPa) = 28.65667 36.31451 32.48559
# Shear Modulus (GPa) = 27.07874 32.97958 30.02916
#
# Velocity S-wave (km/s) = 3.39416 3.74577 3.57429
# Velocity P-wave (km/s) = 5.24901 5.84442 5.55470
#
# Compressibility (1/GPa) = 0.03489588
#
# Stress axis : x y z
#
# Youngs Moduli (GPa) = 54.91673 117.98817 64.02845
#
# Poissons Ratio (x) = 0.15020 -0.06439
# Poissons Ratio (y) = 0.06991 0.22001
# Poissons Ratio (z) = -0.05523 0.40542
#
# Static dielectric constant tensor:
#      x y z
#    x 1.961540 0.000000 -0.016900 
#    y 0.000000 2.022460 0.000000 
#    z -0.016900 0.000000 2.009670 
# 
# From -- ./inp_files/92644.got.cif
#   From: 2010.05.17/outbox.cif.g08.bks.cpg/sg13_47_cif.got.tgz:92644.got - 2010.06.03 16:44:36.
