data_PCOD9233253
_publ_section_title
;
Structure prediction by ZEFSAII (Michael W. Deem and Ramdas Pophale) SiO2 
 PCOD9233253
Probable space group: P 2/C
;
_chemical_formula_sum "Si O2"
_cell_formula_units_Z 20
_cell_length_a 8.156938
_cell_length_b 9.657923
_cell_length_c 25.127109
_cell_angle_alpha 90.000000
_cell_angle_beta 30.232156
_cell_angle_gamma 90.000000
_cell_volume 996.683215
_symmetry_space_group_name_H-M "P 2/C"
_symmetry_group_IT_number 13
_symmetry_cell_setting 'monoclinic'
loop_
_space_group_symop_operation_xyz
x,y,z
-x,y,1/2-z
-x,-y,-z
x,-y,1/2+z
loop_
_atom_site_type_symbol
_atom_site_label
_atom_site_fract_x
_atom_site_fract_y
_atom_site_fract_z
Si Si1 0.279514 0.661340 0.760132
Si Si2 0.096159 0.936481 0.661609
Si Si3 0.201969 0.424063 0.639698
Si Si4 0.203105 0.179316 0.559666
Si Si5 0.768307 0.400424 0.030910
O O1 0.500000 0.651455 0.750000
O O2 0.517475 0.665682 0.642821
O O3 0.071783 0.799547 0.814121
O O4 0.041567 0.529747 0.821842
O O5 0.480682 0.900440 0.551409
O O6 0.000000 0.961851 0.750000
O O7 0.007904 0.062077 0.646543
O O8 0.286690 0.289911 0.582161
O O9 0.531851 0.505277 0.561119
O O10 0.000000 0.387716 0.750000
O O11 0.069903 0.278596 0.549733
O O12 0.000000 0.500000 0.000000
#
# Coordination Sequence:
#
# PCOD9233253 Si02
#       5
#     4   4   4   4   4
#     4  11  22  40  63  91 131 173 212 275 337 384
#     4  11  22  42  62  92 131 174 219 259 330 401
#     4  10  21  40  62  95 127 165 216 270 330 389
#     4  11  22  38  67  93 124 173 216 265 327 392
#     4  11  22  38  66  99 127 163 226 274 328 391
#
# _framework density 20.066555999999999
#
# number of rings (size 3 to 8) (size 9 to 14) (size 15 to 20)
#    0.000    1.200    4.000    3.000    2.800    0.000 
#    0.000    8.000    0.000    0.000    0.000    0.000 
#    0.000    0.000    0.000    0.000    0.000    0.000 
#
# Total GULP energy -111668.189291 kJ/mol
# GULP energy per Si atom -5583.409465 kJ/mol
# Density = 2.002088 g / cm^3
# Si number density = 20.066556 Si / 1000 Ang^3
#
#
#
# Elastic Constant Matrix: (Units=GPa)
#
#
# Indices 1 2 3 4 5 6 
#
# 1 61.5779 8.4905 14.2696 0.0000 8.3804 0.0000
# 2 8.4905 79.8848 23.1819 0.0000 22.4345 0.0000
# 3 14.2696 23.1819 73.2563 0.0000 26.0766 0.0000
# 4 0.0000 0.0000 0.0000 39.7183 0.0000 11.1397
# 5 8.3804 22.4345 26.0766 0.0000 31.7534 0.0000
# 6 0.0000 0.0000 0.0000 11.1397 0.0000 39.1459
#
#
#
# Elastic Compliance Matrix: (Units=1/GPa)
#
#
# Indices 1 2 3 4 5 6 
#
# 1 0.017165 -0.000511 -0.002399 0.000000 -0.002199 0.000000
# 2 -0.000511 0.015739 -0.001372 0.000000 -0.009859 0.000000
# 3 -0.002399 -0.001372 0.019757 0.000000 -0.014623 0.000000
# 4 0.000000 0.000000 0.000000 0.027361 0.000000 -0.007786
# 5 -0.002199 -0.009859 -0.014623 0.000000 0.051047 0.000000
# 6 0.000000 0.000000 0.000000 -0.007786 0.000000 0.027761
#
#
# Mechanical properties :
#
#
# Convention : Reuss Voigt Hill
#
# Bulk Modulus (GPa) = 22.67651 34.06702 28.37176
# Shear Modulus (GPa) = 27.45841 33.37531 30.41686
#
# Velocity S-wave (km/s) = 3.70316 4.08270 3.89755
# Velocity P-wave (km/s) = 5.44148 6.26406 5.86720
#
# Compressibility (1/GPa) = 0.04409850
#
# Stress axis : x y z
#
# Youngs Moduli (GPa) = 58.25715 63.53623 50.61417
#
# Poissons Ratio (x) = 0.03244 0.12143
# Poissons Ratio (y) = 0.02974 0.06943
# Poissons Ratio (z) = 0.13977 0.08716
#
# Static dielectric constant tensor:
#      x y z
#    x 1.168860 0.000000 -0.093510 
#    y 0.000000 1.735740 0.000000 
#    z -0.093510 0.000000 1.715960 
# 
# From -- ./inp_files/63575.got.cif
#   From: 2010.05.17/outbox.cif.g08.bks.cpg/sg13_32_cif.got.tgz:63575.got - 2010.06.03 16:44:36.
