data_PCOD9233258
_publ_section_title
;
Structure prediction by ZEFSAII (Michael W. Deem and Ramdas Pophale) SiO2 
 PCOD9233258
Probable space group: P 2/C
;
_chemical_formula_sum "Si O2"
_cell_formula_units_Z 20
_cell_length_a 22.741655
_cell_length_b 4.959111
_cell_length_c 15.764154
_cell_angle_alpha 90.000000
_cell_angle_beta 28.409329
_cell_angle_gamma 90.000000
_cell_volume 845.845945
_symmetry_space_group_name_H-M "P 2/C"
_symmetry_group_IT_number 13
_symmetry_cell_setting 'monoclinic'
loop_
_space_group_symop_operation_xyz
x,y,z
-x,y,1/2-z
-x,-y,-z
x,-y,1/2+z
loop_
_atom_site_type_symbol
_atom_site_label
_atom_site_fract_x
_atom_site_fract_y
_atom_site_fract_z
Si Si1 0.898931 0.714676 0.093761
Si Si2 0.659047 0.223915 0.802931
Si Si3 0.225335 0.340550 0.575411
Si Si4 0.076825 0.870699 0.732062
Si Si5 0.579347 0.724729 0.799159
O O1 0.790927 0.656055 0.162318
O O2 0.811928 0.769527 0.284974
O O3 0.000000 0.500000 0.000000
O O4 0.985352 0.911867 0.928623
O O5 0.600620 0.428089 0.809611
O O6 0.655267 0.934407 0.762335
O O7 0.563502 0.207697 0.003004
O O8 0.180965 0.649082 0.623469
O O9 0.361911 0.284334 0.368462
O O10 0.137116 0.152479 0.630169
O O11 0.000000 0.764362 0.750000
#
# Coordination Sequence:
#
# PCOD9233258 Si02
#       5
#     4   4   4   4   4
#     4  10  23  39  58  89 124 155 189 241 302 354
#     4  10  22  40  62  85 117 153 199 243 288 349
#     4  11  22  36  57  85 116 148 193 239 292 346
#     4  11  22  37  58  82 115 155 193 235 283 348
#     4  10  21  40  63  86 111 155 202 244 285 341
#
# _framework density 23.644970000000001
#
# number of rings (size 3 to 8) (size 9 to 14) (size 15 to 20)
#    0.000    1.600    0.000    4.800    0.000    8.800 
#    0.000    0.000    0.000   12.000    0.000    0.000 
#    0.000    0.000    0.000    0.000    0.000    0.000 
#
# Total GULP energy -111500.266074 kJ/mol
# GULP energy per Si atom -5575.013304 kJ/mol
# Density = 2.359115 g / cm^3
# Si number density = 23.644970 Si / 1000 Ang^3
#
#
#
# Elastic Constant Matrix: (Units=GPa)
#
#
# Indices 1 2 3 4 5 6 
#
# 1 38.8940 -5.1932 43.3159 0.0000 -4.5359 0.0000
# 2 -5.1932 81.3204 18.7339 0.0000 3.0937 0.0000
# 3 43.3159 18.7339 192.6421 0.0000 38.4284 0.0000
# 4 0.0000 0.0000 0.0000 16.9802 0.0000 4.3475
# 5 -4.5359 3.0937 38.4284 0.0000 48.5809 0.0000
# 6 0.0000 0.0000 0.0000 4.3475 0.0000 9.1309
#
#
#
# Elastic Compliance Matrix: (Units=1/GPa)
#
#
# Indices 1 2 3 4 5 6 
#
# 1 0.042108 0.005092 -0.012684 0.000000 0.013641 0.000000
# 2 0.005092 0.013196 -0.002797 0.000000 0.001847 0.000000
# 3 -0.012684 -0.002797 0.010111 0.000000 -0.009004 0.000000
# 4 0.000000 0.000000 0.000000 0.067068 0.000000 -0.031934
# 5 0.013641 0.001847 -0.009004 0.000000 0.028863 0.000000
# 6 0.000000 0.000000 0.000000 -0.031934 0.000000 0.124723
#
#
# Mechanical properties :
#
#
# Convention : Reuss Voigt Hill
#
# Bulk Modulus (GPa) = 22.40259 47.39663 34.89961
# Shear Modulus (GPa) = 15.54113 32.00505 23.77309
#
# Velocity S-wave (km/s) = 2.56651 3.68308 3.17427
# Velocity P-wave (km/s) = 4.27525 6.17862 5.31287
#
# Compressibility (1/GPa) = 0.04463769
#
# Stress axis : x y z
#
# Youngs Moduli (GPa) = 23.74845 75.77906 98.89976
#
# Poissons Ratio (x) = -0.38589 1.25448
# Poissons Ratio (y) = -0.12093 0.27661
# Poissons Ratio (z) = 0.30123 0.21194
#
# Static dielectric constant tensor:
#      x y z
#    x 1.952450 0.000000 0.023130 
#    y 0.000000 1.847100 0.000000 
#    z 0.023130 0.000000 1.944720 
# 
# From -- ./inp_files/56368.got.cif
#   From: 2010.05.17/outbox.cif.g08.bks.cpg/sg13_29_cif.got.tgz:56368.got - 2010.06.03 16:44:36.
