data_PCOD9233780
_publ_section_title
;
Structure prediction by ZEFSAII (Michael W. Deem and Ramdas Pophale) SiO2 
 PCOD9233780
Probable space group: P 2/C
;
_chemical_formula_sum "Si O2"
_cell_formula_units_Z 30
_cell_length_a 6.549816
_cell_length_b 15.751741
_cell_length_c 15.607953
_cell_angle_alpha 90.000000
_cell_angle_beta 110.531533
_cell_angle_gamma 90.000000
_cell_volume 1508.001582
_symmetry_space_group_name_H-M "P 2/C"
_symmetry_group_IT_number 13
_symmetry_cell_setting 'monoclinic'
loop_
_space_group_symop_operation_xyz
x,y,z
-x,y,1/2-z
-x,-y,-z
x,-y,1/2+z
loop_
_atom_site_type_symbol
_atom_site_label
_atom_site_fract_x
_atom_site_fract_y
_atom_site_fract_z
Si Si1 0.500000 0.894031 0.750000
Si Si2 0.252040 0.784145 0.575964
Si Si3 0.045442 0.624695 0.980466
Si Si4 0.211095 0.000532 0.835836
Si Si5 0.113374 0.087267 0.490852
Si Si6 0.258982 0.477147 0.930663
Si Si7 0.564778 0.168595 0.572791
Si Si8 0.489532 0.656674 0.350542
O O1 0.346333 0.831580 0.672603
O O2 0.386943 0.957338 0.800245
O O3 0.421922 0.790788 0.521428
O O4 0.123537 0.697208 0.574555
O O5 0.056832 0.841481 0.513991
O O6 0.270375 0.649126 0.066087
O O7 0.891014 0.574427 0.024606
O O8 0.129568 0.566936 0.913134
O O9 0.277991 0.088255 0.890578
O O10 0.000000 0.018610 0.750000
O O11 0.160478 0.928764 0.898214
O O12 0.338207 0.121365 0.560728
O O13 0.000000 0.000000 0.500000
O O14 0.321706 0.414884 0.861860
O O15 0.500000 0.500000 0.000000
O O16 0.597086 0.249464 0.638197
O O17 0.500000 0.647318 0.250000
#
# Coordination Sequence:
#
# PCOD9233780 Si02
#       8
#     2   4   4   4   4   4   4   4
#     4  12  26  42  64  94 132 178 232 296 328 384
#     4  12  23  42  70  94 129 175 229 278 337 400
#     4  10  21  42  73  98 128 180 213 265 344 408
#     4  12  26  40  60  93 132 177 226 281 333 387
#     4  12  23  41  63  87 125 181 230 268 333 398
#     4   9  20  42  72  96 129 171 214 262 334 412
#     4  12  25  40  63  96 133 181 225 274 338 407
#     4  11  24  40  67 104 140 172 220 276 327 401
#
# _framework density 19.893878000000001
#
# number of rings (size 3 to 8) (size 9 to 14) (size 15 to 20)
#    0.000    0.800    6.667    1.200    0.933    1.600 
#    0.000    0.000   16.133    0.000    0.000    0.000 
#    0.000    0.000    0.000    0.000    0.000    0.000 
#
# Total GULP energy -167034.532105 kJ/mol
# GULP energy per Si atom -5567.817737 kJ/mol
# Density = 1.984860 g / cm^3
# Si number density = 19.893878 Si / 1000 Ang^3
#
#
#
# Elastic Constant Matrix: (Units=GPa)
#
#
# Indices 1 2 3 4 5 6 
#
# 1 88.8158 38.2077 14.4120 0.0000 -16.6033 0.0000
# 2 38.2077 99.7660 18.5603 0.0000 0.9049 0.0000
# 3 14.4120 18.5603 44.5189 0.0000 -11.2048 0.0000
# 4 0.0000 0.0000 0.0000 32.6292 0.0000 10.7889
# 5 -16.6033 0.9049 -11.2048 0.0000 37.0838 0.0000
# 6 0.0000 0.0000 0.0000 10.7889 0.0000 40.7906
#
#
#
# Elastic Compliance Matrix: (Units=1/GPa)
#
#
# Indices 1 2 3 4 5 6 
#
# 1 0.015079 -0.005678 -0.000844 0.000000 0.006635 0.000000
# 2 -0.005678 0.013112 -0.004707 0.000000 -0.004284 0.000000
# 3 -0.000844 -0.004707 0.026659 0.000000 0.007792 0.000000
# 4 0.000000 0.000000 0.000000 0.033584 0.000000 -0.008883
# 5 0.006635 -0.004284 0.007792 0.000000 0.032395 0.000000
# 6 0.000000 0.000000 0.000000 -0.008883 0.000000 0.026865
#
#
# Mechanical properties :
#
#
# Convention : Reuss Voigt Hill
#
# Bulk Modulus (GPa) = 30.87169 41.71785 36.29477
# Shear Modulus (GPa) = 27.63167 32.89542 30.26355
#
# Velocity S-wave (km/s) = 3.73091 4.07079 3.90455
# Velocity P-wave (km/s) = 5.84050 6.56589 6.21379
#
# Compressibility (1/GPa) = 0.03239214
#
# Stress axis : x y z
#
# Youngs Moduli (GPa) = 66.31655 76.26314 37.51049
#
# Poissons Ratio (x) = 0.43302 0.03168
# Poissons Ratio (y) = 0.37654 0.17656
# Poissons Ratio (z) = 0.05600 0.35896
#
# Static dielectric constant tensor:
#      x y z
#    x 1.716710 0.000000 -0.074720 
#    y 0.000000 1.863750 0.000000 
#    z -0.074720 0.000000 1.746590 
# 
# From -- ./inp_files/61640.got.cif
#   From: 2010.05.17/outbox.cif.g08.bks.cpg/sg13_31_cif.got.tgz:61640.got - 2010.06.03 16:44:36.
