data_PCOD9233197
_publ_section_title
;
Structure prediction by ZEFSAII (Michael W. Deem and Ramdas Pophale) SiO2 
 PCOD9233197
Probable space group: P 2/C
;
_chemical_formula_sum "Si O2"
_cell_formula_units_Z 28
_cell_length_a 25.514861
_cell_length_b 11.538872
_cell_length_c 25.749103
_cell_angle_alpha 90.000000
_cell_angle_beta 11.283152
_cell_angle_gamma 90.000000
_cell_volume 1483.254912
_symmetry_space_group_name_H-M "P 2/C"
_symmetry_group_IT_number 13
_symmetry_cell_setting 'monoclinic'
loop_
_space_group_symop_operation_xyz
x,y,z
-x,y,1/2-z
-x,-y,-z
x,-y,1/2+z
loop_
_atom_site_type_symbol
_atom_site_label
_atom_site_fract_x
_atom_site_fract_y
_atom_site_fract_z
Si Si1 0.390223 0.675704 0.414020
Si Si2 0.753909 0.857546 0.271511
Si Si3 0.089347 0.480597 0.472577
Si Si4 0.709755 0.595328 0.504760
Si Si5 0.788962 0.133822 0.248729
Si Si6 0.374774 0.667093 0.026212
Si Si7 0.928500 0.715919 0.941864
O O1 0.500000 0.709110 0.250000
O O2 0.382910 0.535295 0.420235
O O3 0.102788 0.704906 0.719183
O O4 0.617862 0.728243 0.229864
O O5 0.519030 0.829566 0.458259
O O6 0.648484 0.792233 0.424748
O O7 0.779792 0.994427 0.256572
O O8 0.034980 0.823367 0.971907
O O9 0.069157 0.599431 0.525112
O O10 0.000000 0.500000 0.500000
O O11 0.871704 0.399019 0.709279
O O12 0.368678 0.411931 0.208189
O O13 0.680294 0.668599 0.481343
O O14 0.000000 0.589789 0.250000
O O15 0.500000 0.641442 0.750000
O O16 0.935484 0.184543 0.156267
#
# Coordination Sequence:
#
# PCOD9233197 Si02
#       7
#     4   4   4   4   4   4   4
#     4  11  22  36  56  80 115 150 193 235 282 350
#     4  10  21  40  58  84 112 152 197 231 279 347
#     4  12  23  34  52  85 121 147 177 229 295 353
#     4  11  21  36  55  79 112 152 193 234 281 348
#     4  10  22  38  61  82 113 153 194 235 277 345
#     4  12  22  37  56  83 114 151 187 235 288 343
#     4  12  20  37  55  85 114 150 189 234 290 344
#
# _framework density 18.877402
#
# number of rings (size 3 to 8) (size 9 to 14) (size 15 to 20)
#    0.000    0.857    2.857    6.857    0.000    0.000 
#    0.000    0.000    0.000    2.571    0.000    0.000 
#    0.000    0.000    0.000    0.000    0.000    0.000 
#
# Total GULP energy -156217.971966 kJ/mol
# GULP energy per Si atom -5579.213285 kJ/mol
# Density = 1.883444 g / cm^3
# Si number density = 18.877402 Si / 1000 Ang^3
#
#
#
# Elastic Constant Matrix: (Units=GPa)
#
#
# Indices 1 2 3 4 5 6 
#
# 1 115.1780 31.4662 41.9560 0.0000 4.8878 0.0000
# 2 31.4662 35.6525 29.8826 0.0000 -7.0811 0.0000
# 3 41.9560 29.8826 162.0079 0.0000 -1.2761 0.0000
# 4 0.0000 0.0000 0.0000 39.7370 0.0000 -10.5072
# 5 4.8878 -7.0811 -1.2761 0.0000 40.3411 0.0000
# 6 0.0000 0.0000 0.0000 -10.5072 0.0000 17.0644
#
#
#
# Elastic Compliance Matrix: (Units=1/GPa)
#
#
# Indices 1 2 3 4 5 6 
#
# 1 0.012087 -0.010266 -0.001263 0.000000 -0.003306 0.000000
# 2 -0.010266 0.043228 -0.005246 0.000000 0.008666 0.000000
# 3 -0.001263 -0.005246 0.007463 0.000000 -0.000532 0.000000
# 4 0.000000 0.000000 0.000000 0.030060 0.000000 0.018509
# 5 -0.003306 0.008666 -0.000532 0.000000 0.026693 0.000000
# 6 0.000000 0.000000 0.000000 0.018509 0.000000 0.069998
#
#
# Mechanical properties :
#
#
# Convention : Reuss Voigt Hill
#
# Bulk Modulus (GPa) = 34.21470 57.71645 45.96558
# Shear Modulus (GPa) = 21.47560 33.39742 27.43651
#
# Velocity S-wave (km/s) = 3.37654 4.21072 3.81649
# Velocity P-wave (km/s) = 5.77628 7.36756 6.61991
#
# Compressibility (1/GPa) = 0.02922720
#
# Stress axis : x y z
#
# Youngs Moduli (GPa) = 82.73219 23.13328 133.99310
#
# Poissons Ratio (x) = 0.23749 0.16919
# Poissons Ratio (y) = 0.84935 0.70299
# Poissons Ratio (z) = 0.10447 0.12137
#
# Static dielectric constant tensor:
#      x y z
#    x 1.865150 0.000000 -0.361250 
#    y 0.000000 1.695030 0.000000 
#    z -0.361250 0.000000 2.160680 
# 
# From -- ./inp_files/94138.got.cif
#   From: 2010.05.17/outbox.cif.g08.bks.cpg/sg13_48_cif.got.tgz:94138.got - 2010.06.03 16:44:36.
