data_PCOD9233539
_publ_section_title
;
Structure prediction by ZEFSAII (Michael W. Deem and Ramdas Pophale) SiO2 
 PCOD9233539
Probable space group: P 2/C
;
_chemical_formula_sum "Si O2"
_cell_formula_units_Z 24
_cell_length_a 13.665879
_cell_length_b 5.183606
_cell_length_c 18.333739
_cell_angle_alpha 90.000000
_cell_angle_beta 53.630845
_cell_angle_gamma 90.000000
_cell_volume 1045.758627
_symmetry_space_group_name_H-M "P 2/C"
_symmetry_group_IT_number 13
_symmetry_cell_setting 'monoclinic'
loop_
_space_group_symop_operation_xyz
x,y,z
-x,y,1/2-z
-x,-y,-z
x,-y,1/2+z
loop_
_atom_site_type_symbol
_atom_site_label
_atom_site_fract_x
_atom_site_fract_y
_atom_site_fract_z
Si Si1 0.619159 0.988985 0.726743
Si Si2 0.276337 0.782006 0.186473
Si Si3 0.167287 0.598793 0.845436
Si Si4 0.023519 0.074279 0.317434
Si Si5 0.252355 0.318621 0.935115
Si Si6 0.778564 0.185655 0.952627
O O1 0.500000 0.850535 0.750000
O O2 0.620010 0.087308 0.809717
O O3 0.636128 0.235324 0.666196
O O4 0.739309 0.813282 0.665207
O O5 0.237520 0.517424 0.243686
O O6 0.291279 0.781553 0.093382
O O7 0.154868 0.948290 0.252826
O O8 0.041685 0.724091 0.874467
O O9 0.155057 0.383044 0.913367
O O10 0.000000 0.208637 0.250000
O O11 0.922525 0.854344 0.372186
O O12 0.253689 0.570604 0.984216
O O13 0.243141 0.079224 0.994231
#
# Coordination Sequence:
#
# PCOD9233539 Si02
#       6
#     4   4   4   4   4   4
#     4  10  22  46  69  91 123 169 219 270 322 386
#     4   9  22  40  64  95 126 175 220 253 309 389
#     4  10  21  41  66  94 128 167 229 253 312 392
#     4   9  21  37  61  97 129 180 215 252 303 381
#     4  11  24  43  63  99 131 166 210 265 323 378
#     4  11  24  41  66  94 141 167 203 266 317 370
#
# _framework density 22.949849
#
# number of rings (size 3 to 8) (size 9 to 14) (size 15 to 20)
#    0.000    2.000    1.667    0.000    9.333    4.667 
#    0.000    1.667    0.000    0.000    0.000    0.000 
#    0.000    0.000    0.000    0.000    0.000    0.000 
#
# Total GULP energy -133832.916942 kJ/mol
# GULP energy per Si atom -5576.371539 kJ/mol
# Density = 2.289761 g / cm^3
# Si number density = 22.949849 Si / 1000 Ang^3
#
#
#
# Elastic Constant Matrix: (Units=GPa)
#
#
# Indices 1 2 3 4 5 6 
#
# 1 123.1373 37.2309 47.9252 0.0000 35.4044 0.0000
# 2 37.2309 132.0473 55.1053 0.0000 31.7982 0.0000
# 3 47.9252 55.1053 108.5014 0.0000 50.7720 0.0000
# 4 0.0000 0.0000 0.0000 43.1203 0.0000 12.0989
# 5 35.4044 31.7982 50.7720 0.0000 35.8529 0.0000
# 6 0.0000 0.0000 0.0000 12.0989 0.0000 21.9519
#
#
#
# Elastic Compliance Matrix: (Units=1/GPa)
#
#
# Indices 1 2 3 4 5 6 
#
# 1 0.011411 -0.000727 0.000890 0.000000 -0.011884 0.000000
# 2 -0.000727 0.009940 -0.002780 0.000000 -0.004161 0.000000
# 3 0.000890 -0.002780 0.028140 0.000000 -0.038262 0.000000
# 4 0.000000 0.000000 0.000000 0.027433 0.000000 -0.015120
# 5 -0.011884 -0.004161 -0.038262 0.000000 0.097501 0.000000
# 6 0.000000 0.000000 0.000000 -0.015120 0.000000 0.053888
#
#
# Mechanical properties :
#
#
# Convention : Reuss Voigt Hill
#
# Bulk Modulus (GPa) = 22.59563 71.57877 47.08720
# Shear Modulus (GPa) = 20.13691 35.08000 27.60845
#
# Velocity S-wave (km/s) = 2.96536 3.91391 3.47218
# Velocity P-wave (km/s) = 4.64667 7.18901 6.05282
#
# Compressibility (1/GPa) = 0.04425635
#
# Stress axis : x y z
#
# Youngs Moduli (GPa) = 87.63195 100.60103 35.53689
#
# Poissons Ratio (x) = 0.07314 -0.03161
# Poissons Ratio (y) = 0.06371 0.09880
# Poissons Ratio (z) = -0.07796 0.27968
#
# Static dielectric constant tensor:
#      x y z
#    x 1.907100 0.000000 0.021920 
#    y 0.000000 1.978260 0.000000 
#    z 0.021920 0.000000 1.923110 
# 
# From -- ./inp_files/65297.got.cif
#   From: 2010.05.17/outbox.cif.g08.bks.cpg/sg13_33_cif.got.tgz:65297.got - 2010.06.03 16:44:36.
