data_PCOD9233472
_publ_section_title
;
Structure prediction by ZEFSAII (Michael W. Deem and Ramdas Pophale) SiO2 
 PCOD9233472
Probable space group: P 2/C
;
_chemical_formula_sum "Si O2"
_cell_formula_units_Z 30
_cell_length_a 18.010357
_cell_length_b 6.369371
_cell_length_c 27.643521
_cell_angle_alpha 90.000000
_cell_angle_beta 151.030293
_cell_angle_gamma 90.000000
_cell_volume 1535.921279
_symmetry_space_group_name_H-M "P 2/C"
_symmetry_group_IT_number 13
_symmetry_cell_setting 'monoclinic'
loop_
_space_group_symop_operation_xyz
x,y,z
-x,y,1/2-z
-x,-y,-z
x,-y,1/2+z
loop_
_atom_site_type_symbol
_atom_site_label
_atom_site_fract_x
_atom_site_fract_y
_atom_site_fract_z
Si Si1 0.500000 0.114576 0.250000
Si Si2 0.837701 0.798622 0.790122
Si Si3 0.636705 0.905841 0.233291
Si Si4 0.020829 0.547963 0.818923
Si Si5 0.086489 0.842841 0.420502
Si Si6 0.300893 0.219676 0.528861
Si Si7 0.852112 0.536672 0.381905
Si Si8 0.729453 0.564047 0.908688
O O1 0.403380 0.267482 0.160342
O O2 0.597419 0.983182 0.265940
O O3 0.866732 0.626962 0.847503
O O4 0.880796 0.674905 0.765150
O O5 0.683549 0.913374 0.721278
O O6 0.963296 0.981560 0.862138
O O7 0.483715 0.790881 0.126102
O O8 0.783444 0.753286 0.322894
O O9 0.032029 0.313584 0.847353
O O10 0.000000 0.547698 0.750000
O O11 0.183676 0.656982 0.926638
O O12 0.124789 0.690825 0.487217
O O13 0.235098 0.983633 0.492650
O O14 0.281542 0.348118 0.568274
O O15 0.725772 0.473317 0.349798
O O16 0.000000 0.500000 0.500000
#
# Coordination Sequence:
#
# PCOD9233472 Si02
#       8
#     2   4   4   4   4   4   4   4
#     4  12  22  36  58  92 134 188 222 252 294 370
#     4  11  24  40  61  94 130 166 211 267 325 377
#     4  12  24  39  59  94 136 181 223 259 311 373
#     4  10  23  45  72  96 120 158 215 280 346 404
#     4  10  21  41  63  90 123 165 215 270 324 384
#     4  10  22  40  66  93 132 170 217 267 323 383
#     4  12  24  36  58  90 135 178 218 266 306 371
#     4  11  21  36  55  90 129 175 221 255 303 365
#
# _framework density 19.532249
#
# number of rings (size 3 to 8) (size 9 to 14) (size 15 to 20)
#    0.000    1.067    2.667    5.600    1.867    3.200 
#    0.000    0.667    0.000    4.000    0.000    0.000 
#    0.000    0.000    0.000    0.000    0.000    0.000 
#
# Total GULP energy -167092.105492 kJ/mol
# GULP energy per Si atom -5569.736850 kJ/mol
# Density = 1.948779 g / cm^3
# Si number density = 19.532249 Si / 1000 Ang^3
#
#
#
# Elastic Constant Matrix: (Units=GPa)
#
#
# Indices 1 2 3 4 5 6 
#
# 1 123.2889 59.3641 42.4595 0.0000 -20.0226 0.0000
# 2 59.3641 116.5441 33.1767 0.0000 -1.8042 0.0000
# 3 42.4595 33.1767 71.2776 0.0000 2.1360 0.0000
# 4 0.0000 0.0000 0.0000 30.0279 0.0000 15.3725
# 5 -20.0226 -1.8042 2.1360 0.0000 31.7740 0.0000
# 6 0.0000 0.0000 0.0000 15.3725 0.0000 23.5680
#
#
#
# Elastic Compliance Matrix: (Units=1/GPa)
#
#
# Indices 1 2 3 4 5 6 
#
# 1 0.014371 -0.005375 -0.006334 0.000000 0.009176 0.000000
# 2 -0.005375 0.011926 -0.002272 0.000000 -0.002557 0.000000
# 3 -0.006334 -0.002272 0.019022 0.000000 -0.005399 0.000000
# 4 0.000000 0.000000 0.000000 0.049997 0.000000 -0.032611
# 5 0.009176 -0.002557 -0.005399 0.000000 0.037473 0.000000
# 6 0.000000 0.000000 0.000000 -0.032611 0.000000 0.063702
#
#
# Mechanical properties :
#
#
# Convention : Reuss Voigt Hill
#
# Bulk Modulus (GPa) = 57.61606 64.56790 61.09198
# Shear Modulus (GPa) = 21.71673 28.81465 25.26569
#
# Velocity S-wave (km/s) = 3.33804 3.84505 3.60048
# Velocity P-wave (km/s) = 6.66473 7.26920 6.97352
#
# Compressibility (1/GPa) = 0.01735627
#
# Stress axis : x y z
#
# Youngs Moduli (GPa) = 69.58668 83.85346 52.57058
#
# Poissons Ratio (x) = 0.45070 0.33296
# Poissons Ratio (y) = 0.37402 0.11946
# Poissons Ratio (z) = 0.44074 0.19055
#
# Static dielectric constant tensor:
#      x y z
#    x 1.741170 0.000000 0.091500 
#    y 0.000000 1.734310 0.000000 
#    z 0.091500 0.000000 1.736750 
# 
# From -- ./inp_files/80584.got.cif
#   From: 2010.05.17/outbox.cif.g08.bks.cpg/sg13_41_cif.got.tgz:80584.got - 2010.06.03 16:44:36.
