data_PCOD9233465
_publ_section_title
;
Structure prediction by ZEFSAII (Michael W. Deem and Ramdas Pophale) SiO2 
 PCOD9233465
Probable space group: P 2/C
;
_chemical_formula_sum "Si O2"
_cell_formula_units_Z 32
_cell_length_a 7.997158
_cell_length_b 11.886264
_cell_length_c 20.152764
_cell_angle_alpha 90.000000
_cell_angle_beta 51.791693
_cell_angle_gamma 90.000000
_cell_volume 1505.253264
_symmetry_space_group_name_H-M "P 2/C"
_symmetry_group_IT_number 13
_symmetry_cell_setting 'monoclinic'
loop_
_space_group_symop_operation_xyz
x,y,z
-x,y,1/2-z
-x,-y,-z
x,-y,1/2+z
loop_
_atom_site_type_symbol
_atom_site_label
_atom_site_fract_x
_atom_site_fract_y
_atom_site_fract_z
Si Si1 0.037222 0.376550 0.568873
Si Si2 0.482496 0.729531 0.986633
Si Si3 0.279126 0.796223 0.814662
Si Si4 0.904228 0.636898 0.949576
Si Si5 0.777028 0.989402 0.090720
Si Si6 0.258455 0.202092 0.790210
Si Si7 0.351859 0.096545 0.627715
Si Si8 0.770270 0.139686 0.315051
O O1 0.286129 0.344174 0.509642
O O2 0.031317 0.509448 0.583409
O O3 0.937005 0.351646 0.520887
O O4 0.905771 0.300789 0.652671
O O5 0.664688 0.666935 0.985453
O O6 0.609823 0.783195 0.894300
O O7 0.377250 0.827230 0.057310
O O8 0.500000 0.729096 0.750000
O O9 0.283380 0.875530 0.748732
O O10 0.072690 0.720318 0.873810
O O11 0.277387 0.884241 0.874543
O O12 0.790566 0.903982 0.149541
O O13 0.589507 0.942650 0.090379
O O14 0.000000 0.000000 0.000000
O O15 0.500000 0.237067 0.750000
O O16 0.259725 0.163658 0.713472
O O17 0.221649 0.981000 0.651042
O O18 0.000000 0.194749 0.250000
#
# Coordination Sequence:
#
# PCOD9233465 Si02
#       8
#     4   4   4   4   4   4   4   4
#     4  11  26  46  76  97 134 187 238 285 346 408
#     4  12  26  46  70 103 138 183 235 286 348 408
#     4  12  21  42  67  96 138 181 227 280 350 414
#     4  11  25  49  69 101 134 182 237 293 339 399
#     4  11  21  35  67  99 136 181 220 278 348 416
#     4  10  21  41  63 101 141 176 226 281 341 405
#     4  11  24  40  64 102 143 182 220 278 350 422
#     4  12  25  41  63 100 145 177 215 283 344 418
#
# _framework density 21.258880999999999
#
# number of rings (size 3 to 8) (size 9 to 14) (size 15 to 20)
#    0.000    0.750    3.750    4.875    3.500    0.500 
#    0.000    3.750    0.000    0.000    0.000    0.000 
#    0.000    0.000    0.000    0.000    0.000    0.000 
#
# Total GULP energy -178928.456826 kJ/mol
# GULP energy per Si atom -5591.514276 kJ/mol
# Density = 2.121050 g / cm^3
# Si number density = 21.258881 Si / 1000 Ang^3
#
#
#
# Elastic Constant Matrix: (Units=GPa)
#
#
# Indices 1 2 3 4 5 6 
#
# 1 76.8453 17.3488 17.7912 0.0000 -14.8929 0.0000
# 2 17.3488 89.0328 31.7775 0.0000 -9.4944 0.0000
# 3 17.7912 31.7775 99.5671 0.0000 -23.3196 0.0000
# 4 0.0000 0.0000 0.0000 11.3375 0.0000 -10.1999
# 5 -14.8929 -9.4944 -23.3196 0.0000 33.1514 0.0000
# 6 0.0000 0.0000 0.0000 -10.1999 0.0000 25.1075
#
#
#
# Elastic Compliance Matrix: (Units=1/GPa)
#
#
# Indices 1 2 3 4 5 6 
#
# 1 0.014704 -0.002031 -0.000680 0.000000 0.005545 0.000000
# 2 -0.002031 0.012981 -0.003739 0.000000 0.000175 0.000000
# 3 -0.000680 -0.003739 0.013213 0.000000 0.007918 0.000000
# 4 0.000000 0.000000 0.000000 0.139009 0.000000 0.056472
# 5 0.005545 0.000175 0.007918 0.000000 0.038276 0.000000
# 6 0.000000 0.000000 0.000000 0.056472 0.000000 0.062770
#
#
# Mechanical properties :
#
#
# Convention : Reuss Voigt Hill
#
# Bulk Modulus (GPa) = 35.71847 44.36446 40.04147
# Shear Modulus (GPa) = 16.49160 27.15445 21.82302
#
# Velocity S-wave (km/s) = 2.78825 3.57784 3.20744
# Velocity P-wave (km/s) = 5.21574 6.16295 5.70902
#
# Compressibility (1/GPa) = 0.02799672
#
# Stress axis : x y z
#
# Youngs Moduli (GPa) = 68.00914 77.03716 75.68418
#
# Poissons Ratio (x) = 0.15646 0.05150
# Poissons Ratio (y) = 0.13812 0.28298
# Poissons Ratio (z) = 0.04627 0.28804
#
# Static dielectric constant tensor:
#      x y z
#    x 1.889720 0.000000 -0.012220 
#    y 0.000000 1.728130 0.000000 
#    z -0.012220 0.000000 1.737500 
# 
# From -- ./inp_files/76451.got.cif
#   From: 2010.05.17/outbox.cif.g08.bks.cpg/sg13_39_cif.got.tgz:76451.got - 2010.06.03 16:44:36.
