data_PCOD9233575
_publ_section_title
;
Structure prediction by ZEFSAII (Michael W. Deem and Ramdas Pophale) SiO2 
 PCOD9233575
Probable space group: P 2/C
;
_chemical_formula_sum "Si O2"
_cell_formula_units_Z 30
_cell_length_a 12.637978
_cell_length_b 8.789606
_cell_length_c 14.235879
_cell_angle_alpha 90.000000
_cell_angle_beta 73.755564
_cell_angle_gamma 90.000000
_cell_volume 1518.229297
_symmetry_space_group_name_H-M "P 2/C"
_symmetry_group_IT_number 13
_symmetry_cell_setting 'monoclinic'
loop_
_space_group_symop_operation_xyz
x,y,z
-x,y,1/2-z
-x,-y,-z
x,-y,1/2+z
loop_
_atom_site_type_symbol
_atom_site_label
_atom_site_fract_x
_atom_site_fract_y
_atom_site_fract_z
Si Si1 0.748733 0.323038 0.588254
Si Si2 0.814678 0.671882 0.556027
Si Si3 0.621655 0.659284 0.930395
Si Si4 0.000000 0.122819 0.250000
Si Si5 0.969581 0.171051 0.474772
Si Si6 0.382020 0.154037 0.730755
Si Si7 0.761162 0.135241 0.253779
Si Si8 0.620954 0.305875 0.962727
O O1 0.796521 0.492892 0.573560
O O2 0.657318 0.310923 0.529170
O O3 0.848197 0.210286 0.539550
O O4 0.692558 0.280331 0.699551
O O5 0.788147 0.758742 0.658788
O O6 0.727342 0.723717 0.499494
O O7 0.939503 0.718178 0.501779
O O8 0.702211 0.758203 0.845756
O O9 0.631850 0.476796 0.917331
O O10 0.492709 0.697324 0.950105
O O11 0.023516 0.195493 0.140498
O O12 0.123416 0.058441 0.239795
O O13 0.000000 0.000000 0.500000
O O14 0.500000 0.154186 0.750000
O O15 0.389420 0.189476 0.619322
O O16 0.322018 0.994132 0.757362
#
# Coordination Sequence:
#
# PCOD9233575 Si02
#       8
#     4   4   4   2   4   4   4   4
#     4  11  21  44  67  92 126 165 213 262 316 372
#     4  10  24  41  67  96 123 164 213 263 314 380
#     4  10  21  41  68  90 122 172 205 265 316 375
#     4  10  22  42  64  88 126 168 202 256 308 372
#     4  11  23  42  68  95 133 165 211 257 324 373
#     4  12  26  41  62  95 130 168 209 262 319 377
#     4  11  24  41  64  94 127 165 214 255 325 374
#     4  10  23  42  63  93 128 160 215 260 317 377
#
# _framework density 19.75986
#
# number of rings (size 3 to 8) (size 9 to 14) (size 15 to 20)
#    0.000    1.333    2.667    2.800    3.733    1.600 
#    0.000    0.000    0.000    0.000    0.000    0.000 
#    0.000    0.000    0.000    0.000    0.000    0.000 
#
# Total GULP energy -167386.325274 kJ/mol
# GULP energy per Si atom -5579.544176 kJ/mol
# Density = 1.971489 g / cm^3
# Si number density = 19.759860 Si / 1000 Ang^3
#
#
#
# Elastic Constant Matrix: (Units=GPa)
#
#
# Indices 1 2 3 4 5 6 
#
# 1 116.3213 19.6230 16.8306 0.0000 -4.3160 0.0000
# 2 19.6230 46.2519 -1.1217 0.0000 0.0107 0.0000
# 3 16.8306 -1.1217 50.1610 0.0000 1.1602 0.0000
# 4 0.0000 0.0000 0.0000 9.8378 0.0000 -7.3390
# 5 -4.3160 0.0107 1.1602 0.0000 30.6134 0.0000
# 6 0.0000 0.0000 0.0000 -7.3390 0.0000 29.9356
#
#
#
# Elastic Compliance Matrix: (Units=1/GPa)
#
#
# Indices 1 2 3 4 5 6 
#
# 1 0.009872 -0.004272 -0.003443 0.000000 0.001524 0.000000
# 2 -0.004272 0.023481 0.001974 0.000000 -0.000685 0.000000
# 3 -0.003443 0.001974 0.021165 0.000000 -0.001288 0.000000
# 4 0.000000 0.000000 0.000000 0.124400 0.000000 0.030498
# 5 0.001524 -0.000685 -0.001288 0.000000 0.032929 0.000000
# 6 0.000000 0.000000 0.000000 0.030498 0.000000 0.040882
#
#
# Mechanical properties :
#
#
# Convention : Reuss Voigt Hill
#
# Bulk Modulus (GPa) = 23.23612 31.48869 27.36240
# Shear Modulus (GPa) = 17.94958 25.90418 21.92688
#
# Velocity S-wave (km/s) = 3.01721 3.62463 3.33478
# Velocity P-wave (km/s) = 4.89110 5.78684 5.35773
#
# Compressibility (1/GPa) = 0.04303645
#
# Stress axis : x y z
#
# Youngs Moduli (GPa) = 101.29288 42.58697 47.24767
#
# Poissons Ratio (x) = 0.18195 0.16269
# Poissons Ratio (y) = 0.43276 -0.09329
# Poissons Ratio (z) = 0.34878 -0.08409
#
# Static dielectric constant tensor:
#      x y z
#    x 1.692100 0.000000 -0.010040 
#    y 0.000000 1.684340 0.000000 
#    z -0.010040 0.000000 1.681060 
# 
# From -- ./inp_files/50316.got.cif
#   From: 2010.05.17/outbox.cif.g08.bks.cpg/sg13_26_cif.got.tgz:50316.got - 2010.06.03 16:44:36.
