data_PCOD9233779
_publ_section_title
;
Structure prediction by ZEFSAII (Michael W. Deem and Ramdas Pophale) SiO2 
 PCOD9233779
Probable space group: P 2/C
;
_chemical_formula_sum "Si O2"
_cell_formula_units_Z 20
_cell_length_a 4.801164
_cell_length_b 18.144348
_cell_length_c 8.686376
_cell_angle_alpha 90.000000
_cell_angle_beta 104.149136
_cell_angle_gamma 90.000000
_cell_volume 733.748522
_symmetry_space_group_name_H-M "P 2/C"
_symmetry_group_IT_number 13
_symmetry_cell_setting 'monoclinic'
loop_
_space_group_symop_operation_xyz
x,y,z
-x,y,1/2-z
-x,-y,-z
x,-y,1/2+z
loop_
_atom_site_type_symbol
_atom_site_label
_atom_site_fract_x
_atom_site_fract_y
_atom_site_fract_z
Si Si1 0.468002 0.145895 0.482490
Si Si2 0.500000 0.769746 0.250000
Si Si3 0.500000 0.275722 0.250000
Si Si4 0.500000 0.019094 0.250000
Si Si5 0.214853 0.406368 0.026733
Si Si6 0.500000 0.530451 0.250000
Si Si7 0.000000 0.087013 0.750000
Si Si8 0.000000 0.668497 0.250000
O O1 0.319621 0.177877 0.614537
O O2 0.408956 0.216245 0.365241
O O3 0.410066 0.073734 0.376029
O O4 0.781408 0.127166 0.599474
O O5 0.723417 0.719225 0.190632
O O6 0.294645 0.334118 0.136645
O O7 0.223628 0.967519 0.189097
O O8 0.254379 0.473137 0.150353
O O9 0.387362 0.430767 0.893109
O O10 0.937117 0.377849 0.896279
#
# Coordination Sequence:
#
# PCOD9233779 Si02
#       8
#     4   2   2   2   4   2   2   2
#     4  11  25  46  75 109 145 193 252 299 374 441
#     4  12  26  46  74 112 146 196 236 308 372 440
#     4  10  22  42  70 108 148 190 246 310 358 432
#     4  11  27  49  77 110 148 192 248 308 369 443
#     4  10  21  42  73 108 150 192 250 302 368 438
#     4   9  21  43  77 106 150 200 246 300 371 445
#     4  12  25  48  78 106 151 194 244 306 372 443
#     4  12  25  44  78 104 155 188 246 300 380 427
#
# _framework density 27.257299
#
# number of rings (size 3 to 8) (size 9 to 14) (size 15 to 20)
#    0.000    1.200    2.000    3.000    0.000    4.000 
#    0.000    0.000    0.000    0.000    0.000    0.000 
#    0.000    0.000    0.000    0.000    0.000    0.000 
#
# Total GULP energy -111468.260465 kJ/mol
# GULP energy per Si atom -5573.413023 kJ/mol
# Density = 2.719526 g / cm^3
# Si number density = 27.257299 Si / 1000 Ang^3
#
#
#
# Elastic Constant Matrix: (Units=GPa)
#
#
# Indices 1 2 3 4 5 6 
#
# 1 66.2194 3.0980 -0.3691 0.0000 0.6852 0.0000
# 2 3.0980 206.0169 58.1856 0.0000 -5.5010 0.0000
# 3 -0.3691 58.1856 167.4002 0.0000 -4.8678 0.0000
# 4 0.0000 0.0000 0.0000 40.9303 0.0000 -2.8996
# 5 0.6852 -5.5010 -4.8678 0.0000 28.8980 0.0000
# 6 0.0000 0.0000 0.0000 -2.8996 0.0000 20.1763
#
#
#
# Elastic Compliance Matrix: (Units=1/GPa)
#
#
# Indices 1 2 3 4 5 6 
#
# 1 0.015119 -0.000271 0.000116 0.000000 -0.000390 0.000000
# 2 -0.000271 0.005402 -0.001857 0.000000 0.000722 0.000000
# 3 0.000116 -0.001857 0.006642 0.000000 0.000762 0.000000
# 4 0.000000 0.000000 0.000000 0.024683 0.000000 0.003547
# 5 -0.000390 0.000722 0.000762 0.000000 0.034880 0.000000
# 6 0.000000 0.000000 0.000000 0.003547 0.000000 0.050073
#
#
# Mechanical properties :
#
#
# Convention : Reuss Voigt Hill
#
# Bulk Modulus (GPa) = 43.21757 62.38503 52.80130
# Shear Modulus (GPa) = 33.66233 43.24907 38.45570
#
# Velocity S-wave (km/s) = 3.51805 3.98766 3.76019
# Velocity P-wave (km/s) = 5.69140 6.64372 6.18591
#
# Compressibility (1/GPa) = 0.02313874
#
# Stress axis : x y z
#
# Youngs Moduli (GPa) = 66.14341 185.12195 150.56455
#
# Poissons Ratio (x) = 0.05008 -0.01747
# Poissons Ratio (y) = 0.01789 0.27963
# Poissons Ratio (z) = -0.00767 0.34381
#
# Static dielectric constant tensor:
#      x y z
#    x 2.180810 0.000000 -0.031380 
#    y 0.000000 2.223640 0.000000 
#    z -0.031380 0.000000 2.216340 
# 
# From -- ./inp_files/10083.got.cif
#   From: 2010.05.17/outbox.cif.g08.bks.cpg/sg13_6_cif.got.tgz:10083.got - 2010.06.03 16:44:36.
