data_PCOD9233719
_publ_section_title
;
Structure prediction by ZEFSAII (Michael W. Deem and Ramdas Pophale) SiO2 
 PCOD9233719
Probable space group: P 2/C
;
_chemical_formula_sum "Si O2"
_cell_formula_units_Z 18
_cell_length_a 16.345354
_cell_length_b 5.285780
_cell_length_c 10.478081
_cell_angle_alpha 90.000000
_cell_angle_beta 133.160079
_cell_angle_gamma 90.000000
_cell_volume 660.355747
_symmetry_space_group_name_H-M "P 2/C"
_symmetry_group_IT_number 13
_symmetry_cell_setting 'monoclinic'
loop_
_space_group_symop_operation_xyz
x,y,z
-x,y,1/2-z
-x,-y,-z
x,-y,1/2+z
loop_
_atom_site_type_symbol
_atom_site_label
_atom_site_fract_x
_atom_site_fract_y
_atom_site_fract_z
Si Si1 0.183121 0.502414 0.268469
Si Si2 0.125866 0.997833 0.575419
Si Si3 0.000000 0.704909 0.250000
Si Si4 0.433343 0.133492 0.813229
Si Si5 0.625571 0.361324 0.328019
O O1 0.189665 0.224216 0.218486
O O2 0.286281 0.548658 0.473515
O O3 0.065253 0.531038 0.219057
O O4 0.174764 0.726343 0.154601
O O5 0.096853 0.888267 0.406102
O O6 0.000000 0.000000 0.500000
O O7 0.500000 0.169594 0.750000
O O8 0.342349 0.918786 0.684688
O O9 0.390288 0.416517 0.793067
O O10 0.500000 0.000000 0.000000
O O11 0.500000 0.324170 0.250000
#
# Coordination Sequence:
#
# PCOD9233719 Si02
#       5
#     4   4   2   4   4
#     4  11  23  42  65  96 127 170 217 262 328 388
#     4  10  22  40  66  90 131 164 214 271 320 391
#     4  10  22  42  64  96 124 168 214 274 332 378
#     4  10  21  42  68  92 133 178 222 271 323 389
#     4  10  22  43  65  95 133 172 216 266 327 397
#
# _framework density 27.258033999999999
#
# number of rings (size 3 to 8) (size 9 to 14) (size 15 to 20)
#    0.000    1.778    0.000    4.667    0.000    8.000 
#   24.000    0.000    0.000    0.000    0.000    0.000 
#    0.000    0.000    0.000    0.000    0.000    0.000 
#
# Total GULP energy -100828.341012 kJ/mol
# GULP energy per Si atom -5601.574501 kJ/mol
# Density = 2.719599 g / cm^3
# Si number density = 27.258034 Si / 1000 Ang^3
#
#
#
# Elastic Constant Matrix: (Units=GPa)
#
#
# Indices 1 2 3 4 5 6 
#
# 1 117.7835 8.9293 -8.1111 0.0000 7.5162 0.0000
# 2 8.9293 121.3809 -19.0361 0.0000 3.6305 0.0000
# 3 -8.1111 -19.0361 127.2589 0.0000 14.6624 0.0000
# 4 0.0000 0.0000 0.0000 60.2654 0.0000 -4.8022
# 5 7.5162 3.6305 14.6624 0.0000 40.8167 0.0000
# 6 0.0000 0.0000 0.0000 -4.8022 0.0000 25.5494
#
#
#
# Elastic Compliance Matrix: (Units=1/GPa)
#
#
# Indices 1 2 3 4 5 6 
#
# 1 0.008689 -0.000477 0.000691 0.000000 -0.001806 0.000000
# 2 -0.000477 0.008525 0.001379 0.000000 -0.001166 0.000000
# 3 0.000691 0.001379 0.008488 0.000000 -0.003299 0.000000
# 4 0.000000 0.000000 0.000000 0.016846 0.000000 0.003166
# 5 -0.001806 -0.001166 -0.003299 0.000000 0.026121 0.000000
# 6 0.000000 0.000000 0.000000 0.003166 0.000000 0.039735
#
#
# Mechanical properties :
#
#
# Convention : Reuss Voigt Hill
#
# Bulk Modulus (GPa) = 34.61678 36.66528 35.64103
# Shear Modulus (GPa) = 43.53591 50.96905 47.25248
#
# Velocity S-wave (km/s) = 4.00081 4.32889 4.16808
# Velocity P-wave (km/s) = 5.83688 6.20211 6.02226
#
# Compressibility (1/GPa) = 0.02888773
#
# Stress axis : x y z
#
# Youngs Moduli (GPa) = 115.08684 117.30522 117.80768
#
# Poissons Ratio (x) = 0.05594 -0.08135
# Poissons Ratio (y) = 0.05489 -0.16247
# Poissons Ratio (z) = -0.07947 -0.16178
#
# Static dielectric constant tensor:
#      x y z
#    x 2.460520 0.000000 -0.092490 
#    y 0.000000 2.194430 0.000000 
#    z -0.092490 0.000000 2.153950 
# 
# From -- ./inp_files/39602.got.cif
#   From: 2010.05.17/outbox.cif.g08.bks.cpg/sg13_20_cif.got.tgz:39602.got - 2010.06.03 16:44:36.
