data_PCOD9233458
_publ_section_title
;
Structure prediction by ZEFSAII (Michael W. Deem and Ramdas Pophale) SiO2 
 PCOD9233458
Probable space group: P 2/C
;
_chemical_formula_sum "Si O2"
_cell_formula_units_Z 32
_cell_length_a 23.392896
_cell_length_b 5.371077
_cell_length_c 11.367936
_cell_angle_alpha 90.000000
_cell_angle_beta 124.405669
_cell_angle_gamma 90.000000
_cell_volume 1178.450255
_symmetry_space_group_name_H-M "P 2/C"
_symmetry_group_IT_number 13
_symmetry_cell_setting 'monoclinic'
loop_
_space_group_symop_operation_xyz
x,y,z
-x,y,1/2-z
-x,-y,-z
x,-y,1/2+z
loop_
_atom_site_type_symbol
_atom_site_label
_atom_site_fract_x
_atom_site_fract_y
_atom_site_fract_z
Si Si1 0.430988 0.473580 0.716887
Si Si2 0.358551 0.848727 0.489342
Si Si3 0.248026 0.438256 0.733153
Si Si4 0.858029 0.221423 0.737724
Si Si5 0.157698 0.862529 0.550394
Si Si6 0.006892 0.176024 0.892109
Si Si7 0.429884 0.846279 0.903934
Si Si8 0.308772 0.135019 0.619537
O O1 0.500000 0.337007 0.750000
O O2 0.422503 0.710921 0.622776
O O3 0.352628 0.374399 0.631135
O O4 0.442727 0.582471 0.860735
O O5 0.323676 0.645888 0.364082
O O6 0.389963 0.106609 0.477693
O O7 0.296202 0.954431 0.496081
O O8 0.198578 0.423760 0.789184
O O9 0.227076 0.698823 0.652325
O O10 0.245369 0.231561 0.623876
O O11 0.846417 0.095226 0.596551
O O12 0.936051 0.332126 0.820742
O O13 0.851046 0.045426 0.846321
O O14 0.083948 0.709197 0.480820
O O15 0.000000 0.058601 0.750000
O O16 0.000000 0.000000 0.000000
O O17 0.372176 0.986009 0.756306
O O18 0.500000 0.000000 0.000000
#
# Coordination Sequence:
#
# PCOD9233458 Si02
#       8
#     4   4   4   4   4   4   4   4
#     4  11  23  39  67  94 125 175 231 293 367 443
#     4  10  24  45  64  90 135 176 228 299 363 434
#     4  11  26  43  66 102 136 194 237 291 356 443
#     4  10  23  42  74 104 148 193 240 299 358 422
#     4  10  23  44  73 106 149 189 244 294 360 435
#     4   8  16  37  66 105 141 186 236 293 352 412
#     4  10  21  41  62  92 125 160 221 289 366 429
#     4  10  26  41  63  92 130 175 231 295 357 433
#
# _framework density 27.154305999999998
#
# number of rings (size 3 to 8) (size 9 to 14) (size 15 to 20)
#    0.000    2.000    1.250    0.000    5.250    7.000 
#    0.000    0.000    0.000    4.500    0.000    0.000 
#    0.000    0.000    0.000    0.000    0.000    0.000 
#
# Total GULP energy -178145.267915 kJ/mol
# GULP energy per Si atom -5567.039622 kJ/mol
# Density = 2.709250 g / cm^3
# Si number density = 27.154306 Si / 1000 Ang^3
#
#
#
# Elastic Constant Matrix: (Units=GPa)
#
#
# Indices 1 2 3 4 5 6 
#
# 1 187.8844 9.1813 36.6297 0.0000 -17.0173 0.0000
# 2 9.1813 22.6713 11.1432 0.0000 -7.2044 0.0000
# 3 36.6297 11.1432 88.0713 0.0000 -18.2185 0.0000
# 4 0.0000 0.0000 0.0000 30.3889 0.0000 -8.6350
# 5 -17.0173 -7.2044 -18.2185 0.0000 42.9058 0.0000
# 6 0.0000 0.0000 0.0000 -8.6350 0.0000 28.6159
#
#
#
# Elastic Compliance Matrix: (Units=1/GPa)
#
#
# Indices 1 2 3 4 5 6 
#
# 1 0.005888 -0.000960 -0.002059 0.000000 0.001300 0.000000
# 2 -0.000960 0.048587 -0.004538 0.000000 0.005851 0.000000
# 3 -0.002059 -0.004538 0.013658 0.000000 0.004221 0.000000
# 4 0.000000 0.000000 0.000000 0.035993 0.000000 0.010861
# 5 0.001300 0.005851 0.004221 0.000000 0.026597 0.000000
# 6 0.000000 0.000000 0.000000 0.010861 0.000000 0.038223
#
#
# Mechanical properties :
#
#
# Convention : Reuss Voigt Hill
#
# Bulk Modulus (GPa) = 18.86059 45.83727 32.34893
# Shear Modulus (GPa) = 24.78527 36.49363 30.63945
#
# Velocity S-wave (km/s) = 3.02446 3.66995 3.36273
# Velocity P-wave (km/s) = 4.37690 5.90550 5.19770
#
# Compressibility (1/GPa) = 0.05302061
#
# Stress axis : x y z
#
# Youngs Moduli (GPa) = 169.82433 20.58169 73.21728
#
# Poissons Ratio (x) = 0.01975 0.15073
# Poissons Ratio (y) = 0.16297 0.33226
# Poissons Ratio (z) = 0.34961 0.09340
#
# Static dielectric constant tensor:
#      x y z
#    x 2.193840 0.000000 -0.105340 
#    y 0.000000 2.498300 0.000000 
#    z -0.105340 0.000000 2.373500 
# 
# From -- ./inp_files/41410.got.cif
#   From: 2010.05.17/outbox.cif.g08.bks.cpg/sg13_21_cif.got.tgz:41410.got - 2010.06.03 16:44:36.
