data_PCOD9233022
_publ_section_title
;
Structure prediction by ZEFSAII (Michael W. Deem and Ramdas Pophale) SiO2 
 PCOD9233022
Probable space group: P 2/C
;
_chemical_formula_sum "Si O2"
_cell_formula_units_Z 28
_cell_length_a 14.804118
_cell_length_b 8.464759
_cell_length_c 14.585901
_cell_angle_alpha 90.000000
_cell_angle_beta 37.709166
_cell_angle_gamma 90.000000
_cell_volume 1117.984907
_symmetry_space_group_name_H-M "P 2/C"
_symmetry_group_IT_number 13
_symmetry_cell_setting 'monoclinic'
loop_
_space_group_symop_operation_xyz
x,y,z
-x,y,1/2-z
-x,-y,-z
x,-y,1/2+z
loop_
_atom_site_type_symbol
_atom_site_label
_atom_site_fract_x
_atom_site_fract_y
_atom_site_fract_z
Si Si1 0.668860 0.034959 0.137852
Si Si2 0.416128 0.543859 0.195109
Si Si3 0.057622 0.764940 0.106564
Si Si4 0.000000 0.461818 0.250000
Si Si5 0.281835 0.031442 0.185242
Si Si6 0.543625 0.258010 0.004600
Si Si7 0.000000 0.000000 0.000000
Si Si8 0.714594 0.308615 0.531811
O O1 0.500000 0.060166 0.250000
O O2 0.694377 0.988882 0.224570
O O3 0.720417 0.877766 0.044232
O O4 0.771257 0.184074 0.035511
O O5 0.470495 0.362822 0.143639
O O6 0.292399 0.595787 0.365978
O O7 0.560862 0.639578 0.110949
O O8 0.383432 0.613065 0.120963
O O9 0.000000 0.835635 0.250000
O O10 0.019245 0.583134 0.150142
O O11 0.995619 0.838755 0.063716
O O12 0.852618 0.362821 0.362898
O O13 0.402763 0.166962 0.074209
O O14 0.111597 0.078252 0.329207
O O15 0.336272 0.882008 0.081307
#
# Coordination Sequence:
#
# PCOD9233022 Si02
#       8
#     4   4   4   2   4   4   2   4
#     4  11  21  41  66  95 125 170 213 269 328 384
#     4  10  22  40  63  91 127 164 210 263 329 383
#     4   9  24  43  63  95 129 170 226 266 329 397
#     4  10  26  42  62  98 124 172 224 262 330 402
#     4  10  22  39  63  93 127 168 217 265 326 387
#     4  10  21  39  62  93 124 163 212 266 315 393
#     4  10  22  40  60  90 134 166 208 276 326 384
#     4  11  22  42  64  90 131 164 210 265 326 398
#
# _framework density 25.045062000000001
#
# number of rings (size 3 to 8) (size 9 to 14) (size 15 to 20)
#    0.429    1.429    2.857    0.000    7.000    4.571 
#    2.571    0.000    0.000    6.857    0.000    0.000 
#    0.000    0.000    0.000    0.000    0.000    0.000 
#
# Total GULP energy -155871.896406 kJ/mol
# GULP energy per Si atom -5566.853443 kJ/mol
# Density = 2.498806 g / cm^3
# Si number density = 25.045062 Si / 1000 Ang^3
#
#
#
# Elastic Constant Matrix: (Units=GPa)
#
#
# Indices 1 2 3 4 5 6 
#
# 1 21.3737 13.4059 -2.6464 0.0000 10.6882 0.0000
# 2 13.4059 106.6898 61.2228 0.0000 18.1744 0.0000
# 3 -2.6464 61.2228 160.6363 0.0000 -0.4565 0.0000
# 4 0.0000 0.0000 0.0000 156.1572 0.0000 107.7823
# 5 10.6882 18.1744 -0.4565 0.0000 18.3260 0.0000
# 6 0.0000 0.0000 0.0000 107.7823 0.0000 80.9614
#
#
#
# Elastic Compliance Matrix: (Units=1/GPa)
#
#
# Indices 1 2 3 4 5 6 
#
# 1 0.067151 -0.003844 0.002471 0.000000 -0.035290 0.000000
# 2 -0.003844 0.015608 -0.006050 0.000000 -0.013388 0.000000
# 3 0.002471 -0.006050 0.008585 0.000000 0.004773 0.000000
# 4 0.000000 0.000000 0.000000 0.078935 0.000000 -0.105084
# 5 -0.035290 -0.013388 0.004773 0.000000 0.088546 0.000000
# 6 0.000000 0.000000 0.000000 -0.105084 0.000000 0.152248
#
#
# Mechanical properties :
#
#
# Convention : Reuss Voigt Hill
#
# Bulk Modulus (GPa) = 13.07221 48.07383 30.57302
# Shear Modulus (GPa) = 11.07620 65.53674 38.30647
#
# Velocity S-wave (km/s) = 2.10526 5.12097 3.91513
# Velocity P-wave (km/s) = 3.33771 7.36223 5.71588
#
# Compressibility (1/GPa) = 0.07649816
#
# Stress axis : x y z
#
# Youngs Moduli (GPa) = 14.89188 64.06786 116.47677
#
# Poissons Ratio (x) = 0.24628 -0.28782
# Poissons Ratio (y) = 0.05725 0.70471
# Poissons Ratio (z) = -0.03680 0.38762
#
# Static dielectric constant tensor:
#      x y z
#    x 2.072410 0.000000 0.107630 
#    y 0.000000 1.963080 0.000000 
#    z 0.107630 0.000000 1.753970 
# 
# From -- ./inp_files/69669.got.cif
#   From: 2010.05.17/outbox.cif.g08.bks.cpg/sg13_35_cif.got.tgz:69669.got - 2010.06.03 16:44:36.
