data_PCOD9233773
_publ_section_title
;
Structure prediction by ZEFSAII (Michael W. Deem and Ramdas Pophale) SiO2 
 PCOD9233773
Probable space group: P 2/C
;
_chemical_formula_sum "Si O2"
_cell_formula_units_Z 30
_cell_length_a 18.076308
_cell_length_b 5.559372
_cell_length_c 16.458225
_cell_angle_alpha 90.000000
_cell_angle_beta 47.394951
_cell_angle_gamma 90.000000
_cell_volume 1217.358150
_symmetry_space_group_name_H-M "P 2/C"
_symmetry_group_IT_number 13
_symmetry_cell_setting 'monoclinic'
loop_
_space_group_symop_operation_xyz
x,y,z
-x,y,1/2-z
-x,-y,-z
x,-y,1/2+z
loop_
_atom_site_type_symbol
_atom_site_label
_atom_site_fract_x
_atom_site_fract_y
_atom_site_fract_z
Si Si1 0.134863 0.807880 0.125319
Si Si2 0.500000 0.978660 0.750000
Si Si3 0.990991 0.799839 0.434821
Si Si4 0.658969 0.486147 0.343778
Si Si5 0.718430 0.912254 0.077872
Si Si6 0.795949 0.299745 0.370200
Si Si7 0.835861 0.608445 0.108900
Si Si8 0.536079 0.194794 0.040516
O O1 0.236622 0.841843 0.993258
O O2 0.042662 0.845416 0.131803
O O3 0.141702 0.542189 0.158178
O O4 0.188988 0.180531 0.935609
O O5 0.391749 0.084697 0.802051
O O6 0.460721 0.876530 0.867055
O O7 0.907991 0.599393 0.522058
O O8 0.103094 0.693549 0.357680
O O9 0.000000 0.000000 0.500000
O O10 0.724836 0.537912 0.216860
O O11 0.729586 0.302820 0.339421
O O12 0.551810 0.392374 0.396466
O O13 0.637161 0.696045 0.425765
O O14 0.717639 0.729932 0.002798
O O15 0.857029 0.051307 0.327769
O O16 0.500000 0.000000 0.000000
#
# Coordination Sequence:
#
# PCOD9233773 Si02
#       8
#     4   2   4   4   4   4   4   4
#     4  10  21  42  72  99 140 189 245 308 368 460
#     4  12  24  42  78 110 150 206 264 316 390 480
#     4  11  21  42  71 104 136 189 249 320 381 467
#     4  11  26  44  68 102 149 201 241 325 383 466
#     4  10  22  40  67 107 137 192 241 312 363 458
#     4  10  22  42  70  94 140 192 237 302 382 439
#     4  11  24  41  71 104 145 188 251 311 396 456
#     4  11  26  47  70 108 154 198 263 320 395 475
#
# _framework density 24.643526999999999
#
# number of rings (size 3 to 8) (size 9 to 14) (size 15 to 20)
#    0.800    0.533    2.667    2.400    5.600    3.200 
#    0.000    4.000    0.000    0.000    0.000    0.000 
#    0.000    0.000    0.000    0.000    0.000    0.000 
#
# Total GULP energy -167228.228163 kJ/mol
# GULP energy per Si atom -5574.274272 kJ/mol
# Density = 2.458744 g / cm^3
# Si number density = 24.643527 Si / 1000 Ang^3
#
#
#
# Elastic Constant Matrix: (Units=GPa)
#
#
# Indices 1 2 3 4 5 6 
#
# 1 93.9808 23.2644 2.8180 0.0000 0.8512 0.0000
# 2 23.2644 82.9028 12.3984 0.0000 -6.6723 0.0000
# 3 2.8180 12.3984 72.2564 0.0000 -5.0139 0.0000
# 4 0.0000 0.0000 0.0000 23.0983 0.0000 6.5049
# 5 0.8512 -6.6723 -5.0139 0.0000 53.0974 0.0000
# 6 0.0000 0.0000 0.0000 6.5049 0.0000 42.4157
#
#
#
# Elastic Compliance Matrix: (Units=1/GPa)
#
#
# Indices 1 2 3 4 5 6 
#
# 1 0.011454 -0.003273 0.000074 0.000000 -0.000588 0.000000
# 2 -0.003273 0.013414 -0.002067 0.000000 0.001543 0.000000
# 3 0.000074 -0.002067 0.014267 0.000000 0.001086 0.000000
# 4 0.000000 0.000000 0.000000 0.045247 0.000000 -0.006939
# 5 -0.000588 0.001543 0.001086 0.000000 0.019139 0.000000
# 6 0.000000 0.000000 0.000000 -0.006939 0.000000 0.024640
#
#
# Mechanical properties :
#
#
# Convention : Reuss Voigt Hill
#
# Bulk Modulus (GPa) = 34.96083 36.23349 35.59716
# Shear Modulus (GPa) = 33.73207 37.76622 35.74915
#
# Velocity S-wave (km/s) = 3.70374 3.91896 3.81287
# Velocity P-wave (km/s) = 5.70155 5.93403 5.81895
#
# Compressibility (1/GPa) = 0.02860344
#
# Stress axis : x y z
#
# Youngs Moduli (GPa) = 87.30820 74.54914 70.09295
#
# Poissons Ratio (x) = 0.24397 -0.00519
# Poissons Ratio (y) = 0.28572 0.14488
# Poissons Ratio (z) = -0.00646 0.15409
#
# Static dielectric constant tensor:
#      x y z
#    x 2.017730 0.000000 0.102380 
#    y 0.000000 2.073070 0.000000 
#    z 0.102380 0.000000 2.247250 
# 
# From -- ./inp_files/54634.got.cif
#   From: 2010.05.17/outbox.cif.g08.bks.cpg/sg13_28_cif.got.tgz:54634.got - 2010.06.03 16:44:36.
