data_PCOD9233129
_publ_section_title
;
Structure prediction by ZEFSAII (Michael W. Deem and Ramdas Pophale) SiO2 
 PCOD9233129
Probable space group: P 2/C
;
_chemical_formula_sum "Si O2"
_cell_formula_units_Z 26
_cell_length_a 13.850531
_cell_length_b 10.113160
_cell_length_c 14.265468
_cell_angle_alpha 90.000000
_cell_angle_beta 142.201195
_cell_angle_gamma 90.000000
_cell_volume 1224.678991
_symmetry_space_group_name_H-M "P 2/C"
_symmetry_group_IT_number 13
_symmetry_cell_setting 'monoclinic'
loop_
_space_group_symop_operation_xyz
x,y,z
-x,y,1/2-z
-x,-y,-z
x,-y,1/2+z
loop_
_atom_site_type_symbol
_atom_site_label
_atom_site_fract_x
_atom_site_fract_y
_atom_site_fract_z
Si Si1 0.543732 0.459765 0.888018
Si Si2 0.500000 0.927791 0.250000
Si Si3 0.166285 0.340735 0.916216
Si Si4 0.763400 0.086088 0.817750
Si Si5 0.632743 0.884002 0.014263
Si Si6 0.635149 0.679189 0.638113
Si Si7 0.097885 0.796126 0.557052
O O1 0.500000 0.419482 0.750000
O O2 0.407746 0.546774 0.835558
O O3 0.694990 0.555346 0.992956
O O4 0.589530 0.346732 0.996108
O O5 0.362130 0.860571 0.203854
O O6 0.588055 0.015344 0.397649
O O7 0.222131 0.208218 0.905700
O O8 0.000000 0.389051 0.750000
O O9 0.143904 0.295683 0.005495
O O10 0.680839 0.063742 0.653505
O O11 0.829779 0.943261 0.900789
O O12 0.911916 0.183212 0.923059
O O13 0.481412 0.789624 0.909940
O O14 0.812209 0.728967 0.787218
#
# Coordination Sequence:
#
# PCOD9233129 Si02
#       7
#     4   2   4   4   4   4   4
#     4  10  21  39  67  98 121 169 223 275 326 391
#     4  12  22  38  62  92 128 180 222 256 312 388
#     4  11  20  38  67  92 123 167 219 267 333 393
#     4  11  24  37  64  97 131 173 219 261 321 393
#     4  11  21  39  62  93 127 171 213 268 320 392
#     4  10  21  39  66  93 128 166 219 275 325 383
#     4  11  21  40  62  98 135 169 213 273 323 390
#
# _framework density 21.230053000000002
#
# number of rings (size 3 to 8) (size 9 to 14) (size 15 to 20)
#    0.000    1.231    6.154    0.462    2.154    0.000 
#    1.385    2.308    0.000    0.000    0.000    0.000 
#    0.000    0.000    0.000    0.000    0.000    0.000 
#
# Total GULP energy -145336.817922 kJ/mol
# GULP energy per Si atom -5589.877612 kJ/mol
# Density = 2.118173 g / cm^3
# Si number density = 21.230053 Si / 1000 Ang^3
#
#
#
# Elastic Constant Matrix: (Units=GPa)
#
#
# Indices 1 2 3 4 5 6 
#
# 1 102.1811 9.2609 38.2672 0.0000 0.0658 0.0000
# 2 9.2609 25.5517 9.0954 0.0000 3.2471 0.0000
# 3 38.2672 9.0954 111.3246 0.0000 -7.6987 0.0000
# 4 0.0000 0.0000 0.0000 35.7913 0.0000 -2.4752
# 5 0.0658 3.2471 -7.6987 0.0000 37.2574 0.0000
# 6 0.0000 0.0000 0.0000 -2.4752 0.0000 14.4190
#
#
#
# Elastic Compliance Matrix: (Units=1/GPa)
#
#
# Indices 1 2 3 4 5 6 
#
# 1 0.011438 -0.002742 -0.003746 0.000000 -0.000555 0.000000
# 2 -0.002742 0.041642 -0.002750 0.000000 -0.004193 0.000000
# 3 -0.003746 -0.002750 0.010665 0.000000 0.002450 0.000000
# 4 0.000000 0.000000 0.000000 0.028275 0.000000 0.004854
# 5 -0.000555 -0.004193 0.002450 0.000000 0.027713 0.000000
# 6 0.000000 0.000000 0.000000 0.004854 0.000000 0.070186
#
#
# Mechanical properties :
#
#
# Convention : Reuss Voigt Hill
#
# Bulk Modulus (GPa) = 22.09003 39.14494 30.61748
# Shear Modulus (GPa) = 22.37298 29.65580 26.01439
#
# Velocity S-wave (km/s) = 3.24980 3.74154 3.50431
# Velocity P-wave (km/s) = 4.95069 6.09458 5.55217
#
# Compressibility (1/GPa) = 0.04526930
#
# Stress axis : x y z
#
# Youngs Moduli (GPa) = 87.42494 24.01450 93.76822
#
# Poissons Ratio (x) = 0.06584 0.35128
# Poissons Ratio (y) = 0.23968 0.25784
# Poissons Ratio (z) = 0.32752 0.06603
#
# Static dielectric constant tensor:
#      x y z
#    x 1.742200 0.000000 0.000500 
#    y 0.000000 1.806730 0.000000 
#    z 0.000500 0.000000 1.781440 
# 
# From -- ./inp_files/33995.got.cif
#   From: 2010.05.17/outbox.cif.g08.bks.cpg/sg13_17_cif.got.tgz:33995.got - 2010.06.03 16:44:36.
