data_PCOD9233464
_publ_section_title
;
Structure prediction by ZEFSAII (Michael W. Deem and Ramdas Pophale) SiO2 
 PCOD9233464
Probable space group: P 2/C
;
_chemical_formula_sum "Si O2"
_cell_formula_units_Z 20
_cell_length_a 5.459257
_cell_length_b 7.336430
_cell_length_c 25.625441
_cell_angle_alpha 90.000000
_cell_angle_beta 97.901003
_cell_angle_gamma 90.000000
_cell_volume 1016.593293
_symmetry_space_group_name_H-M "P 2/C"
_symmetry_group_IT_number 13
_symmetry_cell_setting 'monoclinic'
loop_
_space_group_symop_operation_xyz
x,y,z
-x,y,1/2-z
-x,-y,-z
x,-y,1/2+z
loop_
_atom_site_type_symbol
_atom_site_label
_atom_site_fract_x
_atom_site_fract_y
_atom_site_fract_z
Si Si1 0.491649 0.312612 0.531490
Si Si2 0.408261 0.744593 0.148538
Si Si3 0.000000 0.252381 0.250000
Si Si4 0.188272 0.014613 0.459600
Si Si5 0.500000 0.484024 0.250000
Si Si6 0.084953 0.023638 0.845981
O O1 0.500000 0.500000 0.500000
O O2 0.382836 0.326835 0.587338
O O3 0.372166 0.165431 0.488138
O O4 0.740334 0.197186 0.548845
O O5 0.466436 0.600916 0.195893
O O6 0.647593 0.880019 0.155020
O O7 0.150676 0.841787 0.156638
O O8 0.248374 0.369307 0.249308
O O9 0.038800 0.120548 0.299915
O O10 0.093728 0.080424 0.401457
O O11 0.000000 0.000000 0.500000
#
# Coordination Sequence:
#
# PCOD9233464 Si02
#       6
#     4   4   2   4   2   4
#     4  10  23  39  64  95 131 172 211 263 326 378
#     4  11  23  44  65  92 128 174 210 262 323 388
#     4  12  26  42  66  98 122 170 212 276 322 370
#     4  10  21  41  62  95 129 169 217 262 314 394
#     4  12  26  42  64  98 130 156 224 270 318 388
#     4  11  23  43  68  88 129 173 215 257 327 383
#
# _framework density 19.673552999999998
#
# number of rings (size 3 to 8) (size 9 to 14) (size 15 to 20)
#    0.000    1.200    2.000    3.600    2.800    2.400 
#    0.000    0.000    0.000    0.000    0.000    0.000 
#    0.000    0.000    0.000    0.000    0.000    0.000 
#
# Total GULP energy -111367.358719 kJ/mol
# GULP energy per Si atom -5568.367936 kJ/mol
# Density = 1.962878 g / cm^3
# Si number density = 19.673553 Si / 1000 Ang^3
#
#
#
# Elastic Constant Matrix: (Units=GPa)
#
#
# Indices 1 2 3 4 5 6 
#
# 1 99.2873 30.7563 25.1551 0.0000 3.6999 0.0000
# 2 30.7563 102.7029 65.9146 0.0000 -0.3499 0.0000
# 3 25.1551 65.9146 192.3936 0.0000 -0.8773 0.0000
# 4 0.0000 0.0000 0.0000 37.4421 0.0000 -9.7129
# 5 3.6999 -0.3499 -0.8773 0.0000 31.4247 0.0000
# 6 0.0000 0.0000 0.0000 -9.7129 0.0000 21.7951
#
#
#
# Elastic Compliance Matrix: (Units=1/GPa)
#
#
# Indices 1 2 3 4 5 6 
#
# 1 0.011184 -0.003091 -0.000409 0.000000 -0.001363 0.000000
# 2 -0.003091 0.013336 -0.004163 0.000000 0.000396 0.000000
# 3 -0.000409 -0.004163 0.006678 0.000000 0.000188 0.000000
# 4 0.000000 0.000000 0.000000 0.030199 0.000000 0.013458
# 5 -0.001363 0.000396 0.000188 0.000000 0.031992 0.000000
# 6 0.000000 0.000000 0.000000 0.013458 0.000000 0.051879
#
#
# Mechanical properties :
#
#
# Convention : Reuss Voigt Hill
#
# Bulk Modulus (GPa) = 63.00830 70.89286 66.95058
# Shear Modulus (GPa) = 30.14130 36.30289 33.22209
#
# Velocity S-wave (km/s) = 3.91842 4.30031 4.11380
# Velocity P-wave (km/s) = 7.25041 7.79550 7.52789
#
# Compressibility (1/GPa) = 0.01587092
#
# Stress axis : x y z
#
# Youngs Moduli (GPa) = 89.41489 74.98753 149.73921
#
# Poissons Ratio (x) = 0.23179 0.06131
# Poissons Ratio (y) = 0.27639 0.62334
# Poissons Ratio (z) = 0.03661 0.31216
#
# Static dielectric constant tensor:
#      x y z
#    x 1.644240 0.000000 -0.044710 
#    y 0.000000 1.691850 0.000000 
#    z -0.044710 0.000000 1.722850 
# 
# From -- ./inp_files/89921.got.cif
#   From: 2010.05.17/outbox.cif.g08.bks.cpg/sg13_45_cif.got.tgz:89921.got - 2010.06.03 16:44:36.
