data_PCOD9233657
_publ_section_title
;
Structure prediction by ZEFSAII (Michael W. Deem and Ramdas Pophale) SiO2 
 PCOD9233657
Probable space group: P 2/C
;
_chemical_formula_sum "Si O2"
_cell_formula_units_Z 26
_cell_length_a 7.841906
_cell_length_b 16.349335
_cell_length_c 12.886950
_cell_angle_alpha 90.000000
_cell_angle_beta 44.791420
_cell_angle_gamma 90.000000
_cell_volume 1164.045864
_symmetry_space_group_name_H-M "P 2/C"
_symmetry_group_IT_number 13
_symmetry_cell_setting 'monoclinic'
loop_
_space_group_symop_operation_xyz
x,y,z
-x,y,1/2-z
-x,-y,-z
x,-y,1/2+z
loop_
_atom_site_type_symbol
_atom_site_label
_atom_site_fract_x
_atom_site_fract_y
_atom_site_fract_z
Si Si1 0.225469 0.409292 0.321862
Si Si2 0.718818 0.102463 0.717878
Si Si3 0.739614 0.750222 0.338882
Si Si4 0.000000 0.014230 0.250000
Si Si5 0.775899 0.597543 0.174864
Si Si6 0.696111 0.742598 0.846726
Si Si7 0.945980 0.840247 0.915273
O O1 0.500000 0.403051 0.250000
O O2 0.193977 0.503665 0.302176
O O3 0.224874 0.344773 0.229634
O O4 0.000529 0.389410 0.497332
O O5 0.500000 0.061613 0.750000
O O6 0.615075 0.182352 0.819898
O O7 0.900216 0.140688 0.554056
O O8 0.830616 0.041512 0.752386
O O9 0.781340 0.665660 0.261333
O O10 0.586955 0.739629 0.508169
O O11 0.000000 0.786767 0.250000
O O12 0.876239 0.077134 0.383814
O O13 0.500000 0.603781 0.250000
O O14 0.813071 0.767914 0.907479
O O15 0.779930 0.812376 0.729648
#
# Coordination Sequence:
#
# PCOD9233657 Si02
#       7
#     4   4   4   2   4   4   4
#     4  10  21  42  63  96 141 182 234 294 350 412
#     4  12  23  44  71  99 141 182 224 288 346 413
#     4  12  24  41  65 100 135 177 234 282 339 415
#     4  10  24  46  72 102 138 172 238 276 354 416
#     4  10  23  39  66  97 134 186 236 290 347 411
#     4  10  22  40  63  95 134 178 228 274 341 411
#     4  10  24  45  66 102 134 176 227 284 341 425
#
# _framework density 22.335888000000001
#
# number of rings (size 3 to 8) (size 9 to 14) (size 15 to 20)
#    0.000    1.538    2.308    2.769    4.308    1.231 
#    2.769    3.077    0.000    0.000    0.000    0.000 
#    0.000    0.000    0.000    0.000    0.000    0.000 
#
# Total GULP energy -145062.605505 kJ/mol
# GULP energy per Si atom -5579.330981 kJ/mol
# Density = 2.228505 g / cm^3
# Si number density = 22.335888 Si / 1000 Ang^3
#
#
#
# Elastic Constant Matrix: (Units=GPa)
#
#
# Indices 1 2 3 4 5 6 
#
# 1 86.4337 55.3495 28.2416 0.0000 -5.7706 0.0000
# 2 55.3495 130.2828 46.6168 0.0000 13.0100 0.0000
# 3 28.2416 46.6168 132.1865 0.0000 -4.6267 0.0000
# 4 0.0000 0.0000 0.0000 23.3678 0.0000 5.1159
# 5 -5.7706 13.0100 -4.6267 0.0000 29.4510 0.0000
# 6 0.0000 0.0000 0.0000 5.1159 0.0000 40.0139
#
#
#
# Elastic Compliance Matrix: (Units=1/GPa)
#
#
# Indices 1 2 3 4 5 6 
#
# 1 0.017186 -0.007709 -0.000720 0.000000 0.006660 0.000000
# 2 -0.007709 0.012845 -0.003152 0.000000 -0.007680 0.000000
# 3 -0.000720 -0.003152 0.008923 0.000000 0.002653 0.000000
# 4 0.000000 0.000000 0.000000 0.044026 0.000000 -0.005629
# 5 0.006660 -0.007680 0.002653 0.000000 0.039069 0.000000
# 6 0.000000 0.000000 0.000000 -0.005629 0.000000 0.025711
#
#
# Mechanical properties :
#
#
# Convention : Reuss Voigt Hill
#
# Bulk Modulus (GPa) = 63.31846 67.70209 65.51028
# Shear Modulus (GPa) = 28.37906 33.14621 30.76263
#
# Velocity S-wave (km/s) = 3.56836 3.85644 3.71519
# Velocity P-wave (km/s) = 6.73702 7.08563 6.91352
#
# Compressibility (1/GPa) = 0.01579318
#
# Stress axis : x y z
#
# Youngs Moduli (GPa) = 58.18745 77.84989 112.06590
#
# Poissons Ratio (x) = 0.60011 0.08070
# Poissons Ratio (y) = 0.44854 0.35322
# Poissons Ratio (z) = 0.04190 0.24537
#
# Static dielectric constant tensor:
#      x y z
#    x 1.928760 0.000000 -0.083920 
#    y 0.000000 1.784960 0.000000 
#    z -0.083920 0.000000 1.910190 
# 
# From -- ./inp_files/47871.got.cif
#   From: 2010.05.17/outbox.cif.g08.bks.cpg/sg13_24_cif.got.tgz:47871.got - 2010.06.03 16:44:36.
