data_PCOD9233257
_publ_section_title
;
Structure prediction by ZEFSAII (Michael W. Deem and Ramdas Pophale) SiO2 
 PCOD9233257
Probable space group: P 2/C
;
_chemical_formula_sum "Si O2"
_cell_formula_units_Z 20
_cell_length_a 19.421488
_cell_length_b 11.571477
_cell_length_c 15.830748
_cell_angle_alpha 90.000000
_cell_angle_beta 17.836585
_cell_angle_gamma 90.000000
_cell_volume 1089.743465
_symmetry_space_group_name_H-M "P 2/C"
_symmetry_group_IT_number 13
_symmetry_cell_setting 'monoclinic'
loop_
_space_group_symop_operation_xyz
x,y,z
-x,y,1/2-z
-x,-y,-z
x,-y,1/2+z
loop_
_atom_site_type_symbol
_atom_site_label
_atom_site_fract_x
_atom_site_fract_y
_atom_site_fract_z
Si Si1 0.958910 0.635252 0.038565
Si Si2 0.038004 0.235692 0.610765
Si Si3 0.443886 0.783779 0.045261
Si Si4 0.378408 0.788062 0.477419
Si Si5 0.800803 0.037823 0.793732
O O1 0.727250 0.676908 0.266482
O O2 0.938544 0.678970 0.158046
O O3 0.000000 0.500000 0.000000
O O4 0.166362 0.706181 0.752257
O O5 0.000000 0.271262 0.750000
O O6 0.908747 0.116336 0.740791
O O7 0.301944 0.232018 0.282814
O O8 0.466466 0.801040 0.119848
O O9 0.352535 0.886251 0.091009
O O10 0.500000 0.745737 0.250000
O O11 0.299467 0.919710 0.553870
O O12 0.000000 0.000000 0.500000
#
# Coordination Sequence:
#
# PCOD9233257 Si02
#       5
#     4   4   4   4   4
#     4  10  23  46  62  85 123 164 213 260 308 365
#     4  10  23  38  60  95 118 161 212 248 314 374
#     4  10  21  40  63  81 128 164 196 255 314 358
#     4  11  24  38  60  97 124 161 210 251 313 371
#     4  11  20  37  59  87 128 162 201 247 309 382
#
# _framework density 18.352944000000001
#
# number of rings (size 3 to 8) (size 9 to 14) (size 15 to 20)
#    0.000    1.600    6.000    0.600    2.800    6.400 
#    7.200    0.000    0.000    0.000    0.000    0.000 
#    0.000    0.000    0.000    0.000    0.000    0.000 
#
# Total GULP energy -111425.486780 kJ/mol
# GULP energy per Si atom -5571.274339 kJ/mol
# Density = 1.831117 g / cm^3
# Si number density = 18.352944 Si / 1000 Ang^3
#
#
#
# Elastic Constant Matrix: (Units=GPa)
#
#
# Indices 1 2 3 4 5 6 
#
# 1 94.0032 21.0603 61.4844 0.0000 16.2647 0.0000
# 2 21.0603 125.5087 33.4195 0.0000 -9.0852 0.0000
# 3 61.4844 33.4195 63.3061 0.0000 -3.0258 0.0000
# 4 0.0000 0.0000 0.0000 12.4910 0.0000 -0.4533
# 5 16.2647 -9.0852 -3.0258 0.0000 42.4987 0.0000
# 6 0.0000 0.0000 0.0000 -0.4533 0.0000 7.7348
#
#
#
# Elastic Compliance Matrix: (Units=1/GPa)
#
#
# Indices 1 2 3 4 5 6 
#
# 1 0.040032 0.003007 -0.041309 0.000000 -0.017619 0.000000
# 2 0.003007 0.009612 -0.007978 0.000000 0.000336 0.000000
# 3 -0.041309 -0.007978 0.061010 0.000000 0.018448 0.000000
# 4 0.000000 0.000000 0.000000 0.080228 0.000000 0.004702
# 5 -0.017619 0.000336 0.018448 0.000000 0.031658 0.000000
# 6 0.000000 0.000000 0.000000 0.004702 0.000000 0.129561
#
#
# Mechanical properties :
#
#
# Convention : Reuss Voigt Hill
#
# Bulk Modulus (GPa) = 55.27196 57.19404 56.23300
# Shear Modulus (GPa) = 11.09401 23.66849 17.38125
#
# Velocity S-wave (km/s) = 2.46129 3.59504 3.08076
# Velocity P-wave (km/s) = 6.18537 6.96157 6.58491
#
# Compressibility (1/GPa) = 0.01809236
#
# Stress axis : x y z
#
# Youngs Moduli (GPa) = 24.98014 104.03930 16.39068
#
# Poissons Ratio (x) = -0.31283 0.67709
# Poissons Ratio (y) = -0.07511 0.13077
# Poissons Ratio (z) = 1.03191 0.83006
#
# Static dielectric constant tensor:
#      x y z
#    x 1.843390 0.000000 -0.099700 
#    y 0.000000 1.658990 0.000000 
#    z -0.099700 0.000000 1.664510 
# 
# From -- ./inp_files/43413.got.cif
#   From: 2010.05.17/outbox.cif.g08.bks.cpg/sg13_22_cif.got.tgz:43413.got - 2010.06.03 16:44:36.
