data_PCOD9233837
_publ_section_title
;
Structure prediction by ZEFSAII (Michael W. Deem and Ramdas Pophale) SiO2 
 PCOD9233837
Probable space group: P 2/C
;
_chemical_formula_sum "Si O2"
_cell_formula_units_Z 24
_cell_length_a 22.061948
_cell_length_b 6.052713
_cell_length_c 14.970906
_cell_angle_alpha 90.000000
_cell_angle_beta 36.014516
_cell_angle_gamma 90.000000
_cell_volume 1175.471514
_symmetry_space_group_name_H-M "P 2/C"
_symmetry_group_IT_number 13
_symmetry_cell_setting 'monoclinic'
loop_
_space_group_symop_operation_xyz
x,y,z
-x,y,1/2-z
-x,-y,-z
x,-y,1/2+z
loop_
_atom_site_type_symbol
_atom_site_label
_atom_site_fract_x
_atom_site_fract_y
_atom_site_fract_z
Si Si1 0.932235 0.971117 0.993336
Si Si2 0.472469 0.592489 0.935574
Si Si3 0.500000 0.762876 0.250000
Si Si4 0.645924 0.054247 0.177717
Si Si5 0.000000 0.670209 0.750000
Si Si6 0.174672 0.650010 0.990626
Si Si7 0.278975 0.730074 0.255588
O O1 0.988037 0.822985 0.851318
O O2 0.827276 0.844750 0.144528
O O3 0.896673 0.197092 0.987310
O O4 0.000000 0.000000 0.000000
O O5 0.478188 0.394375 0.859309
O O6 0.554874 0.777027 0.810763
O O7 0.500000 0.500000 0.000000
O O8 0.358337 0.690345 0.081590
O O9 0.599829 0.910686 0.152620
O O10 0.751232 0.191606 0.039978
O O11 0.668645 0.889990 0.233291
O O12 0.100749 0.514669 0.632612
O O13 0.248495 0.498370 0.841067
#
# Coordination Sequence:
#
# PCOD9233837 Si02
#       7
#     4   4   2   4   2   4   4
#     4  10  23  44  69  98 134 175 228 281 340 409
#     4  12  23  44  69  93 141 185 221 281 337 412
#     4  12  26  38  64 108 136 178 234 272 340 412
#     4  11  22  42  67  95 136 177 226 278 335 408
#     4  10  22  42  70  96 132 178 222 280 346 396
#     4  10  21  43  67  94 131 179 223 276 341 406
#     4  10  22  41  70  93 128 184 222 274 345 399
#
# _framework density 20.417338000000001
#
# number of rings (size 3 to 8) (size 9 to 14) (size 15 to 20)
#    0.000    1.333    3.333    1.500    0.000    2.667 
#    0.000   31.667    0.000    0.000    0.000    0.000 
#    0.000    0.000    0.000    0.000    0.000    0.000 
#
# Total GULP energy -134213.406196 kJ/mol
# GULP energy per Si atom -5592.225258 kJ/mol
# Density = 2.037087 g / cm^3
# Si number density = 20.417338 Si / 1000 Ang^3
#
#
#
# Elastic Constant Matrix: (Units=GPa)
#
#
# Indices 1 2 3 4 5 6 
#
# 1 160.6426 79.7656 64.2829 0.0000 -10.6665 0.0000
# 2 79.7656 139.6612 58.3987 0.0000 -4.6854 0.0000
# 3 64.2829 58.3987 112.4875 0.0000 -9.7632 0.0000
# 4 0.0000 0.0000 0.0000 19.7275 0.0000 -21.4730
# 5 -10.6665 -4.6854 -9.7632 0.0000 24.2698 0.0000
# 6 0.0000 0.0000 0.0000 -21.4730 0.0000 28.9907
#
#
#
# Elastic Compliance Matrix: (Units=1/GPa)
#
#
# Indices 1 2 3 4 5 6 
#
# 1 0.009704 -0.004125 -0.003215 0.000000 0.002175 0.000000
# 2 -0.004125 0.010899 -0.003394 0.000000 -0.001074 0.000000
# 3 -0.003215 -0.003394 0.012755 0.000000 0.003063 0.000000
# 4 0.000000 0.000000 0.000000 0.261594 0.000000 0.193760
# 5 0.002175 -0.001074 0.003063 0.000000 0.043184 0.000000
# 6 0.000000 0.000000 0.000000 0.193760 0.000000 0.178009
#
#
# Mechanical properties :
#
#
# Convention : Reuss Voigt Hill
#
# Bulk Modulus (GPa) = 84.10766 90.85397 87.48081
# Shear Modulus (GPa) = 9.23225 28.62054 18.92639
#
# Velocity S-wave (km/s) = 2.12875 3.74809 3.04793
# Velocity P-wave (km/s) = 6.87937 7.95776 7.43814
#
# Compressibility (1/GPa) = 0.01188952
#
# Stress axis : x y z
#
# Youngs Moduli (GPa) = 103.04659 91.74751 78.39788
#
# Poissons Ratio (x) = 0.37846 0.25208
# Poissons Ratio (y) = 0.42507 0.26612
# Poissons Ratio (z) = 0.33133 0.31143
#
# Static dielectric constant tensor:
#      x y z
#    x 1.685420 0.000000 -0.029890 
#    y 0.000000 1.745150 0.000000 
#    z -0.029890 0.000000 1.716100 
# 
# From -- ./inp_files/51869.got.cif
#   From: 2010.05.17/outbox.cif.g08.bks.cpg/sg13_26_cif.got.tgz:51869.got - 2010.06.03 16:44:36.
