data_PCOD9233928
_publ_section_title
;
Structure prediction by ZEFSAII (Michael W. Deem and Ramdas Pophale) SiO2 
 PCOD9233928
Probable space group: P 2/C
;
_chemical_formula_sum "Si O2"
_cell_formula_units_Z 20
_cell_length_a 14.129608
_cell_length_b 8.633290
_cell_length_c 19.853295
_cell_angle_alpha 90.000000
_cell_angle_beta 160.190401
_cell_angle_gamma 90.000000
_cell_volume 820.738675
_symmetry_space_group_name_H-M "P 2/C"
_symmetry_group_IT_number 13
_symmetry_cell_setting 'monoclinic'
loop_
_space_group_symop_operation_xyz
x,y,z
-x,y,1/2-z
-x,-y,-z
x,-y,1/2+z
loop_
_atom_site_type_symbol
_atom_site_label
_atom_site_fract_x
_atom_site_fract_y
_atom_site_fract_z
Si Si1 0.540528 0.175911 0.500838
Si Si2 0.947624 0.695369 0.369297
Si Si3 0.929643 0.402027 0.273133
Si Si4 0.292613 0.899747 0.691468
Si Si5 0.535329 0.778149 0.348276
O O1 0.849451 0.215265 0.735452
O O2 0.363851 0.315639 0.417007
O O3 0.410195 0.177029 0.338576
O O4 0.500000 0.000000 0.500000
O O5 0.976369 0.519214 0.365548
O O6 0.702146 0.716016 0.260696
O O7 0.212984 0.773720 0.582318
O O8 0.000000 0.487259 0.250000
O O9 0.157750 0.267202 0.424910
O O10 0.511202 0.037352 0.827225
O O11 0.000000 0.000000 0.500000
O O12 0.500000 0.712986 0.250000
#
# Coordination Sequence:
#
# PCOD9233928 Si02
#       5
#     4   4   4   4   4
#     4  12  22  43  78  99 140 200 240 302 374 426
#     4  11  25  47  72 104 151 190 239 310 365 431
#     4  12  25  46  72 108 151 195 245 300 374 438
#     4  10  21  44  73 103 135 187 247 302 367 429
#     4  11  24  44  74 106 145 190 247 299 364 438
#
# _framework density 24.368293999999999
#
# number of rings (size 3 to 8) (size 9 to 14) (size 15 to 20)
#    0.000    0.800    6.000    3.000    0.000    3.200 
#    3.600    1.000    0.000    0.000    0.000    0.000 
#    0.000    0.000    0.000    0.000    0.000    0.000 
#
# Total GULP energy -111674.448231 kJ/mol
# GULP energy per Si atom -5583.722412 kJ/mol
# Density = 2.431283 g / cm^3
# Si number density = 24.368294 Si / 1000 Ang^3
#
#
#
# Elastic Constant Matrix: (Units=GPa)
#
#
# Indices 1 2 3 4 5 6 
#
# 1 120.0403 48.8312 57.4353 0.0000 -37.7017 0.0000
# 2 48.8312 141.6476 46.1661 0.0000 -11.7518 0.0000
# 3 57.4353 46.1661 138.3725 0.0000 -47.0158 0.0000
# 4 0.0000 0.0000 0.0000 30.8857 0.0000 -17.8718
# 5 -37.7017 -11.7518 -47.0158 0.0000 40.5812 0.0000
# 6 0.0000 0.0000 0.0000 -17.8718 0.0000 28.9388
#
#
#
# Elastic Compliance Matrix: (Units=1/GPa)
#
#
# Indices 1 2 3 4 5 6 
#
# 1 0.013457 -0.003490 -0.000852 0.000000 0.010504 0.000000
# 2 -0.003490 0.008866 -0.002867 0.000000 -0.003997 0.000000
# 3 -0.000852 -0.002867 0.013171 0.000000 0.013637 0.000000
# 4 0.000000 0.000000 0.000000 0.050381 0.000000 0.031114
# 5 0.010504 -0.003997 0.013637 0.000000 0.049043 0.000000
# 6 0.000000 0.000000 0.000000 0.031114 0.000000 0.053771
#
#
# Mechanical properties :
#
#
# Convention : Reuss Voigt Hill
#
# Bulk Modulus (GPa) = 47.45078 78.32506 62.88792
# Shear Modulus (GPa) = 23.79445 36.58965 30.19205
#
# Velocity S-wave (km/s) = 3.12821 3.87916 3.52375
# Velocity P-wave (km/s) = 5.70633 7.23020 6.51299
#
# Compressibility (1/GPa) = 0.02107447
#
# Stress axis : x y z
#
# Youngs Moduli (GPa) = 74.31029 112.79254 75.92496
#
# Poissons Ratio (x) = 0.39363 0.06471
# Poissons Ratio (y) = 0.25934 0.21771
# Poissons Ratio (z) = 0.06334 0.32343
#
# Static dielectric constant tensor:
#      x y z
#    x 2.174890 0.000000 -0.049580 
#    y 0.000000 1.903260 0.000000 
#    z -0.049580 0.000000 2.012640 
# 
# From -- ./inp_files/79898.got.cif
#   From: 2010.05.17/outbox.cif.g08.bks.cpg/sg13_40_cif.got.tgz:79898.got - 2010.06.03 16:44:36.
