data_PCOD9233451
_publ_section_title
;
Structure prediction by ZEFSAII (Michael W. Deem and Ramdas Pophale) SiO2 
 PCOD9233451
Probable space group: P 2/C
;
_chemical_formula_sum "Si O2"
_cell_formula_units_Z 18
_cell_length_a 22.365429
_cell_length_b 5.015571
_cell_length_c 11.856646
_cell_angle_alpha 90.000000
_cell_angle_beta 147.292058
_cell_angle_gamma 90.000000
_cell_volume 718.687712
_symmetry_space_group_name_H-M "P 2/C"
_symmetry_group_IT_number 13
_symmetry_cell_setting 'monoclinic'
loop_
_space_group_symop_operation_xyz
x,y,z
-x,y,1/2-z
-x,-y,-z
x,-y,1/2+z
loop_
_atom_site_type_symbol
_atom_site_label
_atom_site_fract_x
_atom_site_fract_y
_atom_site_fract_z
Si Si1 0.000000 0.786891 0.250000
Si Si2 0.827990 0.025904 0.299284
Si Si3 0.879516 0.516540 0.251139
Si Si4 0.375307 0.157923 0.366796
Si Si5 0.493853 0.333798 0.365512
O O1 0.061652 0.952139 0.446688
O O2 0.092277 0.610254 0.330612
O O3 0.830509 0.226540 0.196533
O O4 0.732644 0.128341 0.230397
O O5 0.817749 0.734117 0.230673
O O6 0.000000 0.500000 0.500000
O O7 0.378027 0.283626 0.245248
O O8 0.459246 0.368623 0.558376
O O9 0.421614 0.858625 0.434237
O O10 0.500000 0.230478 0.250000
#
# Coordination Sequence:
#
# PCOD9233451 Si02
#       5
#     2   4   4   4   4
#     4  10  22  40  60  82 118 160 192 234 296 344
#     4  11  23  38  59  89 119 154 199 244 287 348
#     4  10  22  39  57  82 117 154 199 244 285 340
#     4  10  22  38  60  90 119 149 198 245 288 354
#     4  10  21  41  62  85 119 156 190 242 304 354
#
# _framework density 25.045649999999998
#
# number of rings (size 3 to 8) (size 9 to 14) (size 15 to 20)
#    0.000    1.778    0.000    4.667    0.000   11.556 
#    0.000    0.000    0.000    0.000    0.000    0.000 
#    0.000    0.000    0.000    0.000    0.000    0.000 
#
# Total GULP energy -100547.138257 kJ/mol
# GULP energy per Si atom -5585.952125 kJ/mol
# Density = 2.498865 g / cm^3
# Si number density = 25.045650 Si / 1000 Ang^3
#
#
#
# Elastic Constant Matrix: (Units=GPa)
#
#
# Indices 1 2 3 4 5 6 
#
# 1 166.2581 10.0727 19.3104 0.0000 8.8757 0.0000
# 2 10.0727 109.2001 15.7297 0.0000 5.3488 0.0000
# 3 19.3104 15.7297 45.0877 0.0000 -7.4711 0.0000
# 4 0.0000 0.0000 0.0000 101.5234 0.0000 -11.4469
# 5 8.8757 5.3488 -7.4711 0.0000 40.7677 0.0000
# 6 0.0000 0.0000 0.0000 -11.4469 0.0000 47.1725
#
#
#
# Elastic Compliance Matrix: (Units=1/GPa)
#
#
# Indices 1 2 3 4 5 6 
#
# 1 0.006481 -0.000057 -0.003082 0.000000 -0.001968 0.000000
# 2 -0.000057 0.009794 -0.003716 0.000000 -0.001953 0.000000
# 3 -0.003082 -0.003716 0.025770 0.000000 0.005881 0.000000
# 4 0.000000 0.000000 0.000000 0.010127 0.000000 0.002457
# 5 -0.001968 -0.001953 0.005881 0.000000 0.026292 0.000000
# 6 0.000000 0.000000 0.000000 0.002457 0.000000 0.021795
#
#
# Mechanical properties :
#
#
# Convention : Reuss Voigt Hill
#
# Bulk Modulus (GPa) = 35.29287 45.64129 40.46708
# Shear Modulus (GPa) = 40.51409 56.25492 48.38451
#
# Velocity S-wave (km/s) = 4.02632 4.74444 4.40005
# Velocity P-wave (km/s) = 5.97804 6.94808 6.48123
#
# Compressibility (1/GPa) = 0.02833433
#
# Stress axis : x y z
#
# Youngs Moduli (GPa) = 154.29095 102.10619 38.80520
#
# Poissons Ratio (x) = 0.00587 0.11959
# Poissons Ratio (y) = 0.00887 0.14419
# Poissons Ratio (z) = 0.47551 0.37940
#
# Static dielectric constant tensor:
#      x y z
#    x 2.096960 0.000000 -0.016490 
#    y 0.000000 1.932660 0.000000 
#    z -0.016490 0.000000 2.090920 
# 
# From -- ./inp_files/39599.got.cif
#   From: 2010.05.17/outbox.cif.g08.bks.cpg/sg13_20_cif.got.tgz:39599.got - 2010.06.03 16:44:36.
