data_PCOD9233427
_publ_section_title
;
Structure prediction by ZEFSAII (Michael W. Deem and Ramdas Pophale) SiO2 
 PCOD9233427
Probable space group: P 2/C
;
_chemical_formula_sum "Si O2"
_cell_formula_units_Z 26
_cell_length_a 5.590154
_cell_length_b 10.773186
_cell_length_c 22.364985
_cell_angle_alpha 90.000000
_cell_angle_beta 62.922320
_cell_angle_gamma 90.000000
_cell_volume 1199.269840
_symmetry_space_group_name_H-M "P 2/C"
_symmetry_group_IT_number 13
_symmetry_cell_setting 'monoclinic'
loop_
_space_group_symop_operation_xyz
x,y,z
-x,y,1/2-z
-x,-y,-z
x,-y,1/2+z
loop_
_atom_site_type_symbol
_atom_site_label
_atom_site_fract_x
_atom_site_fract_y
_atom_site_fract_z
Si Si1 0.368032 0.206287 0.327099
Si Si2 0.245226 0.463159 0.674263
Si Si3 0.746064 0.296998 0.394230
Si Si4 0.500000 0.386149 0.750000
Si Si5 0.685064 0.113010 0.501143
Si Si6 0.013284 0.209171 0.683222
Si Si7 0.828515 0.032584 0.606324
O O1 0.500000 0.242958 0.250000
O O2 0.553136 0.248706 0.362164
O O3 0.058790 0.254099 0.357332
O O4 0.362200 0.056024 0.333943
O O5 0.249583 0.556230 0.619096
O O6 0.491973 0.470359 0.691928
O O7 0.000000 0.488882 0.750000
O O8 0.231060 0.319112 0.657013
O O9 0.634074 0.236657 0.468420
O O10 0.746451 0.293622 0.712940
O O11 0.681765 0.115000 0.573161
O O12 0.500000 0.000000 0.500000
O O13 0.984421 0.066531 0.449412
O O14 0.006860 0.115532 0.629745
O O15 0.000000 0.146038 0.750000
#
# Coordination Sequence:
#
# PCOD9233427 Si02
#       7
#     4   4   4   2   4   4   4
#     4  11  23  36  58  94 121 158 195 258 317 366
#     4   9  19  35  56  86 118 156 195 248 305 368
#     4  11  23  38  62  87 126 160 207 252 305 370
#     4   8  18  34  56  82 118 158 190 228 316 360
#     4  10  21  41  58  82 112 172 205 251 301 359
#     4   9  20  36  57  88 119 157 192 251 311 369
#     4  10  22  38  60  83 122 154 209 247 304 375
#
# _framework density 21.679860000000001
#
# number of rings (size 3 to 8) (size 9 to 14) (size 15 to 20)
#    0.000    2.462    1.538    1.385    6.462    4.923 
#    0.000    0.769    0.000    1.846    0.000    0.000 
#    0.000    0.000    0.000    0.000    0.000    0.000 
#
# Total GULP energy -144829.270541 kJ/mol
# GULP energy per Si atom -5570.356559 kJ/mol
# Density = 2.163052 g / cm^3
# Si number density = 21.679860 Si / 1000 Ang^3
#
#
#
# Elastic Constant Matrix: (Units=GPa)
#
#
# Indices 1 2 3 4 5 6 
#
# 1 93.6981 8.9174 20.0552 0.0000 23.1026 0.0000
# 2 8.9174 75.3867 29.3226 0.0000 21.6967 0.0000
# 3 20.0552 29.3226 39.1805 0.0000 31.1290 0.0000
# 4 0.0000 0.0000 0.0000 6.3514 0.0000 -2.7502
# 5 23.1026 21.6967 31.1290 0.0000 41.2657 0.0000
# 6 0.0000 0.0000 0.0000 -2.7502 0.0000 18.2530
#
#
#
# Elastic Compliance Matrix: (Units=1/GPa)
#
#
# Indices 1 2 3 4 5 6 
#
# 1 0.012535 0.001270 -0.003146 0.000000 -0.005312 0.000000
# 2 0.001270 0.018895 -0.015806 0.000000 0.001278 0.000000
# 3 -0.003146 -0.015806 0.077273 0.000000 -0.048220 0.000000
# 4 0.000000 0.000000 0.000000 0.168435 0.000000 0.025378
# 5 -0.005312 0.001278 -0.048220 0.000000 0.062910 0.000000
# 6 0.000000 0.000000 0.000000 0.025378 0.000000 0.058609
#
#
# Mechanical properties :
#
#
# Convention : Reuss Voigt Hill
#
# Bulk Modulus (GPa) = 13.63553 36.09506 24.86530
# Shear Modulus (GPa) = 10.90586 23.17201 17.03893
#
# Velocity S-wave (km/s) = 2.24529 3.27284 2.80649
# Velocity P-wave (km/s) = 3.60901 5.56482 4.69000
#
# Compressibility (1/GPa) = 0.07333781
#
# Stress axis : x y z
#
# Youngs Moduli (GPa) = 79.77741 52.92404 12.94106
#
# Poissons Ratio (x) = -0.06720 0.04071
# Poissons Ratio (y) = -0.10130 0.20455
# Poissons Ratio (z) = 0.25098 0.83654
#
# Static dielectric constant tensor:
#      x y z
#    x 1.875080 0.000000 0.014180 
#    y 0.000000 1.818320 0.000000 
#    z 0.014180 0.000000 1.809390 
# 
# From -- ./inp_files/73386.got.cif
#   From: 2010.05.17/outbox.cif.g08.bks.cpg/sg13_37_cif.got.tgz:73386.got - 2010.06.03 16:44:36.
