data_PCOD9233890
_publ_section_title
;
Structure prediction by ZEFSAII (Michael W. Deem and Ramdas Pophale) SiO2 
 PCOD9233890
Probable space group: P 2/C
;
_chemical_formula_sum "Si O2"
_cell_formula_units_Z 20
_cell_length_a 5.496183
_cell_length_b 9.223828
_cell_length_c 18.082036
_cell_angle_alpha 90.000000
_cell_angle_beta 56.897870
_cell_angle_gamma 90.000000
_cell_volume 767.904837
_symmetry_space_group_name_H-M "P 2/C"
_symmetry_group_IT_number 13
_symmetry_cell_setting 'monoclinic'
loop_
_space_group_symop_operation_xyz
x,y,z
-x,y,1/2-z
-x,-y,-z
x,-y,1/2+z
loop_
_atom_site_type_symbol
_atom_site_label
_atom_site_fract_x
_atom_site_fract_y
_atom_site_fract_z
Si Si1 0.500000 0.367904 0.750000
Si Si2 0.500000 0.059909 0.250000
Si Si3 0.385904 0.348791 0.051098
Si Si4 0.271192 0.103942 0.437847
Si Si5 0.526230 0.800697 0.099316
Si Si6 0.000000 0.551417 0.750000
Si Si7 0.000000 0.124987 0.750000
O O1 0.379232 0.265720 0.837087
O O2 0.253776 0.467247 0.753110
O O3 0.337873 0.144061 0.341933
O O4 0.232401 0.968317 0.258291
O O5 0.651531 0.242700 0.028049
O O6 0.175670 0.363479 0.155887
O O7 0.500000 0.500000 0.000000
O O8 0.272093 0.269037 0.996278
O O9 0.499853 0.972309 0.412907
O O10 0.000000 0.000000 0.500000
O O11 0.182336 0.771990 0.164394
#
# Coordination Sequence:
#
# PCOD9233890 Si02
#       7
#     2   2   4   4   4   2   2
#     4  12  27  51  84 116 159 229 284 350 425 521
#     4  10  23  45  76 112 167 207 270 350 423 483
#     4  12  28  50  79 121 170 229 277 357 436 522
#     4  11  26  46  79 125 163 217 285 355 425 510
#     4  11  24  46  83 116 159 214 282 346 419 502
#     4  12  31  55  80 120 175 221 288 344 445 529
#     4  10  21  43  78 120 151 211 272 350 413 499
#
# _framework density 26.044893999999999
#
# number of rings (size 3 to 8) (size 9 to 14) (size 15 to 20)
#    0.000    0.800    2.000    4.800    2.800    9.600 
#    0.000    0.000    0.000    0.000    0.000    0.000 
#    0.000    0.000    0.000    0.000    0.000    0.000 
#
# Total GULP energy -111430.016150 kJ/mol
# GULP energy per Si atom -5571.500808 kJ/mol
# Density = 2.598561 g / cm^3
# Si number density = 26.044894 Si / 1000 Ang^3
#
#
#
# Elastic Constant Matrix: (Units=GPa)
#
#
# Indices 1 2 3 4 5 6 
#
# 1 154.0884 41.3819 39.8243 0.0000 2.1404 0.0000
# 2 41.3819 127.4529 50.9769 0.0000 11.9697 0.0000
# 3 39.8243 50.9769 230.6061 0.0000 17.2435 0.0000
# 4 0.0000 0.0000 0.0000 30.1060 0.0000 24.4101
# 5 2.1404 11.9697 17.2435 0.0000 45.7912 0.0000
# 6 0.0000 0.0000 0.0000 24.4101 0.0000 45.8007
#
#
#
# Elastic Compliance Matrix: (Units=1/GPa)
#
#
# Indices 1 2 3 4 5 6 
#
# 1 0.007254 -0.002070 -0.000834 0.000000 0.000516 0.000000
# 2 -0.002070 0.009310 -0.001570 0.000000 -0.001746 0.000000
# 3 -0.000834 -0.001570 0.004933 0.000000 -0.001408 0.000000
# 4 0.000000 0.000000 0.000000 0.058492 0.000000 -0.031174
# 5 0.000516 -0.001746 -0.001408 0.000000 0.022801 0.000000
# 6 0.000000 0.000000 0.000000 -0.031174 0.000000 0.038448
#
#
# Mechanical properties :
#
#
# Convention : Reuss Voigt Hill
#
# Bulk Modulus (GPa) = 79.68782 86.27929 82.98355
# Shear Modulus (GPa) = 32.38995 49.67054 41.03024
#
# Velocity S-wave (km/s) = 3.53033 4.37179 3.97339
# Velocity P-wave (km/s) = 6.87607 7.66045 7.27883
#
# Compressibility (1/GPa) = 0.01254897
#
# Stress axis : x y z
#
# Youngs Moduli (GPa) = 137.85353 107.41002 202.72789
#
# Poissons Ratio (x) = 0.22237 0.16901
# Poissons Ratio (y) = 0.28540 0.31828
# Poissons Ratio (z) = 0.11492 0.16863
#
# Static dielectric constant tensor:
#      x y z
#    x 2.419860 0.000000 -0.047370 
#    y 0.000000 2.255030 0.000000 
#    z -0.047370 0.000000 2.243100 
# 
# From -- ./inp_files/72755.got.cif
#   From: 2010.05.17/outbox.cif.g08.bks.cpg/sg13_37_cif.got.tgz:72755.got - 2010.06.03 16:44:36.
