data_PCOD9233505
_publ_section_title
;
Structure prediction by ZEFSAII (Michael W. Deem and Ramdas Pophale) SiO2 
 PCOD9233505
Probable space group: P 2/C
;
_chemical_formula_sum "Si O2"
_cell_formula_units_Z 24
_cell_length_a 14.330133
_cell_length_b 6.227174
_cell_length_c 19.602657
_cell_angle_alpha 90.000000
_cell_angle_beta 141.713393
_cell_angle_gamma 90.000000
_cell_volume 1083.838236
_symmetry_space_group_name_H-M "P 2/C"
_symmetry_group_IT_number 13
_symmetry_cell_setting 'monoclinic'
loop_
_space_group_symop_operation_xyz
x,y,z
-x,y,1/2-z
-x,-y,-z
x,-y,1/2+z
loop_
_atom_site_type_symbol
_atom_site_label
_atom_site_fract_x
_atom_site_fract_y
_atom_site_fract_z
Si Si1 0.802829 0.437470 0.295758
Si Si2 0.034451 0.319598 0.843228
Si Si3 0.611295 0.836523 0.173833
Si Si4 0.720843 0.985835 0.996917
Si Si5 0.827591 0.935620 0.906294
Si Si6 0.197299 0.061477 0.313440
O O1 0.654461 0.586342 0.205298
O O2 0.811483 0.311997 0.372328
O O3 0.796140 0.262789 0.231790
O O4 0.955186 0.565268 0.361492
O O5 0.000000 0.426583 0.750000
O O6 0.209746 0.253837 0.948094
O O7 0.941993 0.093617 0.785114
O O8 0.451390 0.939842 0.099088
O O9 0.728086 0.938275 0.294517
O O10 0.660840 0.913027 0.126946
O O11 0.774231 0.006415 0.950161
O O12 0.792284 0.117509 0.101225
O O13 0.000000 0.000000 0.000000
#
# Coordination Sequence:
#
# PCOD9233505 Si02
#       6
#     4   4   4   4   4   4
#     4  10  21  41  65  90 126 171 214 254 311 384
#     4   9  20  37  62  95 127 165 215 262 306 368
#     4  10  22  41  61  89 126 163 209 263 318 375
#     4  11  21  39  64  91 127 164 202 261 321 366
#     4  11  24  42  62  88 128 171 210 259 315 376
#     4   9  20  40  63  89 123 163 209 261 312 370
#
# _framework density 22.143523999999999
#
# number of rings (size 3 to 8) (size 9 to 14) (size 15 to 20)
#    0.000    2.000    0.000    4.000    0.000    6.667 
#    0.000   20.000    0.000    0.000    0.000    0.000 
#    0.000    0.000    0.000    0.000    0.000    0.000 
#
# Total GULP energy -133724.385978 kJ/mol
# GULP energy per Si atom -5571.849416 kJ/mol
# Density = 2.209312 g / cm^3
# Si number density = 22.143524 Si / 1000 Ang^3
#
#
#
# Elastic Constant Matrix: (Units=GPa)
#
#
# Indices 1 2 3 4 5 6 
#
# 1 162.4509 39.6076 47.3357 0.0000 4.4979 0.0000
# 2 39.6076 81.1796 37.4797 0.0000 6.6808 0.0000
# 3 47.3357 37.4797 96.1897 0.0000 -1.1059 0.0000
# 4 0.0000 0.0000 0.0000 9.7170 0.0000 -5.9819
# 5 4.4979 6.6808 -1.1059 0.0000 47.1406 0.0000
# 6 0.0000 0.0000 0.0000 -5.9819 0.0000 13.4945
#
#
#
# Elastic Compliance Matrix: (Units=1/GPa)
#
#
# Indices 1 2 3 4 5 6 
#
# 1 0.007561 -0.002355 -0.002808 0.000000 -0.000454 0.000000
# 2 -0.002355 0.016000 -0.005100 0.000000 -0.002162 0.000000
# 3 -0.002808 -0.005100 0.013781 0.000000 0.001314 0.000000
# 4 0.000000 0.000000 0.000000 0.141535 0.000000 0.062740
# 5 -0.000454 -0.002162 0.001314 0.000000 0.021594 0.000000
# 6 0.000000 0.000000 0.000000 0.062740 0.000000 0.101915
#
#
# Mechanical properties :
#
#
# Convention : Reuss Voigt Hill
#
# Bulk Modulus (GPa) = 59.47366 65.40736 62.44051
# Shear Modulus (GPa) = 15.21992 28.43025 21.82508
#
# Velocity S-wave (km/s) = 2.62454 3.58705 3.14286
# Velocity P-wave (km/s) = 6.00840 6.83798 6.43657
#
# Compressibility (1/GPa) = 0.01681417
#
# Stress axis : x y z
#
# Youngs Moduli (GPa) = 132.26216 62.49973 72.56628
#
# Poissons Ratio (x) = 0.14719 0.20379
# Poissons Ratio (y) = 0.31148 0.37011
# Poissons Ratio (z) = 0.37143 0.31876
#
# Static dielectric constant tensor:
#      x y z
#    x 1.866270 0.000000 0.002420 
#    y 0.000000 1.889230 0.000000 
#    z 0.002420 0.000000 1.841660 
# 
# From -- ./inp_files/79393.got.cif
#   From: 2010.05.17/outbox.cif.g08.bks.cpg/sg13_40_cif.got.tgz:79393.got - 2010.06.03 16:44:36.
