data_PCOD9233325
_publ_section_title
;
Structure prediction by ZEFSAII (Michael W. Deem and Ramdas Pophale) SiO2 
 PCOD9233325
Probable space group: P 2/C
;
_chemical_formula_sum "Si O2"
_cell_formula_units_Z 28
_cell_length_a 22.370624
_cell_length_b 6.435303
_cell_length_c 13.882044
_cell_angle_alpha 90.000000
_cell_angle_beta 136.854988
_cell_angle_gamma 90.000000
_cell_volume 1366.657150
_symmetry_space_group_name_H-M "P 2/C"
_symmetry_group_IT_number 13
_symmetry_cell_setting 'monoclinic'
loop_
_space_group_symop_operation_xyz
x,y,z
-x,y,1/2-z
-x,-y,-z
x,-y,1/2+z
loop_
_atom_site_type_symbol
_atom_site_label
_atom_site_fract_x
_atom_site_fract_y
_atom_site_fract_z
Si Si1 0.208128 0.681553 0.928130
Si Si2 0.774765 0.023256 0.399785
Si Si3 0.904642 0.700554 0.180552
Si Si4 0.677334 0.621724 0.059980
Si Si5 0.495943 0.568882 0.140158
Si Si6 0.177610 0.057234 0.754947
Si Si7 0.368728 0.346508 0.329763
O O1 0.126991 0.536456 0.860490
O O2 0.280820 0.528651 0.970360
O O3 0.178442 0.838027 0.809274
O O4 0.241873 0.819887 0.055872
O O5 0.835426 0.170329 0.535951
O O6 0.687645 0.151751 0.270188
O O7 0.826950 0.967517 0.364205
O O8 0.891276 0.792167 0.272777
O O9 0.000000 0.728866 0.250000
O O10 0.727701 0.835986 0.115574
O O11 0.691673 0.505184 0.179463
O O12 0.573394 0.621361 0.927050
O O13 0.500000 0.670511 0.250000
O O14 0.583059 0.473706 0.197588
O O15 0.445507 0.702444 0.998786
#
# Coordination Sequence:
#
# PCOD9233325 Si02
#       7
#     4   4   4   4   4   4   4
#     4  10  22  38  65  92 125 169 211 262 315 381
#     4  11  23  39  70  95 126 168 217 261 319 384
#     4  10  25  44  65  96 128 163 207 261 331 388
#     4   9  19  38  62  86 129 165 214 257 314 369
#     4   9  19  33  64  91 130 177 207 262 318 360
#     4  10  21  40  65  95 124 164 210 262 307 389
#     4   9  20  38  60  95 127 168 218 256 315 374
#
# _framework density 20.487946000000001
#
# number of rings (size 3 to 8) (size 9 to 14) (size 15 to 20)
#    0.857    1.429    1.429    0.000    8.000    2.857 
#    0.000    2.143    3.143    0.000    0.000    0.000 
#    0.000    0.000    0.000    0.000    0.000    0.000 
#
# Total GULP energy -156141.553469 kJ/mol
# GULP energy per Si atom -5576.484052 kJ/mol
# Density = 2.044131 g / cm^3
# Si number density = 20.487946 Si / 1000 Ang^3
#
#
#
# Elastic Constant Matrix: (Units=GPa)
#
#
# Indices 1 2 3 4 5 6 
#
# 1 117.4504 24.9742 35.2028 0.0000 -13.8563 0.0000
# 2 24.9742 74.9123 25.6322 0.0000 -6.8479 0.0000
# 3 35.2028 25.6322 37.9229 0.0000 -26.1617 0.0000
# 4 0.0000 0.0000 0.0000 20.2083 0.0000 -12.9630
# 5 -13.8563 -6.8479 -26.1617 0.0000 37.7458 0.0000
# 6 0.0000 0.0000 0.0000 -12.9630 0.0000 -3.9818
#
#
#
# Elastic Compliance Matrix: (Units=1/GPa)
#
#
# Indices 1 2 3 4 5 6 
#
# 1 0.012682 0.001119 -0.017586 0.000000 -0.007330 0.000000
# 2 0.001119 0.019468 -0.021994 0.000000 -0.011301 0.000000
# 3 -0.017586 -0.021994 0.096489 0.000000 0.056431 0.000000
# 4 0.000000 0.000000 0.000000 0.016023 0.000000 -0.052164
# 5 -0.007330 -0.011301 0.056431 0.000000 0.060864 0.000000
# 6 0.000000 0.000000 0.000000 -0.052164 0.000000 -0.081320
#
#
# Mechanical properties :
#
#
# Convention : Reuss Voigt Hill
#
# Bulk Modulus (GPa) = 19.33541 44.65599 31.99570
# Shear Modulus (GPa) = 22.89713 20.42622 21.66167
#
# Velocity S-wave (km/s) = 3.34666 3.16094 3.25513
# Velocity P-wave (km/s) = 4.93877 5.93006 5.45697
#
# Compressibility (1/GPa) = 0.05171859
#
# Stress axis : x y z
#
# Youngs Moduli (GPa) = 78.84905 51.36581 10.36386
#
# Poissons Ratio (x) = -0.05749 0.18226
# Poissons Ratio (y) = -0.08825 0.22794
# Poissons Ratio (z) = 1.38665 1.12972
#
# Static dielectric constant tensor:
#      x y z
#    x 1.748380 0.000000 -0.034930 
#    y 0.000000 1.706690 0.000000 
#    z -0.034930 0.000000 1.766680 
# 
# From -- ./inp_files/59203.got.cif
#   From: 2010.05.17/outbox.cif.g08.bks.cpg/sg13_30_cif.got.tgz:59203.got - 2010.06.03 16:44:36.
