data_PCOD9233337
_publ_section_title
;
Structure prediction by ZEFSAII (Michael W. Deem and Ramdas Pophale) SiO2 
 PCOD9233337
Probable space group: P 2/C
;
_chemical_formula_sum "Si O2"
_cell_formula_units_Z 24
_cell_length_a 23.665059
_cell_length_b 8.044952
_cell_length_c 19.802321
_cell_angle_alpha 90.000000
_cell_angle_beta 17.070293
_cell_angle_gamma 90.000000
_cell_volume 1106.678366
_symmetry_space_group_name_H-M "P 2/C"
_symmetry_group_IT_number 13
_symmetry_cell_setting 'monoclinic'
loop_
_space_group_symop_operation_xyz
x,y,z
-x,y,1/2-z
-x,-y,-z
x,-y,1/2+z
loop_
_atom_site_type_symbol
_atom_site_label
_atom_site_fract_x
_atom_site_fract_y
_atom_site_fract_z
Si Si1 0.597376 0.568975 0.819991
Si Si2 0.025058 0.326487 0.556962
Si Si3 0.155523 0.256186 0.012689
Si Si4 0.926781 0.716502 0.645766
Si Si5 0.466853 0.134023 0.864296
Si Si6 0.625612 0.749404 0.542900
O O1 0.721287 0.423870 0.642373
O O2 0.445260 0.649485 0.942436
O O3 0.764305 0.695052 0.653194
O O4 0.500000 0.500000 0.000000
O O5 0.982766 0.522632 0.591682
O O6 0.011045 0.237346 0.500547
O O7 0.848826 0.275447 0.804227
O O8 0.325756 0.133441 0.838023
O O9 0.000000 0.278611 0.250000
O O10 0.041667 0.200288 0.075859
O O11 0.700173 0.753511 0.912173
O O12 0.500000 0.195518 0.750000
O O13 0.399395 0.944779 0.939617
O O14 0.500000 0.694347 0.750000
#
# Coordination Sequence:
#
# PCOD9233337 Si02
#       6
#     4   4   4   4   4   4
#     4  11  24  44  67  97 129 164 217 274 321 379
#     4  10  22  41  65  93 123 168 211 270 319 376
#     4  11  22  37  66  95 119 166 218 263 316 381
#     4  10  21  40  66  90 124 162 215 263 319 376
#     4  11  23  41  59  92 133 172 208 265 323 389
#     4  11  26  41  63  95 134 170 212 262 327 385
#
# _framework density 21.686519000000001
#
# number of rings (size 3 to 8) (size 9 to 14) (size 15 to 20)
#    0.000    1.333    1.667    5.000    4.667    3.333 
#    0.000    5.833    0.000    0.000    0.000    0.000 
#    0.000    0.000    0.000    0.000    0.000    0.000 
#
# Total GULP energy -134093.169192 kJ/mol
# GULP energy per Si atom -5587.215383 kJ/mol
# Density = 2.163716 g / cm^3
# Si number density = 21.686519 Si / 1000 Ang^3
#
#
#
# Elastic Constant Matrix: (Units=GPa)
#
#
# Indices 1 2 3 4 5 6 
#
# 1 80.5989 -4.8307 30.3671 0.0000 -15.3247 0.0000
# 2 -4.8307 5.2762 -13.1629 0.0000 -2.0922 0.0000
# 3 30.3671 -13.1629 116.5064 0.0000 -16.0116 0.0000
# 4 0.0000 0.0000 0.0000 5.9463 0.0000 3.3984
# 5 -15.3247 -2.0922 -16.0116 0.0000 38.8817 0.0000
# 6 0.0000 0.0000 0.0000 3.3984 0.0000 6.9747
#
#
#
# Elastic Compliance Matrix: (Units=1/GPa)
#
#
# Indices 1 2 3 4 5 6 
#
# 1 0.014856 0.011385 -0.001799 0.000000 0.005727 0.000000
# 2 0.011385 0.305097 0.036437 0.000000 0.035910 0.000000
# 3 -0.001799 0.036437 0.014141 0.000000 0.007075 0.000000
# 4 0.000000 0.000000 0.000000 0.233078 0.000000 -0.113567
# 5 0.005727 0.035910 0.007075 0.000000 0.032822 0.000000
# 6 0.000000 0.000000 0.000000 -0.113567 0.000000 0.198710
#
#
# Mechanical properties :
#
#
# Convention : Reuss Voigt Hill
#
# Bulk Modulus (GPa) = 2.34663 25.23651 13.79157
# Shear Modulus (GPa) = 5.89134 23.02775 14.45954
#
# Velocity S-wave (km/s) = 1.65000 3.26213 2.58496
# Velocity P-wave (km/s) = 2.17127 5.08438 3.90930
#
# Compressibility (1/GPa) = 0.42614240
#
# Stress axis : x y z
#
# Youngs Moduli (GPa) = 67.31202 3.27764 70.71588
#
# Poissons Ratio (x) = -0.03732 0.12720
# Poissons Ratio (y) = -0.76637 -2.57670
# Poissons Ratio (z) = 0.12108 -0.11943
#
# Static dielectric constant tensor:
#      x y z
#    x 1.833640 0.000000 -0.014340 
#    y 0.000000 1.802540 0.000000 
#    z -0.014340 0.000000 1.785410 
# 
# From -- ./inp_files/71258.got.cif
#   From: 2010.05.17/outbox.cif.g08.bks.cpg/sg13_36_cif.got.tgz:71258.got - 2010.06.03 16:44:36.
