data_PCOD9233283
_publ_section_title
;
Structure prediction by ZEFSAII (Michael W. Deem and Ramdas Pophale) SiO2 
 PCOD9233283
Probable space group: P 2/C
;
_chemical_formula_sum "Si O2"
_cell_formula_units_Z 20
_cell_length_a 5.002333
_cell_length_b 8.162261
_cell_length_c 25.298489
_cell_angle_alpha 90.000000
_cell_angle_beta 60.959407
_cell_angle_gamma 90.000000
_cell_volume 903.079993
_symmetry_space_group_name_H-M "P 2/C"
_symmetry_group_IT_number 13
_symmetry_cell_setting 'monoclinic'
loop_
_space_group_symop_operation_xyz
x,y,z
-x,y,1/2-z
-x,-y,-z
x,-y,1/2+z
loop_
_atom_site_type_symbol
_atom_site_label
_atom_site_fract_x
_atom_site_fract_y
_atom_site_fract_z
Si Si1 0.652363 0.545964 0.681418
Si Si2 0.773886 0.057109 0.433624
Si Si3 0.842588 0.783531 0.820259
Si Si4 0.005186 0.727586 0.414806
Si Si5 0.665449 0.349765 0.513421
O O1 0.500000 0.488161 0.750000
O O2 0.413173 0.648374 0.669335
O O3 0.799292 0.387073 0.641260
O O4 0.895590 0.680663 0.675995
O O5 0.726249 0.087652 0.375570
O O6 0.821182 0.236719 0.454134
O O7 0.500000 0.000000 0.500000
O O8 0.043569 0.923901 0.414682
O O9 0.000000 0.846201 0.750000
O O10 0.086238 0.649207 0.463995
O O11 0.649151 0.722858 0.431321
O O12 0.500000 0.500000 0.500000
#
# Coordination Sequence:
#
# PCOD9233283 Si02
#       5
#     4   4   4   4   4
#     4  10  21  40  64  88 118 163 215 261 309 380
#     4  10  23  40  60  92 129 162 203 261 322 381
#     4  10  22  42  65  87 119 166 215 258 312 387
#     4  11  22  37  57  88 121 154 196 255 313 363
#     4  11  22  37  59  85 118 161 203 247 302 371
#
# _framework density 22.146432000000001
#
# number of rings (size 3 to 8) (size 9 to 14) (size 15 to 20)
#    0.000    1.600    0.000    4.800    0.000    8.000 
#    0.000   10.000    0.000    0.000    0.000    0.000 
#    0.000    0.000    0.000    0.000    0.000    0.000 
#
# Total GULP energy -111387.987888 kJ/mol
# GULP energy per Si atom -5569.399394 kJ/mol
# Density = 2.209603 g / cm^3
# Si number density = 22.146432 Si / 1000 Ang^3
#
#
#
# Elastic Constant Matrix: (Units=GPa)
#
#
# Indices 1 2 3 4 5 6 
#
# 1 333.3509 135.5385 62.9056 0.0000 56.1801 0.0000
# 2 135.5385 175.9665 90.0234 0.0000 37.8927 0.0000
# 3 62.9056 90.0234 200.5113 0.0000 18.1042 0.0000
# 4 0.0000 0.0000 0.0000 282.7493 0.0000 -205.7421
# 5 56.1801 37.8927 18.1042 0.0000 33.6824 0.0000
# 6 0.0000 0.0000 0.0000 -205.7421 0.0000 155.3517
#
#
#
# Elastic Compliance Matrix: (Units=1/GPa)
#
#
# Indices 1 2 3 4 5 6 
#
# 1 0.004994 -0.002795 0.000164 0.000000 -0.005274 0.000000
# 2 -0.002795 0.010832 -0.003476 0.000000 -0.005656 0.000000
# 3 0.000164 -0.003476 0.006482 0.000000 0.000152 0.000000
# 4 0.000000 0.000000 0.000000 0.097352 0.000000 0.128929
# 5 -0.005274 -0.005656 0.000152 0.000000 0.044766 0.000000
# 6 0.000000 0.000000 0.000000 0.128929 0.000000 0.177186
#
#
# Mechanical properties :
#
#
# Convention : Reuss Voigt Hill
#
# Bulk Modulus (GPa) = 99.05413 142.97375 121.01394
# Shear Modulus (GPa) = 13.99813 122.44743 68.22278
#
# Velocity S-wave (km/s) = 2.51683 7.44379 5.55627
# Velocity P-wave (km/s) = 7.29862 11.77193 9.79409
#
# Compressibility (1/GPa) = 0.01009549
#
# Stress axis : x y z
#
# Youngs Moduli (GPa) = 200.23650 92.32041 154.26286
#
# Poissons Ratio (x) = 0.25805 -0.02535
# Poissons Ratio (y) = 0.55969 0.53616
# Poissons Ratio (z) = -0.03290 0.32087
#
# Static dielectric constant tensor:
#      x y z
#    x 1.863320 0.000000 -0.096430 
#    y 0.000000 2.051600 0.000000 
#    z -0.096430 0.000000 1.848260 
# 
# From -- ./inp_files/83175.got.cif
#   From: 2010.05.17/outbox.cif.g08.bks.cpg/sg13_42_cif.got.tgz:83175.got - 2010.06.03 16:44:36.
