data_PCOD9233966
_publ_section_title
;
Structure prediction by ZEFSAII (Michael W. Deem and Ramdas Pophale) SiO2 
 PCOD9233966
Probable space group: P 2/C
;
_chemical_formula_sum "Si O2"
_cell_formula_units_Z 28
_cell_length_a 17.202406
_cell_length_b 5.721531
_cell_length_c 15.098366
_cell_angle_alpha 90.000000
_cell_angle_beta 114.729790
_cell_angle_gamma 90.000000
_cell_volume 1349.759239
_symmetry_space_group_name_H-M "P 2/C"
_symmetry_group_IT_number 13
_symmetry_cell_setting 'monoclinic'
loop_
_space_group_symop_operation_xyz
x,y,z
-x,y,1/2-z
-x,-y,-z
x,-y,1/2+z
loop_
_atom_site_type_symbol
_atom_site_label
_atom_site_fract_x
_atom_site_fract_y
_atom_site_fract_z
Si Si1 0.217456 0.829794 0.265448
Si Si2 0.478207 0.692711 0.061530
Si Si3 0.629806 0.925740 0.045923
Si Si4 0.069854 0.700404 0.520659
Si Si5 0.423217 0.676547 0.661104
Si Si6 0.027668 0.031211 0.667495
Si Si7 0.751670 0.663167 0.817572
O O1 0.275875 0.862645 0.379618
O O2 0.115055 0.826780 0.227094
O O3 0.241621 0.575035 0.237317
O O4 0.238216 0.075873 0.222003
O O5 0.560561 0.860944 0.090060
O O6 0.461284 0.569792 0.145517
O O7 0.500000 0.500000 0.000000
O O8 0.390481 0.807355 0.985498
O O9 0.603730 0.804017 0.941904
O O10 0.169214 0.636560 0.575951
O O11 0.000000 0.500000 0.500000
O O12 0.046540 0.820911 0.416323
O O13 0.052609 0.856355 0.600139
O O14 0.500000 0.800527 0.750000
O O15 0.340530 0.656301 0.681702
O O16 0.000000 0.932809 0.750000
#
# Coordination Sequence:
#
# PCOD9233966 Si02
#       7
#     4   4   4   4   4   4   4
#     4  11  25  45  67 101 137 175 226 279 342 404
#     4   9  21  41  61  87 125 174 219 279 331 392
#     4  10  23  40  67  92 130 176 225 280 333 407
#     4  10  21  46  69  98 143 182 227 292 351 411
#     4  11  25  40  64  96 132 178 226 276 339 403
#     4  10  23  43  71 102 138 185 230 285 350 423
#     4  11  26  44  69 100 139 180 221 284 342 406
#
# _framework density 20.744441999999999
#
# number of rings (size 3 to 8) (size 9 to 14) (size 15 to 20)
#    0.000    1.714    1.429    0.857   14.000    1.143 
#    2.571    0.000    0.000    0.000    0.000    0.000 
#    0.000    0.000    0.000    0.000    0.000    0.000 
#
# Total GULP energy -155968.439035 kJ/mol
# GULP energy per Si atom -5570.301394 kJ/mol
# Density = 2.069723 g / cm^3
# Si number density = 20.744442 Si / 1000 Ang^3
#
#
#
# Elastic Constant Matrix: (Units=GPa)
#
#
# Indices 1 2 3 4 5 6 
#
# 1 83.2128 8.3211 47.6663 0.0000 8.4584 0.0000
# 2 8.3211 71.2111 31.2265 0.0000 -1.8320 0.0000
# 3 47.6663 31.2265 156.3145 0.0000 29.8348 0.0000
# 4 0.0000 0.0000 0.0000 24.9147 0.0000 7.5578
# 5 8.4584 -1.8320 29.8348 0.0000 35.8328 0.0000
# 6 0.0000 0.0000 0.0000 7.5578 0.0000 21.6127
#
#
#
# Elastic Compliance Matrix: (Units=1/GPa)
#
#
# Indices 1 2 3 4 5 6 
#
# 1 0.014570 0.000316 -0.004581 0.000000 0.000391 0.000000
# 2 0.000316 0.015890 -0.004056 0.000000 0.004115 0.000000
# 3 -0.004581 -0.004056 0.010032 0.000000 -0.007479 0.000000
# 4 0.000000 0.000000 0.000000 0.044900 0.000000 -0.015701
# 5 0.000391 0.004115 -0.007479 0.000000 0.034252 0.000000
# 6 0.000000 0.000000 0.000000 -0.015701 0.000000 0.051760
#
#
# Mechanical properties :
#
#
# Convention : Reuss Voigt Hill
#
# Bulk Modulus (GPa) = 41.92728 53.90737 47.91733
# Shear Modulus (GPa) = 25.51073 31.37368 28.44221
#
# Velocity S-wave (km/s) = 3.51060 3.89316 3.70682
# Velocity P-wave (km/s) = 6.05703 6.80087 6.43970
#
# Compressibility (1/GPa) = 0.02385082
#
# Stress axis : x y z
#
# Youngs Moduli (GPa) = 68.63430 62.93130 99.68181
#
# Poissons Ratio (x) = -0.01990 0.45661
# Poissons Ratio (y) = -0.02170 0.40433
# Poissons Ratio (z) = 0.31439 0.25526
#
# Static dielectric constant tensor:
#      x y z
#    x 1.613030 0.000000 -0.028200 
#    y 0.000000 1.854730 0.000000 
#    z -0.028200 0.000000 1.756500 
# 
# From -- ./inp_files/54576.got.cif
#   From: 2010.05.17/outbox.cif.g08.bks.cpg/sg13_28_cif.got.tgz:54576.got - 2010.06.03 16:44:36.
