data_PCOD9233826
_publ_section_title
;
Structure prediction by ZEFSAII (Michael W. Deem and Ramdas Pophale) SiO2 
 PCOD9233826
Probable space group: P 2/C
;
_chemical_formula_sum "Si O2"
_cell_formula_units_Z 30
_cell_length_a 20.244246
_cell_length_b 5.543204
_cell_length_c 14.777917
_cell_angle_alpha 90.000000
_cell_angle_beta 57.829419
_cell_angle_gamma 90.000000
_cell_volume 1403.736363
_symmetry_space_group_name_H-M "P 2/C"
_symmetry_group_IT_number 13
_symmetry_cell_setting 'monoclinic'
loop_
_space_group_symop_operation_xyz
x,y,z
-x,y,1/2-z
-x,-y,-z
x,-y,1/2+z
loop_
_atom_site_type_symbol
_atom_site_label
_atom_site_fract_x
_atom_site_fract_y
_atom_site_fract_z
Si Si1 0.725216 0.082078 0.580440
Si Si2 0.157339 0.689246 0.050501
Si Si3 0.693512 0.480509 0.469083
Si Si4 0.409441 0.303666 0.307810
Si Si5 0.000000 0.871533 0.250000
Si Si6 0.681990 0.557542 0.275351
Si Si7 0.149185 0.533161 0.370864
Si Si8 0.069780 0.038669 0.379513
O O1 0.723045 0.221156 0.485365
O O2 0.709253 0.232909 0.684856
O O3 0.804578 0.924319 0.526557
O O4 0.648625 0.916954 0.635670
O O5 0.073128 0.726621 0.154654
O O6 0.227331 0.630771 0.068584
O O7 0.151126 0.482069 0.978919
O O8 0.622392 0.520333 0.591044
O O9 0.661771 0.567863 0.395490
O O10 0.500000 0.251593 0.250000
O O11 0.384730 0.418026 0.229998
O O12 0.037563 0.025117 0.302088
O O13 0.766308 0.433350 0.221704
O O14 0.125000 0.798527 0.352820
O O15 0.095603 0.313067 0.378128
O O16 0.000000 0.000000 0.500000
#
# Coordination Sequence:
#
# PCOD9233826 Si02
#       8
#     4   4   4   4   2   4   4   4
#     4  10  21  43  66  95 134 183 221 286 344 428
#     4  11  23  43  66  96 138 182 236 289 349 424
#     4  10  23  42  68 100 130 180 234 277 345 425
#     4  10  23  43  67 102 138 174 220 283 354 421
#     4  12  28  44  66 102 140 186 236 302 356 416
#     4  11  23  41  72  96 134 182 229 284 345 421
#     4  12  24  47  71  97 136 189 235 292 355 419
#     4  12  28  46  68  98 141 181 239 299 358 417
#
# _framework density 21.371531999999998
#
# number of rings (size 3 to 8) (size 9 to 14) (size 15 to 20)
#    0.000    1.067    5.333    2.000    1.867    5.333 
#    0.000    1.333    0.000    0.000    0.000    0.000 
#    0.000    0.000    0.000    0.000    0.000    0.000 
#
# Total GULP energy -167056.649767 kJ/mol
# GULP energy per Si atom -5568.554992 kJ/mol
# Density = 2.132289 g / cm^3
# Si number density = 21.371532 Si / 1000 Ang^3
#
#
#
# Elastic Constant Matrix: (Units=GPa)
#
#
# Indices 1 2 3 4 5 6 
#
# 1 103.1792 25.8099 45.6285 0.0000 3.7459 0.0000
# 2 25.8099 76.1625 10.0147 0.0000 7.4672 0.0000
# 3 45.6285 10.0147 68.9027 0.0000 14.0108 0.0000
# 4 0.0000 0.0000 0.0000 -4.3744 0.0000 -98.9754
# 5 3.7459 7.4672 14.0108 0.0000 53.2766 0.0000
# 6 0.0000 0.0000 0.0000 -98.9754 0.0000 -728.2003
#
#
#
# Elastic Compliance Matrix: (Units=1/GPa)
#
#
# Indices 1 2 3 4 5 6 
#
# 1 0.014907 -0.003977 -0.009713 0.000000 0.002064 0.000000
# 2 -0.003977 0.014552 0.000926 0.000000 -0.002003 0.000000
# 3 -0.009713 0.000926 0.021868 0.000000 -0.005198 0.000000
# 4 0.000000 0.000000 0.000000 0.110155 0.000000 -0.014972
# 5 0.002064 -0.002003 -0.005198 0.000000 0.020273 0.000000
# 6 0.000000 0.000000 0.000000 -0.014972 0.000000 0.000662
#
#
# Mechanical properties :
#
#
# Convention : Reuss Voigt Hill
#
# Bulk Modulus (GPa) = 38.76198 45.68339 42.22268
# Shear Modulus (GPa) = 23.08989 -124.74018 -50.82514
#
# Velocity S-wave (km/s) = 3.29052 -7.64815 -4.88194
# Velocity P-wave (km/s) = 5.71080 7.52130 3.46098
#
# Compressibility (1/GPa) = 0.02579848
#
# Stress axis : x y z
#
# Youngs Moduli (GPa) = 67.08130 68.71821 45.72901
#
# Poissons Ratio (x) = 0.27328 0.44419
# Poissons Ratio (y) = 0.26677 -0.04234
# Poissons Ratio (z) = 0.65159 -0.06362
#
# Static dielectric constant tensor:
#      x y z
#    x 1.761170 0.000000 0.086510 
#    y 0.000000 1.914560 0.000000 
#    z 0.086510 0.000000 1.797960 
# 
# From -- ./inp_files/56542.got.cif
#   From: 2010.05.17/outbox.cif.g08.bks.cpg/sg13_29_cif.got.tgz:56542.got - 2010.06.03 16:44:36.
