data_PCOD9233336
_publ_section_title
;
Structure prediction by ZEFSAII (Michael W. Deem and Ramdas Pophale) SiO2 
 PCOD9233336
Probable space group: P 2/C
;
_chemical_formula_sum "Si O2"
_cell_formula_units_Z 26
_cell_length_a 24.882493
_cell_length_b 6.746579
_cell_length_c 21.681119
_cell_angle_alpha 90.000000
_cell_angle_beta 161.190050
_cell_angle_gamma 90.000000
_cell_volume 1173.531503
_symmetry_space_group_name_H-M "P 2/C"
_symmetry_group_IT_number 13
_symmetry_cell_setting 'monoclinic'
loop_
_space_group_symop_operation_xyz
x,y,z
-x,y,1/2-z
-x,-y,-z
x,-y,1/2+z
loop_
_atom_site_type_symbol
_atom_site_label
_atom_site_fract_x
_atom_site_fract_y
_atom_site_fract_z
Si Si1 0.645337 0.948695 0.288507
Si Si2 0.921870 0.753488 0.041874
Si Si3 0.000000 0.518791 0.250000
Si Si4 0.370747 0.076202 0.910399
Si Si5 0.211926 0.354184 0.649973
Si Si6 0.686666 0.735743 0.453451
Si Si7 0.869588 0.108635 0.273583
O O1 0.788640 0.084695 0.417286
O O2 0.675686 0.740428 0.283893
O O3 0.664234 0.916516 0.381276
O O4 0.475858 0.061403 0.086987
O O5 0.979095 0.646125 0.166165
O O6 0.830632 0.583548 0.903338
O O7 0.071586 0.883115 0.176765
O O8 0.164891 0.389829 0.416176
O O9 0.301307 0.282350 0.809624
O O10 0.224192 0.918280 0.763367
O O11 0.500000 0.000000 0.000000
O O12 0.032867 0.244283 0.453933
O O13 0.500000 0.642248 0.250000
O O14 0.753675 0.802167 0.593197
#
# Coordination Sequence:
#
# PCOD9233336 Si02
#       7
#     4   4   2   4   4   4   4
#     4  10  21  41  62  93 128 165 209 265 328 379
#     4  11  22  38  65  91 131 167 206 267 331 385
#     4  12  22  44  64 102 134 168 212 270 332 386
#     4  10  22  41  65  88 127 172 216 269 323 377
#     4  10  21  40  66  90 122 171 213 261 317 389
#     4  12  22  41  72  94 129 171 217 267 328 394
#     4  11  22  41  64  95 123 168 217 268 322 385
#
# _framework density 22.155351
#
# number of rings (size 3 to 8) (size 9 to 14) (size 15 to 20)
#    0.000    1.231    4.615    2.308    0.000    1.231 
#    2.769    3.077    0.000    0.000    0.000    0.000 
#    0.000    0.000    0.000    0.000    0.000    0.000 
#
# Total GULP energy -145159.747206 kJ/mol
# GULP energy per Si atom -5583.067200 kJ/mol
# Density = 2.210492 g / cm^3
# Si number density = 22.155351 Si / 1000 Ang^3
#
#
#
# Elastic Constant Matrix: (Units=GPa)
#
#
# Indices 1 2 3 4 5 6 
#
# 1 71.7288 22.8828 16.8892 0.0000 15.6751 0.0000
# 2 22.8828 69.7083 24.6803 0.0000 -5.9871 0.0000
# 3 16.8892 24.6803 102.5758 0.0000 5.6664 0.0000
# 4 0.0000 0.0000 0.0000 194.5737 0.0000 167.9148
# 5 15.6751 -5.9871 5.6664 0.0000 33.9692 0.0000
# 6 0.0000 0.0000 0.0000 167.9148 0.0000 187.7374
#
#
#
# Elastic Compliance Matrix: (Units=1/GPa)
#
#
# Indices 1 2 3 4 5 6 
#
# 1 0.018289 -0.006484 -0.000930 0.000000 -0.009427 0.000000
# 2 -0.006484 0.018385 -0.003735 0.000000 0.006855 0.000000
# 3 -0.000930 -0.003735 0.010914 0.000000 -0.002049 0.000000
# 4 0.000000 0.000000 0.000000 0.022528 0.000000 -0.020150
# 5 -0.009427 0.006855 -0.002049 0.000000 0.035339 0.000000
# 6 0.000000 0.000000 0.000000 -0.020150 0.000000 0.023349
#
#
# Mechanical properties :
#
#
# Convention : Reuss Voigt Hill
#
# Bulk Modulus (GPa) = 39.54151 41.43529 40.48840
# Shear Modulus (GPa) = 31.34176 95.22679 63.28427
#
# Velocity S-wave (km/s) = 3.76525 6.56313 5.35032
# Velocity P-wave (km/s) = 6.06538 8.72787 7.51547
#
# Compressibility (1/GPa) = 0.02528988
#
# Stress axis : x y z
#
# Youngs Moduli (GPa) = 54.67736 54.39225 91.62649
#
# Poissons Ratio (x) = 0.35267 0.08526
# Poissons Ratio (y) = 0.35452 0.34219
# Poissons Ratio (z) = 0.05088 0.20314
#
# Static dielectric constant tensor:
#      x y z
#    x 1.859990 0.000000 0.018920 
#    y 0.000000 1.821680 0.000000 
#    z 0.018920 0.000000 2.247870 
# 
# From -- ./inp_files/89452.got.cif
#   From: 2010.05.17/outbox.cif.g08.bks.cpg/sg13_45_cif.got.tgz:89452.got - 2010.06.03 16:44:36.
