data_PCOD9233114
_publ_section_title
;
Structure prediction by ZEFSAII (Michael W. Deem and Ramdas Pophale) SiO2 
 PCOD9233114
Probable space group: P 2/C
;
_chemical_formula_sum "Si O2"
_cell_formula_units_Z 16
_cell_length_a 7.682072
_cell_length_b 20.965010
_cell_length_c 5.255771
_cell_angle_alpha 90.000000
_cell_angle_beta 61.298108
_cell_angle_gamma 90.000000
_cell_volume 742.461602
_symmetry_space_group_name_H-M "P 2/C"
_symmetry_group_IT_number 13
_symmetry_cell_setting 'monoclinic'
loop_
_space_group_symop_operation_xyz
x,y,z
-x,y,1/2-z
-x,-y,-z
x,-y,1/2+z
loop_
_atom_site_type_symbol
_atom_site_label
_atom_site_fract_x
_atom_site_fract_y
_atom_site_fract_z
Si Si1 0.236510 0.039073 0.577715
Si Si2 0.500000 0.155941 0.250000
Si Si3 0.500000 0.238727 0.750000
Si Si4 0.137473 0.666044 0.402887
Si Si5 0.273960 0.473906 0.688592
O O1 0.327566 0.107785 0.459215
O O2 0.000000 0.044602 0.750000
O O3 0.293376 0.992549 0.305106
O O4 0.550298 0.197572 0.462992
O O5 0.691093 0.281415 0.686374
O O6 0.249422 0.598232 0.293569
O O7 0.000000 0.676322 0.250000
O O8 0.000000 0.664776 0.750000
O O9 0.500000 0.500000 0.500000
O O10 0.186775 0.481295 0.469138
#
# Coordination Sequence:
#
# PCOD9233114 Si02
#       5
#     4   2   2   4   4
#     4  10  21  39  65  99 136 170 211 271 335 393
#     4  12  24  41  70  97 132 180 226 272 328 388
#     4  12  28  47  66  97 136 182 232 282 320 382
#     4  12  27  47  70  96 134 181 225 275 339 402
#     4  10  21  39  66  96 128 162 207 274 338 400
#
# _framework density 21.549935999999999
#
# number of rings (size 3 to 8) (size 9 to 14) (size 15 to 20)
#    0.000    1.000    0.000    6.750    0.000   10.000 
#    0.000    0.000    0.000    0.000    0.000    0.000 
#    0.000    0.000    0.000    0.000    0.000    0.000 
#
# Total GULP energy -89512.788937 kJ/mol
# GULP energy per Si atom -5594.549309 kJ/mol
# Density = 2.150089 g / cm^3
# Si number density = 21.549936 Si / 1000 Ang^3
#
#
#
# Elastic Constant Matrix: (Units=GPa)
#
#
# Indices 1 2 3 4 5 6 
#
# 1 144.7069 62.7417 77.1379 0.0000 -2.0476 0.0000
# 2 62.7417 151.3952 77.1854 0.0000 -0.5689 0.0000
# 3 77.1379 77.1854 185.9652 0.0000 22.2295 0.0000
# 4 0.0000 0.0000 0.0000 58.1174 0.0000 3.6692
# 5 -2.0476 -0.5689 22.2295 0.0000 40.3644 0.0000
# 6 0.0000 0.0000 0.0000 3.6692 0.0000 28.9901
#
#
#
# Elastic Compliance Matrix: (Units=1/GPa)
#
#
# Indices 1 2 3 4 5 6 
#
# 1 0.009734 -0.002316 -0.003352 0.000000 0.002307 0.000000
# 2 -0.002316 0.009112 -0.003021 0.000000 0.001675 0.000000
# 3 -0.003352 -0.003021 0.008614 0.000000 -0.004957 0.000000
# 4 0.000000 0.000000 0.000000 0.017345 0.000000 -0.002195
# 5 0.002307 0.001675 -0.004957 0.000000 0.027645 0.000000
# 6 0.000000 0.000000 0.000000 -0.002195 0.000000 0.034772
#
#
# Mechanical properties :
#
#
# Convention : Reuss Voigt Hill
#
# Bulk Modulus (GPa) = 99.19810 101.79973 100.49891
# Shear Modulus (GPa) = 39.07384 43.16120 41.11752
#
# Velocity S-wave (km/s) = 4.26276 4.48017 4.37282
# Velocity P-wave (km/s) = 8.38808 8.60838 8.49894
#
# Compressibility (1/GPa) = 0.01008084
#
# Stress axis : x y z
#
# Youngs Moduli (GPa) = 102.72786 109.74747 116.08625
#
# Poissons Ratio (x) = 0.25423 0.38914
# Poissons Ratio (y) = 0.23797 0.35072
# Poissons Ratio (z) = 0.34436 0.33157
#
# Static dielectric constant tensor:
#      x y z
#    x 1.697570 0.000000 0.015060 
#    y 0.000000 1.734860 0.000000 
#    z 0.015060 0.000000 1.791890 
# 
# From -- ./inp_files/1453.got.cif
#   From: 2010.05.17/outbox.cif.g08.bks.cpg/sg13_1_cif.got.tgz:1453.got - 2010.06.03 16:44:36.
