data_PCOD9233065
_publ_section_title
;
Structure prediction by ZEFSAII (Michael W. Deem and Ramdas Pophale) SiO2 
 PCOD9233065
Probable space group: P 2/C
;
_chemical_formula_sum "Si O2"
_cell_formula_units_Z 28
_cell_length_a 27.722119
_cell_length_b 10.123628
_cell_length_c 27.243528
_cell_angle_alpha 90.000000
_cell_angle_beta 169.560958
_cell_angle_gamma 90.000000
_cell_volume 1385.346924
_symmetry_space_group_name_H-M "P 2/C"
_symmetry_group_IT_number 13
_symmetry_cell_setting 'monoclinic'
loop_
_space_group_symop_operation_xyz
x,y,z
-x,y,1/2-z
-x,-y,-z
x,-y,1/2+z
loop_
_atom_site_type_symbol
_atom_site_label
_atom_site_fract_x
_atom_site_fract_y
_atom_site_fract_z
Si Si1 0.918419 0.903926 0.874492
Si Si2 0.968078 0.332228 0.161254
Si Si3 0.816827 0.467136 0.703222
Si Si4 0.802485 0.384751 0.285467
Si Si5 0.401488 0.999980 0.802031
Si Si6 0.655158 0.687886 0.739460
Si Si7 0.534118 0.848034 0.340839
O O1 0.940842 0.755866 0.916258
O O2 0.625005 0.938670 0.561632
O O3 0.124713 0.929990 0.037596
O O4 0.000000 0.000000 0.000000
O O5 0.000000 0.373871 0.250000
O O6 0.059156 0.448440 0.216530
O O7 0.173967 0.211861 0.360192
O O8 0.674912 0.272525 0.859423
O O9 0.722400 0.570604 0.650889
O O10 0.555067 0.379289 0.434282
O O11 0.050840 0.368533 0.955602
O O12 0.598329 0.357221 0.125840
O O13 0.000000 0.500000 0.500000
O O14 0.480518 0.036973 0.825904
O O15 0.368584 0.844731 0.779381
O O16 0.500000 0.888812 0.250000
#
# Coordination Sequence:
#
# PCOD9233065 Si02
#       7
#     4   4   4   4   4   4   4
#     4  12  25  41  63  90 123 167 213 251 308 375
#     4  10  21  40  65  92 121 153 204 263 312 365
#     4  11  22  39  59  87 119 158 206 240 314 360
#     4  10  23  39  60  87 122 160 202 254 303 364
#     4  12  24  41  63  87 128 163 212 255 315 365
#     4  11  24  38  58  87 124 164 197 251 298 372
#     4  10  21  39  64  92 118 155 202 260 317 365
#
# _framework density 20.211544
#
# number of rings (size 3 to 8) (size 9 to 14) (size 15 to 20)
#    0.000    1.143    1.429    5.143    2.000    3.429 
#    0.000    1.429    0.000    0.000    0.000    0.000 
#    0.000    0.000    0.000    0.000    0.000    0.000 
#
# Total GULP energy -156487.202740 kJ/mol
# GULP energy per Si atom -5588.828669 kJ/mol
# Density = 2.016554 g / cm^3
# Si number density = 20.211544 Si / 1000 Ang^3
#
#
#
# Elastic Constant Matrix: (Units=GPa)
#
#
# Indices 1 2 3 4 5 6 
#
# 1 113.1455 55.1594 1.8841 0.0000 18.7437 0.0000
# 2 55.1594 132.7407 11.0811 0.0000 4.5421 0.0000
# 3 1.8841 11.0811 54.6178 0.0000 7.9733 0.0000
# 4 0.0000 0.0000 0.0000 25.7939 0.0000 13.8014
# 5 18.7437 4.5421 7.9733 0.0000 27.8027 0.0000
# 6 0.0000 0.0000 0.0000 13.8014 0.0000 27.0426
#
#
#
# Elastic Compliance Matrix: (Units=1/GPa)
#
#
# Indices 1 2 3 4 5 6 
#
# 1 0.012674 -0.005136 0.001805 0.000000 -0.008223 0.000000
# 2 -0.005136 0.009763 -0.002167 0.000000 0.002489 0.000000
# 3 0.001805 -0.002167 0.019634 0.000000 -0.006494 0.000000
# 4 0.000000 0.000000 0.000000 0.053333 0.000000 -0.027219
# 5 -0.008223 0.002489 -0.006494 0.000000 0.042967 0.000000
# 6 0.000000 0.000000 0.000000 -0.027219 0.000000 0.050870
#
#
# Mechanical properties :
#
#
# Convention : Reuss Voigt Hill
#
# Bulk Modulus (GPa) = 32.17861 48.52813 40.35337
# Shear Modulus (GPa) = 23.74210 31.61979 27.68094
#
# Velocity S-wave (km/s) = 3.43108 3.95959 3.70477
# Velocity P-wave (km/s) = 5.62600 6.70572 6.18945
#
# Compressibility (1/GPa) = 0.03107654
#
# Stress axis : x y z
#
# Youngs Moduli (GPa) = 78.90034 102.42282 50.93099
#
# Poissons Ratio (x) = 0.52604 -0.09194
# Poissons Ratio (y) = 0.40523 0.11037
# Poissons Ratio (z) = -0.14244 0.22195
#
# Static dielectric constant tensor:
#      x y z
#    x 1.778980 0.000000 0.028730 
#    y 0.000000 1.687170 0.000000 
#    z 0.028730 0.000000 1.751870 
# 
# From -- ./inp_files/98105.got.cif
#   From: 2010.05.17/outbox.cif.g08.bks.cpg/sg13_50_cif.got.tgz:98105.got - 2010.06.03 16:44:36.
