data_PCOD9233767
_publ_section_title
;
Structure prediction by ZEFSAII (Michael W. Deem and Ramdas Pophale) SiO2 
 PCOD9233767
Probable space group: P 2/C
;
_chemical_formula_sum "Si O2"
_cell_formula_units_Z 24
_cell_length_a 7.908656
_cell_length_b 9.158552
_cell_length_c 13.920208
_cell_angle_alpha 90.000000
_cell_angle_beta 88.490541
_cell_angle_gamma 90.000000
_cell_volume 1007.916361
_symmetry_space_group_name_H-M "P 2/C"
_symmetry_group_IT_number 13
_symmetry_cell_setting 'monoclinic'
loop_
_space_group_symop_operation_xyz
x,y,z
-x,y,1/2-z
-x,-y,-z
x,-y,1/2+z
loop_
_atom_site_type_symbol
_atom_site_label
_atom_site_fract_x
_atom_site_fract_y
_atom_site_fract_z
Si Si1 0.500000 0.973867 0.250000
Si Si2 0.505371 0.588709 0.902538
Si Si3 0.858503 0.334321 0.089973
Si Si4 0.000000 0.204016 0.750000
Si Si5 0.839286 0.553206 0.368362
Si Si6 0.635324 0.909294 0.935683
Si Si7 0.184893 0.984205 0.392148
O O1 0.369734 0.044614 0.174818
O O2 0.355134 0.928345 0.330672
O O3 0.317331 0.601869 0.865457
O O4 0.658723 0.514796 0.846047
O O5 0.568920 0.746857 0.932454
O O6 0.500000 0.500000 0.000000
O O7 0.842560 0.159586 0.108095
O O8 0.018607 0.423774 0.129898
O O9 0.850524 0.373437 0.975467
O O10 0.135945 0.317947 0.707739
O O11 0.043066 0.101437 0.837816
O O12 0.500000 0.000000 0.000000
O O13 0.800121 0.929767 0.998058
#
# Coordination Sequence:
#
# PCOD9233767 Si02
#       7
#     2   4   4   2   4   4   4
#     4  10  22  42  70 108 138 188 244 298 374 444
#     4  10  21  42  74 103 139 198 241 298 382 439
#     4  10  22  48  75 102 142 203 246 309 385 447
#     4  12  30  48  66 116 152 200 248 318 386 446
#     4  10  26  46  69 106 152 192 256 302 374 470
#     4  10  21  42  71 106 145 182 248 310 358 453
#     4  11  26  45  74 106 153 188 255 316 383 441
#
# _framework density 23.811499000000001
#
# number of rings (size 3 to 8) (size 9 to 14) (size 15 to 20)
#    0.000    1.667    3.333    0.000    9.333    5.333 
#    0.000    0.000    0.000    0.000    0.000    0.000 
#    0.000    0.000    0.000    0.000    0.000    0.000 
#
# Total GULP energy -133804.081465 kJ/mol
# GULP energy per Si atom -5575.170061 kJ/mol
# Density = 2.375730 g / cm^3
# Si number density = 23.811499 Si / 1000 Ang^3
#
#
#
# Elastic Constant Matrix: (Units=GPa)
#
#
# Indices 1 2 3 4 5 6 
#
# 1 113.2859 15.5088 9.9075 0.0000 -23.1799 0.0000
# 2 15.5088 -3.1927 13.6729 0.0000 -46.7069 0.0000
# 3 9.9075 13.6729 133.6131 0.0000 6.8744 0.0000
# 4 0.0000 0.0000 0.0000 18.7417 0.0000 5.4845
# 5 -23.1799 -46.7069 6.8744 0.0000 9.3715 0.0000
# 6 0.0000 0.0000 0.0000 5.4845 0.0000 13.7777
#
#
#
# Elastic Compliance Matrix: (Units=1/GPa)
#
#
# Indices 1 2 3 4 5 6 
#
# 1 0.010201 -0.004422 -0.000486 0.000000 0.003547 0.000000
# 2 -0.004422 -0.002022 0.001680 0.000000 -0.022249 0.000000
# 3 -0.000486 0.001680 0.007253 0.000000 0.001847 0.000000
# 4 0.000000 0.000000 0.000000 0.060392 0.000000 -0.024040
# 5 0.003547 -0.022249 0.001847 0.000000 0.003239 0.000000
# 6 0.000000 0.000000 0.000000 -0.024040 0.000000 0.082151
#
#
# Mechanical properties :
#
#
# Convention : Reuss Voigt Hill
#
# Bulk Modulus (GPa) = 111.43503 35.76496 73.60000
# Shear Modulus (GPa) = 29.29736 22.01934 25.65835
#
# Velocity S-wave (km/s) = 3.51149 3.04425 3.28618
# Velocity P-wave (km/s) = 7.95872 5.23538 6.73611
#
# Compressibility (1/GPa) = 0.00897384
#
# Stress axis : x y z
#
# Youngs Moduli (GPa) = 98.02985 -494.54142 137.86530
#
# Poissons Ratio (x) = -2.18709 0.06705
# Poissons Ratio (y) = 0.43353 -0.23155
# Poissons Ratio (z) = 0.04768 0.83061
#
# Static dielectric constant tensor:
#      x y z
#    x 2.054320 0.000000 -0.045470 
#    y 0.000000 1.775140 0.000000 
#    z -0.045470 0.000000 1.884540 
# 
# From -- ./inp_files/46162.got.cif
#   From: 2010.05.17/outbox.cif.g08.bks.cpg/sg13_24_cif.got.tgz:46162.got - 2010.06.03 16:44:36.
