data_PCOD9233122
_publ_section_title
;
Structure prediction by ZEFSAII (Michael W. Deem and Ramdas Pophale) SiO2 
 PCOD9233122
Probable space group: P 2/C
;
_chemical_formula_sum "Si O2"
_cell_formula_units_Z 18
_cell_length_a 20.064211
_cell_length_b 7.763183
_cell_length_c 25.742208
_cell_angle_alpha 90.000000
_cell_angle_beta 12.973833
_cell_angle_gamma 90.000000
_cell_volume 900.193197
_symmetry_space_group_name_H-M "P 2/C"
_symmetry_group_IT_number 13
_symmetry_cell_setting 'monoclinic'
loop_
_space_group_symop_operation_xyz
x,y,z
-x,y,1/2-z
-x,-y,-z
x,-y,1/2+z
loop_
_atom_site_type_symbol
_atom_site_label
_atom_site_fract_x
_atom_site_fract_y
_atom_site_fract_z
Si Si1 0.425838 0.288714 0.507984
Si Si2 0.000000 0.891911 0.750000
Si Si3 0.825276 0.887193 0.480709
Si Si4 0.545540 0.656900 0.032611
Si Si5 0.834927 0.972312 0.178220
O O1 0.475008 0.457783 0.436020
O O2 0.600032 0.331842 0.429189
O O3 0.072086 0.262328 0.784145
O O4 0.557805 0.104426 0.390942
O O5 0.219391 0.765519 0.613907
O O6 0.830895 0.007536 0.922081
O O7 0.974122 0.996772 0.414661
O O8 0.500000 0.838792 0.750000
O O9 0.252926 0.772175 0.257908
O O10 0.000000 0.000000 0.000000
#
# Coordination Sequence:
#
# PCOD9233122 Si02
#       5
#     4   2   4   4   4
#     4  10  21  43  66  86 129 176 209 263 321 386
#     4  12  20  40  64  96 128 166 208 278 316 372
#     4  11  23  39  66  97 129 168 216 265 327 381
#     4  10  21  39  66  91 124 166 218 260 319 375
#     4  11  21  42  67  93 127 174 215 261 320 392
#
# _framework density 19.995708
#
# number of rings (size 3 to 8) (size 9 to 14) (size 15 to 20)
#    0.000    1.333    4.444    2.667    0.000    1.778 
#    0.000    1.111    0.000    0.000    0.000    0.000 
#    0.000    0.000    0.000    0.000    0.000    0.000 
#
# Total GULP energy -100225.100082 kJ/mol
# GULP energy per Si atom -5568.061116 kJ/mol
# Density = 1.995020 g / cm^3
# Si number density = 19.995708 Si / 1000 Ang^3
#
#
#
# Elastic Constant Matrix: (Units=GPa)
#
#
# Indices 1 2 3 4 5 6 
#
# 1 100.2393 30.7364 27.6808 0.0000 -0.9000 0.0000
# 2 30.7364 113.2091 37.7974 0.0000 1.5412 0.0000
# 3 27.6808 37.7974 96.7167 0.0000 0.8717 0.0000
# 4 0.0000 0.0000 0.0000 8.0963 0.0000 -2.6317
# 5 -0.9000 1.5412 0.8717 0.0000 32.1957 0.0000
# 6 0.0000 0.0000 0.0000 -2.6317 0.0000 19.3230
#
#
#
# Elastic Compliance Matrix: (Units=1/GPa)
#
#
# Indices 1 2 3 4 5 6 
#
# 1 0.011335 -0.002299 -0.002350 0.000000 0.000491 0.000000
# 2 -0.002299 0.010630 -0.003492 0.000000 -0.000479 0.000000
# 3 -0.002350 -0.003492 0.012379 0.000000 -0.000234 0.000000
# 4 0.000000 0.000000 0.000000 0.129234 0.000000 0.017601
# 5 0.000491 -0.000479 -0.000234 0.000000 0.031103 0.000000
# 6 0.000000 0.000000 0.000000 0.017601 0.000000 0.054149
#
#
# Mechanical properties :
#
#
# Convention : Reuss Voigt Hill
#
# Bulk Modulus (GPa) = 55.36783 55.84380 55.60582
# Shear Modulus (GPa) = 18.44126 26.18639 22.31382
#
# Velocity S-wave (km/s) = 3.04017 3.62277 3.34418
# Velocity P-wave (km/s) = 6.33036 6.74446 6.54069
#
# Compressibility (1/GPa) = 0.01806103
#
# Stress axis : x y z
#
# Youngs Moduli (GPa) = 88.22619 94.07474 80.78394
#
# Poissons Ratio (x) = 0.21632 0.18982
# Poissons Ratio (y) = 0.20288 0.28208
# Poissons Ratio (z) = 0.20731 0.32849
#
# Static dielectric constant tensor:
#      x y z
#    x 1.803940 0.000000 -0.028860 
#    y 0.000000 1.783830 0.000000 
#    z -0.028860 0.000000 1.721760 
# 
# From -- ./inp_files/97630.got.cif
#   From: 2010.05.17/outbox.cif.g08.bks.cpg/sg13_49_cif.got.tgz:97630.got - 2010.06.03 16:44:36.
