data_PCOD9233043
_publ_section_title
;
Structure prediction by ZEFSAII (Michael W. Deem and Ramdas Pophale) SiO2 
 PCOD9233043
Probable space group: P 2/C
;
_chemical_formula_sum "Si O2"
_cell_formula_units_Z 28
_cell_length_a 10.265971
_cell_length_b 12.763142
_cell_length_c 8.761020
_cell_angle_alpha 90.000000
_cell_angle_beta 90.906273
_cell_angle_gamma 90.000000
_cell_volume 1147.778209
_symmetry_space_group_name_H-M "P 2/C"
_symmetry_group_IT_number 13
_symmetry_cell_setting 'monoclinic'
loop_
_space_group_symop_operation_xyz
x,y,z
-x,y,1/2-z
-x,-y,-z
x,-y,1/2+z
loop_
_atom_site_type_symbol
_atom_site_label
_atom_site_fract_x
_atom_site_fract_y
_atom_site_fract_z
Si Si1 0.255022 0.023986 0.699819
Si Si2 0.200365 0.576643 0.119107
Si Si3 0.091224 0.258143 0.398320
Si Si4 0.234980 0.370238 0.962603
Si Si5 0.874099 0.139257 0.524414
Si Si6 0.519202 0.686140 0.422502
Si Si7 0.644154 0.855967 0.588458
O O1 0.167033 0.942428 0.605264
O O2 0.356898 0.953527 0.798212
O O3 0.169813 0.088997 0.818043
O O4 0.322575 0.097608 0.577784
O O5 0.177715 0.601554 0.295335
O O6 0.346171 0.620979 0.081973
O O7 0.107151 0.640375 0.003800
O O8 0.190965 0.454064 0.085751
O O9 0.023803 0.168886 0.501685
O O10 0.233446 0.215664 0.359647
O O11 0.000000 0.271565 0.250000
O O12 0.199032 0.250504 0.992944
O O13 0.391161 0.380457 0.952545
O O14 0.500000 0.730066 0.250000
O O15 0.527723 0.776680 0.550720
#
# Coordination Sequence:
#
# PCOD9233043 Si02
#       7
#     4   4   4   4   4   4   4
#     4  10  22  40  64  96 133 176 227 277 325 392
#     4  10  24  42  69  97 134 169 222 271 335 404
#     4  11  23  41  66  97 134 173 220 273 331 401
#     4  11  24  44  68  98 131 176 216 276 338 401
#     4  11  24  42  64  97 135 172 227 265 334 389
#     4   9  19  41  66  92 127 171 222 275 328 394
#     4  10  21  39  63  94 132 175 222 279 328 389
#
# _framework density 24.394957000000002
#
# number of rings (size 3 to 8) (size 9 to 14) (size 15 to 20)
#    0.000    1.714    1.429    3.000    2.000    6.286 
#    0.000   10.000    0.000    0.000    0.000    0.000 
#    0.000    0.000    0.000    0.000    0.000    0.000 
#
# Total GULP energy -156876.862635 kJ/mol
# GULP energy per Si atom -5602.745094 kJ/mol
# Density = 2.433943 g / cm^3
# Si number density = 24.394957 Si / 1000 Ang^3
#
#
#
# Elastic Constant Matrix: (Units=GPa)
#
#
# Indices 1 2 3 4 5 6 
#
# 1 54.6612 20.0447 39.3121 0.0000 12.6342 0.0000
# 2 20.0447 127.3355 56.0471 0.0000 15.7095 0.0000
# 3 39.3121 56.0471 114.2814 0.0000 23.7621 0.0000
# 4 0.0000 0.0000 0.0000 46.1414 0.0000 -0.7666
# 5 12.6342 15.7095 23.7621 0.0000 23.0432 0.0000
# 6 0.0000 0.0000 0.0000 -0.7666 0.0000 18.8492
#
#
#
# Elastic Compliance Matrix: (Units=1/GPa)
#
#
# Indices 1 2 3 4 5 6 
#
# 1 0.024976 0.000059 -0.007338 0.000000 -0.006167 0.000000
# 2 0.000059 0.010107 -0.004503 0.000000 -0.002279 0.000000
# 3 -0.007338 -0.004503 0.015286 0.000000 -0.008669 0.000000
# 4 0.000000 0.000000 0.000000 0.021687 0.000000 0.000882
# 5 -0.006167 -0.002279 -0.008669 0.000000 0.057271 0.000000
# 6 0.000000 0.000000 0.000000 0.000882 0.000000 0.053089
#
#
# Mechanical properties :
#
#
# Convention : Reuss Voigt Hill
#
# Bulk Modulus (GPa) = 37.30793 58.56511 47.93652
# Shear Modulus (GPa) = 23.26491 29.66502 26.46497
#
# Velocity S-wave (km/s) = 3.09152 3.49095 3.29729
# Velocity P-wave (km/s) = 5.29809 6.34887 5.84713
#
# Compressibility (1/GPa) = 0.02680396
#
# Stress axis : x y z
#
# Youngs Moduli (GPa) = 40.03854 98.93823 65.42014
#
# Poissons Ratio (x) = -0.00586 0.48007
# Poissons Ratio (y) = -0.00237 0.29461
# Poissons Ratio (z) = 0.29382 0.44556
#
# Static dielectric constant tensor:
#      x y z
#    x 1.967340 0.000000 -0.007060 
#    y 0.000000 1.912370 0.000000 
#    z -0.007060 0.000000 1.923410 
# 
# From -- ./inp_files/18848.got.cif
#   From: 2010.05.17/outbox.cif.g08.bks.cpg/sg13_10_cif.got.tgz:18848.got - 2010.06.03 16:44:36.
