data_PCOD9233923
_publ_section_title
;
Structure prediction by ZEFSAII (Michael W. Deem and Ramdas Pophale) SiO2 
 PCOD9233923
Probable space group: P 2/C
;
_chemical_formula_sum "Si O2"
_cell_formula_units_Z 26
_cell_length_a 7.756154
_cell_length_b 16.074965
_cell_length_c 15.735181
_cell_angle_alpha 90.000000
_cell_angle_beta 143.371367
_cell_angle_gamma 90.000000
_cell_volume 1170.497197
_symmetry_space_group_name_H-M "P 2/C"
_symmetry_group_IT_number 13
_symmetry_cell_setting 'monoclinic'
loop_
_space_group_symop_operation_xyz
x,y,z
-x,y,1/2-z
-x,-y,-z
x,-y,1/2+z
loop_
_atom_site_type_symbol
_atom_site_label
_atom_site_fract_x
_atom_site_fract_y
_atom_site_fract_z
Si Si1 0.692140 0.441038 0.175568
Si Si2 0.056406 0.098328 0.172424
Si Si3 0.809222 0.914897 0.327105
Si Si4 0.656989 0.190370 0.427632
Si Si5 0.657747 0.623149 0.122466
Si Si6 0.500000 0.335863 0.250000
Si Si7 0.474079 0.196275 0.923497
O O1 0.608188 0.537604 0.153978
O O2 0.691503 0.392270 0.263514
O O3 0.000000 0.439008 0.250000
O O4 0.474768 0.398029 0.022615
O O5 0.363079 0.143662 0.283718
O O6 0.209830 0.156325 0.458715
O O7 0.000000 0.083778 0.250000
O O8 0.070399 0.007224 0.138243
O O9 0.500000 0.919449 0.250000
O O10 0.736864 0.864036 0.212280
O O11 0.058861 0.864104 0.473133
O O12 0.673663 0.275411 0.382112
O O13 0.615905 0.201396 0.512941
O O14 0.530127 0.708313 0.108767
O O15 0.000000 0.636508 0.250000
#
# Coordination Sequence:
#
# PCOD9233923 Si02
#       7
#     4   4   4   4   4   2   4
#     4  10  24  45  75 104 146 190 236 298 361 432
#     4  10  24  44  71 102 134 191 241 289 361 430
#     4  12  27  43  66 104 146 186 237 302 361 420
#     4  11  25  43  70 101 140 188 241 296 348 432
#     4  10  21  44  72 105 140 187 234 291 365 418
#     4  12  26  44  74 110 140 188 246 296 348 442
#     4  11  23  44  75  98 141 190 237 296 358 426
#
# _framework density 22.212783999999999
#
# number of rings (size 3 to 8) (size 9 to 14) (size 15 to 20)
#    0.000    1.231    1.538    3.231    5.385    3.692 
#    1.385    6.923    0.000    0.000    0.000    0.000 
#    0.000    0.000    0.000    0.000    0.000    0.000 
#
# Total GULP energy -145519.096870 kJ/mol
# GULP energy per Si atom -5596.888341 kJ/mol
# Density = 2.216223 g / cm^3
# Si number density = 22.212784 Si / 1000 Ang^3
#
#
#
# Elastic Constant Matrix: (Units=GPa)
#
#
# Indices 1 2 3 4 5 6 
#
# 1 128.3751 74.6638 44.1550 0.0000 1.6941 0.0000
# 2 74.6638 209.7628 62.7107 0.0000 4.6923 0.0000
# 3 44.1550 62.7107 105.9202 0.0000 20.3198 0.0000
# 4 0.0000 0.0000 0.0000 -495.5929 0.0000 -64.6675
# 5 1.6941 4.6923 20.3198 0.0000 44.8983 0.0000
# 6 0.0000 0.0000 0.0000 -64.6675 0.0000 7.5937
#
#
#
# Elastic Compliance Matrix: (Units=1/GPa)
#
#
# Indices 1 2 3 4 5 6 
#
# 1 0.010440 -0.002883 -0.002877 0.000000 0.001210 0.000000
# 2 -0.002883 0.006633 -0.002862 0.000000 0.000711 0.000000
# 3 -0.002877 -0.002862 0.013422 0.000000 -0.005667 0.000000
# 4 0.000000 0.000000 0.000000 -0.000956 0.000000 -0.008139
# 5 0.001210 0.000711 -0.005667 0.000000 0.024717 0.000000
# 6 0.000000 0.000000 0.000000 -0.008139 0.000000 0.062376
#
#
# Mechanical properties :
#
#
# Convention : Reuss Voigt Hill
#
# Bulk Modulus (GPa) = 75.46490 89.67967 82.57228
# Shear Modulus (GPa) = 36.15494 -71.11828 -17.48167
#
# Velocity S-wave (km/s) = 4.03881 -5.66448 -2.80841
# Velocity P-wave (km/s) = 7.46972 1.52352 5.17086
#
# Compressibility (1/GPa) = 0.01325119
#
# Stress axis : x y z
#
# Youngs Moduli (GPa) = 95.78427 150.75939 74.50475
#
# Poissons Ratio (x) = 0.43463 0.21438
# Poissons Ratio (y) = 0.27614 0.21321
# Poissons Ratio (z) = 0.27561 0.43143
#
# Static dielectric constant tensor:
#      x y z
#    x 1.836870 0.000000 -0.064630 
#    y 0.000000 1.805180 0.000000 
#    z -0.064630 0.000000 1.850840 
# 
# From -- ./inp_files/47944.got.cif
#   From: 2010.05.17/outbox.cif.g08.bks.cpg/sg13_24_cif.got.tgz:47944.got - 2010.06.03 16:44:36.
