data_PCOD9233355
_publ_section_title
;
Structure prediction by ZEFSAII (Michael W. Deem and Ramdas Pophale) SiO2 
 PCOD9233355
Probable space group: P 2/C
;
_chemical_formula_sum "Si O2"
_cell_formula_units_Z 18
_cell_length_a 11.837801
_cell_length_b 10.948890
_cell_length_c 10.175641
_cell_angle_alpha 90.000000
_cell_angle_beta 41.072566
_cell_angle_gamma 90.000000
_cell_volume 866.518346
_symmetry_space_group_name_H-M "P 2/C"
_symmetry_group_IT_number 13
_symmetry_cell_setting 'monoclinic'
loop_
_space_group_symop_operation_xyz
x,y,z
-x,y,1/2-z
-x,-y,-z
x,-y,1/2+z
loop_
_atom_site_type_symbol
_atom_site_label
_atom_site_fract_x
_atom_site_fract_y
_atom_site_fract_z
Si Si1 0.732797 0.256861 0.833586
Si Si2 0.000000 0.902085 0.250000
Si Si3 0.401504 0.727971 0.468486
Si Si4 0.149111 0.136243 0.033946
Si Si5 0.875536 0.520539 0.734397
O O1 0.533589 0.240530 0.969051
O O2 0.822770 0.213199 0.619713
O O3 0.762528 0.397555 0.839072
O O4 0.839280 0.178080 0.844878
O O5 0.917914 0.998630 0.426018
O O6 0.500000 0.675794 0.250000
O O7 0.313140 0.849066 0.484755
O O8 0.258100 0.633324 0.645417
O O9 0.000000 0.196328 0.250000
O O10 0.000000 0.526229 0.750000
O O11 0.000000 0.500000 0.500000
#
# Coordination Sequence:
#
# PCOD9233355 Si02
#       5
#     4   2   4   4   4
#     4  11  21  39  61  92 128 161 220 272 319 383
#     4  10  22  38  62  88 128 172 222 260 322 380
#     4  10  21  40  66  97 130 170 214 272 332 390
#     4   9  20  38  64  83 125 173 218 252 329 383
#     4  12  24  41  69  95 134 172 216 267 339 406
#
# _framework density 20.772784999999999
#
# number of rings (size 3 to 8) (size 9 to 14) (size 15 to 20)
#    0.667    0.889    1.111    6.000    0.000    0.889 
#    0.000    0.000    0.000    0.000    0.000    0.000 
#    0.000    0.000    0.000    0.000    0.000    0.000 
#
# Total GULP energy -100221.703573 kJ/mol
# GULP energy per Si atom -5567.872421 kJ/mol
# Density = 2.072551 g / cm^3
# Si number density = 20.772785 Si / 1000 Ang^3
#
#
#
# Elastic Constant Matrix: (Units=GPa)
#
#
# Indices 1 2 3 4 5 6 
#
# 1 130.7641 29.0155 22.6409 0.0000 -21.9583 0.0000
# 2 29.0155 70.9981 -2.3217 0.0000 -12.8590 0.0000
# 3 22.6409 -2.3217 75.6412 0.0000 -8.6549 0.0000
# 4 0.0000 0.0000 0.0000 22.9032 0.0000 -9.2324
# 5 -21.9583 -12.8590 -8.6549 0.0000 27.7693 0.0000
# 6 0.0000 0.0000 0.0000 -9.2324 0.0000 20.6832
#
#
#
# Elastic Compliance Matrix: (Units=1/GPa)
#
#
# Indices 1 2 3 4 5 6 
#
# 1 0.009649 -0.003025 -0.002352 0.000000 0.005496 0.000000
# 2 -0.003025 0.016453 0.002083 0.000000 0.005876 0.000000
# 3 -0.002352 0.002083 0.014399 0.000000 0.003592 0.000000
# 4 0.000000 0.000000 0.000000 0.053242 0.000000 0.023766
# 5 0.005496 0.005876 0.003592 0.000000 0.044198 0.000000
# 6 0.000000 0.000000 0.000000 0.023766 0.000000 0.058957
#
#
# Mechanical properties :
#
#
# Convention : Reuss Voigt Hill
#
# Bulk Modulus (GPa) = 29.48688 41.78588 35.63638
# Shear Modulus (GPa) = 23.27849 29.47569 26.37709
#
# Velocity S-wave (km/s) = 3.35120 3.77099 3.56728
# Velocity P-wave (km/s) = 5.40369 6.25459 5.84464
#
# Compressibility (1/GPa) = 0.03391339
#
# Stress axis : x y z
#
# Youngs Moduli (GPa) = 103.64151 60.77754 69.44780
#
# Poissons Ratio (x) = 0.18384 0.16334
# Poissons Ratio (y) = 0.31349 -0.14464
# Poissons Ratio (z) = 0.24377 -0.12658
#
# Static dielectric constant tensor:
#      x y z
#    x 1.780570 0.000000 -0.004030 
#    y 0.000000 1.738870 0.000000 
#    z -0.004030 0.000000 1.779860 
# 
# From -- ./inp_files/33028.got.cif
#   From: 2010.05.17/outbox.cif.g08.bks.cpg/sg13_17_cif.got.tgz:33028.got - 2010.06.03 16:44:36.
