data_PCOD9233123
_publ_section_title
;
Structure prediction by ZEFSAII (Michael W. Deem and Ramdas Pophale) SiO2 
 PCOD9233123
Probable space group: P 2/C
;
_chemical_formula_sum "Si O2"
_cell_formula_units_Z 32
_cell_length_a 12.768604
_cell_length_b 14.496156
_cell_length_c 13.427451
_cell_angle_alpha 90.000000
_cell_angle_beta 33.140584
_cell_angle_gamma 90.000000
_cell_volume 1358.736086
_symmetry_space_group_name_H-M "P 2/C"
_symmetry_group_IT_number 13
_symmetry_cell_setting 'monoclinic'
loop_
_space_group_symop_operation_xyz
x,y,z
-x,y,1/2-z
-x,-y,-z
x,-y,1/2+z
loop_
_atom_site_type_symbol
_atom_site_label
_atom_site_fract_x
_atom_site_fract_y
_atom_site_fract_z
Si Si1 0.490390 0.106476 0.528965
Si Si2 0.325675 0.763938 0.019962
Si Si3 0.297010 0.381761 0.971116
Si Si4 0.937444 0.752416 0.438988
Si Si5 0.286897 0.175934 0.969815
Si Si6 0.434008 0.399586 0.084086
Si Si7 0.875306 0.546559 0.513445
Si Si8 0.080981 0.899274 0.464106
O O1 0.471783 0.159496 0.440128
O O2 0.662359 0.146125 0.458682
O O3 0.290080 0.117502 0.747768
O O4 0.500000 0.000000 0.500000
O O5 0.268001 0.760309 0.951123
O O6 0.119781 0.788067 0.231916
O O7 0.404073 0.671365 0.010038
O O8 0.500000 0.390405 0.750000
O O9 0.216449 0.281001 0.007771
O O10 0.177040 0.470739 0.028910
O O11 0.329257 0.371666 0.064392
O O12 0.974794 0.642209 0.406252
O O13 0.950969 0.814296 0.527308
O O14 0.500000 0.172312 0.750000
O O15 0.135639 0.110238 0.036279
O O16 0.310196 0.416530 0.280796
O O17 0.500000 0.500000 0.000000
O O18 0.000000 0.500000 0.500000
O O19 0.000000 0.000000 0.500000
#
# Coordination Sequence:
#
# PCOD9233123 Si02
#       8
#     4   4   4   4   4   4   4   4
#     4  10  21  39  66  92 121 161 215 272 325 386
#     4  10  22  42  64  92 126 172 216 267 323 391
#     4  11  22  41  68  93 127 171 217 269 321 382
#     4  10  23  41  62  90 134 171 213 264 330 392
#     4   9  19  38  64  90 120 164 213 256 319 392
#     4  12  23  39  66  95 128 169 227 262 321 390
#     4  12  26  41  63  95 133 173 215 271 328 386
#     4  10  22  40  62  91 125 169 209 262 336 393
#
# _framework density 23.551299
#
# number of rings (size 3 to 8) (size 9 to 14) (size 15 to 20)
#    0.000    1.500    2.500    2.250    3.500    2.500 
#    0.000    0.000    0.000    0.000    0.000    0.000 
#    0.000    0.000    0.000    0.000    0.000    0.000 
#
# Total GULP energy -178566.236207 kJ/mol
# GULP energy per Si atom -5580.194881 kJ/mol
# Density = 2.349770 g / cm^3
# Si number density = 23.551299 Si / 1000 Ang^3
#
#
#
# Elastic Constant Matrix: (Units=GPa)
#
#
# Indices 1 2 3 4 5 6 
#
# 1 206.7301 102.6426 16.9470 0.0000 -22.1939 0.0000
# 2 102.6426 156.5202 -5.3333 0.0000 -19.2509 0.0000
# 3 16.9470 -5.3333 50.2570 0.0000 -2.8993 0.0000
# 4 0.0000 0.0000 0.0000 28.7882 0.0000 -9.9736
# 5 -22.1939 -19.2509 -2.8993 0.0000 23.3883 0.0000
# 6 0.0000 0.0000 0.0000 -9.9736 0.0000 45.4594
#
#
#
# Elastic Compliance Matrix: (Units=1/GPa)
#
#
# Indices 1 2 3 4 5 6 
#
# 1 0.007819 -0.004853 -0.002975 0.000000 0.003056 0.000000
# 2 -0.004853 0.010181 0.002956 0.000000 0.004142 0.000000
# 3 -0.002975 0.002956 0.021345 0.000000 0.002256 0.000000
# 4 0.000000 0.000000 0.000000 0.037594 0.000000 0.008248
# 5 0.003056 0.004142 0.002256 0.000000 0.049345 0.000000
# 6 0.000000 0.000000 0.000000 0.008248 0.000000 0.023807
#
#
# Mechanical properties :
#
#
# Convention : Reuss Voigt Hill
#
# Bulk Modulus (GPa) = 33.78318 71.33553 52.55936
# Shear Modulus (GPa) = 29.46333 39.47725 34.47029
#
# Velocity S-wave (km/s) = 3.54082 4.09861 3.82989
# Velocity P-wave (km/s) = 5.57604 7.26315 6.47478
#
# Compressibility (1/GPa) = 0.02960052
#
# Stress axis : x y z
#
# Youngs Moduli (GPa) = 127.89904 98.21792 46.84989
#
# Poissons Ratio (x) = 0.47663 0.13939
# Poissons Ratio (y) = 0.62067 -0.13848
# Poissons Ratio (z) = 0.38052 -0.29031
#
# Static dielectric constant tensor:
#      x y z
#    x 1.947430 0.000000 0.030430 
#    y 0.000000 -38.338270 0.000000 
#    z 0.030430 0.000000 3.492530 
# 
# From -- ./inp_files/51475.got.cif
#   From: 2010.05.17/outbox.cif.g08.bks.cpg/sg13_26_cif.got.tgz:51475.got - 2010.06.03 16:44:36.
