data_PCOD9233790
_publ_section_title
;
Structure prediction by ZEFSAII (Michael W. Deem and Ramdas Pophale) SiO2 
 PCOD9233790
Probable space group: P 2/C
;
_chemical_formula_sum "Si O2"
_cell_formula_units_Z 26
_cell_length_a 15.706522
_cell_length_b 8.509983
_cell_length_c 14.615070
_cell_angle_alpha 90.000000
_cell_angle_beta 43.138622
_cell_angle_gamma 90.000000
_cell_volume 1335.724828
_symmetry_space_group_name_H-M "P 2/C"
_symmetry_group_IT_number 13
_symmetry_cell_setting 'monoclinic'
loop_
_space_group_symop_operation_xyz
x,y,z
-x,y,1/2-z
-x,-y,-z
x,-y,1/2+z
loop_
_atom_site_type_symbol
_atom_site_label
_atom_site_fract_x
_atom_site_fract_y
_atom_site_fract_z
Si Si1 0.807288 0.089301 0.537588
Si Si2 0.952796 0.223677 0.888045
Si Si3 0.286043 0.588642 0.852934
Si Si4 0.376057 0.099778 0.191949
Si Si5 0.500000 0.372608 0.750000
Si Si6 0.396638 0.881815 0.461566
Si Si7 0.890004 0.628742 0.087126
O O1 0.717416 0.102349 0.519775
O O2 0.869646 0.254280 0.517114
O O3 0.906745 0.953258 0.440952
O O4 0.722453 0.024368 0.688203
O O5 0.000000 0.246950 0.750000
O O6 0.068154 0.261521 0.863471
O O7 0.835081 0.338590 0.001299
O O8 0.356786 0.737452 0.758322
O O9 0.378857 0.481302 0.837427
O O10 0.233402 0.476154 0.813905
O O11 0.511872 0.031673 0.108423
O O12 0.358504 0.130958 0.097604
O O13 0.521462 0.260478 0.645245
O O14 0.000000 0.500000 0.000000
#
# Coordination Sequence:
#
# PCOD9233790 Si02
#       7
#     4   4   4   4   2   4   4
#     4  11  21  42  66  92 130 172 216 278 322 383
#     4  10  24  41  65  95 124 175 225 266 316 385
#     4  10  23  41  66  93 134 171 209 278 330 387
#     4  10  23  39  65  98 128 173 218 264 327 403
#     4  12  22  40  68  98 136 172 206 272 344 390
#     4  11  22  40  64  97 133 171 218 265 329 403
#     4  10  21  43  61  86 127 168 212 268 325 377
#
# _framework density 19.465085999999999
#
# number of rings (size 3 to 8) (size 9 to 14) (size 15 to 20)
#    0.000    1.538    3.077    0.462    6.462    1.846 
#    0.000    0.769    0.000    0.000    0.000    0.000 
#    0.000    0.000    0.000    0.000    0.000    0.000 
#
# Total GULP energy -145000.902115 kJ/mol
# GULP energy per Si atom -5576.957774 kJ/mol
# Density = 1.942078 g / cm^3
# Si number density = 19.465086 Si / 1000 Ang^3
#
#
#
# Elastic Constant Matrix: (Units=GPa)
#
#
# Indices 1 2 3 4 5 6 
#
# 1 111.9914 53.4629 30.3929 0.0000 12.0158 0.0000
# 2 53.4629 115.3871 25.3557 0.0000 -1.7888 0.0000
# 3 30.3929 25.3557 57.9521 0.0000 21.8746 0.0000
# 4 0.0000 0.0000 0.0000 -2.4216 0.0000 -8.6261
# 5 12.0158 -1.7888 21.8746 0.0000 24.9134 0.0000
# 6 0.0000 0.0000 0.0000 -8.6261 0.0000 38.7796
#
#
#
# Elastic Compliance Matrix: (Units=1/GPa)
#
#
# Indices 1 2 3 4 5 6 
#
# 1 0.012656 -0.005314 -0.002789 0.000000 -0.004037 0.000000
# 2 -0.005314 0.012589 -0.006027 0.000000 0.008759 0.000000
# 3 -0.002789 -0.006027 0.031426 0.000000 -0.026681 0.000000
# 4 0.000000 0.000000 0.000000 -0.230392 0.000000 -0.051248
# 5 -0.004037 0.008759 -0.026681 0.000000 0.066142 0.000000
# 6 0.000000 0.000000 0.000000 -0.051248 0.000000 0.014387
#
#
# Mechanical properties :
#
#
# Convention : Reuss Voigt Hill
#
# Bulk Modulus (GPa) = 35.19692 55.97260 45.58476
# Shear Modulus (GPa) = -90.15120 23.99554 -33.07783
#
# Velocity S-wave (km/s) = -6.81284 3.51486 -4.12678
# Velocity P-wave (km/s) = 6.61552 6.72979 0.87321
#
# Compressibility (1/GPa) = 0.02841157
#
# Stress axis : x y z
#
# Youngs Moduli (GPa) = 79.01475 79.43607 31.82059
#
# Poissons Ratio (x) = 0.42210 0.08874
# Poissons Ratio (y) = 0.41986 0.19179
# Poissons Ratio (z) = 0.22034 0.47878
#
# Static dielectric constant tensor:
#      x y z
#    x 1.694440 0.000000 -0.013120 
#    y 0.000000 1.692530 0.000000 
#    z -0.013120 0.000000 1.677590 
# 
# From -- ./inp_files/52914.got.cif
#   From: 2010.05.17/outbox.cif.g08.bks.cpg/sg13_27_cif.got.tgz:52914.got - 2010.06.03 16:44:36.
