data_PCOD9233954
_publ_section_title
;
Structure prediction by ZEFSAII (Michael W. Deem and Ramdas Pophale) SiO2 
 PCOD9233954
Probable space group: P 2/C
;
_chemical_formula_sum "Si O2"
_cell_formula_units_Z 20
_cell_length_a 8.565329
_cell_length_b 5.164233
_cell_length_c 22.591885
_cell_angle_alpha 90.000000
_cell_angle_beta 49.476623
_cell_angle_gamma 90.000000
_cell_volume 759.620122
_symmetry_space_group_name_H-M "P 2/C"
_symmetry_group_IT_number 13
_symmetry_cell_setting 'monoclinic'
loop_
_space_group_symop_operation_xyz
x,y,z
-x,y,1/2-z
-x,-y,-z
x,-y,1/2+z
loop_
_atom_site_type_symbol
_atom_site_label
_atom_site_fract_x
_atom_site_fract_y
_atom_site_fract_z
Si Si1 0.216216 0.878108 0.427620
Si Si2 0.176369 0.516420 0.673817
Si Si3 0.314154 0.196422 0.031048
Si Si4 0.440553 0.736931 0.702129
Si Si5 0.090113 0.122501 0.834262
O O1 0.299788 0.733055 0.465412
O O2 0.170493 0.743364 0.375507
O O3 0.374950 0.109961 0.374407
O O4 0.000000 0.000000 0.500000
O O5 0.307626 0.588046 0.583292
O O6 0.345098 0.520662 0.683494
O O7 0.000000 0.694887 0.750000
O O8 0.024170 0.302642 0.684591
O O9 0.094669 0.062867 0.099385
O O10 0.500000 0.000000 0.000000
O O11 0.500000 0.618826 0.750000
O O12 0.274781 0.958060 0.761089
#
# Coordination Sequence:
#
# PCOD9233954 Si02
#       5
#     4   4   4   4   4
#     4   9  20  42  72  98 139 184 226 290 363 415
#     4  12  25  40  69 104 133 182 245 288 348 431
#     4  11  22  41  67  99 143 182 223 298 360 417
#     4  10  21  45  72  97 145 189 231 295 355 420
#     4  10  24  43  68 100 135 185 239 288 346 430
#
# _framework density 26.328949000000001
#
# number of rings (size 3 to 8) (size 9 to 14) (size 15 to 20)
#    0.000    1.600    4.000    0.000    2.800    1.600 
#    0.000    5.000    0.000    0.000    0.000    0.000 
#    0.000    0.000    0.000    0.000    0.000    0.000 
#
# Total GULP energy -111726.194159 kJ/mol
# GULP energy per Si atom -5586.309708 kJ/mol
# Density = 2.626902 g / cm^3
# Si number density = 26.328949 Si / 1000 Ang^3
#
#
#
# Elastic Constant Matrix: (Units=GPa)
#
#
# Indices 1 2 3 4 5 6 
#
# 1 236.0875 59.5731 87.2727 0.0000 64.3493 0.0000
# 2 59.5731 47.2913 49.4823 0.0000 11.0382 0.0000
# 3 87.2727 49.4823 193.1934 0.0000 -9.3754 0.0000
# 4 0.0000 0.0000 0.0000 47.6727 0.0000 -11.2615
# 5 64.3493 11.0382 -9.3754 0.0000 92.0285 0.0000
# 6 0.0000 0.0000 0.0000 -11.2615 0.0000 42.0367
#
#
#
# Elastic Compliance Matrix: (Units=1/GPa)
#
#
# Indices 1 2 3 4 5 6 
#
# 1 0.008149 -0.006779 -0.002193 0.000000 -0.005109 0.000000
# 2 -0.006779 0.036271 -0.006240 0.000000 -0.000246 0.000000
# 3 -0.002193 -0.006240 0.007915 0.000000 0.003088 0.000000
# 4 0.000000 0.000000 0.000000 0.022394 0.000000 0.005999
# 5 -0.005109 -0.000246 0.003088 0.000000 0.014782 0.000000
# 6 0.000000 0.000000 0.000000 0.005999 0.000000 0.025396
#
#
# Mechanical properties :
#
#
# Convention : Reuss Voigt Hill
#
# Bulk Modulus (GPa) = 45.63670 96.58092 71.10881
# Shear Modulus (GPa) = 32.75800 55.03053 43.89426
#
# Velocity S-wave (km/s) = 3.53112 4.57674 4.08750
# Velocity P-wave (km/s) = 5.83061 8.04306 7.02448
#
# Compressibility (1/GPa) = 0.02191219
#
# Stress axis : x y z
#
# Youngs Moduli (GPa) = 122.70898 27.57017 126.34380
#
# Poissons Ratio (x) = 0.18689 0.27708
# Poissons Ratio (y) = 0.83181 0.78836
# Poissons Ratio (z) = 0.26911 0.17203
#
# Static dielectric constant tensor:
#      x y z
#    x 2.162240 0.000000 0.055130 
#    y 0.000000 2.127520 0.000000 
#    z 0.055130 0.000000 2.167160 
# 
# From -- ./inp_files/84252.got.cif
#   From: 2010.05.17/outbox.cif.g08.bks.cpg/sg13_43_cif.got.tgz:84252.got - 2010.06.03 16:44:36.
