data_PCOD9233921
_publ_section_title
;
Structure prediction by ZEFSAII (Michael W. Deem and Ramdas Pophale) SiO2 
 PCOD9233921
Probable space group: P 2/C
;
_chemical_formula_sum "Si O2"
_cell_formula_units_Z 14
_cell_length_a 11.067132
_cell_length_b 8.241826
_cell_length_c 8.993310
_cell_angle_alpha 90.000000
_cell_angle_beta 40.704076
_cell_angle_gamma 90.000000
_cell_volume 534.967193
_symmetry_space_group_name_H-M "P 2/C"
_symmetry_group_IT_number 13
_symmetry_cell_setting 'monoclinic'
loop_
_space_group_symop_operation_xyz
x,y,z
-x,y,1/2-z
-x,-y,-z
x,-y,1/2+z
loop_
_atom_site_type_symbol
_atom_site_label
_atom_site_fract_x
_atom_site_fract_y
_atom_site_fract_z
Si Si1 0.000000 0.475992 0.750000
Si Si2 0.606626 0.837199 0.942352
Si Si3 0.176518 0.008625 0.490719
Si Si4 0.221817 0.312685 0.804162
O O1 0.140569 0.383374 0.728134
O O2 0.130430 0.584601 0.521674
O O3 0.701807 0.896172 0.006439
O O4 0.740095 0.834608 0.673046
O O5 0.447184 0.701199 0.097845
O O6 0.500000 0.000000 0.000000
O O7 0.145091 0.870194 0.397024
O O8 0.000000 0.049698 0.750000
#
# Coordination Sequence:
#
# PCOD9233921 Si02
#       4
#     2   4   4   4
#     4  10  22  44  74 102 140 198 240 284 352 426
#     4  10  22  43  68 103 146 179 234 297 363 422
#     4  11  22  45  70 105 145 183 233 297 365 430
#     4  10  21  44  71 102 143 184 244 292 352 425
#
# _framework density 26.169826
#
# number of rings (size 3 to 8) (size 9 to 14) (size 15 to 20)
#    0.000    1.714    1.429    4.286    0.000    0.000 
#   25.714    8.571    0.000    0.000    0.000    2.000 
#    0.000    0.000    0.000    0.000    0.000    0.000 
#
# Total GULP energy -78252.006842 kJ/mol
# GULP energy per Si atom -5589.429060 kJ/mol
# Density = 2.611026 g / cm^3
# Si number density = 26.169826 Si / 1000 Ang^3
#
#
#
# Elastic Constant Matrix: (Units=GPa)
#
#
# Indices 1 2 3 4 5 6 
#
# 1 202.1233 58.9939 106.2178 0.0000 20.4692 0.0000
# 2 58.9939 86.4049 61.4822 0.0000 15.8020 0.0000
# 3 106.2178 61.4822 252.1947 0.0000 0.2096 0.0000
# 4 0.0000 0.0000 0.0000 34.1859 0.0000 -3.1651
# 5 20.4692 15.8020 0.2096 0.0000 47.1033 0.0000
# 6 0.0000 0.0000 0.0000 -3.1651 0.0000 51.1616
#
#
#
# Elastic Compliance Matrix: (Units=1/GPa)
#
#
# Indices 1 2 3 4 5 6 
#
# 1 0.007240 -0.002877 -0.002346 0.000000 -0.002171 0.000000
# 2 -0.002877 0.016260 -0.002749 0.000000 -0.004193 0.000000
# 3 -0.002346 -0.002749 0.005622 0.000000 0.001917 0.000000
# 4 0.000000 0.000000 0.000000 0.029420 0.000000 0.001820
# 5 -0.002171 -0.004193 0.001917 0.000000 0.023571 0.000000
# 6 0.000000 0.000000 0.000000 0.001820 0.000000 0.019659
#
#
# Mechanical properties :
#
#
# Convention : Reuss Voigt Hill
#
# Bulk Modulus (GPa) = 75.88158 110.45673 93.16915
# Shear Modulus (GPa) = 40.94715 47.42542 44.18629
#
# Velocity S-wave (km/s) = 3.95988 4.26163 4.11353
# Velocity P-wave (km/s) = 7.06869 8.15565 7.63155
#
# Compressibility (1/GPa) = 0.01317843
#
# Stress axis : x y z
#
# Youngs Moduli (GPa) = 138.12475 61.49922 177.87580
#
# Poissons Ratio (x) = 0.17691 0.41732
# Poissons Ratio (y) = 0.39734 0.48898
# Poissons Ratio (z) = 0.32406 0.16906
#
# Static dielectric constant tensor:
#      x y z
#    x -1.162810 0.000000 -8.478290 
#    y 0.000000 2.028660 0.000000 
#    z -8.478290 0.000000 -18.423620 
# 
# From -- ./inp_files/14662.got.cif
#   From: 2010.05.17/outbox.cif.g08.bks.cpg/sg13_8_cif.got.tgz:14662.got - 2010.06.03 16:44:36.
