data_PCOD9233226
_publ_section_title
;
Structure prediction by ZEFSAII (Michael W. Deem and Ramdas Pophale) SiO2 
 PCOD9233226
Probable space group: P 2/C
;
_chemical_formula_sum "Si O2"
_cell_formula_units_Z 16
_cell_length_a 16.294170
_cell_length_b 5.517418
_cell_length_c 25.274786
_cell_angle_alpha 90.000000
_cell_angle_beta 15.216879
_cell_angle_gamma 90.000000
_cell_volume 596.404630
_symmetry_space_group_name_H-M "P 2/C"
_symmetry_group_IT_number 13
_symmetry_cell_setting 'monoclinic'
loop_
_space_group_symop_operation_xyz
x,y,z
-x,y,1/2-z
-x,-y,-z
x,-y,1/2+z
loop_
_atom_site_type_symbol
_atom_site_label
_atom_site_fract_x
_atom_site_fract_y
_atom_site_fract_z
Si Si1 0.880765 0.211139 0.267000
Si Si2 0.692587 0.475325 0.728224
Si Si3 0.378021 0.975827 0.767513
Si Si4 0.170216 0.289935 0.739713
O O1 0.507140 0.250430 0.502317
O O2 0.997464 0.486154 0.185314
O O3 0.000000 0.127236 0.250000
O O4 0.951297 0.986749 0.184141
O O5 0.511370 0.244427 0.817177
O O6 0.781352 0.393548 0.731705
O O7 0.000000 0.500000 0.500000
O O8 0.548762 0.743686 0.814396
O O9 0.500000 0.916939 0.750000
O O10 0.000000 0.000000 0.000000
#
# Coordination Sequence:
#
# PCOD9233226 Si02
#       4
#     4   4   4   4
#     4  10  21  40  63  92 120 161 214 266 321 374
#     4  10  21  40  61  91 126 167 208 258 322 395
#     4  10  21  40  61  86 129 170 210 258 310 383
#     4  10  21  40  63  88 127 160 209 264 318 384
#
# _framework density 26.827425999999999
#
# number of rings (size 3 to 8) (size 9 to 14) (size 15 to 20)
#    0.000    2.000    0.000    3.000    0.000    0.000 
#   27.000    0.000    0.000    0.000    0.000    0.000 
#    0.000    0.000    0.000    0.000    0.000    0.000 
#
# Total GULP energy -89550.902117 kJ/mol
# GULP energy per Si atom -5596.931382 kJ/mol
# Density = 2.676637 g / cm^3
# Si number density = 26.827426 Si / 1000 Ang^3
#
#
#
# Elastic Constant Matrix: (Units=GPa)
#
#
# Indices 1 2 3 4 5 6 
#
# 1 147.5579 66.2320 -19.1265 0.0000 4.1814 0.0000
# 2 66.2320 301.8367 66.5256 0.0000 8.2695 0.0000
# 3 -19.1265 66.5256 99.7976 0.0000 -1.5334 0.0000
# 4 0.0000 0.0000 0.0000 66.2091 0.0000 5.8569
# 5 4.1814 8.2695 -1.5334 0.0000 29.9664 0.0000
# 6 0.0000 0.0000 0.0000 5.8569 0.0000 64.8568
#
#
#
# Elastic Compliance Matrix: (Units=1/GPa)
#
#
# Indices 1 2 3 4 5 6 
#
# 1 0.008359 -0.002553 0.003300 0.000000 -0.000293 0.000000
# 2 -0.002553 0.004708 -0.003645 0.000000 -0.001129 0.000000
# 3 0.003300 -0.003645 0.013101 0.000000 0.001216 0.000000
# 4 0.000000 0.000000 0.000000 0.015225 0.000000 -0.001375
# 5 -0.000293 -0.001129 0.001216 0.000000 0.033785 0.000000
# 6 0.000000 0.000000 0.000000 -0.001375 0.000000 0.015543
#
#
# Mechanical properties :
#
#
# Convention : Reuss Voigt Hill
#
# Bulk Modulus (GPa) = 49.09039 86.27270 67.68155
# Shear Modulus (GPa) = 48.39860 61.24388 54.82124
#
# Velocity S-wave (km/s) = 4.25204 4.78314 4.52539
# Velocity P-wave (km/s) = 6.51497 7.92040 7.25181
#
# Compressibility (1/GPa) = 0.02037058
#
# Stress axis : x y z
#
# Youngs Moduli (GPa) = 119.62926 212.42056 76.32968
#
# Poissons Ratio (x) = 0.54241 -0.25187
# Poissons Ratio (y) = 0.30547 0.27821
# Poissons Ratio (z) = -0.39474 0.77425
#
# Static dielectric constant tensor:
#      x y z
#    x 2.004260 0.000000 -0.072670 
#    y 0.000000 2.039230 0.000000 
#    z -0.072670 0.000000 1.431530 
# 
# From -- ./inp_files/31107.got.cif
#   From: 2010.05.17/outbox.cif.g08.bks.cpg/sg13_16_cif.got.tgz:31107.got - 2010.06.03 16:44:36.
