data_PCOD9233884
_publ_section_title
;
Structure prediction by ZEFSAII (Michael W. Deem and Ramdas Pophale) SiO2 
 PCOD9233884
Probable space group: P 2/C
;
_chemical_formula_sum "Si O2"
_cell_formula_units_Z 14
_cell_length_a 10.853408
_cell_length_b 9.076329
_cell_length_c 9.151838
_cell_angle_alpha 90.000000
_cell_angle_beta 143.353464
_cell_angle_gamma 90.000000
_cell_volume 538.107855
_symmetry_space_group_name_H-M "P 2/C"
_symmetry_group_IT_number 13
_symmetry_cell_setting 'monoclinic'
loop_
_space_group_symop_operation_xyz
x,y,z
-x,y,1/2-z
-x,-y,-z
x,-y,1/2+z
loop_
_atom_site_type_symbol
_atom_site_label
_atom_site_fract_x
_atom_site_fract_y
_atom_site_fract_z
Si Si1 0.364295 0.859134 0.900034
Si Si2 0.258320 0.657627 0.560721
Si Si3 0.755808 0.648629 0.286026
Si Si4 0.000000 0.163140 0.250000
O O1 0.240716 0.805014 0.639431
O O2 0.201792 0.906029 0.869156
O O3 0.528028 0.725406 0.088897
O O4 0.500000 0.000000 0.000000
O O5 0.500000 0.652575 0.750000
O O6 0.168464 0.652702 0.310753
O O7 0.234228 0.515658 0.641181
O O8 0.907077 0.738799 0.532591
#
# Coordination Sequence:
#
# PCOD9233884 Si02
#       4
#     4   4   4   2
#     4  11  26  48  71 102 145 190 241 297 357 430
#     4  10  21  43  73 103 144 188 233 300 361 420
#     4  11  24  44  71 106 143 186 240 297 361 424
#     4  12  26  44  76 106 142 192 240 300 364 428
#
# _framework density 26.01709
#
# number of rings (size 3 to 8) (size 9 to 14) (size 15 to 20)
#    0.000    1.143    0.000    7.714    0.000   13.714 
#    0.000    0.000    0.000    1.714    0.000    0.000 
#    0.000    0.000    0.000    0.000    0.000    0.000 
#
# Total GULP energy -78402.064629 kJ/mol
# GULP energy per Si atom -5600.147474 kJ/mol
# Density = 2.595787 g / cm^3
# Si number density = 26.017090 Si / 1000 Ang^3
#
#
#
# Elastic Constant Matrix: (Units=GPa)
#
#
# Indices 1 2 3 4 5 6 
#
# 1 247.2410 90.6744 56.6748 0.0000 -24.2538 0.0000
# 2 90.6744 103.4927 35.7360 0.0000 -5.1112 0.0000
# 3 56.6748 35.7360 142.4585 0.0000 -31.1941 0.0000
# 4 0.0000 0.0000 0.0000 25.1206 0.0000 1.1244
# 5 -24.2538 -5.1112 -31.1941 0.0000 52.5779 0.0000
# 6 0.0000 0.0000 0.0000 1.1244 0.0000 35.2462
#
#
#
# Elastic Compliance Matrix: (Units=1/GPa)
#
#
# Indices 1 2 3 4 5 6 
#
# 1 0.006308 -0.005158 -0.000791 0.000000 0.001939 0.000000
# 2 -0.005158 0.014814 -0.002149 0.000000 -0.002214 0.000000
# 3 -0.000791 -0.002149 0.008905 0.000000 0.004709 0.000000
# 4 0.000000 0.000000 0.000000 0.039865 0.000000 -0.001272
# 5 0.001939 -0.002214 0.004709 0.000000 0.022493 0.000000
# 6 0.000000 0.000000 0.000000 -0.001272 0.000000 0.028412
#
#
# Mechanical properties :
#
#
# Convention : Reuss Voigt Hill
#
# Bulk Modulus (GPa) = 72.30194 95.48475 83.89335
# Shear Modulus (GPa) = 35.31030 43.26273 39.28652
#
# Velocity S-wave (km/s) = 3.68801 4.08224 3.89012
# Velocity P-wave (km/s) = 6.78128 7.68115 7.24520
#
# Compressibility (1/GPa) = 0.01383089
#
# Stress axis : x y z
#
# Youngs Moduli (GPa) = 158.53726 67.50389 112.30177
#
# Poissons Ratio (x) = 0.34815 0.08884
# Poissons Ratio (y) = 0.81766 0.24135
# Poissons Ratio (z) = 0.12541 0.14507
#
# Static dielectric constant tensor:
#      x y z
#    x 2.110670 0.000000 0.051290 
#    y 0.000000 1.965070 0.000000 
#    z 0.051290 0.000000 2.177550 
# 
# From -- ./inp_files/14669.got.cif
#   From: 2010.05.17/outbox.cif.g08.bks.cpg/sg13_8_cif.got.tgz:14669.got - 2010.06.03 16:44:36.
