data_PCOD9233696
_publ_section_title
;
Structure prediction by ZEFSAII (Michael W. Deem and Ramdas Pophale) SiO2 
 PCOD9233696
Probable space group: P 2/C
;
_chemical_formula_sum "Si O2"
_cell_formula_units_Z 26
_cell_length_a 12.612197
_cell_length_b 9.452920
_cell_length_c 14.250782
_cell_angle_alpha 90.000000
_cell_angle_beta 136.185628
_cell_angle_gamma 90.000000
_cell_volume 1176.264353
_symmetry_space_group_name_H-M "P 2/C"
_symmetry_group_IT_number 13
_symmetry_cell_setting 'monoclinic'
loop_
_space_group_symop_operation_xyz
x,y,z
-x,y,1/2-z
-x,-y,-z
x,-y,1/2+z
loop_
_atom_site_type_symbol
_atom_site_label
_atom_site_fract_x
_atom_site_fract_y
_atom_site_fract_z
Si Si1 0.469865 0.665061 0.970942
Si Si2 0.936050 0.256696 0.541146
Si Si3 0.000000 0.471114 0.750000
Si Si4 0.146777 0.311468 0.209527
Si Si5 0.968670 0.028516 0.125509
Si Si6 0.613022 0.866626 0.408295
Si Si7 0.606127 0.814439 0.902508
O O1 0.326913 0.687019 0.810258
O O2 0.609345 0.729731 0.001526
O O3 0.500000 0.500000 0.000000
O O4 0.422447 0.752947 0.033018
O O5 0.965847 0.367999 0.641755
O O6 0.936692 0.336735 0.442669
O O7 0.771583 0.191733 0.462001
O O8 0.021723 0.104742 0.594348
O O9 0.882336 0.580631 0.723835
O O10 0.087986 0.156451 0.196561
O O11 0.000000 0.967961 0.250000
O O12 0.797557 0.104307 0.008048
O O13 0.500000 0.825650 0.250000
O O14 0.559407 0.025796 0.399039
O O15 0.500000 0.761908 0.750000
#
# Coordination Sequence:
#
# PCOD9233696 Si02
#       7
#     4   4   2   4   4   4   4
#     4  12  24  42  64  97 136 182 218 269 338 409
#     4  11  24  43  69  99 129 176 232 278 343 406
#     4  12  24  42  62  96 138 174 218 280 336 406
#     4  12  24  45  68  96 137 181 223 282 344 404
#     4  11  21  45  74  98 134 177 230 292 341 398
#     4  10  23  44  69  99 130 171 228 285 336 398
#     4  10  21  42  67  90 126 170 218 276 329 390
#
# _framework density 22.103873
#
# number of rings (size 3 to 8) (size 9 to 14) (size 15 to 20)
#    0.000    0.923    4.615    2.308    0.000    0.615 
#   11.077    0.000    0.000    0.000    0.000    0.000 
#    0.000    0.000    0.000    0.000    0.000    0.000 
#
# Total GULP energy -144807.890776 kJ/mol
# GULP energy per Si atom -5569.534261 kJ/mol
# Density = 2.205356 g / cm^3
# Si number density = 22.103873 Si / 1000 Ang^3
#
#
#
# Elastic Constant Matrix: (Units=GPa)
#
#
# Indices 1 2 3 4 5 6 
#
# 1 49.2064 30.6688 -6.3094 0.0000 -11.3694 0.0000
# 2 30.6688 114.8355 27.3434 0.0000 -24.3455 0.0000
# 3 -6.3094 27.3434 59.9558 0.0000 -14.4623 0.0000
# 4 0.0000 0.0000 0.0000 -68.0165 0.0000 41.2450
# 5 -11.3694 -24.3455 -14.4623 0.0000 32.4189 0.0000
# 6 0.0000 0.0000 0.0000 41.2450 0.0000 -1.2299
#
#
#
# Elastic Compliance Matrix: (Units=1/GPa)
#
#
# Indices 1 2 3 4 5 6 
#
# 1 0.028080 -0.007870 0.008397 0.000000 0.007684 0.000000
# 2 -0.007870 0.013138 -0.005721 0.000000 0.004554 0.000000
# 3 0.008397 -0.005721 0.022239 0.000000 0.008570 0.000000
# 4 0.000000 0.000000 0.000000 0.000760 0.000000 0.025499
# 5 0.007684 0.004554 0.008570 0.000000 0.040784 0.000000
# 6 0.000000 0.000000 0.000000 0.025499 0.000000 0.042050
#
#
# Mechanical properties :
#
#
# Convention : Reuss Voigt Hill
#
# Bulk Modulus (GPa) = 18.84329 36.37815 27.61072
# Shear Modulus (GPa) = 28.55069 4.12083 16.33576
#
# Velocity S-wave (km/s) = 3.59787 1.36688 2.72149
# Velocity P-wave (km/s) = 5.07966 4.35714 4.73221
#
# Compressibility (1/GPa) = 0.05306929
#
# Stress axis : x y z
#
# Youngs Moduli (GPa) = 35.61299 76.11792 44.96610
#
# Poissons Ratio (x) = 0.59902 -0.37760
# Poissons Ratio (y) = 0.28026 0.25726
# Poissons Ratio (z) = -0.29906 0.43549
#
# Static dielectric constant tensor:
#      x y z
#    x 1.938800 0.000000 0.027650 
#    y 0.000000 1.859240 0.000000 
#    z 0.027650 0.000000 1.940230 
# 
# From -- ./inp_files/53393.got.cif
#   From: 2010.05.17/outbox.cif.g08.bks.cpg/sg13_27_cif.got.tgz:53393.got - 2010.06.03 16:44:36.
