data_PCOD9233525
_publ_section_title
;
Structure prediction by ZEFSAII (Michael W. Deem and Ramdas Pophale) SiO2 
 PCOD9233525
Probable space group: P 2/C
;
_chemical_formula_sum "Si O2"
_cell_formula_units_Z 22
_cell_length_a 9.784831
_cell_length_b 11.669930
_cell_length_c 14.892058
_cell_angle_alpha 90.000000
_cell_angle_beta 143.595733
_cell_angle_gamma 90.000000
_cell_volume 1009.209963
_symmetry_space_group_name_H-M "P 2/C"
_symmetry_group_IT_number 13
_symmetry_cell_setting 'monoclinic'
loop_
_space_group_symop_operation_xyz
x,y,z
-x,y,1/2-z
-x,-y,-z
x,-y,1/2+z
loop_
_atom_site_type_symbol
_atom_site_label
_atom_site_fract_x
_atom_site_fract_y
_atom_site_fract_z
Si Si1 0.712253 0.035469 0.916733
Si Si2 0.909794 0.616643 0.904079
Si Si3 0.002991 0.827453 0.421709
Si Si4 0.788416 0.240695 0.079509
Si Si5 0.485488 0.613220 0.550365
Si Si6 0.000000 0.296815 0.750000
O O1 0.500000 0.987600 0.750000
O O2 0.855673 0.100365 0.914758
O O3 0.671543 0.138648 0.963201
O O4 0.823050 0.924813 0.020485
O O5 0.656420 0.599709 0.726030
O O6 0.092264 0.663426 0.923818
O O7 0.898352 0.722216 0.967700
O O8 0.000000 0.500000 0.000000
O O9 0.890940 0.774700 0.274072
O O10 0.611214 0.292724 0.055745
O O11 0.000000 0.192453 0.250000
O O12 0.500000 0.500000 0.500000
O O13 0.212537 0.638037 0.410027
#
# Coordination Sequence:
#
# PCOD9233525 Si02
#       6
#     4   4   4   4   4   2
#     4  10  21  41  66  89 131 167 221 264 324 386
#     4  10  22  43  70  95 130 169 217 272 332 389
#     4  10  24  41  62  99 126 171 215 270 320 391
#     4   9  21  42  66  92 125 173 218 264 330 388
#     4  11  25  41  67  96 133 172 216 273 326 398
#     4  12  26  42  62  96 138 164 226 260 330 392
#
# _framework density 21.799230000000001
#
# number of rings (size 3 to 8) (size 9 to 14) (size 15 to 20)
#    0.000    1.818    0.000    2.182   10.182    1.455 
#    0.000    1.818    0.000    0.000    0.000    0.000 
#    0.000    0.000    0.000    0.000    0.000    0.000 
#
# Total GULP energy -122635.002037 kJ/mol
# GULP energy per Si atom -5574.318274 kJ/mol
# Density = 2.174961 g / cm^3
# Si number density = 21.799230 Si / 1000 Ang^3
#
#
#
# Elastic Constant Matrix: (Units=GPa)
#
#
# Indices 1 2 3 4 5 6 
#
# 1 39.2214 8.1948 24.3602 0.0000 -3.2956 0.0000
# 2 8.1948 74.7714 32.5552 0.0000 1.4826 0.0000
# 3 24.3602 32.5552 127.0240 0.0000 3.4583 0.0000
# 4 0.0000 0.0000 0.0000 27.1638 0.0000 15.2445
# 5 -3.2956 1.4826 3.4583 0.0000 34.8697 0.0000
# 6 0.0000 0.0000 0.0000 15.2445 0.0000 7.4490
#
#
#
# Elastic Compliance Matrix: (Units=1/GPa)
#
#
# Indices 1 2 3 4 5 6 
#
# 1 0.029379 -0.000893 -0.005497 0.000000 0.003360 0.000000
# 2 -0.000893 0.015083 -0.003685 0.000000 -0.000360 0.000000
# 3 -0.005497 -0.003685 0.009908 0.000000 -0.001345 0.000000
# 4 0.000000 0.000000 0.000000 -0.247861 0.000000 0.507254
# 5 0.003360 -0.000360 -0.001345 0.000000 0.029144 0.000000
# 6 0.000000 0.000000 0.000000 0.507254 0.000000 -0.903861
#
#
# Mechanical properties :
#
#
# Convention : Reuss Voigt Hill
#
# Bulk Modulus (GPa) = 29.22183 41.24858 35.23521
# Shear Modulus (GPa) = -4.82322 25.62360 10.40019
#
# Velocity S-wave (km/s) = -1.48908 3.43218 2.18661
# Velocity P-wave (km/s) = 3.23691 5.88809 4.75117
#
# Compressibility (1/GPa) = 0.03422099
#
# Stress axis : x y z
#
# Youngs Moduli (GPa) = 34.03758 66.29797 100.93208
#
# Poissons Ratio (x) = 0.05922 0.55480
# Poissons Ratio (y) = 0.03040 0.37190
# Poissons Ratio (z) = 0.18710 0.24428
#
# Static dielectric constant tensor:
#      x y z
#    x 1.943450 0.000000 0.093870 
#    y 0.000000 1.649390 0.000000 
#    z 0.093870 0.000000 1.820980 
# 
# From -- ./inp_files/51273.got.cif
#   From: 2010.05.17/outbox.cif.g08.bks.cpg/sg13_26_cif.got.tgz:51273.got - 2010.06.03 16:44:36.
