data_PCOD9233171
_publ_section_title
;
Structure prediction by ZEFSAII (Michael W. Deem and Ramdas Pophale) SiO2 
 PCOD9233171
Probable space group: P 2/C
;
_chemical_formula_sum "Si O2"
_cell_formula_units_Z 20
_cell_length_a 7.292130
_cell_length_b 6.916928
_cell_length_c 19.692179
_cell_angle_alpha 90.000000
_cell_angle_beta 98.739214
_cell_angle_gamma 90.000000
_cell_volume 981.724959
_symmetry_space_group_name_H-M "P 2/C"
_symmetry_group_IT_number 13
_symmetry_cell_setting 'monoclinic'
loop_
_space_group_symop_operation_xyz
x,y,z
-x,y,1/2-z
-x,-y,-z
x,-y,1/2+z
loop_
_atom_site_type_symbol
_atom_site_label
_atom_site_fract_x
_atom_site_fract_y
_atom_site_fract_z
Si Si1 0.799329 0.376130 0.290490
Si Si2 0.605725 0.198032 0.021115
Si Si3 0.589453 0.526638 0.408227
Si Si4 0.817802 0.856576 0.670711
Si Si5 0.324122 0.738932 0.290701
O O1 0.702294 0.421953 0.355447
O O2 0.703330 0.255345 0.223800
O O3 0.803274 0.587979 0.256812
O O4 0.983488 0.250964 0.315724
O O5 0.465096 0.355444 0.044179
O O6 0.746074 0.164563 0.090589
O O7 0.683476 0.302030 0.957720
O O8 0.500000 0.000000 0.000000
O O9 0.416059 0.631802 0.360955
O O10 0.792788 0.077648 0.691569
O O11 0.500000 0.786199 0.250000
#
# Coordination Sequence:
#
# PCOD9233171 Si02
#       5
#     4   4   4   4   4
#     4  10  24  41  61  96 135 166 214 278 331 385
#     4  11  22  39  65  94 128 175 222 269 320 398
#     4  10  22  41  65  92 127 172 222 267 324 391
#     4  11  23  39  64  96 132 168 216 275 333 387
#     4  10  21  39  68  96 124 172 224 270 322 390
#
# _framework density 20.372304
#
# number of rings (size 3 to 8) (size 9 to 14) (size 15 to 20)
#    0.000    1.600    4.000    0.000    2.800    4.000 
#    0.000    1.000    0.000    0.000    0.000    0.000 
#    0.000    0.000    0.000    0.000    0.000    0.000 
#
# Total GULP energy -111376.569974 kJ/mol
# GULP energy per Si atom -5568.828499 kJ/mol
# Density = 2.032594 g / cm^3
# Si number density = 20.372304 Si / 1000 Ang^3
#
#
#
# Elastic Constant Matrix: (Units=GPa)
#
#
# Indices 1 2 3 4 5 6 
#
# 1 74.1869 60.0124 41.7726 0.0000 7.0086 0.0000
# 2 60.0124 165.8813 59.1563 0.0000 1.7265 0.0000
# 3 41.7726 59.1563 139.3235 0.0000 8.7336 0.0000
# 4 0.0000 0.0000 0.0000 43.0602 0.0000 4.7109
# 5 7.0086 1.7265 8.7336 0.0000 30.2980 0.0000
# 6 0.0000 0.0000 0.0000 4.7109 0.0000 35.6569
#
#
#
# Elastic Compliance Matrix: (Units=1/GPa)
#
#
# Indices 1 2 3 4 5 6 
#
# 1 0.020777 -0.006289 -0.003341 0.000000 -0.003485 0.000000
# 2 -0.006289 0.009014 -0.002038 0.000000 0.001529 0.000000
# 3 -0.003341 -0.002038 0.009154 0.000000 -0.001750 0.000000
# 4 0.000000 0.000000 0.000000 0.023564 0.000000 -0.003113
# 5 -0.003485 0.001529 -0.001750 0.000000 0.034229 0.000000
# 6 0.000000 0.000000 0.000000 -0.003113 0.000000 0.028456
#
#
# Mechanical properties :
#
#
# Convention : Reuss Voigt Hill
#
# Bulk Modulus (GPa) = 64.05878 77.91935 70.98907
# Shear Modulus (GPa) = 32.52379 36.36638 34.44509
#
# Velocity S-wave (km/s) = 3.99992 4.22962 4.11637
# Velocity P-wave (km/s) = 7.26944 7.88566 7.58381
#
# Compressibility (1/GPa) = 0.01561066
#
# Stress axis : x y z
#
# Youngs Moduli (GPa) = 48.12951 110.93291 109.24119
#
# Poissons Ratio (x) = 0.69767 0.36495
# Poissons Ratio (y) = 0.30269 0.22260
# Poissons Ratio (z) = 0.16079 0.22605
#
# Static dielectric constant tensor:
#      x y z
#    x 1.790620 0.000000 -0.009170 
#    y 0.000000 1.732910 0.000000 
#    z -0.009170 0.000000 1.788500 
# 
# From -- ./inp_files/62474.got.cif
#   From: 2010.05.17/outbox.cif.g08.bks.cpg/sg13_32_cif.got.tgz:62474.got - 2010.06.03 16:44:36.
