data_PCOD9233927
_publ_section_title
;
Structure prediction by ZEFSAII (Michael W. Deem and Ramdas Pophale) SiO2 
 PCOD9233927
Probable space group: P 2/C
;
_chemical_formula_sum "Si O2"
_cell_formula_units_Z 18
_cell_length_a 26.501671
_cell_length_b 5.543803
_cell_length_c 9.057236
_cell_angle_alpha 90.000000
_cell_angle_beta 151.277656
_cell_angle_gamma 90.000000
_cell_volume 639.483503
_symmetry_space_group_name_H-M "P 2/C"
_symmetry_group_IT_number 13
_symmetry_cell_setting 'monoclinic'
loop_
_space_group_symop_operation_xyz
x,y,z
-x,y,1/2-z
-x,-y,-z
x,-y,1/2+z
loop_
_atom_site_type_symbol
_atom_site_label
_atom_site_fract_x
_atom_site_fract_y
_atom_site_fract_z
Si Si1 0.680924 0.024397 0.880407
Si Si2 0.102175 0.495551 0.160720
Si Si3 0.500000 0.741292 0.750000
Si Si4 0.101263 0.998046 0.149717
Si Si5 0.697002 0.523905 0.105304
O O1 0.566910 0.075825 0.522583
O O2 0.696576 0.272021 0.014919
O O3 0.692044 0.231314 0.492348
O O4 0.773441 0.008329 0.991507
O O5 0.096976 0.250953 0.055579
O O6 0.202622 0.512723 0.027145
O O7 0.099035 0.742951 0.063732
O O8 0.000000 0.500000 0.000000
O O9 0.588526 0.563094 0.913376
O O10 0.000000 0.000000 0.000000
#
# Coordination Sequence:
#
# PCOD9233927 Si02
#       5
#     4   4   2   4   4
#     4  12  27  47  76 112 143 199 257 300 377 455
#     4  10  21  44  73 100 147 193 233 305 384 427
#     4  12  28  50  80 100 168 194 252 336 364 432
#     4  10  21  44  73 100 147 193 233 305 384 427
#     4  12  27  47  76 112 143 199 257 300 377 455
#
# _framework density 28.147717
#
# number of rings (size 3 to 8) (size 9 to 14) (size 15 to 20)
#    0.000    0.889    2.222    4.000    0.000    1.778 
#    0.000   26.667    0.000    0.000    0.000    0.000 
#    0.000    0.000    0.000    0.000    0.000    0.000 
#
# Total GULP energy -100412.716482 kJ/mol
# GULP energy per Si atom -5578.484249 kJ/mol
# Density = 2.808365 g / cm^3
# Si number density = 28.147717 Si / 1000 Ang^3
#
#
#
# Elastic Constant Matrix: (Units=GPa)
#
#
# Indices 1 2 3 4 5 6 
#
# 1 98.7639 37.3848 97.4283 0.0000 37.3067 0.0000
# 2 37.3848 336.5475 42.5150 0.0000 -26.8433 0.0000
# 3 97.4283 42.5150 315.0743 0.0000 8.5815 0.0000
# 4 0.0000 0.0000 0.0000 23.1984 0.0000 11.6019
# 5 37.3067 -26.8433 8.5815 0.0000 84.8304 0.0000
# 6 0.0000 0.0000 0.0000 11.6019 0.0000 6.8799
#
#
#
# Elastic Compliance Matrix: (Units=1/GPa)
#
#
# Indices 1 2 3 4 5 6 
#
# 1 0.019811 -0.002200 -0.005588 0.000000 -0.008843 0.000000
# 2 -0.002200 0.003354 0.000173 0.000000 0.002011 0.000000
# 3 -0.005588 0.000173 0.004823 0.000000 0.002024 0.000000
# 4 0.000000 0.000000 0.000000 0.275205 0.000000 -0.464090
# 5 -0.008843 0.002011 0.002024 0.000000 0.016109 0.000000
# 6 0.000000 0.000000 0.000000 -0.464090 0.000000 0.927965
#
#
# Mechanical properties :
#
#
# Convention : Reuss Voigt Hill
#
# Bulk Modulus (GPa) = 78.38275 122.78245 100.58260
# Shear Modulus (GPa) = 3.94710 61.18557 32.56634
#
# Velocity S-wave (km/s) = 1.18546 4.66739 3.40513
# Velocity P-wave (km/s) = 5.45721 8.53003 7.16040
#
# Compressibility (1/GPa) = 0.01275791
#
# Stress axis : x y z
#
# Youngs Moduli (GPa) = 50.47651 298.12144 207.32137
#
# Poissons Ratio (x) = 0.65590 1.15858
# Poissons Ratio (y) = 0.11105 -0.03585
# Poissons Ratio (z) = 0.28208 -0.05155
#
# Static dielectric constant tensor:
#      x y z
#    x 2.226510 0.000000 0.042040 
#    y 0.000000 2.194040 0.000000 
#    z 0.042040 0.000000 2.181490 
# 
# From -- ./inp_files/42068.got.cif
#   From: 2010.05.17/outbox.cif.g08.bks.cpg/sg13_22_cif.got.tgz:42068.got - 2010.06.03 16:44:36.
