data_PCOD9233311
_publ_section_title
;
Structure prediction by ZEFSAII (Michael W. Deem and Ramdas Pophale) SiO2 
 PCOD9233311
Probable space group: P 2/C
;
_chemical_formula_sum "Si O2"
_cell_formula_units_Z 28
_cell_length_a 9.161052
_cell_length_b 11.834863
_cell_length_c 14.669146
_cell_angle_alpha 90.000000
_cell_angle_beta 66.087008
_cell_angle_gamma 90.000000
_cell_volume 1453.906940
_symmetry_space_group_name_H-M "P 2/C"
_symmetry_group_IT_number 13
_symmetry_cell_setting 'monoclinic'
loop_
_space_group_symop_operation_xyz
x,y,z
-x,y,1/2-z
-x,-y,-z
x,-y,1/2+z
loop_
_atom_site_type_symbol
_atom_site_label
_atom_site_fract_x
_atom_site_fract_y
_atom_site_fract_z
Si Si1 0.327151 0.541303 0.838279
Si Si2 0.881713 0.148375 0.491974
Si Si3 0.992888 0.363589 0.356829
Si Si4 0.664478 0.729031 0.165346
Si Si5 0.823613 0.716840 0.308211
Si Si6 0.314185 0.468158 0.541741
Si Si7 0.067180 0.930876 0.128667
O O1 0.500000 0.573235 0.750000
O O2 0.333260 0.405435 0.849869
O O3 0.161844 0.572224 0.829997
O O4 0.302195 0.589598 0.945903
O O5 0.979853 0.253649 0.424869
O O6 0.714688 0.203736 0.564139
O O7 0.960620 0.101115 0.565878
O O8 0.861279 0.049081 0.423906
O O9 0.833168 0.441490 0.413618
O O10 0.000000 0.327332 0.250000
O O11 0.500000 0.764739 0.250000
O O12 0.783165 0.755457 0.217802
O O13 0.710437 0.618997 0.370270
O O14 0.825910 0.820088 0.378276
O O15 0.000000 0.667549 0.250000
O O16 0.500000 0.500000 0.500000
O O17 0.000000 0.948229 0.250000
#
# Coordination Sequence:
#
# PCOD9233311 Si02
#       7
#     4   4   4   4   4   4   4
#     4  11  23  39  59  92 131 166 205 258 310 378
#     4  11  22  39  65  91 122 161 204 262 313 364
#     4  12  24  39  61  93 129 167 209 253 317 379
#     4  11  21  38  60  90 123 156 203 253 305 367
#     4  11  21  38  64  89 116 165 211 250 299 371
#     4  12  23  37  61  93 131 165 207 256 316 376
#     4  10  21  40  65  91 116 156 212 262 306 369
#
# _framework density 19.258455000000001
#
# number of rings (size 3 to 8) (size 9 to 14) (size 15 to 20)
#    0.000    0.857    4.286    6.429    0.000    0.000 
#    0.000    0.714    0.000    6.000    0.000    0.000 
#    0.000    0.000    0.000    0.000    0.000    0.000 
#
# Total GULP energy -155897.810131 kJ/mol
# GULP energy per Si atom -5567.778933 kJ/mol
# Density = 1.921462 g / cm^3
# Si number density = 19.258455 Si / 1000 Ang^3
#
#
#
# Elastic Constant Matrix: (Units=GPa)
#
#
# Indices 1 2 3 4 5 6 
#
# 1 82.6909 17.1640 31.8417 0.0000 -21.3224 0.0000
# 2 17.1640 84.5963 48.6755 0.0000 -25.4935 0.0000
# 3 31.8417 48.6755 131.3967 0.0000 -13.6260 0.0000
# 4 0.0000 0.0000 0.0000 41.5763 0.0000 7.6586
# 5 -21.3224 -25.4935 -13.6260 0.0000 39.2707 0.0000
# 6 0.0000 0.0000 0.0000 7.6586 0.0000 10.1097
#
#
#
# Elastic Compliance Matrix: (Units=1/GPa)
#
#
# Indices 1 2 3 4 5 6 
#
# 1 0.015139 0.001190 -0.003296 0.000000 0.007849 0.000000
# 2 0.001190 0.018104 -0.005922 0.000000 0.010344 0.000000
# 3 -0.003296 -0.005922 0.010393 0.000000 -0.002028 0.000000
# 4 0.000000 0.000000 0.000000 0.027953 0.000000 -0.021176
# 5 0.007849 0.010344 -0.002028 0.000000 0.035737 0.000000
# 6 0.000000 0.000000 0.000000 -0.021176 0.000000 0.114957
#
#
# Mechanical properties :
#
#
# Convention : Reuss Voigt Hill
#
# Bulk Modulus (GPa) = 36.25793 54.89402 45.57598
# Shear Modulus (GPa) = 20.19935 31.59153 25.89544
#
# Velocity S-wave (km/s) = 3.24212 4.05458 3.67089
# Velocity P-wave (km/s) = 5.73437 7.10529 6.45632
#
# Compressibility (1/GPa) = 0.02758018
#
# Stress axis : x y z
#
# Youngs Moduli (GPa) = 66.05394 55.23564 96.22081
#
# Poissons Ratio (x) = -0.06572 0.31710
# Poissons Ratio (y) = -0.07860 0.56985
# Poissons Ratio (z) = 0.21768 0.32712
#
# Static dielectric constant tensor:
#      x y z
#    x 1.712390 0.000000 0.028770 
#    y 0.000000 1.683820 0.000000 
#    z 0.028770 0.000000 1.698650 
# 
# From -- ./inp_files/46877.got.cif
#   From: 2010.05.17/outbox.cif.g08.bks.cpg/sg13_24_cif.got.tgz:46877.got - 2010.06.03 16:44:36.
