data_PCOD9233446
_publ_section_title
;
Structure prediction by ZEFSAII (Michael W. Deem and Ramdas Pophale) SiO2 
 PCOD9233446
Probable space group: P 2/C
;
_chemical_formula_sum "Si O2"
_cell_formula_units_Z 26
_cell_length_a 8.245447
_cell_length_b 15.521284
_cell_length_c 12.997633
_cell_angle_alpha 90.000000
_cell_angle_beta 132.726841
_cell_angle_gamma 90.000000
_cell_volume 1221.954865
_symmetry_space_group_name_H-M "P 2/C"
_symmetry_group_IT_number 13
_symmetry_cell_setting 'monoclinic'
loop_
_space_group_symop_operation_xyz
x,y,z
-x,y,1/2-z
-x,-y,-z
x,-y,1/2+z
loop_
_atom_site_type_symbol
_atom_site_label
_atom_site_fract_x
_atom_site_fract_y
_atom_site_fract_z
Si Si1 0.581610 0.695366 0.176278
Si Si2 0.110163 0.591224 0.685453
Si Si3 0.716057 0.879490 0.222094
Si Si4 0.025174 0.399240 0.593558
Si Si5 0.434409 0.661501 0.557825
Si Si6 0.207672 0.848696 0.482178
Si Si7 0.500000 0.032094 0.250000
O O1 0.500000 0.659027 0.250000
O O2 0.553476 0.797948 0.164543
O O3 0.842391 0.672671 0.287244
O O4 0.495101 0.659877 0.031729
O O5 0.134828 0.489604 0.671472
O O6 0.000000 0.602051 0.750000
O O7 0.969908 0.621571 0.525985
O O8 0.346202 0.638392 0.786014
O O9 0.753522 0.884108 0.116295
O O10 0.943169 0.854402 0.378227
O O11 0.622029 0.967811 0.224316
O O12 0.767474 0.403995 0.511615
O O13 0.321454 0.754045 0.533609
O O14 0.327099 0.908088 0.616337
#
# Coordination Sequence:
#
# PCOD9233446 Si02
#       7
#     4   4   4   4   4   4   2
#     4  11  21  38  65  92 123 167 213 261 312 372
#     4  11  25  42  62  96 130 159 209 272 305 361
#     4  10  21  41  61  93 126 163 210 255 314 383
#     4  11  24  41  67  90 125 171 210 254 319 371
#     4  11  23  42  65  90 128 170 216 253 315 383
#     4  10  23  39  66  91 127 170 205 256 316 381
#     4  12  22  38  66  96 122 162 208 270 308 372
#
# _framework density 21.277380000000001
#
# number of rings (size 3 to 8) (size 9 to 14) (size 15 to 20)
#    0.000    1.231    2.308    3.692    2.154    4.923 
#    0.000    0.000    3.385    0.000    0.000    0.000 
#    0.000    0.000    0.000    0.000    0.000    0.000 
#
# Total GULP energy -145232.599796 kJ/mol
# GULP energy per Si atom -5585.869223 kJ/mol
# Density = 2.122895 g / cm^3
# Si number density = 21.277380 Si / 1000 Ang^3
#
#
#
# Elastic Constant Matrix: (Units=GPa)
#
#
# Indices 1 2 3 4 5 6 
#
# 1 67.2429 -4.8028 0.5269 0.0000 -10.4362 0.0000
# 2 -4.8028 64.0418 27.4275 0.0000 0.6893 0.0000
# 3 0.5269 27.4275 101.3768 0.0000 -3.6106 0.0000
# 4 0.0000 0.0000 0.0000 26.6295 0.0000 2.7683
# 5 -10.4362 0.6893 -3.6106 0.0000 30.7546 0.0000
# 6 0.0000 0.0000 0.0000 2.7683 0.0000 12.2475
#
#
#
# Elastic Compliance Matrix: (Units=1/GPa)
#
#
# Indices 1 2 3 4 5 6 
#
# 1 0.015783 0.001223 -0.000224 0.000000 0.005302 0.000000
# 2 0.001223 0.017784 -0.004838 0.000000 -0.000552 0.000000
# 3 -0.000224 -0.004838 0.011222 0.000000 0.001350 0.000000
# 4 0.000000 0.000000 0.000000 0.038456 0.000000 -0.008692
# 5 0.005302 -0.000552 0.001350 0.000000 0.034486 0.000000
# 6 0.000000 0.000000 0.000000 -0.008692 0.000000 0.083614
#
#
# Mechanical properties :
#
#
# Convention : Reuss Voigt Hill
#
# Bulk Modulus (GPa) = 26.94546 30.99608 28.97077
# Shear Modulus (GPa) = 22.58415 27.89363 25.23889
#
# Velocity S-wave (km/s) = 3.26147 3.62464 3.44784
# Velocity P-wave (km/s) = 5.18405 5.66715 5.43097
#
# Compressibility (1/GPa) = 0.03711200
#
# Stress axis : x y z
#
# Youngs Moduli (GPa) = 63.35746 56.22966 89.10885
#
# Poissons Ratio (x) = -0.06874 0.01996
# Poissons Ratio (y) = -0.07746 0.43107
# Poissons Ratio (z) = 0.01419 0.27201
#
# Static dielectric constant tensor:
#      x y z
#    x 1.824160 0.000000 -0.011360 
#    y 0.000000 1.756750 0.000000 
#    z -0.011360 0.000000 1.743560 
# 
# From -- ./inp_files/47960.got.cif
#   From: 2010.05.17/outbox.cif.g08.bks.cpg/sg13_24_cif.got.tgz:47960.got - 2010.06.03 16:44:36.
