data_PCOD9233844
_publ_section_title
;
Structure prediction by ZEFSAII (Michael W. Deem and Ramdas Pophale) SiO2 
 PCOD9233844
Probable space group: P 2/C
;
_chemical_formula_sum "Si O2"
_cell_formula_units_Z 24
_cell_length_a 15.966451
_cell_length_b 5.140667
_cell_length_c 22.279578
_cell_angle_alpha 90.000000
_cell_angle_beta 139.060658
_cell_angle_gamma 90.000000
_cell_volume 1198.252269
_symmetry_space_group_name_H-M "P 2/C"
_symmetry_group_IT_number 13
_symmetry_cell_setting 'monoclinic'
loop_
_space_group_symop_operation_xyz
x,y,z
-x,y,1/2-z
-x,-y,-z
x,-y,1/2+z
loop_
_atom_site_type_symbol
_atom_site_label
_atom_site_fract_x
_atom_site_fract_y
_atom_site_fract_z
Si Si1 0.320499 0.350256 0.731645
Si Si2 0.754891 0.510351 0.937365
Si Si3 0.386705 0.192855 0.422391
Si Si4 0.561815 0.449846 0.933151
Si Si5 0.803510 0.863204 0.781411
Si Si6 0.932115 0.008646 0.028573
O O1 0.323064 0.470937 0.666730
O O2 0.460437 0.301452 0.835860
O O3 0.234148 0.568294 0.719911
O O4 0.254435 0.070258 0.702504
O O5 0.659365 0.575344 0.939742
O O6 0.861115 0.734028 0.994063
O O7 0.828787 0.236015 0.981763
O O8 0.355181 0.312658 0.470035
O O9 0.461607 0.383041 0.417624
O O10 0.267827 0.085680 0.320498
O O11 0.500000 0.000000 0.500000
O O12 0.953012 0.924915 0.863430
O O13 0.000000 0.000000 0.000000
#
# Coordination Sequence:
#
# PCOD9233844 Si02
#       6
#     4   4   4   4   4   4
#     4  11  20  38  63  96 126 159 199 267 310 385
#     4  12  24  39  65  95 133 161 206 262 317 378
#     4  10  21  43  68  85 122 169 208 265 304 381
#     4  10  24  39  63  98 124 161 213 261 327 358
#     4  11  22  38  66  90 120 168 219 239 313 374
#     4  12  23  41  62  92 129 173 204 251 310 386
#
# _framework density 20.029171999999999
#
# number of rings (size 3 to 8) (size 9 to 14) (size 15 to 20)
#    0.000    1.000    5.000    2.000    2.333    0.000 
#    0.000    4.167    0.000    0.000    0.000    0.000 
#    0.000    0.000    0.000    0.000    0.000    0.000 
#
# Total GULP energy -133731.665169 kJ/mol
# GULP energy per Si atom -5572.152715 kJ/mol
# Density = 1.998359 g / cm^3
# Si number density = 20.029172 Si / 1000 Ang^3
#
#
#
# Elastic Constant Matrix: (Units=GPa)
#
#
# Indices 1 2 3 4 5 6 
#
# 1 60.1790 -12.9862 30.2065 0.0000 -9.9449 0.0000
# 2 -12.9862 48.2867 -0.0324 0.0000 -4.8073 0.0000
# 3 30.2065 -0.0324 150.6533 0.0000 -16.7057 0.0000
# 4 0.0000 0.0000 0.0000 33.0969 0.0000 6.8353
# 5 -9.9449 -4.8073 -16.7057 0.0000 24.4461 0.0000
# 6 0.0000 0.0000 0.0000 6.8353 0.0000 4.8075
#
#
#
# Elastic Compliance Matrix: (Units=1/GPa)
#
#
# Indices 1 2 3 4 5 6 
#
# 1 0.020912 0.006364 -0.003364 0.000000 0.007460 0.000000
# 2 0.006364 0.023096 -0.000520 0.000000 0.006776 0.000000
# 3 -0.003364 -0.000520 0.007735 0.000000 0.003815 0.000000
# 4 0.000000 0.000000 0.000000 0.042774 0.000000 -0.060817
# 5 0.007460 0.006776 0.003815 0.000000 0.047881 0.000000
# 6 0.000000 0.000000 0.000000 -0.060817 0.000000 0.294478
#
#
# Mechanical properties :
#
#
# Convention : Reuss Voigt Hill
#
# Bulk Modulus (GPa) = 17.63563 32.61052 25.12308
# Shear Modulus (GPa) = 11.09100 28.59886 19.84493
#
# Velocity S-wave (km/s) = 2.35573 3.78280 3.15111
# Velocity P-wave (km/s) = 4.02782 5.94948 5.08034
#
# Compressibility (1/GPa) = 0.05670338
#
# Stress axis : x y z
#
# Youngs Moduli (GPa) = 47.81954 43.29844 129.27808
#
# Poissons Ratio (x) = -0.27557 0.43494
# Poissons Ratio (y) = -0.30435 0.06720
# Poissons Ratio (z) = 0.16088 0.02251
#
# Static dielectric constant tensor:
#      x y z
#    x 1.692360 0.000000 0.015430 
#    y 0.000000 1.912530 0.000000 
#    z 0.015430 0.000000 1.689240 
# 
# From -- ./inp_files/79114.got.cif
#   From: 2010.05.17/outbox.cif.g08.bks.cpg/sg13_40_cif.got.tgz:79114.got - 2010.06.03 16:44:36.
