data_PCOD9233291
_publ_section_title
;
Structure prediction by ZEFSAII (Michael W. Deem and Ramdas Pophale) SiO2 
 PCOD9233291
Probable space group: P 2/C
;
_chemical_formula_sum "Si O2"
_cell_formula_units_Z 28
_cell_length_a 10.375868
_cell_length_b 23.881872
_cell_length_c 5.214858
_cell_angle_alpha 90.000000
_cell_angle_beta 73.363814
_cell_angle_gamma 90.000000
_cell_volume 1238.126867
_symmetry_space_group_name_H-M "P 2/C"
_symmetry_group_IT_number 13
_symmetry_cell_setting 'monoclinic'
loop_
_space_group_symop_operation_xyz
x,y,z
-x,y,1/2-z
-x,-y,-z
x,-y,1/2+z
loop_
_atom_site_type_symbol
_atom_site_label
_atom_site_fract_x
_atom_site_fract_y
_atom_site_fract_z
Si Si1 0.651424 0.024266 0.392787
Si Si2 0.661900 0.532192 0.693510
Si Si3 0.138557 0.183552 0.824897
Si Si4 0.349005 0.623626 0.395610
Si Si5 0.367661 0.268659 0.168002
Si Si6 0.155802 0.309505 0.699676
Si Si7 0.281999 0.850170 0.731081
O O1 0.651165 0.089834 0.339223
O O2 0.500000 0.000000 0.500000
O O3 0.719013 0.008568 0.621307
O O4 0.500000 0.533056 0.750000
O O5 0.695691 0.410730 0.327180
O O6 0.705519 0.485531 0.881685
O O7 0.149859 0.250749 0.865615
O O8 0.243576 0.161296 0.549667
O O9 0.000000 0.174640 0.750000
O O10 0.162892 0.154488 0.085477
O O11 0.500000 0.601137 0.250000
O O12 0.370965 0.688968 0.436266
O O13 0.232372 0.634734 0.255608
O O14 0.500000 0.283128 0.250000
O O15 0.236183 0.286101 0.406404
O O16 0.371121 0.203413 0.103857
O O17 0.000000 0.323885 0.750000
#
# Coordination Sequence:
#
# PCOD9233291 Si02
#       7
#     4   4   4   4   4   4   4
#     4  10  22  40  58  86 119 164 203 248 308 390
#     4  10  22  39  63  95 131 179 226 274 331 391
#     4  10  21  40  64  92 124 167 216 260 315 389
#     4  12  22  38  64  97 138 167 220 282 334 388
#     4  11  23  37  62  99 134 169 210 279 341 381
#     4  10  23  41  60  93 137 181 218 259 333 414
#     4  11  22  39  64  91 129 163 207 262 324 392
#
# _framework density 22.614805
#
# number of rings (size 3 to 8) (size 9 to 14) (size 15 to 20)
#    0.000    1.429    2.857    3.000    4.000    0.571 
#    5.143    0.000    0.000    9.429    0.000    0.000 
#    0.000    0.000    0.000    0.000    0.000    0.000 
#
# Total GULP energy -156046.385186 kJ/mol
# GULP energy per Si atom -5573.085185 kJ/mol
# Density = 2.256333 g / cm^3
# Si number density = 22.614805 Si / 1000 Ang^3
#
#
#
# Elastic Constant Matrix: (Units=GPa)
#
#
# Indices 1 2 3 4 5 6 
#
# 1 94.0032 29.5149 29.3899 0.0000 1.9519 0.0000
# 2 29.5149 139.8062 22.7358 0.0000 0.5694 0.0000
# 3 29.3899 22.7358 94.7438 0.0000 20.5149 0.0000
# 4 0.0000 0.0000 0.0000 34.8546 0.0000 13.0194
# 5 1.9519 0.5694 20.5149 0.0000 26.0641 0.0000
# 6 0.0000 0.0000 0.0000 13.0194 0.0000 22.7112
#
#
#
# Elastic Compliance Matrix: (Units=1/GPa)
#
#
# Indices 1 2 3 4 5 6 
#
# 1 0.012423 -0.002008 -0.003833 0.000000 0.002130 0.000000
# 2 -0.002008 0.007817 -0.001505 0.000000 0.001164 0.000000
# 3 -0.003833 -0.001505 0.014508 0.000000 -0.011099 0.000000
# 4 0.000000 0.000000 0.000000 0.036508 0.000000 -0.020929
# 5 0.002130 0.001164 -0.011099 0.000000 0.046918 0.000000
# 6 0.000000 0.000000 0.000000 -0.020929 0.000000 0.056029
#
#
# Mechanical properties :
#
#
# Convention : Reuss Voigt Hill
#
# Bulk Modulus (GPa) = 49.86105 54.64825 52.25465
# Shear Modulus (GPa) = 25.56505 33.18682 29.37594
#
# Velocity S-wave (km/s) = 3.36587 3.83493 3.60803
# Velocity P-wave (km/s) = 6.09929 6.62013 6.36504
#
# Compressibility (1/GPa) = 0.02005574
#
# Stress axis : x y z
#
# Youngs Moduli (GPa) = 80.49908 127.93186 68.92597
#
# Poissons Ratio (x) = 0.25687 0.26419
# Poissons Ratio (y) = 0.16163 0.10373
# Poissons Ratio (z) = 0.30855 0.19254
#
# Static dielectric constant tensor:
#      x y z
#    x 1.738320 0.000000 -0.007450 
#    y 0.000000 1.866660 0.000000 
#    z -0.007450 0.000000 1.931100 
# 
# From -- ./inp_files/4104.got.cif
#   From: 2010.05.17/outbox.cif.g08.bks.cpg/sg13_3_cif.got.tgz:4104.got - 2010.06.03 16:44:36.
