data_PCOD9233228
_publ_section_title
;
Structure prediction by ZEFSAII (Michael W. Deem and Ramdas Pophale) SiO2 
 PCOD9233228
Probable space group: P 2/C
;
_chemical_formula_sum "Si O2"
_cell_formula_units_Z 24
_cell_length_a 5.151792
_cell_length_b 10.348632
_cell_length_c 22.314504
_cell_angle_alpha 90.000000
_cell_angle_beta 111.837472
_cell_angle_gamma 90.000000
_cell_volume 1104.307617
_symmetry_space_group_name_H-M "P 2/C"
_symmetry_group_IT_number 13
_symmetry_cell_setting 'monoclinic'
loop_
_space_group_symop_operation_xyz
x,y,z
-x,y,1/2-z
-x,-y,-z
x,-y,1/2+z
loop_
_atom_site_type_symbol
_atom_site_label
_atom_site_fract_x
_atom_site_fract_y
_atom_site_fract_z
Si Si1 0.625210 0.868513 0.033978
Si Si2 0.829263 0.651179 0.796223
Si Si3 0.184998 0.067888 0.205917
Si Si4 0.660844 0.390357 0.479177
Si Si5 0.258178 0.838413 0.117893
Si Si6 0.829923 0.448837 0.891102
O O1 0.533881 0.747582 0.985068
O O2 0.509423 0.855388 0.091905
O O3 0.960472 0.864655 0.059952
O O4 0.500000 0.000000 0.000000
O O5 0.500000 0.631714 0.750000
O O6 0.898095 0.793581 0.830750
O O7 0.938744 0.531661 0.845168
O O8 0.000000 0.653476 0.750000
O O9 0.500000 0.098887 0.250000
O O10 0.000000 0.044188 0.250000
O O11 0.225165 0.942459 0.167986
O O12 0.500000 0.500000 0.500000
O O13 0.658144 0.439022 0.411050
O O14 0.961209 0.400033 0.538447
O O15 0.287464 0.688740 0.140827
#
# Coordination Sequence:
#
# PCOD9233228 Si02
#       6
#     4   4   4   4   4   4
#     4  11  24  39  59  92 122 157 206 243 299 370
#     4  10  24  41  62  91 120 158 209 253 303 368
#     4  10  22  42  61  87 120 158 203 252 306 357
#     4  10  21  40  61  89 128 163 198 253 309 360
#     4  11  23  40  61  89 121 157 202 251 300 364
#     4  10  23  39  62  91 125 162 204 252 309 370
#
# _framework density 21.733076000000001
#
# number of rings (size 3 to 8) (size 9 to 14) (size 15 to 20)
#    0.000    1.667    1.667    1.500    4.667    2.667 
#    0.000    0.000    0.000    0.000    0.000    0.000 
#    0.000    0.000    0.000    0.000    0.000    0.000 
#
# Total GULP energy -133612.602090 kJ/mol
# GULP energy per Si atom -5567.191754 kJ/mol
# Density = 2.168361 g / cm^3
# Si number density = 21.733076 Si / 1000 Ang^3
#
#
#
# Elastic Constant Matrix: (Units=GPa)
#
#
# Indices 1 2 3 4 5 6 
#
# 1 59.8591 -21.7699 -7.8014 0.0000 -10.1482 0.0000
# 2 -21.7699 189.5353 51.2921 0.0000 -13.4990 0.0000
# 3 -7.8014 51.2921 32.9430 0.0000 -13.5941 0.0000
# 4 0.0000 0.0000 0.0000 48.1411 0.0000 -8.0156
# 5 -10.1482 -13.4990 -13.5941 0.0000 25.3360 0.0000
# 6 0.0000 0.0000 0.0000 -8.0156 0.0000 25.3077
#
#
#
# Elastic Compliance Matrix: (Units=1/GPa)
#
#
# Indices 1 2 3 4 5 6 
#
# 1 0.020505 0.000851 0.009128 0.000000 0.013564 0.000000
# 2 0.000851 0.009408 -0.015718 0.000000 -0.003080 0.000000
# 3 0.009128 -0.015718 0.070695 0.000000 0.033214 0.000000
# 4 0.000000 0.000000 0.000000 0.021929 0.000000 0.006945
# 5 0.013564 -0.003080 0.033214 0.000000 0.061083 0.000000
# 6 0.000000 0.000000 0.000000 0.006945 0.000000 0.041713
#
#
# Mechanical properties :
#
#
# Convention : Reuss Voigt Hill
#
# Bulk Modulus (GPa) = 11.21946 36.19767 23.70857
# Shear Modulus (GPa) = 18.76036 37.13139 27.94587
#
# Velocity S-wave (km/s) = 2.94124 4.13791 3.58979
# Velocity P-wave (km/s) = 4.08756 6.28661 5.30234
#
# Compressibility (1/GPa) = 0.08913088
#
# Stress axis : x y z
#
# Youngs Moduli (GPa) = 48.76942 106.29331 14.14527
#
# Poissons Ratio (x) = -0.09045 -0.12912
# Poissons Ratio (y) = -0.04150 0.22233
# Poissons Ratio (z) = -0.44518 1.67067
#
# Static dielectric constant tensor:
#      x y z
#    x 1.816250 0.000000 -0.013110 
#    y 0.000000 1.834540 0.000000 
#    z -0.013110 0.000000 1.506350 
# 
# From -- ./inp_files/83361.got.cif
#   From: 2010.05.17/outbox.cif.g08.bks.cpg/sg13_42_cif.got.tgz:83361.got - 2010.06.03 16:44:36.
