data_PCOD9233417
_publ_section_title
;
Structure prediction by ZEFSAII (Michael W. Deem and Ramdas Pophale) SiO2 
 PCOD9233417
Probable space group: P 2/C
;
_chemical_formula_sum "Si O2"
_cell_formula_units_Z 22
_cell_length_a 10.835414
_cell_length_b 6.616794
_cell_length_c 13.771740
_cell_angle_alpha 90.000000
_cell_angle_beta 100.974793
_cell_angle_gamma 90.000000
_cell_volume 969.316512
_symmetry_space_group_name_H-M "P 2/C"
_symmetry_group_IT_number 13
_symmetry_cell_setting 'monoclinic'
loop_
_space_group_symop_operation_xyz
x,y,z
-x,y,1/2-z
-x,-y,-z
x,-y,1/2+z
loop_
_atom_site_type_symbol
_atom_site_label
_atom_site_fract_x
_atom_site_fract_y
_atom_site_fract_z
Si Si1 0.205028 0.396200 0.336937
Si Si2 0.947290 0.727415 0.515340
Si Si3 0.265290 0.449962 0.638819
Si Si4 0.608733 0.940068 0.591440
Si Si5 0.794916 0.231489 0.522989
Si Si6 0.500000 0.801989 0.250000
O O1 0.097399 0.271167 0.379156
O O2 0.200534 0.447327 0.223005
O O3 0.339088 0.285081 0.378981
O O4 0.193047 0.611624 0.387119
O O5 0.825095 0.715782 0.426914
O O6 0.000000 0.500000 0.500000
O O7 0.925874 0.159065 0.496584
O O8 0.281709 0.636794 0.567200
O O9 0.394407 0.340566 0.685720
O O10 0.500000 0.000000 0.500000
O O11 0.725053 0.045234 0.556851
O O12 0.570358 0.053731 0.684086
#
# Coordination Sequence:
#
# PCOD9233417 Si02
#       6
#     4   4   4   4   4   2
#     4  10  21  41  65  96 126 168 211 262 325 375
#     4   8  19  40  68  93 125 164 213 256 323 387
#     4  10  21  40  71  90 130 170 212 266 324 379
#     4  12  27  42  64  94 137 167 221 262 312 390
#     4  10  23  44  68  95 127 176 207 267 327 378
#     4  12  26  42  64 100 124 174 222 258 320 388
#
# _framework density 22.696404999999999
#
# number of rings (size 3 to 8) (size 9 to 14) (size 15 to 20)
#    0.000    2.182    1.818    2.182    5.091    8.727 
#    0.000    0.000   12.000    0.000    0.000    0.000 
#    0.000    0.000    0.000    0.000    0.000    0.000 
#
# Total GULP energy -122690.489746 kJ/mol
# GULP energy per Si atom -5576.840443 kJ/mol
# Density = 2.264475 g / cm^3
# Si number density = 22.696405 Si / 1000 Ang^3
#
#
#
# Elastic Constant Matrix: (Units=GPa)
#
#
# Indices 1 2 3 4 5 6 
#
# 1 115.8407 37.3241 17.7378 0.0000 -3.9737 0.0000
# 2 37.3241 51.9904 8.3892 0.0000 -2.6279 0.0000
# 3 17.7378 8.3892 90.8586 0.0000 -25.4434 0.0000
# 4 0.0000 0.0000 0.0000 21.2094 0.0000 3.5676
# 5 -3.9737 -2.6279 -25.4434 0.0000 46.0575 0.0000
# 6 0.0000 0.0000 0.0000 3.5676 0.0000 36.7542
#
#
#
# Elastic Compliance Matrix: (Units=1/GPa)
#
#
# Indices 1 2 3 4 5 6 
#
# 1 0.011432 -0.007967 -0.001594 0.000000 -0.000349 0.000000
# 2 -0.007967 0.025079 -0.000653 0.000000 0.000383 0.000000
# 3 -0.001594 -0.000653 0.013402 0.000000 0.007229 0.000000
# 4 0.000000 0.000000 0.000000 0.047932 0.000000 -0.004653
# 5 -0.000349 0.000383 0.007229 0.000000 0.025697 0.000000
# 6 0.000000 0.000000 0.000000 -0.004653 0.000000 0.027659
#
#
# Mechanical properties :
#
#
# Convention : Reuss Voigt Hill
#
# Bulk Modulus (GPa) = 33.91644 42.84355 38.38000
# Shear Modulus (GPa) = 27.55480 33.82012 30.68746
#
# Velocity S-wave (km/s) = 3.48812 3.86438 3.68106
# Velocity P-wave (km/s) = 5.58557 6.23129 5.91725
#
# Compressibility (1/GPa) = 0.02948423
#
# Stress axis : x y z
#
# Youngs Moduli (GPa) = 87.47596 39.87429 74.61668
#
# Poissons Ratio (x) = 0.31769 0.11892
# Poissons Ratio (y) = 0.69695 0.04872
# Poissons Ratio (z) = 0.13942 0.02604
#
# Static dielectric constant tensor:
#      x y z
#    x 2.070590 0.000000 0.013030 
#    y 0.000000 1.976360 0.000000 
#    z 0.013030 0.000000 1.840010 
# 
# From -- ./inp_files/49029.got.cif
#   From: 2010.05.17/outbox.cif.g08.bks.cpg/sg13_25_cif.got.tgz:49029.got - 2010.06.03 16:44:36.
