data_PCOD9233855
_publ_section_title
;
Structure prediction by ZEFSAII (Michael W. Deem and Ramdas Pophale) SiO2 
 PCOD9233855
Probable space group: P 2/C
;
_chemical_formula_sum "Si O2"
_cell_formula_units_Z 24
_cell_length_a 18.076191
_cell_length_b 5.590585
_cell_length_c 18.405057
_cell_angle_alpha 90.000000
_cell_angle_beta 146.599944
_cell_angle_gamma 90.000000
_cell_volume 1023.868344
_symmetry_space_group_name_H-M "P 2/C"
_symmetry_group_IT_number 13
_symmetry_cell_setting 'monoclinic'
loop_
_space_group_symop_operation_xyz
x,y,z
-x,y,1/2-z
-x,-y,-z
x,-y,1/2+z
loop_
_atom_site_type_symbol
_atom_site_label
_atom_site_fract_x
_atom_site_fract_y
_atom_site_fract_z
Si Si1 0.372512 0.293077 0.913774
Si Si2 0.269692 0.369521 0.462006
Si Si3 0.000000 0.343220 0.750000
Si Si4 0.071518 0.748276 0.579506
Si Si5 0.619892 0.322646 0.200419
Si Si6 0.137111 0.009288 0.265119
Si Si7 0.500000 0.525647 0.750000
O O1 0.325716 0.491833 0.936159
O O2 0.389734 0.422756 0.850845
O O3 0.246073 0.120805 0.804870
O O4 0.507971 0.184180 0.060337
O O5 0.223926 0.105412 0.403318
O O6 0.382276 0.376938 0.615216
O O7 0.133564 0.504982 0.372203
O O8 0.027784 0.172396 0.704126
O O9 0.224290 0.744699 0.675518
O O10 0.079421 0.768261 0.673711
O O11 0.000000 0.500000 0.500000
O O12 0.000000 0.000000 0.500000
O O13 0.567527 0.329447 0.239438
#
# Coordination Sequence:
#
# PCOD9233855 Si02
#       7
#     4   4   2   4   4   4   2
#     4   9  20  43  73 100 136 193 254 305 373 459
#     4  10  21  43  69 103 143 192 251 302 387 449
#     4  10  24  40  74 100 144 194 244 312 368 470
#     4  12  28  46  74 111 149 196 254 312 376 450
#     4  10  21  45  72 105 145 190 247 313 379 455
#     4  11  23  44  71 103 139 199 248 311 378 456
#     4  10  24  42  72 104 150 188 238 330 378 446
#
# _framework density 23.440514
#
# number of rings (size 3 to 8) (size 9 to 14) (size 15 to 20)
#    0.000    1.667    1.667    1.500    4.667    2.000 
#    6.000    7.500    0.000    0.000    0.000    0.000 
#    0.000    0.000    0.000    0.000    0.000    0.000 
#
# Total GULP energy -134152.515444 kJ/mol
# GULP energy per Si atom -5589.688143 kJ/mol
# Density = 2.338716 g / cm^3
# Si number density = 23.440514 Si / 1000 Ang^3
#
#
#
# Elastic Constant Matrix: (Units=GPa)
#
#
# Indices 1 2 3 4 5 6 
#
# 1 146.2462 45.5675 63.4650 0.0000 22.6417 0.0000
# 2 45.5675 75.4981 49.5706 0.0000 5.8448 0.0000
# 3 63.4650 49.5706 141.0700 0.0000 15.2131 0.0000
# 4 0.0000 0.0000 0.0000 26.6221 0.0000 -6.6963
# 5 22.6417 5.8448 15.2131 0.0000 47.7150 0.0000
# 6 0.0000 0.0000 0.0000 -6.6963 0.0000 26.2977
#
#
#
# Elastic Compliance Matrix: (Units=1/GPa)
#
#
# Indices 1 2 3 4 5 6 
#
# 1 0.009700 -0.003858 -0.002654 0.000000 -0.003284 0.000000
# 2 -0.003858 0.018753 -0.004975 0.000000 0.001120 0.000000
# 3 -0.002654 -0.004975 0.010179 0.000000 -0.001377 0.000000
# 4 0.000000 0.000000 0.000000 0.040133 0.000000 0.010219
# 5 -0.003284 0.001120 -0.001377 0.000000 0.022818 0.000000
# 6 0.000000 0.000000 0.000000 0.010219 0.000000 0.040628
#
#
# Mechanical properties :
#
#
# Convention : Reuss Voigt Hill
#
# Bulk Modulus (GPa) = 63.86015 75.55783 69.70899
# Shear Modulus (GPa) = 29.34174 33.74106 31.54140
#
# Velocity S-wave (km/s) = 3.54185 3.79810 3.67221
# Velocity P-wave (km/s) = 6.63543 7.17899 6.91256
#
# Compressibility (1/GPa) = 0.01565922
#
# Stress axis : x y z
#
# Youngs Moduli (GPa) = 103.09305 53.32343 98.23760
#
# Poissons Ratio (x) = 0.20570 0.26074
# Poissons Ratio (y) = 0.39769 0.48874
# Poissons Ratio (z) = 0.27363 0.26529
#
# Static dielectric constant tensor:
#      x y z
#    x 1.896800 0.000000 -0.016290 
#    y 0.000000 1.945280 0.000000 
#    z -0.016290 0.000000 1.953950 
# 
# From -- ./inp_files/81317.got.cif
#   From: 2010.05.17/outbox.cif.g08.bks.cpg/sg13_41_cif.got.tgz:81317.got - 2010.06.03 16:44:36.
