data_PCOD9233202
_publ_section_title
;
Structure prediction by ZEFSAII (Michael W. Deem and Ramdas Pophale) SiO2 
 PCOD9233202
Probable space group: P 2/C
;
_chemical_formula_sum "Si O2"
_cell_formula_units_Z 22
_cell_length_a 13.717830
_cell_length_b 12.971509
_cell_length_c 17.201260
_cell_angle_alpha 90.000000
_cell_angle_beta 22.866506
_cell_angle_gamma 90.000000
_cell_volume 1189.385477
_symmetry_space_group_name_H-M "P 2/C"
_symmetry_group_IT_number 13
_symmetry_cell_setting 'monoclinic'
loop_
_space_group_symop_operation_xyz
x,y,z
-x,y,1/2-z
-x,-y,-z
x,-y,1/2+z
loop_
_atom_site_type_symbol
_atom_site_label
_atom_site_fract_x
_atom_site_fract_y
_atom_site_fract_z
Si Si1 0.295531 0.958814 0.541091
Si Si2 0.713230 0.652293 0.324987
Si Si3 0.172037 0.435840 0.196230
Si Si4 0.560450 0.842523 0.905499
Si Si5 0.971984 0.294398 0.477483
Si Si6 0.500000 0.177892 0.750000
O O1 0.349844 0.893301 0.579220
O O2 0.393276 0.893123 0.396995
O O3 0.000000 0.976570 0.750000
O O4 0.442203 0.066302 0.441967
O O5 0.805577 0.558426 0.310377
O O6 0.448448 0.612324 0.483730
O O7 0.643234 0.755006 0.423585
O O8 0.901333 0.673624 0.116356
O O9 0.000000 0.407157 0.250000
O O10 0.061936 0.387993 0.356540
O O11 0.800801 0.787486 0.691130
O O12 0.725708 0.245392 0.619007
#
# Coordination Sequence:
#
# PCOD9233202 Si02
#       6
#     4   4   4   4   4   2
#     4  11  23  40  58  89 119 154 201 248 295 354
#     4  10  21  40  59  87 121 158 195 243 299 353
#     4  10  22  37  60  88 120 156 199 241 295 357
#     4  10  23  39  60  83 122 159 192 245 302 350
#     4  11  21  36  62  89 119 152 200 250 296 349
#     4  12  22  34  64  92 114 154 210 250 294 348
#
# _framework density 18.496948
#
# number of rings (size 3 to 8) (size 9 to 14) (size 15 to 20)
#    0.000    1.455    3.636    1.636    2.545    2.909 
#    0.000    0.000    0.000    2.182    0.000    0.000 
#    0.000    0.000    0.000    0.000    0.000    0.000 
#
# Total GULP energy -122943.029324 kJ/mol
# GULP energy per Si atom -5588.319515 kJ/mol
# Density = 1.845485 g / cm^3
# Si number density = 18.496948 Si / 1000 Ang^3
#
#
#
# Elastic Constant Matrix: (Units=GPa)
#
#
# Indices 1 2 3 4 5 6 
#
# 1 11.5572 -10.2754 -1.2107 0.0000 -3.5458 0.0000
# 2 -10.2754 77.1682 10.6980 0.0000 -4.1992 0.0000
# 3 -1.2107 10.6980 88.5603 0.0000 5.0323 0.0000
# 4 0.0000 0.0000 0.0000 4.7833 0.0000 3.2458
# 5 -3.5458 -4.1992 5.0323 0.0000 23.0098 0.0000
# 6 0.0000 0.0000 0.0000 3.2458 0.0000 13.3977
#
#
#
# Elastic Compliance Matrix: (Units=1/GPa)
#
#
# Indices 1 2 3 4 5 6 
#
# 1 0.106025 0.015388 -0.001516 0.000000 0.019478 0.000000
# 2 0.015388 0.015592 -0.001994 0.000000 0.005653 0.000000
# 3 -0.001516 -0.001994 0.011691 0.000000 -0.003155 0.000000
# 4 0.000000 0.000000 0.000000 0.250191 0.000000 -0.060613
# 5 0.019478 0.005653 -0.003155 0.000000 0.048183 0.000000
# 6 0.000000 0.000000 0.000000 -0.060613 0.000000 0.089324
#
#
# Mechanical properties :
#
#
# Convention : Reuss Voigt Hill
#
# Bulk Modulus (GPa) = 6.36690 19.52327 12.94509
# Shear Modulus (GPa) = 9.09745 20.10975 14.60360
#
# Velocity S-wave (km/s) = 2.22014 3.30084 2.81288
# Velocity P-wave (km/s) = 3.16570 5.01050 4.19087
#
# Compressibility (1/GPa) = 0.15706226
#
# Stress axis : x y z
#
# Youngs Moduli (GPa) = 9.43178 64.13633 85.53464
#
# Poissons Ratio (x) = -0.98693 0.12969
# Poissons Ratio (y) = -0.14514 0.17058
# Poissons Ratio (z) = 0.01430 0.12791
#
# Static dielectric constant tensor:
#      x y z
#    x 1.604770 0.000000 -0.003770 
#    y 0.000000 1.632480 0.000000 
#    z -0.003770 0.000000 1.616180 
# 
# From -- ./inp_files/26282.got.cif
#   From: 2010.05.17/outbox.cif.g08.bks.cpg/sg13_14_cif.got.tgz:26282.got - 2010.06.03 16:44:36.
