data_PCOD9233284
_publ_section_title
;
Structure prediction by ZEFSAII (Michael W. Deem and Ramdas Pophale) SiO2 
 PCOD9233284
Probable space group: P 2/C
;
_chemical_formula_sum "Si O2"
_cell_formula_units_Z 26
_cell_length_a 9.434432
_cell_length_b 7.942412
_cell_length_c 16.440957
_cell_angle_alpha 90.000000
_cell_angle_beta 76.784090
_cell_angle_gamma 90.000000
_cell_volume 1199.328392
_symmetry_space_group_name_H-M "P 2/C"
_symmetry_group_IT_number 13
_symmetry_cell_setting 'monoclinic'
loop_
_space_group_symop_operation_xyz
x,y,z
-x,y,1/2-z
-x,-y,-z
x,-y,1/2+z
loop_
_atom_site_type_symbol
_atom_site_label
_atom_site_fract_x
_atom_site_fract_y
_atom_site_fract_z
Si Si1 0.336577 0.663817 0.874433
Si Si2 0.528217 0.296974 0.489168
Si Si3 0.796265 0.861514 0.038538
Si Si4 0.325617 0.980175 0.781122
Si Si5 0.500000 0.395104 0.750000
Si Si6 0.113654 0.762715 0.031555
Si Si7 0.298086 0.202416 0.649403
O O1 0.401500 0.500747 0.825112
O O2 0.286913 0.791633 0.811713
O O3 0.472760 0.745474 0.906224
O O4 0.208947 0.650532 0.957263
O O5 0.500000 0.500000 0.500000
O O6 0.686854 0.240537 0.495314
O O7 0.420477 0.195608 0.563344
O O8 0.724161 0.907100 0.135220
O O9 0.943856 0.760119 0.036097
O O10 0.837136 0.042579 0.993152
O O11 0.500000 0.990685 0.750000
O O12 0.742121 0.036190 0.795462
O O13 0.381301 0.305138 0.708635
O O14 0.161626 0.724953 0.117672
#
# Coordination Sequence:
#
# PCOD9233284 Si02
#       7
#     4   4   4   4   2   4   4
#     4  10  23  36  62  93 121 156 206 252 310 350
#     4  11  21  37  63  91 120 165 203 254 299 376
#     4  10  21  40  64  88 123 159 208 256 309 361
#     4  11  20  35  62  94 115 152 205 265 294 348
#     4  12  20  34  62  90 128 154 194 262 300 362
#     4   9  23  41  61  89 121 166 205 253 304 378
#     4  11  22  37  62  90 122 157 210 248 310 359
#
# _framework density 21.678799000000001
#
# number of rings (size 3 to 8) (size 9 to 14) (size 15 to 20)
#    0.000    1.538    4.615    0.000    2.154    2.462 
#    0.000    3.077    3.385    0.923    0.000    0.000 
#    0.000    0.000    0.000    0.000    0.000    0.000 
#
# Total GULP energy -145188.248389 kJ/mol
# GULP energy per Si atom -5584.163400 kJ/mol
# Density = 2.162946 g / cm^3
# Si number density = 21.678799 Si / 1000 Ang^3
#
#
#
# Elastic Constant Matrix: (Units=GPa)
#
#
# Indices 1 2 3 4 5 6 
#
# 1 119.0031 12.5508 20.1798 0.0000 18.1616 0.0000
# 2 12.5508 51.5584 18.9286 0.0000 6.6376 0.0000
# 3 20.1798 18.9286 94.1692 0.0000 19.2922 0.0000
# 4 0.0000 0.0000 0.0000 18.1631 0.0000 1.9409
# 5 18.1616 6.6376 19.2922 0.0000 27.3941 0.0000
# 6 0.0000 0.0000 0.0000 1.9409 0.0000 20.0394
#
#
#
# Elastic Compliance Matrix: (Units=1/GPa)
#
#
# Indices 1 2 3 4 5 6 
#
# 1 0.009497 -0.001370 -0.000628 0.000000 -0.005522 0.000000
# 2 -0.001370 0.021282 -0.003639 0.000000 -0.001686 0.000000
# 3 -0.000628 -0.003639 0.013111 0.000000 -0.007935 0.000000
# 4 0.000000 0.000000 0.000000 0.055633 0.000000 -0.005388
# 5 -0.005522 -0.001686 -0.007935 0.000000 0.046161 0.000000
# 6 0.000000 0.000000 0.000000 -0.005388 0.000000 0.050424
#
#
# Mechanical properties :
#
#
# Convention : Reuss Voigt Hill
#
# Bulk Modulus (GPa) = 30.66111 40.89434 35.77773
# Shear Modulus (GPa) = 22.90909 27.32409 25.11659
#
# Velocity S-wave (km/s) = 3.25430 3.55407 3.40748
# Velocity P-wave (km/s) = 5.31927 5.97885 5.65868
#
# Compressibility (1/GPa) = 0.03261460
#
# Stress axis : x y z
#
# Youngs Moduli (GPa) = 105.29739 46.98811 76.27242
#
# Poissons Ratio (x) = 0.06438 0.04794
# Poissons Ratio (y) = 0.14428 0.27754
# Poissons Ratio (z) = 0.06618 0.17098
#
# Static dielectric constant tensor:
#      x y z
#    x 1.783320 0.000000 0.004350 
#    y 0.000000 1.897020 0.000000 
#    z 0.004350 0.000000 1.798620 
# 
# From -- ./inp_files/63805.got.cif
#   From: 2010.05.17/outbox.cif.g08.bks.cpg/sg13_32_cif.got.tgz:63805.got - 2010.06.03 16:44:36.
