data_PCOD9233625
_publ_section_title
;
Structure prediction by ZEFSAII (Michael W. Deem and Ramdas Pophale) SiO2 
 PCOD9233625
Probable space group: P 2/C
;
_chemical_formula_sum "Si O2"
_cell_formula_units_Z 16
_cell_length_a 12.563739
_cell_length_b 5.547772
_cell_length_c 20.553257
_cell_angle_alpha 90.000000
_cell_angle_beta 156.334859
_cell_angle_gamma 90.000000
_cell_volume 575.023204
_symmetry_space_group_name_H-M "P 2/C"
_symmetry_group_IT_number 13
_symmetry_cell_setting 'monoclinic'
loop_
_space_group_symop_operation_xyz
x,y,z
-x,y,1/2-z
-x,-y,-z
x,-y,1/2+z
loop_
_atom_site_type_symbol
_atom_site_label
_atom_site_fract_x
_atom_site_fract_y
_atom_site_fract_z
Si Si1 0.486789 0.716283 0.938513
Si Si2 0.789908 0.567442 0.324784
Si Si3 0.266238 0.073669 0.608851
Si Si4 0.998007 0.066135 0.662058
O O1 0.389865 0.618891 0.814212
O O2 0.500000 0.500000 0.000000
O O3 0.775316 0.829628 0.085732
O O4 0.741193 0.087321 0.172575
O O5 0.610614 0.755479 0.263918
O O6 0.000000 0.500000 0.500000
O O7 0.924171 0.708760 0.340075
O O8 0.500000 0.872582 0.750000
O O9 0.150219 0.108519 0.472392
O O10 0.000000 0.000000 0.500000
#
# Coordination Sequence:
#
# PCOD9233625 Si02
#       4
#     4   4   4   4
#     4  12  30  57  88 127 183 248 303 380 465 553
#     4  11  25  45  83 134 171 231 295 364 454 548
#     4  10  21  41  74 119 165 212 278 362 431 510
#     4  11  26  52  88 127 178 231 313 381 450 542
#
# _framework density 27.824964000000001
#
# number of rings (size 3 to 8) (size 9 to 14) (size 15 to 20)
#    0.000    1.000    2.500    3.000    7.000    4.000 
#    0.000    8.750    0.000    0.000    0.000    0.000 
#    0.000    0.000    0.000    0.000    0.000    0.000 
#
# Total GULP energy -89223.100388 kJ/mol
# GULP energy per Si atom -5576.443774 kJ/mol
# Density = 2.776163 g / cm^3
# Si number density = 27.824964 Si / 1000 Ang^3
#
#
#
# Elastic Constant Matrix: (Units=GPa)
#
#
# Indices 1 2 3 4 5 6 
#
# 1 203.2575 83.4838 90.0223 0.0000 -8.3723 0.0000
# 2 83.4838 114.2782 79.2152 0.0000 -13.0734 0.0000
# 3 90.0223 79.2152 270.4311 0.0000 22.7712 0.0000
# 4 0.0000 0.0000 0.0000 55.8680 0.0000 -23.7048
# 5 -8.3723 -13.0734 22.7712 0.0000 49.1549 0.0000
# 6 0.0000 0.0000 0.0000 -23.7048 0.0000 61.1776
#
#
#
# Elastic Compliance Matrix: (Units=1/GPa)
#
#
# Indices 1 2 3 4 5 6 
#
# 1 0.007290 -0.004440 -0.001177 0.000000 0.000606 0.000000
# 2 -0.004440 0.014779 -0.003245 0.000000 0.004677 0.000000
# 3 -0.001177 -0.003245 0.005338 0.000000 -0.003536 0.000000
# 4 0.000000 0.000000 0.000000 0.021421 0.000000 0.008300
# 5 0.000606 0.004677 -0.003536 0.000000 0.023329 0.000000
# 6 0.000000 0.000000 0.000000 0.008300 0.000000 0.019562
#
#
# Mechanical properties :
#
#
# Convention : Reuss Voigt Hill
#
# Bulk Modulus (GPa) = 103.28218 121.48995 112.38607
# Shear Modulus (GPa) = 44.37733 55.58979 49.98356
#
# Velocity S-wave (km/s) = 3.99792 4.47457 4.24294
# Velocity P-wave (km/s) = 7.64920 8.39361 8.03004
#
# Compressibility (1/GPa) = 0.00968221
#
# Stress axis : x y z
#
# Youngs Moduli (GPa) = 137.17626 67.66546 187.34152
#
# Poissons Ratio (x) = 0.30045 0.22051
# Poissons Ratio (y) = 0.60910 0.60787
# Poissons Ratio (z) = 0.16147 0.21956
#
# Static dielectric constant tensor:
#      x y z
#    x 1.323930 0.000000 -0.617960 
#    y 0.000000 2.369470 0.000000 
#    z -0.617960 0.000000 1.703000 
# 
# From -- ./inp_files/79695.got.cif
#   From: 2010.05.17/outbox.cif.g08.bks.cpg/sg13_40_cif.got.tgz:79695.got - 2010.06.03 16:44:36.
