data_PCOD9233145
_publ_section_title
;
Structure prediction by ZEFSAII (Michael W. Deem and Ramdas Pophale) SiO2 
 PCOD9233145
Probable space group: P 2/C
;
_chemical_formula_sum "Si O2"
_cell_formula_units_Z 26
_cell_length_a 8.702158
_cell_length_b 7.574036
_cell_length_c 23.867795
_cell_angle_alpha 90.000000
_cell_angle_beta 47.609679
_cell_angle_gamma 90.000000
_cell_volume 1161.870820
_symmetry_space_group_name_H-M "P 2/C"
_symmetry_group_IT_number 13
_symmetry_cell_setting 'monoclinic'
loop_
_space_group_symop_operation_xyz
x,y,z
-x,y,1/2-z
-x,-y,-z
x,-y,1/2+z
loop_
_atom_site_type_symbol
_atom_site_label
_atom_site_fract_x
_atom_site_fract_y
_atom_site_fract_z
Si Si1 0.557556 0.736736 0.836320
Si Si2 0.125570 0.313251 0.905696
Si Si3 0.947708 0.940997 0.707931
Si Si4 0.500000 0.458591 0.750000
Si Si5 0.394596 0.824539 0.551777
Si Si6 0.164745 0.616021 0.521430
Si Si7 0.828314 0.069745 0.117311
O O1 0.798791 0.792015 0.770971
O O2 0.535271 0.580826 0.796240
O O3 0.515196 0.733339 0.913905
O O4 0.392604 0.883118 0.855122
O O5 0.300897 0.344883 0.816249
O O6 0.926661 0.428333 0.937820
O O7 0.076584 0.110014 0.930091
O O8 0.207164 0.389737 0.944952
O O9 0.813210 0.983731 0.686356
O O10 0.000000 0.059370 0.750000
O O11 0.166290 0.890102 0.627134
O O12 0.352675 0.686786 0.512294
O O13 0.500000 0.000000 0.500000
O O14 0.973206 0.757325 0.575513
#
# Coordination Sequence:
#
# PCOD9233145 Si02
#       7
#     4   4   4   2   4   4   4
#     4  11  20  39  70  94 131 180 218 276 351 399
#     4  11  24  38  68  94 132 170 229 271 333 410
#     4   9  19  35  59  93 126 162 215 265 326 396
#     4  12  22  40  58 102 128 168 220 274 334 406
#     4  10  21  39  66  98 128 178 226 270 337 409
#     4  10  22  46  63  94 133 172 220 283 336 398
#     4  11  20  39  69  94 125 174 223 274 338 402
#
# _framework density 22.377701999999999
#
# number of rings (size 3 to 8) (size 9 to 14) (size 15 to 20)
#    0.000    1.538    3.077    2.308    2.154    1.231 
#    0.000    2.308    3.385    0.000    0.000    0.000 
#    0.000    0.000    0.000    0.000    0.000    0.000 
#
# Total GULP energy -144851.716843 kJ/mol
# GULP energy per Si atom -5571.219879 kJ/mol
# Density = 2.232677 g / cm^3
# Si number density = 22.377702 Si / 1000 Ang^3
#
#
#
# Elastic Constant Matrix: (Units=GPa)
#
#
# Indices 1 2 3 4 5 6 
#
# 1 121.9117 25.2072 34.6351 0.0000 24.8971 0.0000
# 2 25.2072 103.5071 36.4815 0.0000 -15.5063 0.0000
# 3 34.6351 36.4815 101.8714 0.0000 10.0838 0.0000
# 4 0.0000 0.0000 0.0000 28.3585 0.0000 -7.2644
# 5 24.8971 -15.5063 10.0838 0.0000 43.7215 0.0000
# 6 0.0000 0.0000 0.0000 -7.2644 0.0000 11.7744
#
#
#
# Elastic Compliance Matrix: (Units=1/GPa)
#
#
# Indices 1 2 3 4 5 6 
#
# 1 0.010728 -0.002936 -0.001932 0.000000 -0.006705 0.000000
# 2 -0.002936 0.013015 -0.004385 0.000000 0.007299 0.000000
# 3 -0.001932 -0.004385 0.012371 0.000000 -0.003308 0.000000
# 4 0.000000 0.000000 0.000000 0.041882 0.000000 0.025840
# 5 -0.006705 0.007299 -0.003308 0.000000 0.030042 0.000000
# 6 0.000000 0.000000 0.000000 0.025840 0.000000 0.100872
#
#
# Mechanical properties :
#
#
# Convention : Reuss Voigt Hill
#
# Bulk Modulus (GPa) = 56.79472 57.77088 57.28280
# Shear Modulus (GPa) = 21.43287 32.16864 26.80075
#
# Velocity S-wave (km/s) = 3.09816 3.79559 3.46447
# Velocity P-wave (km/s) = 6.18330 6.71424 6.45423
#
# Compressibility (1/GPa) = 0.01760727
#
# Stress axis : x y z
#
# Youngs Moduli (GPa) = 93.21489 76.83286 80.83325
#
# Poissons Ratio (x) = 0.22558 0.15620
# Poissons Ratio (y) = 0.27367 0.35448
# Poissons Ratio (z) = 0.18012 0.33693
#
# Static dielectric constant tensor:
#      x y z
#    x 1.933220 0.000000 0.047700 
#    y 0.000000 1.866530 0.000000 
#    z 0.047700 0.000000 1.873790 
# 
# From -- ./inp_files/84729.got.cif
#   From: 2010.05.17/outbox.cif.g08.bks.cpg/sg13_43_cif.got.tgz:84729.got - 2010.06.03 16:44:36.
