data_PCOD9233307
_publ_section_title
;
Structure prediction by ZEFSAII (Michael W. Deem and Ramdas Pophale) SiO2 
 PCOD9233307
Probable space group: P 2/C
;
_chemical_formula_sum "Si O2"
_cell_formula_units_Z 30
_cell_length_a 15.809128
_cell_length_b 5.620874
_cell_length_c 13.433879
_cell_angle_alpha 90.000000
_cell_angle_beta 107.798644
_cell_angle_gamma 90.000000
_cell_volume 1136.612611
_symmetry_space_group_name_H-M "P 2/C"
_symmetry_group_IT_number 13
_symmetry_cell_setting 'monoclinic'
loop_
_space_group_symop_operation_xyz
x,y,z
-x,y,1/2-z
-x,-y,-z
x,-y,1/2+z
loop_
_atom_site_type_symbol
_atom_site_label
_atom_site_fract_x
_atom_site_fract_y
_atom_site_fract_z
Si Si1 0.587728 0.127664 0.717460
Si Si2 0.631445 0.145166 0.515327
Si Si3 0.173835 0.524521 0.583375
Si Si4 0.000000 0.508659 0.250000
Si Si5 0.319035 0.368588 0.273841
Si Si6 0.340197 0.358991 0.519325
Si Si7 0.842038 0.162914 0.605277
Si Si8 0.040208 0.802726 0.941211
O O1 0.500000 0.113658 0.750000
O O2 0.572804 0.126652 0.592497
O O3 0.630411 0.392252 0.745747
O O4 0.645686 0.885956 0.752673
O O5 0.609332 0.389136 0.449677
O O6 0.736504 0.160752 0.591499
O O7 0.625682 0.905508 0.450035
O O8 0.218755 0.592768 0.701883
O O9 0.250485 0.388136 0.548107
O O10 0.158905 0.752818 0.509830
O O11 0.089353 0.364393 0.537361
O O12 0.912999 0.671347 0.190122
O O13 0.018174 0.346048 0.158762
O O14 0.325831 0.358904 0.394945
O O15 0.887978 0.909539 0.611404
O O16 0.000000 0.000000 0.000000
#
# Coordination Sequence:
#
# PCOD9233307 Si02
#       8
#     4   4   4   2   4   4   4   4
#     4  10  21  40  65 100 137 170 218 278 341 410
#     4   9  18  36  64  88 120 172 212 261 324 390
#     4  10  22  40  64  95 131 168 231 283 329 408
#     4  10  24  44  66  96 134 184 226 282 360 410
#     4  10  22  38  66 101 128 180 222 272 340 408
#     4   9  18  37  60  90 125 163 217 266 321 385
#     4  10  21  43  62  90 132 175 225 282 334 413
#     4  11  24  46  63  97 134 180 227 298 349 407
#
# _framework density 26.394217000000001
#
# number of rings (size 3 to 8) (size 9 to 14) (size 15 to 20)
#    0.000    2.133    1.333    0.800    1.867    2.133 
#   26.400    0.000    0.000   30.400    0.000    0.000 
#    0.000    0.000    0.000    0.000    0.000    0.000 
#
# Total GULP energy -167710.372527 kJ/mol
# GULP energy per Si atom -5590.345751 kJ/mol
# Density = 2.633414 g / cm^3
# Si number density = 26.394217 Si / 1000 Ang^3
#
#
#
# Elastic Constant Matrix: (Units=GPa)
#
#
# Indices 1 2 3 4 5 6 
#
# 1 107.7097 29.3451 31.8957 0.0000 -6.1732 0.0000
# 2 29.3451 175.5000 54.0937 0.0000 -3.1334 0.0000
# 3 31.8957 54.0937 108.3392 0.0000 16.0405 0.0000
# 4 0.0000 0.0000 0.0000 29.9929 0.0000 -21.2824
# 5 -6.1732 -3.1334 16.0405 0.0000 36.5572 0.0000
# 6 0.0000 0.0000 0.0000 -21.2824 0.0000 32.7460
#
#
#
# Elastic Compliance Matrix: (Units=1/GPa)
#
#
# Indices 1 2 3 4 5 6 
#
# 1 0.010619 -0.000723 -0.003231 0.000000 0.003149 0.000000
# 2 -0.000723 0.006953 -0.003560 0.000000 0.002036 0.000000
# 3 -0.003231 -0.003560 0.012925 0.000000 -0.006522 0.000000
# 4 0.000000 0.000000 0.000000 0.061877 0.000000 0.040216
# 5 0.003149 0.002036 -0.006522 0.000000 0.030922 0.000000
# 6 0.000000 0.000000 0.000000 0.040216 0.000000 0.056675
#
#
# Mechanical properties :
#
#
# Convention : Reuss Voigt Hill
#
# Bulk Modulus (GPa) = 64.65426 69.13532 66.89479
# Shear Modulus (GPa) = 24.98062 38.27351 31.62707
#
# Velocity S-wave (km/s) = 3.07977 3.81211 3.46534
# Velocity P-wave (km/s) = 6.09881 6.75474 6.43513
#
# Compressibility (1/GPa) = 0.01546689
#
# Stress axis : x y z
#
# Youngs Moduli (GPa) = 94.17421 143.83234 77.37192
#
# Poissons Ratio (x) = 0.10404 0.25001
# Poissons Ratio (y) = 0.06812 0.27543
# Poissons Ratio (z) = 0.30430 0.51202
#
# Static dielectric constant tensor:
#      x y z
#    x 2.228660 0.000000 0.042910 
#    y 0.000000 2.198600 0.000000 
#    z 0.042910 0.000000 2.085090 
# 
# From -- ./inp_files/54682.got.cif
#   From: 2010.05.17/outbox.cif.g08.bks.cpg/sg13_28_cif.got.tgz:54682.got - 2010.06.03 16:44:36.
