data_PCOD9233963
_publ_section_title
;
Structure prediction by ZEFSAII (Michael W. Deem and Ramdas Pophale) SiO2 
 PCOD9233963
Probable space group: P 2/C
;
_chemical_formula_sum "Si O2"
_cell_formula_units_Z 20
_cell_length_a 5.923325
_cell_length_b 6.921914
_cell_length_c 22.866237
_cell_angle_alpha 90.000000
_cell_angle_beta 92.298960
_cell_angle_gamma 90.000000
_cell_volume 936.778183
_symmetry_space_group_name_H-M "P 2/C"
_symmetry_group_IT_number 13
_symmetry_cell_setting 'monoclinic'
loop_
_space_group_symop_operation_xyz
x,y,z
-x,y,1/2-z
-x,-y,-z
x,-y,1/2+z
loop_
_atom_site_type_symbol
_atom_site_label
_atom_site_fract_x
_atom_site_fract_y
_atom_site_fract_z
Si Si1 0.000000 0.375437 0.250000
Si Si2 0.499745 0.873954 0.356970
Si Si3 0.831507 0.467993 0.867677
Si Si4 0.236793 0.849162 0.560926
Si Si5 0.500000 0.163359 0.250000
Si Si6 0.880157 0.172482 0.567108
O O1 0.978875 0.487448 0.311529
O O2 0.747464 0.270635 0.246159
O O3 0.632056 0.676664 0.346783
O O4 0.248369 0.828786 0.372938
O O5 0.592475 0.988829 0.414669
O O6 0.524125 0.022573 0.305280
O O7 0.753243 0.668143 0.895755
O O8 0.950723 0.349844 0.921329
O O9 0.259090 0.792754 0.493528
O O10 0.998564 0.963381 0.563294
#
# Coordination Sequence:
#
# PCOD9233963 Si02
#       6
#     2   4   4   4   2   4
#     4  12  28  48  74 100 144 192 236 296 356 422
#     4  11  25  41  68 100 135 185 234 291 350 417
#     4  11  25  41  68 102 137 182 238 289 351 416
#     4  10  21  46  64 102 138 182 230 284 358 416
#     4  12  28  48  74  98 146 190 238 294 356 422
#     4  10  23  40  72  97 141 181 228 293 346 427
#
# _framework density 21.349771
#
# number of rings (size 3 to 8) (size 9 to 14) (size 15 to 20)
#    0.000    1.200    2.000    2.400    8.400    2.400 
#    0.000    0.000    0.000    0.000    0.000    0.000 
#    0.000    0.000    0.000    0.000    0.000    0.000 
#
# Total GULP energy -111449.101984 kJ/mol
# GULP energy per Si atom -5572.455099 kJ/mol
# Density = 2.130118 g / cm^3
# Si number density = 21.349771 Si / 1000 Ang^3
#
#
#
# Elastic Constant Matrix: (Units=GPa)
#
#
# Indices 1 2 3 4 5 6 
#
# 1 64.6833 39.5173 22.0368 0.0000 -12.7828 0.0000
# 2 39.5173 126.1547 47.2075 0.0000 -10.0131 0.0000
# 3 22.0368 47.2075 106.5705 0.0000 -7.9847 0.0000
# 4 0.0000 0.0000 0.0000 27.4000 0.0000 0.2572
# 5 -12.7828 -10.0131 -7.9847 0.0000 33.8755 0.0000
# 6 0.0000 0.0000 0.0000 0.2572 0.0000 13.0480
#
#
#
# Elastic Compliance Matrix: (Units=1/GPa)
#
#
# Indices 1 2 3 4 5 6 
#
# 1 0.020374 -0.005406 -0.001387 0.000000 0.005763 0.000000
# 2 -0.005406 0.011051 -0.003752 0.000000 0.000342 0.000000
# 3 -0.001387 -0.003752 0.011411 0.000000 0.001058 0.000000
# 4 0.000000 0.000000 0.000000 0.036503 0.000000 -0.000720
# 5 0.005763 0.000342 0.001058 0.000000 0.032045 0.000000
# 6 0.000000 0.000000 0.000000 -0.000720 0.000000 0.076654
#
#
# Mechanical properties :
#
#
# Convention : Reuss Voigt Hill
#
# Bulk Modulus (GPa) = 45.98098 57.21463 51.59780
# Shear Modulus (GPa) = 23.10785 27.44116 25.27451
#
# Velocity S-wave (km/s) = 3.29347 3.58902 3.44442
# Velocity P-wave (km/s) = 6.00386 6.63563 6.32764
#
# Compressibility (1/GPa) = 0.02174813
#
# Stress axis : x y z
#
# Youngs Moduli (GPa) = 49.08260 90.48749 87.63168
#
# Poissons Ratio (x) = 0.48915 0.12150
# Poissons Ratio (y) = 0.26533 0.32879
# Poissons Ratio (z) = 0.06805 0.33950
#
# Static dielectric constant tensor:
#      x y z
#    x 1.875200 0.000000 0.023380 
#    y 0.000000 1.744650 0.000000 
#    z 0.023380 0.000000 1.770090 
# 
# From -- ./inp_files/89909.got.cif
#   From: 2010.05.17/outbox.cif.g08.bks.cpg/sg13_45_cif.got.tgz:89909.got - 2010.06.03 16:44:36.
