data_PCOD9233391
_publ_section_title
;
Structure prediction by ZEFSAII (Michael W. Deem and Ramdas Pophale) SiO2 
 PCOD9233391
Probable space group: P 2/C
;
_chemical_formula_sum "Si O2"
_cell_formula_units_Z 28
_cell_length_a 11.756270
_cell_length_b 9.086242
_cell_length_c 13.562649
_cell_angle_alpha 90.000000
_cell_angle_beta 122.710884
_cell_angle_gamma 90.000000
_cell_volume 1219.003868
_symmetry_space_group_name_H-M "P 2/C"
_symmetry_group_IT_number 13
_symmetry_cell_setting 'monoclinic'
loop_
_space_group_symop_operation_xyz
x,y,z
-x,y,1/2-z
-x,-y,-z
x,-y,1/2+z
loop_
_atom_site_type_symbol
_atom_site_label
_atom_site_fract_x
_atom_site_fract_y
_atom_site_fract_z
Si Si1 0.593265 0.223912 0.538932
Si Si2 0.146389 0.772333 0.867718
Si Si3 0.614047 0.713163 0.729939
Si Si4 0.712264 0.996602 0.718560
Si Si5 0.927445 0.154478 0.945767
Si Si6 0.893165 0.749697 0.133328
Si Si7 0.741751 0.503355 0.165658
O O1 0.471517 0.242850 0.407796
O O2 0.589606 0.091184 0.614987
O O3 0.738351 0.196001 0.551261
O O4 0.617528 0.383773 0.599542
O O5 0.242374 0.630416 0.902748
O O6 0.000000 0.740980 0.750000
O O7 0.211422 0.903447 0.832065
O O8 0.123424 0.797921 0.971695
O O9 0.500000 0.660128 0.750000
O O10 0.724001 0.588145 0.757971
O O11 0.678016 0.871421 0.783037
O O12 0.804813 0.118420 0.814496
O O13 0.034351 0.258463 0.938223
O O14 0.000000 0.000000 0.000000
O O15 0.863762 0.609500 0.190854
O O16 0.000000 0.842212 0.250000
#
# Coordination Sequence:
#
# PCOD9233391 Si02
#       7
#     4   4   4   4   4   4   4
#     4  10  22  44  68  87 133 177 214 274 336 387
#     4  11  23  38  63  97 141 170 220 276 337 402
#     4  11  25  44  68  97 128 179 232 278 328 395
#     4  11  24  42  66  96 133 177 223 282 332 392
#     4  12  23  37  66 102 131 176 221 268 339 407
#     4  10  21  40  68  94 132 171 213 267 338 394
#     4   9  23  43  67  91 134 175 217 276 341 382
#
# _framework density 22.969574000000001
#
# number of rings (size 3 to 8) (size 9 to 14) (size 15 to 20)
#    0.857    0.571    2.857    2.143    4.000    0.571 
#    5.143    0.714    0.000    0.000    0.000    0.000 
#    0.000    0.000    0.000    0.000    0.000    0.000 
#
# Total GULP energy -155913.487279 kJ/mol
# GULP energy per Si atom -5568.338831 kJ/mol
# Density = 2.291729 g / cm^3
# Si number density = 22.969574 Si / 1000 Ang^3
#
#
#
# Elastic Constant Matrix: (Units=GPa)
#
#
# Indices 1 2 3 4 5 6 
#
# 1 109.2546 22.7508 8.0439 0.0000 -23.4289 0.0000
# 2 22.7508 103.1708 5.0205 0.0000 -10.9427 0.0000
# 3 8.0439 5.0205 66.6493 0.0000 1.3772 0.0000
# 4 0.0000 0.0000 0.0000 12.2795 0.0000 7.1689
# 5 -23.4289 -10.9427 1.3772 0.0000 40.1418 0.0000
# 6 0.0000 0.0000 0.0000 7.1689 0.0000 32.7147
#
#
#
# Elastic Compliance Matrix: (Units=1/GPa)
#
#
# Indices 1 2 3 4 5 6 
#
# 1 0.010875 -0.001706 -0.001307 0.000000 0.005927 0.000000
# 2 -0.001706 0.010293 -0.000607 0.000000 0.001831 0.000000
# 3 -0.001307 -0.000607 0.015237 0.000000 -0.001451 0.000000
# 4 0.000000 0.000000 0.000000 0.093383 0.000000 -0.020464
# 5 0.005927 0.001831 -0.001451 0.000000 0.028920 0.000000
# 6 0.000000 0.000000 0.000000 -0.020464 0.000000 0.035052
#
#
# Mechanical properties :
#
#
# Convention : Reuss Voigt Hill
#
# Bulk Modulus (GPa) = 34.28665 38.96723 36.62694
# Shear Modulus (GPa) = 23.72797 33.24450 28.48624
#
# Velocity S-wave (km/s) = 3.21755 3.80850 3.52543
# Velocity P-wave (km/s) = 5.36310 6.02836 5.70544
#
# Compressibility (1/GPa) = 0.02916587
#
# Stress axis : x y z
#
# Youngs Moduli (GPa) = 91.95042 97.15716 65.62838
#
# Poissons Ratio (x) = 0.16575 0.08575
# Poissons Ratio (y) = 0.15686 0.03985
# Poissons Ratio (z) = 0.12014 0.05900
#
# Static dielectric constant tensor:
#      x y z
#    x 1.953040 0.000000 0.038280 
#    y 0.000000 1.923430 0.000000 
#    z 0.038280 0.000000 1.793670 
# 
# From -- ./inp_files/50444.got.cif
#   From: 2010.05.17/outbox.cif.g08.bks.cpg/sg13_26_cif.got.tgz:50444.got - 2010.06.03 16:44:36.
