data_PCOD9233541
_publ_section_title
;
Structure prediction by ZEFSAII (Michael W. Deem and Ramdas Pophale) SiO2 
 PCOD9233541
Probable space group: P 2/C
;
_chemical_formula_sum "Si O2"
_cell_formula_units_Z 20
_cell_length_a 9.303201
_cell_length_b 7.003961
_cell_length_c 19.324292
_cell_angle_alpha 90.000000
_cell_angle_beta 133.017481
_cell_angle_gamma 90.000000
_cell_volume 920.626727
_symmetry_space_group_name_H-M "P 2/C"
_symmetry_group_IT_number 13
_symmetry_cell_setting 'monoclinic'
loop_
_space_group_symop_operation_xyz
x,y,z
-x,y,1/2-z
-x,-y,-z
x,-y,1/2+z
loop_
_atom_site_type_symbol
_atom_site_label
_atom_site_fract_x
_atom_site_fract_y
_atom_site_fract_z
Si Si1 0.096303 0.262619 0.396415
Si Si2 0.826852 0.771034 0.430560
Si Si3 0.236077 0.605488 0.524617
Si Si4 0.579217 0.884397 0.591564
Si Si5 0.315728 0.927695 0.727655
O O1 0.182560 0.153742 0.493471
O O2 0.143682 0.481440 0.431142
O O3 0.216444 0.202328 0.369150
O O4 0.868694 0.209879 0.320826
O O5 0.730726 0.560456 0.407060
O O6 0.058804 0.735839 0.493529
O O7 0.743487 0.902759 0.343720
O O8 0.424825 0.720291 0.562499
O O9 0.619452 0.999274 0.675333
O O10 0.500000 0.000000 0.500000
O O11 0.500000 0.830108 0.750000
#
# Coordination Sequence:
#
# PCOD9233541 Si02
#       5
#     4   4   4   4   4
#     4  10  21  41  66  94 136 173 224 287 342 403
#     4   9  20  42  67  94 130 177 227 285 336 411
#     4   9  21  42  70  93 134 177 226 281 350 408
#     4  12  24  41  67  98 139 181 219 281 355 417
#     4  12  24  40  64 101 132 180 232 280 338 416
#
# _framework density 21.724330999999999
#
# number of rings (size 3 to 8) (size 9 to 14) (size 15 to 20)
#    1.200    0.400    0.000    5.400    0.000    0.000 
#    3.600    2.000    0.000    0.000    0.000    0.000 
#    0.000    0.000    0.000    0.000    0.000    0.000 
#
# Total GULP energy -111606.534658 kJ/mol
# GULP energy per Si atom -5580.326733 kJ/mol
# Density = 2.167489 g / cm^3
# Si number density = 21.724331 Si / 1000 Ang^3
#
#
#
# Elastic Constant Matrix: (Units=GPa)
#
#
# Indices 1 2 3 4 5 6 
#
# 1 205.4271 53.0014 53.5310 0.0000 0.0909 0.0000
# 2 53.0014 71.9909 31.3946 0.0000 3.2291 0.0000
# 3 53.5310 31.3946 125.0842 0.0000 -20.7682 0.0000
# 4 0.0000 0.0000 0.0000 21.0061 0.0000 -4.5455
# 5 0.0909 3.2291 -20.7682 0.0000 43.0755 0.0000
# 6 0.0000 0.0000 0.0000 -4.5455 0.0000 33.3221
#
#
#
# Elastic Compliance Matrix: (Units=1/GPa)
#
#
# Indices 1 2 3 4 5 6 
#
# 1 0.006340 -0.003831 -0.001855 0.000000 -0.000620 0.000000
# 2 -0.003831 0.018363 -0.003475 0.000000 -0.003044 0.000000
# 3 -0.001855 -0.003475 0.010549 0.000000 0.005350 0.000000
# 4 0.000000 0.000000 0.000000 0.049053 0.000000 0.006691
# 5 -0.000620 -0.003044 0.005350 0.000000 0.026024 0.000000
# 6 0.000000 0.000000 0.000000 0.006691 0.000000 0.030923
#
#
# Mechanical properties :
#
#
# Convention : Reuss Voigt Hill
#
# Bulk Modulus (GPa) = 59.06384 75.37292 67.21838
# Shear Modulus (GPa) = 30.26337 37.11907 33.69122
#
# Velocity S-wave (km/s) = 3.73643 4.13805 3.94236
# Velocity P-wave (km/s) = 6.77210 7.58959 7.19247
#
# Compressibility (1/GPa) = 0.01693083
#
# Stress axis : x y z
#
# Youngs Moduli (GPa) = 157.73132 54.45759 94.79743
#
# Poissons Ratio (x) = 0.20862 0.17582
# Poissons Ratio (y) = 0.60426 0.32940
# Poissons Ratio (z) = 0.29255 0.18923
#
# Static dielectric constant tensor:
#      x y z
#    x 1.790540 0.000000 0.010120 
#    y 0.000000 1.808330 0.000000 
#    z 0.010120 0.000000 1.843980 
# 
# From -- ./inp_files/63500.got.cif
#   From: 2010.05.17/outbox.cif.g08.bks.cpg/sg13_32_cif.got.tgz:63500.got - 2010.06.03 16:44:36.
