data_PCOD9233591
_publ_section_title
;
Structure prediction by ZEFSAII (Michael W. Deem and Ramdas Pophale) SiO2 
 PCOD9233591
Probable space group: P 2/C
;
_chemical_formula_sum "Si O2"
_cell_formula_units_Z 22
_cell_length_a 11.915212
_cell_length_b 15.717807
_cell_length_c 5.244756
_cell_angle_alpha 90.000000
_cell_angle_beta 57.932002
_cell_angle_gamma 90.000000
_cell_volume 832.371122
_symmetry_space_group_name_H-M "P 2/C"
_symmetry_group_IT_number 13
_symmetry_cell_setting 'monoclinic'
loop_
_space_group_symop_operation_xyz
x,y,z
-x,y,1/2-z
-x,-y,-z
x,-y,1/2+z
loop_
_atom_site_type_symbol
_atom_site_label
_atom_site_fract_x
_atom_site_fract_y
_atom_site_fract_z
Si Si1 0.268605 0.817004 0.912947
Si Si2 0.720145 0.469278 0.581123
Si Si3 0.275002 0.269674 0.911205
Si Si4 0.000000 0.064196 0.750000
Si Si5 0.000000 0.574118 0.250000
Si Si6 0.647688 0.030156 0.877546
Si Si7 0.000000 0.692468 0.750000
O O1 0.278608 0.738418 0.100685
O O2 0.353631 0.881490 0.980839
O O3 0.127970 0.870035 0.086337
O O4 0.335742 0.787364 0.565219
O O5 0.653503 0.483953 0.929491
O O6 0.719625 0.369288 0.528193
O O7 0.865782 0.517303 0.432622
O O8 0.122500 0.247481 0.147680
O O9 0.000000 0.000000 0.500000
O O10 0.012946 0.633836 0.482836
O O11 0.711333 0.029552 0.520552
O O12 0.500000 0.000000 0.000000
#
# Coordination Sequence:
#
# PCOD9233591 Si02
#       7
#     4   4   4   2   2   4   2
#     4  12  24  39  55  85 118 154 193 248 305 352
#     4  12  20  33  47  71 100 154 217 260 289 332
#     4  12  23  34  50  76 116 154 197 260 298 338
#     4  12  24  40  58  76 110 160 202 230 276 374
#     4  12  19  31  47  66  92 149 234 273 264 323
#     4  10  21  41  69  93 111 143 188 240 304 373
#     4  12  21  33  47  68 104 157 224 253 294 311
#
# _framework density 26.430519
#
# number of rings (size 3 to 8) (size 9 to 14) (size 15 to 20)
#    0.000    0.364    3.636    7.636    0.000    0.000 
#    0.000    0.000    0.000    0.000    0.000    0.000 
#    0.000    0.000    0.000  229.091    0.000    0.000 
#
# Total GULP energy -122623.741235 kJ/mol
# GULP energy per Si atom -5573.806420 kJ/mol
# Density = 2.637036 g / cm^3
# Si number density = 26.430519 Si / 1000 Ang^3
#
#
#
# Elastic Constant Matrix: (Units=GPa)
#
#
# Indices 1 2 3 4 5 6 
#
# 1 68.8521 9.0865 45.0295 0.0000 29.0019 0.0000
# 2 9.0865 65.5198 24.1955 0.0000 29.4099 0.0000
# 3 45.0295 24.1955 134.1645 0.0000 59.0110 0.0000
# 4 0.0000 0.0000 0.0000 38.5913 0.0000 32.8829
# 5 29.0019 29.4099 59.0110 0.0000 56.5100 0.0000
# 6 0.0000 0.0000 0.0000 32.8829 0.0000 19.0702
#
#
#
# Elastic Compliance Matrix: (Units=1/GPa)
#
#
# Indices 1 2 3 4 5 6 
#
# 1 0.019791 0.001867 -0.003855 0.000000 -0.007103 0.000000
# 2 0.001867 0.020326 0.001446 0.000000 -0.013047 0.000000
# 3 -0.003855 0.001446 0.014699 0.000000 -0.014123 0.000000
# 4 0.000000 0.000000 0.000000 -0.055221 0.000000 0.095218
# 5 -0.007103 -0.013047 -0.014123 0.000000 0.042880 0.000000
# 6 0.000000 0.000000 0.000000 0.095218 0.000000 -0.111747
#
#
# Mechanical properties :
#
#
# Convention : Reuss Voigt Hill
#
# Bulk Modulus (GPa) = 18.61059 47.23994 32.92527
# Shear Modulus (GPa) = -99.44410 35.51595 -31.96407
#
# Velocity S-wave (km/s) = -6.14055 3.66969 -3.48136
# Velocity P-wave (km/s) = 6.57408 5.98896 1.91716
#
# Compressibility (1/GPa) = 0.05373284
#
# Stress axis : x y z
#
# Youngs Moduli (GPa) = 50.52928 49.19821 68.03406
#
# Poissons Ratio (x) = -0.09187 0.26225
# Poissons Ratio (y) = -0.09436 -0.09839
# Poissons Ratio (z) = 0.19477 -0.07115
#
# Static dielectric constant tensor:
#      x y z
#    x 2.418800 0.000000 0.151070 
#    y 0.000000 2.233010 0.000000 
#    z 0.151070 0.000000 2.666470 
# 
# From -- ./inp_files/4924.got.cif
#   From: 2010.05.17/outbox.cif.g08.bks.cpg/sg13_3_cif.got.tgz:4924.got - 2010.06.03 16:44:36.
