data_PCOD9233702
_publ_section_title
;
Structure prediction by ZEFSAII (Michael W. Deem and Ramdas Pophale) SiO2 
 PCOD9233702
Probable space group: P 2/C
;
_chemical_formula_sum "Si O2"
_cell_formula_units_Z 30
_cell_length_a 10.692617
_cell_length_b 9.172780
_cell_length_c 27.546167
_cell_angle_alpha 90.000000
_cell_angle_beta 146.781657
_cell_angle_gamma 90.000000
_cell_volume 1480.106049
_symmetry_space_group_name_H-M "P 2/C"
_symmetry_group_IT_number 13
_symmetry_cell_setting 'monoclinic'
loop_
_space_group_symop_operation_xyz
x,y,z
-x,y,1/2-z
-x,-y,-z
x,-y,1/2+z
loop_
_atom_site_type_symbol
_atom_site_label
_atom_site_fract_x
_atom_site_fract_y
_atom_site_fract_z
Si Si1 0.198001 0.389223 0.948248
Si Si2 0.313668 0.614932 0.914446
Si Si3 0.983388 0.063595 0.606041
Si Si4 0.371806 0.191679 0.528103
Si Si5 0.687136 0.110370 0.353109
Si Si6 0.328309 0.016266 0.808223
Si Si7 0.992611 0.386790 0.041525
Si Si8 0.000000 0.794351 0.750000
O O1 0.226644 0.458291 0.904159
O O2 0.108418 0.227209 0.925915
O O3 0.030388 0.502752 0.920498
O O4 0.468574 0.393115 0.050830
O O5 0.097187 0.695911 0.823645
O O6 0.391533 0.708665 0.986865
O O7 0.774423 0.948571 0.537867
O O8 0.133422 0.008858 0.608920
O O9 0.149405 0.054644 0.707124
O O10 0.226398 0.283317 0.520464
O O11 0.596401 0.139409 0.629120
O O12 0.500000 0.127020 0.250000
O O13 0.556592 0.047806 0.357278
O O14 0.806544 0.267640 0.397630
O O15 0.205702 0.892515 0.798926
O O16 0.000000 0.500000 0.000000
#
# Coordination Sequence:
#
# PCOD9233702 Si02
#       8
#     4   4   4   4   4   4   4   2
#     4  10  23  42  64  92 130 166 208 264 319 372
#     4  10  23  45  63  92 131 172 209 258 320 385
#     4  10  21  42  67  93 129 162 211 271 311 373
#     4  10  22  42  67  91 131 165 212 268 311 375
#     4   9  22  43  65  89 130 164 214 263 316 380
#     4  11  24  39  67 101 120 166 219 263 318 375
#     4  10  23  40  63  94 125 168 209 253 327 389
#     4  12  24  40  70  92 124 176 214 256 322 388
#
# _framework density 20.268819000000001
#
# number of rings (size 3 to 8) (size 9 to 14) (size 15 to 20)
#    0.000    1.867    1.333    0.800    9.333    2.133 
#    9.600    0.000    0.000    0.000    0.000    0.000 
#    0.000    0.000    0.000    0.000    0.000    0.000 
#
# Total GULP energy -167244.103273 kJ/mol
# GULP energy per Si atom -5574.803442 kJ/mol
# Density = 2.022269 g / cm^3
# Si number density = 20.268819 Si / 1000 Ang^3
#
#
#
# Elastic Constant Matrix: (Units=GPa)
#
#
# Indices 1 2 3 4 5 6 
#
# 1 63.0865 40.5438 16.4635 0.0000 -1.6942 0.0000
# 2 40.5438 150.5478 31.3737 0.0000 4.2698 0.0000
# 3 16.4635 31.3737 52.8267 0.0000 -8.6850 0.0000
# 4 0.0000 0.0000 0.0000 51.3564 0.0000 -6.9377
# 5 -1.6942 4.2698 -8.6850 0.0000 18.7894 0.0000
# 6 0.0000 0.0000 0.0000 -6.9377 0.0000 36.9498
#
#
#
# Elastic Compliance Matrix: (Units=1/GPa)
#
#
# Indices 1 2 3 4 5 6 
#
# 1 0.019725 -0.004701 -0.003125 0.000000 0.001402 0.000000
# 2 -0.004701 0.009007 -0.004643 0.000000 -0.004617 0.000000
# 3 -0.003125 -0.004643 0.024663 0.000000 0.012173 0.000000
# 4 0.000000 0.000000 0.000000 0.019979 0.000000 0.003751
# 5 0.001402 -0.004617 0.012173 0.000000 0.060024 0.000000
# 6 0.000000 0.000000 0.000000 0.003751 0.000000 0.027768
#
#
# Mechanical properties :
#
#
# Convention : Reuss Voigt Hill
#
# Bulk Modulus (GPa) = 35.14093 49.24702 42.19397
# Shear Modulus (GPa) = 25.56373 33.29111 29.42742
#
# Velocity S-wave (km/s) = 3.55524 4.05715 3.81446
# Velocity P-wave (km/s) = 5.85047 6.80419 6.34527
#
# Compressibility (1/GPa) = 0.02845685
#
# Stress axis : x y z
#
# Youngs Moduli (GPa) = 50.69581 111.02541 40.54691
#
# Poissons Ratio (x) = 0.52190 0.12672
# Poissons Ratio (y) = 0.23831 0.18827
# Poissons Ratio (z) = 0.15843 0.51552
#
# Static dielectric constant tensor:
#      x y z
#    x 1.796130 0.000000 0.038380 
#    y 0.000000 1.704780 0.000000 
#    z 0.038380 0.000000 1.799640 
# 
# From -- ./inp_files/96646.got.cif
#   From: 2010.05.17/outbox.cif.g08.bks.cpg/sg13_49_cif.got.tgz:96646.got - 2010.06.03 16:44:36.
