data_PCOD9233367
_publ_section_title
;
Structure prediction by ZEFSAII (Michael W. Deem and Ramdas Pophale) SiO2 
 PCOD9233367
Probable space group: P 2/C
;
_chemical_formula_sum "Si O2"
_cell_formula_units_Z 28
_cell_length_a 7.760975
_cell_length_b 15.188210
_cell_length_c 10.571975
_cell_angle_alpha 90.000000
_cell_angle_beta 104.536841
_cell_angle_gamma 90.000000
_cell_volume 1206.280429
_symmetry_space_group_name_H-M "P 2/C"
_symmetry_group_IT_number 13
_symmetry_cell_setting 'monoclinic'
loop_
_space_group_symop_operation_xyz
x,y,z
-x,y,1/2-z
-x,-y,-z
x,-y,1/2+z
loop_
_atom_site_type_symbol
_atom_site_label
_atom_site_fract_x
_atom_site_fract_y
_atom_site_fract_z
Si Si1 0.296840 0.325739 0.229990
Si Si2 0.879057 0.179700 0.443704
Si Si3 0.739859 0.830826 0.398446
Si Si4 0.809518 0.298517 0.676455
Si Si5 0.624270 0.493728 0.393659
Si Si6 0.606822 0.977858 0.889984
Si Si7 0.587457 0.663053 0.468565
O O1 0.500000 0.293716 0.250000
O O2 0.173316 0.243063 0.181534
O O3 0.261774 0.406295 0.121993
O O4 0.683177 0.354487 0.121357
O O5 0.844842 0.242265 0.557436
O O6 0.085299 0.157711 0.485204
O O7 0.762535 0.092538 0.439319
O O8 0.774658 0.772778 0.280391
O O9 0.674681 0.927228 0.356009
O O10 0.609169 0.766752 0.450545
O O11 0.622600 0.348112 0.609641
O O12 0.000000 0.343986 0.750000
O O13 0.500000 0.488717 0.250000
O O14 0.500000 0.500000 0.500000
O O15 0.698796 0.593062 0.404358
O O16 0.500000 0.940674 0.750000
O O17 0.500000 0.000000 0.000000
#
# Coordination Sequence:
#
# PCOD9233367 Si02
#       7
#     4   4   4   4   4   4   4
#     4  11  22  39  67  98 131 179 228 279 338 405
#     4  11  23  43  67  97 138 177 223 281 341 399
#     4  11  25  42  65 100 136 177 224 281 336 408
#     4  10  21  40  67  94 131 176 225 280 335 400
#     4  11  20  36  63  99 130 174 228 282 336 402
#     4  12  26  43  70 102 134 178 230 277 339 409
#     4  12  22  41  68  98 135 176 231 279 343 412
#
# _framework density 23.211850999999999
#
# number of rings (size 3 to 8) (size 9 to 14) (size 15 to 20)
#    0.000    0.857    4.286    4.714    2.000    0.571 
#    0.000    2.143    0.000    4.286    0.000    0.000 
#    0.000    0.000    0.000    0.000    0.000    0.000 
#
# Total GULP energy -155868.117795 kJ/mol
# GULP energy per Si atom -5566.718493 kJ/mol
# Density = 2.315902 g / cm^3
# Si number density = 23.211851 Si / 1000 Ang^3
#
#
#
# Elastic Constant Matrix: (Units=GPa)
#
#
# Indices 1 2 3 4 5 6 
#
# 1 73.6025 31.2460 29.4721 0.0000 27.6276 0.0000
# 2 31.2460 128.9416 25.1210 0.0000 23.5875 0.0000
# 3 29.4721 25.1210 111.2736 0.0000 9.4322 0.0000
# 4 0.0000 0.0000 0.0000 2.6707 0.0000 -2.5111
# 5 27.6276 23.5875 9.4322 0.0000 34.1821 0.0000
# 6 0.0000 0.0000 0.0000 -2.5111 0.0000 -0.8787
#
#
#
# Elastic Compliance Matrix: (Units=1/GPa)
#
#
# Indices 1 2 3 4 5 6 
#
# 1 0.021631 -0.001668 -0.004063 0.000000 -0.015212 0.000000
# 2 -0.001668 0.009263 -0.001251 0.000000 -0.004699 0.000000
# 3 -0.004063 -0.001251 0.010233 0.000000 0.001324 0.000000
# 4 0.000000 0.000000 0.000000 0.101559 0.000000 -0.290226
# 5 -0.015212 -0.004699 0.001324 0.000000 0.044427 0.000000
# 6 0.000000 0.000000 0.000000 -0.290226 0.000000 -0.308673
#
#
# Mechanical properties :
#
#
# Convention : Reuss Voigt Hill
#
# Bulk Modulus (GPa) = 36.81450 53.94399 45.37924
# Shear Modulus (GPa) = -50.74021 22.39338 -14.17342
#
# Velocity S-wave (km/s) = -4.68050 3.10939 -2.47374
# Velocity P-wave (km/s) = 3.64894 6.01510 3.38132
#
# Compressibility (1/GPa) = 0.02716321
#
# Stress axis : x y z
#
# Youngs Moduli (GPa) = 46.22924 107.95790 97.71962
#
# Poissons Ratio (x) = 0.18002 0.39708
# Poissons Ratio (y) = 0.07709 0.12227
# Poissons Ratio (z) = 0.18785 0.13508
#
# Static dielectric constant tensor:
#      x y z
#    x 2.027570 0.000000 -0.017020 
#    y 0.000000 1.971050 0.000000 
#    z -0.017020 0.000000 1.749410 
# 
# From -- ./inp_files/30178.got.cif
#   From: 2010.05.17/outbox.cif.g08.bks.cpg/sg13_16_cif.got.tgz:30178.got - 2010.06.03 16:44:36.
