data_PCOD9233178
_publ_section_title
;
Structure prediction by ZEFSAII (Michael W. Deem and Ramdas Pophale) SiO2 
 PCOD9233178
Probable space group: P 2/C
;
_chemical_formula_sum "Si O2"
_cell_formula_units_Z 30
_cell_length_a 11.632358
_cell_length_b 8.647972
_cell_length_c 16.412064
_cell_angle_alpha 90.000000
_cell_angle_beta 113.546519
_cell_angle_gamma 90.000000
_cell_volume 1513.524774
_symmetry_space_group_name_H-M "P 2/C"
_symmetry_group_IT_number 13
_symmetry_cell_setting 'monoclinic'
loop_
_space_group_symop_operation_xyz
x,y,z
-x,y,1/2-z
-x,-y,-z
x,-y,1/2+z
loop_
_atom_site_type_symbol
_atom_site_label
_atom_site_fract_x
_atom_site_fract_y
_atom_site_fract_z
Si Si1 0.302309 0.585375 0.748856
Si Si2 0.982913 0.639834 0.834688
Si Si3 0.440800 0.657750 0.945653
Si Si4 0.500000 0.325782 0.750000
Si Si5 0.669791 0.226015 0.402868
Si Si6 0.916344 0.398367 0.540947
Si Si7 0.653277 0.856638 0.428752
Si Si8 0.942747 0.832724 0.491034
O O1 0.153966 0.562762 0.697108
O O2 0.330372 0.625448 0.850301
O O3 0.389792 0.439634 0.750697
O O4 0.336133 0.722389 0.693569
O O5 0.000000 0.705649 0.750000
O O6 0.086852 0.508732 0.883003
O O7 0.996446 0.766060 0.908790
O O8 0.549373 0.719535 0.917803
O O9 0.500000 0.500000 0.000000
O O10 0.397965 0.783853 0.000824
O O11 0.438817 0.217827 0.663973
O O12 0.786774 0.327160 0.472046
O O13 0.670927 0.041824 0.420480
O O14 0.000000 0.500000 0.500000
O O15 0.006067 0.252475 0.574680
O O16 0.796109 0.801806 0.457320
O O17 0.000000 0.000000 0.500000
#
# Coordination Sequence:
#
# PCOD9233178 Si02
#       8
#     4   4   4   2   4   4   4   4
#     4  12  22  44  67  99 130 181 233 277 331 415
#     4  11  24  38  66 101 132 170 224 280 331 393
#     4  12  26  43  68  97 134 179 226 283 340 405
#     4  12  26  40  72  96 136 180 230 280 332 416
#     4  12  24  45  69  97 135 179 227 280 344 418
#     4  10  21  39  69  93 127 174 224 267 327 400
#     4  12  26  44  66 102 140 175 224 284 351 410
#     4  11  21  44  69  96 129 177 221 268 340 408
#
# _framework density 19.821282
#
# number of rings (size 3 to 8) (size 9 to 14) (size 15 to 20)
#    0.000    0.533    6.667    2.000    9.333    0.000 
#    0.000    0.667    0.000    0.000    0.000    0.000 
#    0.000    0.000    0.000    0.000    0.000    0.000 
#
# Total GULP energy -167209.158104 kJ/mol
# GULP energy per Si atom -5573.638603 kJ/mol
# Density = 1.977617 g / cm^3
# Si number density = 19.821282 Si / 1000 Ang^3
#
#
#
# Elastic Constant Matrix: (Units=GPa)
#
#
# Indices 1 2 3 4 5 6 
#
# 1 91.0942 19.1168 40.0261 0.0000 13.7887 0.0000
# 2 19.1168 110.4718 60.4229 0.0000 2.6987 0.0000
# 3 40.0261 60.4229 149.7053 0.0000 3.1282 0.0000
# 4 0.0000 0.0000 0.0000 24.3338 0.0000 6.5854
# 5 13.7887 2.6987 3.1282 0.0000 36.3134 0.0000
# 6 0.0000 0.0000 0.0000 6.5854 0.0000 31.5494
#
#
#
# Elastic Compliance Matrix: (Units=1/GPa)
#
#
# Indices 1 2 3 4 5 6 
#
# 1 0.013211 -0.000376 -0.003282 0.000000 -0.004706 0.000000
# 2 -0.000376 0.011635 -0.004589 0.000000 -0.000327 0.000000
# 3 -0.003282 -0.004589 0.009393 0.000000 0.000778 0.000000
# 4 0.000000 0.000000 0.000000 0.043556 0.000000 -0.009092
# 5 -0.004706 -0.000327 0.000778 0.000000 0.029282 0.000000
# 6 0.000000 0.000000 0.000000 -0.009092 0.000000 0.033594
#
#
# Mechanical properties :
#
#
# Convention : Reuss Voigt Hill
#
# Bulk Modulus (GPa) = 56.35232 65.60034 60.97633
# Shear Modulus (GPa) = 30.65993 33.88634 32.27313
#
# Velocity S-wave (km/s) = 3.93723 4.13921 4.03948
# Velocity P-wave (km/s) = 7.01149 7.48411 7.25165
#
# Compressibility (1/GPa) = 0.01774550
#
# Stress axis : x y z
#
# Youngs Moduli (GPa) = 75.69461 85.94831 106.46139
#
# Poissons Ratio (x) = 0.03232 0.34941
# Poissons Ratio (y) = 0.02846 0.48851
# Poissons Ratio (z) = 0.24844 0.39439
#
# Static dielectric constant tensor:
#      x y z
#    x 1.728490 0.000000 0.016020 
#    y 0.000000 1.835660 0.000000 
#    z 0.016020 0.000000 1.759770 
# 
# From -- ./inp_files/66310.got.cif
#   From: 2010.05.17/outbox.cif.g08.bks.cpg/sg13_34_cif.got.tgz:66310.got - 2010.06.03 16:44:36.
