data_PCOD9233324
_publ_section_title
;
Structure prediction by ZEFSAII (Michael W. Deem and Ramdas Pophale) SiO2 
 PCOD9233324
Probable space group: P 2/C
;
_chemical_formula_sum "Si O2"
_cell_formula_units_Z 18
_cell_length_a 10.756406
_cell_length_b 11.067576
_cell_length_c 15.048709
_cell_angle_alpha 90.000000
_cell_angle_beta 153.376071
_cell_angle_gamma 90.000000
_cell_volume 802.833283
_symmetry_space_group_name_H-M "P 2/C"
_symmetry_group_IT_number 13
_symmetry_cell_setting 'monoclinic'
loop_
_space_group_symop_operation_xyz
x,y,z
-x,y,1/2-z
-x,-y,-z
x,-y,1/2+z
loop_
_atom_site_type_symbol
_atom_site_label
_atom_site_fract_x
_atom_site_fract_y
_atom_site_fract_z
Si Si1 0.953909 0.275013 0.897983
Si Si2 0.374727 0.633938 0.010519
Si Si3 0.175644 0.024738 0.772377
Si Si4 0.000000 0.587892 0.250000
Si Si5 0.887450 0.755041 0.812975
O O1 0.678248 0.352742 0.743175
O O2 0.868502 0.137192 0.821507
O O3 0.055677 0.332580 0.871764
O O4 0.148031 0.280501 0.107741
O O5 0.260388 0.503337 0.910564
O O6 0.357054 0.715969 0.909963
O O7 0.153073 0.689375 0.938325
O O8 0.000000 0.047866 0.750000
O O9 0.067911 0.898056 0.664443
O O10 0.500000 0.000000 0.000000
#
# Coordination Sequence:
#
# PCOD9233324 Si02
#       5
#     4   4   4   2   4
#     4  12  22  40  66  93 130 171 219 273 329 390
#     4  10  22  42  63  88 132 174 217 272 326 388
#     4  12  22  42  68  96 136 171 215 278 337 397
#     4  10  24  40  62  94 130 170 230 268 326 384
#     4  10  21  40  65  95 122 172 216 264 334 398
#
# _framework density 22.420594999999999
#
# number of rings (size 3 to 8) (size 9 to 14) (size 15 to 20)
#    0.000    1.333    5.556    2.000    0.000    3.556 
#    0.000   11.111    0.000    0.000    0.000    0.000 
#    0.000    0.000    0.000    0.000    0.000    0.000 
#
# Total GULP energy -100636.960426 kJ/mol
# GULP energy per Si atom -5590.942246 kJ/mol
# Density = 2.236956 g / cm^3
# Si number density = 22.420595 Si / 1000 Ang^3
#
#
#
# Elastic Constant Matrix: (Units=GPa)
#
#
# Indices 1 2 3 4 5 6 
#
# 1 93.4556 19.7084 33.5134 0.0000 -23.4444 0.0000
# 2 19.7084 111.1445 8.7363 0.0000 -26.2439 0.0000
# 3 33.5134 8.7363 52.2084 0.0000 -26.5406 0.0000
# 4 0.0000 0.0000 0.0000 -1.3610 0.0000 6.4540
# 5 -23.4444 -26.2439 -26.5406 0.0000 49.6750 0.0000
# 6 0.0000 0.0000 0.0000 6.4540 0.0000 26.8583
#
#
#
# Elastic Compliance Matrix: (Units=1/GPa)
#
#
# Indices 1 2 3 4 5 6 
#
# 1 0.014343 -0.001521 -0.008127 0.000000 0.001623 0.000000
# 2 -0.001521 0.010519 0.002302 0.000000 0.006069 0.000000
# 3 -0.008127 0.002302 0.031101 0.000000 0.013997 0.000000
# 4 0.000000 0.000000 0.000000 -0.343421 0.000000 0.082523
# 5 0.001623 0.006069 0.013997 0.000000 0.031582 0.000000
# 6 0.000000 0.000000 0.000000 0.082523 0.000000 0.017402
#
#
# Mechanical properties :
#
#
# Convention : Reuss Voigt Hill
#
# Bulk Modulus (GPa) = 24.23060 42.30272 33.26666
# Shear Modulus (GPa) = -23.80685 28.02448 2.10881
#
# Velocity S-wave (km/s) = -3.26211 3.53929 0.97088
# Velocity P-wave (km/s) = 1.83240 5.96748 4.01579
#
# Compressibility (1/GPa) = 0.04127012
#
# Stress axis : x y z
#
# Youngs Moduli (GPa) = 69.72207 95.06413 32.15282
#
# Poissons Ratio (x) = 0.14461 0.26131
# Poissons Ratio (y) = 0.10606 -0.07400
# Poissons Ratio (z) = 0.56663 -0.21880
#
# Static dielectric constant tensor:
#      x y z
#    x 1.859870 0.000000 0.027020 
#    y 0.000000 1.825810 0.000000 
#    z 0.027020 0.000000 1.806340 
# 
# From -- ./inp_files/50982.got.cif
#   From: 2010.05.17/outbox.cif.g08.bks.cpg/sg13_26_cif.got.tgz:50982.got - 2010.06.03 16:44:36.
