data_PCOD9233583
_publ_section_title
;
Structure prediction by ZEFSAII (Michael W. Deem and Ramdas Pophale) SiO2 
 PCOD9233583
Probable space group: P 2/C
;
_chemical_formula_sum "Si O2"
_cell_formula_units_Z 24
_cell_length_a 5.404713
_cell_length_b 12.342189
_cell_length_c 15.026097
_cell_angle_alpha 90.000000
_cell_angle_beta 84.369032
_cell_angle_gamma 90.000000
_cell_volume 997.493931
_symmetry_space_group_name_H-M "P 2/C"
_symmetry_group_IT_number 13
_symmetry_cell_setting 'monoclinic'
loop_
_space_group_symop_operation_xyz
x,y,z
-x,y,1/2-z
-x,-y,-z
x,-y,1/2+z
loop_
_atom_site_type_symbol
_atom_site_label
_atom_site_fract_x
_atom_site_fract_y
_atom_site_fract_z
Si Si1 0.738395 0.551183 0.809463
Si Si2 0.701420 0.279259 0.470764
Si Si3 0.807528 0.910971 0.337707
Si Si4 0.255087 0.878568 0.769100
Si Si5 0.429646 0.326182 0.650461
Si Si6 0.800801 0.136540 0.033202
O O1 0.500000 0.557230 0.750000
O O2 0.708832 0.636068 0.890469
O O3 0.744751 0.430606 0.854272
O O4 0.000000 0.566530 0.750000
O O5 0.642904 0.333088 0.568604
O O6 0.464203 0.199628 0.463165
O O7 0.963108 0.216876 0.468723
O O8 0.670037 0.796318 0.350637
O O9 0.842339 0.931553 0.442073
O O10 0.000000 0.887087 0.250000
O O11 0.701961 0.022027 0.300353
O O12 0.500000 0.808113 0.750000
O O13 0.212856 0.920013 0.870152
O O14 0.000000 0.823434 0.750000
O O15 0.500000 0.334692 0.750000
#
# Coordination Sequence:
#
# PCOD9233583 Si02
#       6
#     4   4   4   4   4   4
#     4  11  24  41  67 101 136 173 217 266 320 389
#     4  11  24  43  68  96 135 176 217 266 323 391
#     4  10  22  41  67  94 130 171 217 274 332 386
#     4  11  25  42  66  94 126 170 217 273 328 387
#     4  10  21  41  68  98 132 172 221 270 326 383
#     4  11  25  43  66  97 130 174 221 267 327 392
#
# _framework density 24.060296999999998
#
# number of rings (size 3 to 8) (size 9 to 14) (size 15 to 20)
#    0.000    1.333    0.000    4.500    0.000   15.333 
#    0.000    8.333    0.000    0.000    0.000    0.000 
#    0.000    0.000    0.000    0.000    0.000    0.000 
#
# Total GULP energy -133918.809461 kJ/mol
# GULP energy per Si atom -5579.950394 kJ/mol
# Density = 2.400553 g / cm^3
# Si number density = 24.060297 Si / 1000 Ang^3
#
#
#
# Elastic Constant Matrix: (Units=GPa)
#
#
# Indices 1 2 3 4 5 6 
#
# 1 127.7156 24.0268 35.9076 0.0000 -17.4439 0.0000
# 2 24.0268 94.7196 48.8202 0.0000 -8.3345 0.0000
# 3 35.9076 48.8202 235.2780 0.0000 -10.6082 0.0000
# 4 0.0000 0.0000 0.0000 86.2587 0.0000 39.2251
# 5 -17.4439 -8.3345 -10.6082 0.0000 44.8486 0.0000
# 6 0.0000 0.0000 0.0000 39.2251 0.0000 67.8717
#
#
#
# Elastic Compliance Matrix: (Units=1/GPa)
#
#
# Indices 1 2 3 4 5 6 
#
# 1 0.008763 -0.001506 -0.000893 0.000000 0.002917 0.000000
# 2 -0.001506 0.012200 -0.002250 0.000000 0.001149 0.000000
# 3 -0.000893 -0.002250 0.004871 0.000000 0.000387 0.000000
# 4 0.000000 0.000000 0.000000 0.015726 0.000000 -0.009088
# 5 0.002917 0.001149 0.000387 0.000000 0.023737 0.000000
# 6 0.000000 0.000000 0.000000 -0.009088 0.000000 0.019986
#
#
# Mechanical properties :
#
#
# Convention : Reuss Voigt Hill
#
# Bulk Modulus (GPa) = 60.47422 75.02471 67.74947
# Shear Modulus (GPa) = 49.95363 63.05971 56.50667
#
# Velocity S-wave (km/s) = 4.56146 5.12503 4.85144
# Velocity P-wave (km/s) = 7.27541 8.14069 7.72018
#
# Compressibility (1/GPa) = 0.01653597
#
# Stress axis : x y z
#
# Youngs Moduli (GPa) = 114.11918 81.96589 205.29966
#
# Poissons Ratio (x) = 0.12341 0.18342
# Poissons Ratio (y) = 0.17182 0.46191
# Poissons Ratio (z) = 0.10196 0.18442
#
# Static dielectric constant tensor:
#      x y z
#    x 1.699710 0.000000 -0.175040 
#    y 0.000000 2.098480 0.000000 
#    z -0.175040 0.000000 1.751290 
# 
# From -- ./inp_files/43965.got.cif
#   From: 2010.05.17/outbox.cif.g08.bks.cpg/sg13_22_cif.got.tgz:43965.got - 2010.06.03 16:44:36.
