data_PCOD9233386
_publ_section_title
;
Structure prediction by ZEFSAII (Michael W. Deem and Ramdas Pophale) SiO2 
 PCOD9233386
Probable space group: P 2/C
;
_chemical_formula_sum "Si O2"
_cell_formula_units_Z 32
_cell_length_a 12.558662
_cell_length_b 5.162121
_cell_length_c 25.024364
_cell_angle_alpha 90.000000
_cell_angle_beta 113.746838
_cell_angle_gamma 90.000000
_cell_volume 1484.957606
_symmetry_space_group_name_H-M "P 2/C"
_symmetry_group_IT_number 13
_symmetry_cell_setting 'monoclinic'
loop_
_space_group_symop_operation_xyz
x,y,z
-x,y,1/2-z
-x,-y,-z
x,-y,1/2+z
loop_
_atom_site_type_symbol
_atom_site_label
_atom_site_fract_x
_atom_site_fract_y
_atom_site_fract_z
Si Si1 0.167763 0.353179 0.668708
Si Si2 0.541088 0.060644 0.697251
Si Si3 0.083348 0.722153 0.562347
Si Si4 0.298547 0.895374 0.107553
Si Si5 0.691220 0.434876 0.207034
Si Si6 0.016298 0.991692 0.316382
Si Si7 0.835092 0.648661 0.512058
Si Si8 0.161641 0.492395 0.368478
O O1 0.088670 0.505292 0.610030
O O2 0.280450 0.292102 0.655034
O O3 0.208877 0.509261 0.728830
O O4 0.099563 0.102266 0.676696
O O5 0.500000 0.039132 0.750000
O O6 0.638460 0.846460 0.706158
O O7 0.428269 0.003288 0.637973
O O8 0.594359 0.342876 0.696331
O O9 0.113739 0.589546 0.512027
O O10 0.951743 0.829567 0.537640
O O11 0.192000 0.907644 0.594154
O O12 0.266567 0.762633 0.045094
O O13 0.743811 0.456666 0.158644
O O14 0.111994 0.782093 0.354455
O O15 0.000000 0.957409 0.250000
O O16 0.061260 0.280461 0.335494
O O17 0.798027 0.570589 0.563461
#
# Coordination Sequence:
#
# PCOD9233386 Si02
#       8
#     4   4   4   4   4   4   4   4
#     4  11  23  39  67 104 136 176 226 291 355 424
#     4  12  26  47  72 100 133 181 240 301 352 400
#     4  10  21  40  68 102 139 178 232 285 351 424
#     4  11  24  41  69  99 136 182 235 299 348 407
#     4  12  27  45  69 103 138 184 236 286 355 413
#     4  12  25  41  68 102 143 184 226 272 358 430
#     4  10  23  40  66 102 139 188 224 284 352 425
#     4  12  26  45  67 100 147 187 222 286 342 430
#
# _framework density 21.549434999999999
#
# number of rings (size 3 to 8) (size 9 to 14) (size 15 to 20)
#    0.000    0.750    3.750    3.375    5.250    0.000 
#    0.000    1.250    0.000    0.000    0.000    0.000 
#    0.000    0.000    0.000    0.000    0.000    0.000 
#
# Total GULP energy -179039.963094 kJ/mol
# GULP energy per Si atom -5594.998847 kJ/mol
# Density = 2.150039 g / cm^3
# Si number density = 21.549435 Si / 1000 Ang^3
#
#
#
# Elastic Constant Matrix: (Units=GPa)
#
#
# Indices 1 2 3 4 5 6 
#
# 1 67.6299 -3.9256 47.5720 0.0000 -12.0364 0.0000
# 2 -3.9256 40.8965 4.5947 0.0000 -0.4276 0.0000
# 3 47.5720 4.5947 145.7947 0.0000 -20.7346 0.0000
# 4 0.0000 0.0000 0.0000 26.3336 0.0000 3.2290
# 5 -12.0364 -0.4276 -20.7346 0.0000 49.6840 0.0000
# 6 0.0000 0.0000 0.0000 3.2290 0.0000 37.0037
#
#
#
# Elastic Compliance Matrix: (Units=1/GPa)
#
#
# Indices 1 2 3 4 5 6 
#
# 1 0.019686 0.002608 -0.006192 0.000000 0.002208 0.000000
# 2 0.002608 0.024885 -0.001611 0.000000 0.000174 0.000000
# 3 -0.006192 -0.001611 0.009265 0.000000 0.002353 0.000000
# 4 0.000000 0.000000 0.000000 0.038385 0.000000 -0.003350
# 5 0.002208 0.000174 0.002353 0.000000 0.021645 0.000000
# 6 0.000000 0.000000 0.000000 -0.003350 0.000000 0.027317
#
#
# Mechanical properties :
#
#
# Convention : Reuss Voigt Hill
#
# Bulk Modulus (GPa) = 23.01609 38.97813 30.99711
# Shear Modulus (GPa) = 30.11085 36.34292 33.22689
#
# Velocity S-wave (km/s) = 3.74209 4.11115 3.93095
# Velocity P-wave (km/s) = 5.41985 6.37671 5.91765
#
# Compressibility (1/GPa) = 0.04344786
#
# Stress axis : x y z
#
# Youngs Moduli (GPa) = 50.79756 40.18469 107.93781
#
# Poissons Ratio (x) = -0.10482 0.66831
# Poissons Ratio (y) = -0.13250 0.17385
# Poissons Ratio (z) = 0.31452 0.06472
#
# Static dielectric constant tensor:
#      x y z
#    x 1.779980 0.000000 0.019460 
#    y 0.000000 1.849630 0.000000 
#    z 0.019460 0.000000 1.793230 
# 
# From -- ./inp_files/85995.got.cif
#   From: 2010.05.17/outbox.cif.g08.bks.cpg/sg13_43_cif.got.tgz:85995.got - 2010.06.03 16:44:36.
