data_PCOD9233900
_publ_section_title
;
Structure prediction by ZEFSAII (Michael W. Deem and Ramdas Pophale) SiO2 
 PCOD9233900
Probable space group: P 2/C
;
_chemical_formula_sum "Si O2"
_cell_formula_units_Z 24
_cell_length_a 18.221771
_cell_length_b 5.224727
_cell_length_c 27.622665
_cell_angle_alpha 90.000000
_cell_angle_beta 160.702653
_cell_angle_gamma 90.000000
_cell_volume 869.065905
_symmetry_space_group_name_H-M "P 2/C"
_symmetry_group_IT_number 13
_symmetry_cell_setting 'monoclinic'
loop_
_space_group_symop_operation_xyz
x,y,z
-x,y,1/2-z
-x,-y,-z
x,-y,1/2+z
loop_
_atom_site_type_symbol
_atom_site_label
_atom_site_fract_x
_atom_site_fract_y
_atom_site_fract_z
Si Si1 0.826150 0.849165 0.106454
Si Si2 0.265956 0.164588 0.133132
Si Si3 0.160913 0.830471 0.766457
Si Si4 0.537744 0.515738 0.869818
Si Si5 0.490914 0.211605 0.939620
Si Si6 0.134390 0.337794 0.502245
O O1 0.000000 0.715236 0.250000
O O2 0.945426 0.108341 0.164140
O O3 0.752106 0.687672 0.015284
O O4 0.605906 0.940013 0.996219
O O5 0.500000 0.159940 0.250000
O O6 0.345386 0.290408 0.233019
O O7 0.120461 0.386646 0.018101
O O8 0.157509 0.888740 0.056396
O O9 0.258045 0.113093 0.814480
O O10 0.068745 0.709929 0.660485
O O11 0.342439 0.696969 0.913920
O O12 0.482600 0.372230 0.885373
O O13 0.635276 0.339428 0.887168
#
# Coordination Sequence:
#
# PCOD9233900 Si02
#       6
#     4   4   4   4   4   4
#     4  10  22  39  65  99 133 181 231 283 353 424
#     4  10  22  38  65  98 128 177 229 282 345 405
#     4  10  21  44  66  95 143 178 231 288 356 419
#     4  11  23  39  69  97 139 175 237 292 348 424
#     4  10  23  42  64 102 135 181 229 291 355 418
#     4  11  22  39  68  95 130 181 227 280 344 412
#
# _framework density 27.615857999999999
#
# number of rings (size 3 to 8) (size 9 to 14) (size 15 to 20)
#    0.000    1.667    1.667    3.500    4.667    0.000 
#    6.000    4.167    0.000    0.000    0.000    0.000 
#    0.000    0.000    0.000    0.000    0.000    0.000 
#
# Total GULP energy -134467.350001 kJ/mol
# GULP energy per Si atom -5602.806250 kJ/mol
# Density = 2.755300 g / cm^3
# Si number density = 27.615858 Si / 1000 Ang^3
#
#
#
# Elastic Constant Matrix: (Units=GPa)
#
#
# Indices 1 2 3 4 5 6 
#
# 1 100.0934 33.0736 42.2312 0.0000 -21.5105 0.0000
# 2 33.0736 132.3881 52.9508 0.0000 -21.6283 0.0000
# 3 42.2312 52.9508 122.2470 0.0000 -48.6972 0.0000
# 4 0.0000 0.0000 0.0000 46.2040 0.0000 8.0415
# 5 -21.5105 -21.6283 -48.6972 0.0000 47.7220 0.0000
# 6 0.0000 0.0000 0.0000 8.0415 0.0000 28.0277
#
#
#
# Elastic Compliance Matrix: (Units=1/GPa)
#
#
# Indices 1 2 3 4 5 6 
#
# 1 0.012084 -0.001622 -0.002687 0.000000 0.001969 0.000000
# 2 -0.001622 0.009355 -0.003528 0.000000 -0.000092 0.000000
# 3 -0.002687 -0.003528 0.016036 0.000000 0.013553 0.000000
# 4 0.000000 0.000000 0.000000 0.022781 0.000000 -0.006536
# 5 0.001969 -0.000092 0.013553 0.000000 0.035631 0.000000
# 6 0.000000 0.000000 0.000000 -0.006536 0.000000 0.037554
#
#
# Mechanical properties :
#
#
# Convention : Reuss Voigt Hill
#
# Bulk Modulus (GPa) = 45.87399 67.91551 56.89475
# Shear Modulus (GPa) = 31.97305 39.48893 35.73099
#
# Velocity S-wave (km/s) = 3.40631 3.78555 3.60093
# Velocity P-wave (km/s) = 5.66728 6.61465 6.15921
#
# Compressibility (1/GPa) = 0.02179884
#
# Stress axis : x y z
#
# Youngs Moduli (GPa) = 82.75591 106.89467 62.36141
#
# Poissons Ratio (x) = 0.17341 0.16758
# Poissons Ratio (y) = 0.13425 0.22002
# Poissons Ratio (z) = 0.22239 0.37714
#
# Static dielectric constant tensor:
#      x y z
#    x 2.138060 0.000000 -0.038610 
#    y 0.000000 2.109970 0.000000 
#    z -0.038610 0.000000 2.102450 
# 
# From -- ./inp_files/97452.got.cif
#   From: 2010.05.17/outbox.cif.g08.bks.cpg/sg13_49_cif.got.tgz:97452.got - 2010.06.03 16:44:36.
