data_PCOD9233751
_publ_section_title
;
Structure prediction by ZEFSAII (Michael W. Deem and Ramdas Pophale) SiO2 
 PCOD9233751
Probable space group: P 2/C
;
_chemical_formula_sum "Si O2"
_cell_formula_units_Z 22
_cell_length_a 21.467129
_cell_length_b 9.098652
_cell_length_c 13.599592
_cell_angle_alpha 90.000000
_cell_angle_beta 156.469368
_cell_angle_gamma 90.000000
_cell_volume 1060.498808
_symmetry_space_group_name_H-M "P 2/C"
_symmetry_group_IT_number 13
_symmetry_cell_setting 'monoclinic'
loop_
_space_group_symop_operation_xyz
x,y,z
-x,y,1/2-z
-x,-y,-z
x,-y,1/2+z
loop_
_atom_site_type_symbol
_atom_site_label
_atom_site_fract_x
_atom_site_fract_y
_atom_site_fract_z
Si Si1 0.345849 0.673487 0.958147
Si Si2 0.000000 0.241698 0.250000
Si Si3 0.264279 0.649835 0.265945
Si Si4 0.549990 0.830547 0.585650
Si Si5 0.676347 0.165149 0.470461
Si Si6 0.872678 0.893997 0.761675
O O1 0.314581 0.510708 0.871985
O O2 0.387269 0.774463 0.925895
O O3 0.190433 0.742380 0.782912
O O4 0.500000 0.669122 0.250000
O O5 0.923949 0.140385 0.224651
O O6 0.121885 0.341464 0.485061
O O7 0.401849 0.736303 0.408037
O O8 0.225513 0.738389 0.310826
O O9 0.677809 0.805456 0.856673
O O10 0.500000 0.000000 0.500000
O O11 0.500000 0.190676 0.250000
O O12 0.719957 0.996217 0.544162
O O13 0.000000 0.000000 0.000000
#
# Coordination Sequence:
#
# PCOD9233751 Si02
#       6
#     4   2   4   4   4   4
#     4  12  25  45  71 102 138 184 238 291 354 411
#     4  12  26  46  68  96 150 180 238 280 362 418
#     4  11  24  44  68 102 140 183 226 293 347 426
#     4  11  22  40  73 103 132 175 236 289 343 408
#     4  10  21  42  69  98 132 176 234 289 345 411
#     4  12  26  45  68 101 141 186 231 290 354 423
#
# _framework density 20.744955000000001
#
# number of rings (size 3 to 8) (size 9 to 14) (size 15 to 20)
#    0.000    0.727    1.818    8.182    2.545    2.182 
#    3.273    0.000    0.000    0.000    0.000    0.000 
#    0.000    0.000    0.000    0.000    0.000    0.000 
#
# Total GULP energy -122860.354786 kJ/mol
# GULP energy per Si atom -5584.561581 kJ/mol
# Density = 2.069774 g / cm^3
# Si number density = 20.744955 Si / 1000 Ang^3
#
#
#
# Elastic Constant Matrix: (Units=GPa)
#
#
# Indices 1 2 3 4 5 6 
#
# 1 154.3386 70.1423 44.0157 0.0000 -25.7775 0.0000
# 2 70.1423 135.4534 25.9980 0.0000 3.3675 0.0000
# 3 44.0157 25.9980 100.6054 0.0000 -25.9935 0.0000
# 4 0.0000 0.0000 0.0000 25.9375 0.0000 -7.4076
# 5 -25.7775 3.3675 -25.9935 0.0000 29.5360 0.0000
# 6 0.0000 0.0000 0.0000 -7.4076 0.0000 34.9211
#
#
#
# Elastic Compliance Matrix: (Units=1/GPa)
#
#
# Indices 1 2 3 4 5 6 
#
# 1 0.010887 -0.005706 -0.000862 0.000000 0.009394 0.000000
# 2 -0.005706 0.011037 -0.002547 0.000000 -0.008479 0.000000
# 3 -0.000862 -0.002547 0.014050 0.000000 0.011904 0.000000
# 4 0.000000 0.000000 0.000000 0.041041 0.000000 0.008706
# 5 0.009394 -0.008479 0.011904 0.000000 0.053498 0.000000
# 6 0.000000 0.000000 0.000000 0.008706 0.000000 0.030483
#
#
# Mechanical properties :
#
#
# Convention : Reuss Voigt Hill
#
# Bulk Modulus (GPa) = 56.34945 74.52325 65.43635
# Shear Modulus (GPa) = 27.00670 34.76167 30.88419
#
# Velocity S-wave (km/s) = 3.61202 4.09793 3.86263
# Velocity P-wave (km/s) = 6.67964 7.64148 7.17669
#
# Compressibility (1/GPa) = 0.01774640
#
# Stress axis : x y z
#
# Youngs Moduli (GPa) = 91.85186 90.60548 71.17250
#
# Poissons Ratio (x) = 0.51698 0.06132
# Poissons Ratio (y) = 0.52410 0.18124
# Poissons Ratio (z) = 0.07914 0.23073
#
# Static dielectric constant tensor:
#      x y z
#    x 1.746060 0.000000 0.020140 
#    y 0.000000 1.725200 0.000000 
#    z 0.020140 0.000000 2.936980 
# 
# From -- ./inp_files/58755.got.cif
#   From: 2010.05.17/outbox.cif.g08.bks.cpg/sg13_30_cif.got.tgz:58755.got - 2010.06.03 16:44:36.
