data_PCOD9233476
_publ_section_title
;
Structure prediction by ZEFSAII (Michael W. Deem and Ramdas Pophale) SiO2 
 PCOD9233476
Probable space group: P 2/C
;
_chemical_formula_sum "Si O2"
_cell_formula_units_Z 20
_cell_length_a 20.661109
_cell_length_b 7.387303
_cell_length_c 13.591021
_cell_angle_alpha 90.000000
_cell_angle_beta 155.100494
_cell_angle_gamma 90.000000
_cell_volume 873.378701
_symmetry_space_group_name_H-M "P 2/C"
_symmetry_group_IT_number 13
_symmetry_cell_setting 'monoclinic'
loop_
_space_group_symop_operation_xyz
x,y,z
-x,y,1/2-z
-x,-y,-z
x,-y,1/2+z
loop_
_atom_site_type_symbol
_atom_site_label
_atom_site_fract_x
_atom_site_fract_y
_atom_site_fract_z
Si Si1 0.117549 0.101770 0.323652
Si Si2 0.901718 0.570627 0.477881
Si Si3 0.874398 0.726234 0.234031
Si Si4 0.376372 0.288677 0.780485
Si Si5 0.443522 0.655707 0.783032
O O1 0.292214 0.134828 0.600868
O O2 0.000000 0.047993 0.250000
O O3 0.044500 0.289470 0.185020
O O4 0.112451 0.940599 0.238729
O O5 0.833177 0.620275 0.277335
O O6 0.774204 0.615832 0.380581
O O7 0.968104 0.371042 0.578784
O O8 0.737450 0.694704 0.969494
O O9 0.462697 0.441145 0.835244
O O10 0.476399 0.242059 0.014881
O O11 0.500000 0.697910 0.750000
#
# Coordination Sequence:
#
# PCOD9233476 Si02
#       5
#     4   4   4   4   4
#     4  10  22  37  61  96 124 156 212 264 310 369
#     4  10  21  41  63  94 123 163 207 266 311 371
#     4  11  22  37  68  89 123 167 212 253 321 368
#     4  10  22  41  64  89 131 164 212 265 313 375
#     4  11  22  40  64  92 126 173 212 253 319 381
#
# _framework density 22.899573
#
# number of rings (size 3 to 8) (size 9 to 14) (size 15 to 20)
#    0.000    1.600    4.000    0.600    2.800    0.800 
#    0.000    1.000    4.400    0.000    0.000    0.000 
#    0.000    0.000    0.000    0.000    0.000    0.000 
#
# Total GULP energy -111652.190388 kJ/mol
# GULP energy per Si atom -5582.609519 kJ/mol
# Density = 2.284745 g / cm^3
# Si number density = 22.899573 Si / 1000 Ang^3
#
#
#
# Elastic Constant Matrix: (Units=GPa)
#
#
# Indices 1 2 3 4 5 6 
#
# 1 31.8643 9.3139 -2.2096 0.0000 -7.3779 0.0000
# 2 9.3139 74.3500 40.3522 0.0000 -17.1356 0.0000
# 3 -2.2096 40.3522 151.8816 0.0000 -35.4014 0.0000
# 4 0.0000 0.0000 0.0000 25.9056 0.0000 -5.7792
# 5 -7.3779 -17.1356 -35.4014 0.0000 23.1740 0.0000
# 6 0.0000 0.0000 0.0000 -5.7792 0.0000 8.1691
#
#
#
# Elastic Compliance Matrix: (Units=1/GPa)
#
#
# Indices 1 2 3 4 5 6 
#
# 1 0.036913 -0.003598 0.005609 0.000000 0.017661 0.000000
# 2 -0.003598 0.017122 -0.002978 0.000000 0.006966 0.000000
# 3 0.005609 -0.002978 0.011430 0.000000 0.017044 0.000000
# 4 0.000000 0.000000 0.000000 0.045836 0.000000 0.032426
# 5 0.017661 0.006966 0.017044 0.000000 0.079963 0.000000
# 6 0.000000 0.000000 0.000000 0.032426 0.000000 0.145353
#
#
# Mechanical properties :
#
#
# Convention : Reuss Voigt Hill
#
# Bulk Modulus (GPa) = 15.74014 39.22322 27.48168
# Shear Modulus (GPa) = 13.89944 25.49235 19.69590
#
# Velocity S-wave (km/s) = 2.46636 3.34012 2.93593
# Velocity P-wave (km/s) = 3.87286 5.66046 4.84973
#
# Compressibility (1/GPa) = 0.06353182
#
# Stress axis : x y z
#
# Youngs Moduli (GPa) = 27.09073 58.40337 87.49203
#
# Poissons Ratio (x) = 0.21015 -0.49078
# Poissons Ratio (y) = 0.09748 0.26052
# Poissons Ratio (z) = -0.15196 0.17391
#
# Static dielectric constant tensor:
#      x y z
#    x 1.875250 0.000000 -0.028650 
#    y 0.000000 1.862340 0.000000 
#    z -0.028650 0.000000 1.909420 
# 
# From -- ./inp_files/49129.got.cif
#   From: 2010.05.17/outbox.cif.g08.bks.cpg/sg13_25_cif.got.tgz:49129.got - 2010.06.03 16:44:36.
