data_PCOD9233343
_publ_section_title
;
Structure prediction by ZEFSAII (Michael W. Deem and Ramdas Pophale) SiO2 
 PCOD9233343
Probable space group: P 2/C
;
_chemical_formula_sum "Si O2"
_cell_formula_units_Z 24
_cell_length_a 13.632749
_cell_length_b 4.997224
_cell_length_c 21.544161
_cell_angle_alpha 90.000000
_cell_angle_beta 40.386658
_cell_angle_gamma 90.000000
_cell_volume 950.995239
_symmetry_space_group_name_H-M "P 2/C"
_symmetry_group_IT_number 13
_symmetry_cell_setting 'monoclinic'
loop_
_space_group_symop_operation_xyz
x,y,z
-x,y,1/2-z
-x,-y,-z
x,-y,1/2+z
loop_
_atom_site_type_symbol
_atom_site_label
_atom_site_fract_x
_atom_site_fract_y
_atom_site_fract_z
Si Si1 0.366572 0.942982 0.480368
Si Si2 0.355738 0.703980 0.195948
Si Si3 0.918597 0.149888 0.844711
Si Si4 0.855739 0.796020 0.695947
Si Si5 0.581402 0.350110 0.155290
Si Si6 0.133429 0.557018 0.519632
O O1 0.253541 0.061630 0.586200
O O2 0.410541 0.177260 0.411199
O O3 0.522902 0.788463 0.415933
O O4 0.250001 0.750001 0.499999
O O5 0.244476 0.457366 0.236057
O O6 0.467947 0.594221 0.195260
O O7 0.255523 0.957366 0.263944
O O8 0.910539 0.322742 0.911199
O O9 0.000000 0.302137 0.750000
O O10 0.032052 0.905779 0.804741
O O11 0.977099 0.711536 0.584066
O O12 0.500000 0.197860 0.250000
O O13 0.753540 0.438367 0.086200
#
# Coordination Sequence:
#
# PCOD9233343 Si02
#       6
#     4   4   4   4   4   4
#     4   9  20  38  64  87 128 164 206 249 313 367
#     4  11  21  40  65  90 127 169 200 254 314 360
#     4  10  21  40  66  93 121 165 214 253 303 374
#     4  11  21  40  65  90 127 169 200 254 314 360
#     4  10  21  40  66  93 121 165 214 253 303 374
#     4   9  20  38  64  87 128 164 206 249 313 367
#
# _framework density 25.236720999999999
#
# number of rings (size 3 to 8) (size 9 to 14) (size 15 to 20)
#    0.000    2.000    3.333    0.000    0.000    5.333 
#    0.000    3.333    0.000    0.000    0.000    0.000 
#    0.000    0.000    0.000    0.000    0.000    0.000 
#
# Total GULP energy -133970.713526 kJ/mol
# GULP energy per Si atom -5582.113064 kJ/mol
# Density = 2.517928 g / cm^3
# Si number density = 25.236721 Si / 1000 Ang^3
#
#
#
# Elastic Constant Matrix: (Units=GPa)
#
#
# Indices 1 2 3 4 5 6 
#
# 1 90.9124 33.4229 46.8979 0.0000 -38.5564 0.0000
# 2 33.4229 146.0631 71.3421 0.0000 -34.7533 0.0000
# 3 46.8979 71.3421 226.5077 0.0000 -40.4326 0.0000
# 4 0.0000 0.0000 0.0000 56.2644 0.0000 -30.9252
# 5 -38.5564 -34.7533 -40.4326 0.0000 40.9129 0.0000
# 6 0.0000 0.0000 0.0000 -30.9252 0.0000 32.9200
#
#
#
# Elastic Compliance Matrix: (Units=1/GPa)
#
#
# Indices 1 2 3 4 5 6 
#
# 1 0.018467 0.000181 -0.000907 0.000000 0.016661 0.000000
# 2 0.000181 0.009159 -0.001825 0.000000 0.006147 0.000000
# 3 -0.000907 -0.001825 0.005765 0.000000 0.003293 0.000000
# 4 0.000000 0.000000 0.000000 0.036747 0.000000 0.034520
# 5 0.016661 0.006147 0.003293 0.000000 0.048620 0.000000
# 6 0.000000 0.000000 0.000000 0.034520 0.000000 0.062805
#
#
# Mechanical properties :
#
#
# Convention : Reuss Voigt Hill
#
# Bulk Modulus (GPa) = 35.34743 85.20100 60.27422
# Shear Modulus (GPa) = 25.49814 46.80749 36.15282
#
# Velocity S-wave (km/s) = 3.18206 4.31134 3.78901
# Velocity P-wave (km/s) = 5.24761 7.65621 6.56334
#
# Compressibility (1/GPa) = 0.02829060
#
# Stress axis : x y z
#
# Youngs Moduli (GPa) = 54.15165 109.18353 173.45567
#
# Poissons Ratio (x) = -0.01981 0.15724
# Poissons Ratio (y) = -0.00982 0.31655
# Poissons Ratio (z) = 0.04909 0.19925
#
# Static dielectric constant tensor:
#      x y z
#    x 2.086160 0.000000 0.066750 
#    y 0.000000 2.075550 0.000000 
#    z 0.066750 0.000000 2.123120 
# 
# From -- ./inp_files/93060.got.cif
#   From: 2010.05.17/outbox.cif.g08.bks.cpg/sg13_47_cif.got.tgz:93060.got - 2010.06.03 16:44:36.
