data_PCOD9233898
_publ_section_title
;
Structure prediction by ZEFSAII (Michael W. Deem and Ramdas Pophale) SiO2 
 PCOD9233898
Probable space group: P 2/C
;
_chemical_formula_sum "Si O2"
_cell_formula_units_Z 22
_cell_length_a 5.570371
_cell_length_b 6.912797
_cell_length_c 26.229843
_cell_angle_alpha 90.000000
_cell_angle_beta 72.848235
_cell_angle_gamma 90.000000
_cell_volume 965.109443
_symmetry_space_group_name_H-M "P 2/C"
_symmetry_group_IT_number 13
_symmetry_cell_setting 'monoclinic'
loop_
_space_group_symop_operation_xyz
x,y,z
-x,y,1/2-z
-x,-y,-z
x,-y,1/2+z
loop_
_atom_site_type_symbol
_atom_site_label
_atom_site_fract_x
_atom_site_fract_y
_atom_site_fract_z
Si Si1 0.816060 0.751491 0.115898
Si Si2 0.183469 0.080975 0.071930
Si Si3 0.726370 0.389523 0.515393
Si Si4 0.447046 0.070221 0.156608
Si Si5 0.000000 0.845987 0.750000
Si Si6 0.175993 0.643799 0.838277
O O1 0.650650 0.908074 0.155907
O O2 0.886210 0.577346 0.148198
O O3 0.669723 0.652490 0.077968
O O4 0.045672 0.874828 0.077903
O O5 0.247808 0.184766 0.015520
O O6 0.998858 0.231989 0.112440
O O7 0.406869 0.062339 0.098504
O O8 0.500000 0.500000 0.500000
O O9 0.000000 0.500000 0.500000
O O10 0.198675 0.033302 0.204591
O O11 0.546349 0.283137 0.164323
O O12 0.869008 0.713771 0.715883
#
# Coordination Sequence:
#
# PCOD9233898 Si02
#       6
#     4   4   4   4   2   4
#     4  11  24  42  71 101 140 182 238 288 358 422
#     4  10  23  42  67 100 140 179 232 285 350 417
#     4  12  26  44  74 105 150 196 239 284 357 428
#     4  10  23  42  68  96 132 180 231 298 352 430
#     4  10  22  44  68  90 136 172 232 294 374 418
#     4  10  21  44  66  94 131 177 225 291 356 426
#
# _framework density 22.795342000000002
#
# number of rings (size 3 to 8) (size 9 to 14) (size 15 to 20)
#    0.000    1.455    1.818    2.182    5.091    3.636 
#    0.000   21.818    0.000    0.000    0.000    0.000 
#    0.000    0.000    0.000    0.000    0.000    0.000 
#
# Total GULP energy -122950.645585 kJ/mol
# GULP energy per Si atom -5588.665708 kJ/mol
# Density = 2.274346 g / cm^3
# Si number density = 22.795342 Si / 1000 Ang^3
#
#
#
# Elastic Constant Matrix: (Units=GPa)
#
#
# Indices 1 2 3 4 5 6 
#
# 1 75.0319 28.5029 3.7540 0.0000 13.5244 0.0000
# 2 28.5029 111.2844 6.7260 0.0000 -1.8604 0.0000
# 3 3.7540 6.7260 80.8440 0.0000 12.3269 0.0000
# 4 0.0000 0.0000 0.0000 16.6677 0.0000 -6.8513
# 5 13.5244 -1.8604 12.3269 0.0000 35.9264 0.0000
# 6 0.0000 0.0000 0.0000 -6.8513 0.0000 19.9246
#
#
#
# Elastic Compliance Matrix: (Units=1/GPa)
#
#
# Indices 1 2 3 4 5 6 
#
# 1 0.016086 -0.004264 0.000596 0.000000 -0.006481 0.000000
# 2 -0.004264 0.010182 -0.001028 0.000000 0.002485 0.000000
# 3 0.000596 -0.001028 0.013158 0.000000 -0.004792 0.000000
# 4 0.000000 0.000000 0.000000 0.069873 0.000000 0.024027
# 5 -0.006481 0.002485 -0.004792 0.000000 0.032047 0.000000
# 6 0.000000 0.000000 0.000000 0.024027 0.000000 0.058451
#
#
# Mechanical properties :
#
#
# Convention : Reuss Voigt Hill
#
# Bulk Modulus (GPa) = 33.29666 38.34737 35.82201
# Shear Modulus (GPa) = 22.81012 29.71556 26.26284
#
# Velocity S-wave (km/s) = 3.16673 3.61443 3.39796
# Velocity P-wave (km/s) = 5.29239 5.85472 5.58065
#
# Compressibility (1/GPa) = 0.03003305
#
# Stress axis : x y z
#
# Youngs Moduli (GPa) = 62.16599 98.21346 75.99898
#
# Poissons Ratio (x) = 0.41882 -0.04530
# Poissons Ratio (y) = 0.26510 0.07813
# Poissons Ratio (z) = -0.03705 0.10097
#
# Static dielectric constant tensor:
#      x y z
#    x 1.975650 0.000000 -0.028880 
#    y 0.000000 1.846590 0.000000 
#    z -0.028880 0.000000 1.831740 
# 
# From -- ./inp_files/94568.got.cif
#   From: 2010.05.17/outbox.cif.g08.bks.cpg/sg13_48_cif.got.tgz:94568.got - 2010.06.03 16:44:36.
