data_PCOD9233147
_publ_section_title
;
Structure prediction by ZEFSAII (Michael W. Deem and Ramdas Pophale) SiO2 
 PCOD9233147
Probable space group: P 2/C
;
_chemical_formula_sum "Si O2"
_cell_formula_units_Z 20
_cell_length_a 19.106005
_cell_length_b 8.651079
_cell_length_c 10.854176
_cell_angle_alpha 90.000000
_cell_angle_beta 151.459477
_cell_angle_gamma 90.000000
_cell_volume 857.166453
_symmetry_space_group_name_H-M "P 2/C"
_symmetry_group_IT_number 13
_symmetry_cell_setting 'monoclinic'
loop_
_space_group_symop_operation_xyz
x,y,z
-x,y,1/2-z
-x,-y,-z
x,-y,1/2+z
loop_
_atom_site_type_symbol
_atom_site_label
_atom_site_fract_x
_atom_site_fract_y
_atom_site_fract_z
Si Si1 0.612013 0.309287 0.531270
Si Si2 0.845637 0.445653 0.315896
Si Si3 0.748426 0.047151 0.595892
Si Si4 0.982657 0.154397 0.599443
Si Si5 0.610525 0.254761 0.805566
O O1 0.500000 0.359088 0.250000
O O2 0.750562 0.422713 0.733548
O O3 0.659310 0.137205 0.561673
O O4 0.556618 0.304283 0.586434
O O5 0.894523 0.311371 0.485528
O O6 0.000000 0.500000 0.500000
O O7 0.747496 0.362300 0.058405
O O8 0.851100 0.174347 0.689009
O O9 0.654915 0.927504 0.370965
O O10 0.873177 0.937113 0.843632
O O11 0.000000 0.057480 0.750000
O O12 0.500000 0.268910 0.750000
#
# Coordination Sequence:
#
# PCOD9233147 Si02
#       5
#     4   4   4   4   4
#     4  12  27  45  74 104 144 193 243 292 361 426
#     4  11  25  45  68 103 138 185 235 297 351 420
#     4  10  22  43  68 102 138 184 236 292 352 425
#     4  10  21  39  67 100 138 175 226 290 358 414
#     4  11  27  48  70 105 149 189 241 297 355 431
#
# _framework density 23.332688999999998
#
# number of rings (size 3 to 8) (size 9 to 14) (size 15 to 20)
#    0.000    1.200    2.000    2.400    2.800    9.600 
#    0.000    0.000    0.000    0.000    0.000    0.000 
#    0.000    0.000    0.000    0.000    0.000    0.000 
#
# Total GULP energy -111566.145973 kJ/mol
# GULP energy per Si atom -5578.307299 kJ/mol
# Density = 2.327958 g / cm^3
# Si number density = 23.332689 Si / 1000 Ang^3
#
#
#
# Elastic Constant Matrix: (Units=GPa)
#
#
# Indices 1 2 3 4 5 6 
#
# 1 136.4383 24.6165 62.1784 0.0000 -9.3810 0.0000
# 2 24.6165 96.3335 27.6224 0.0000 9.3318 0.0000
# 3 62.1784 27.6224 104.8841 0.0000 1.4490 0.0000
# 4 0.0000 0.0000 0.0000 10.8045 0.0000 9.1429
# 5 -9.3810 9.3318 1.4490 0.0000 39.3225 0.0000
# 6 0.0000 0.0000 0.0000 9.1429 0.0000 20.9325
#
#
#
# Elastic Compliance Matrix: (Units=1/GPa)
#
#
# Indices 1 2 3 4 5 6 
#
# 1 0.010458 -0.001271 -0.005907 0.000000 0.003014 0.000000
# 2 -0.001271 0.011646 -0.002273 0.000000 -0.002983 0.000000
# 3 -0.005907 -0.002273 0.013653 0.000000 -0.001373 0.000000
# 4 0.000000 0.000000 0.000000 0.146820 0.000000 -0.064128
# 5 0.003014 -0.002983 -0.001373 0.000000 0.026908 0.000000
# 6 0.000000 0.000000 0.000000 -0.064128 0.000000 0.075783
#
#
# Mechanical properties :
#
#
# Convention : Reuss Voigt Hill
#
# Bulk Modulus (GPa) = 59.32143 62.94338 61.13241
# Shear Modulus (GPa) = 16.14016 29.09447 22.61732
#
# Velocity S-wave (km/s) = 2.63295 3.53504 3.11680
# Velocity P-wave (km/s) = 5.89259 6.61037 6.26177
#
# Compressibility (1/GPa) = 0.01685731
#
# Stress axis : x y z
#
# Youngs Moduli (GPa) = 95.62452 85.86707 73.24172
#
# Poissons Ratio (x) = 0.10910 0.43261
# Poissons Ratio (y) = 0.12150 0.16645
# Poissons Ratio (z) = 0.56481 0.19514
#
# Static dielectric constant tensor:
#      x y z
#    x 1.933070 0.000000 0.012440 
#    y 0.000000 1.969460 0.000000 
#    z 0.012440 0.000000 1.909900 
# 
# From -- ./inp_files/59446.got.cif
#   From: 2010.05.17/outbox.cif.g08.bks.cpg/sg13_30_cif.got.tgz:59446.got - 2010.06.03 16:44:36.
