data_PCOD9233658
_publ_section_title
;
Structure prediction by ZEFSAII (Michael W. Deem and Ramdas Pophale) SiO2 
 PCOD9233658
Probable space group: P 2/C
;
_chemical_formula_sum "Si O2"
_cell_formula_units_Z 20
_cell_length_a 5.547675
_cell_length_b 5.273128
_cell_length_c 27.376594
_cell_angle_alpha 90.000000
_cell_angle_beta 66.706319
_cell_angle_gamma 90.000000
_cell_volume 735.585520
_symmetry_space_group_name_H-M "P 2/C"
_symmetry_group_IT_number 13
_symmetry_cell_setting 'monoclinic'
loop_
_space_group_symop_operation_xyz
x,y,z
-x,y,1/2-z
-x,-y,-z
x,-y,1/2+z
loop_
_atom_site_type_symbol
_atom_site_label
_atom_site_fract_x
_atom_site_fract_y
_atom_site_fract_z
Si Si1 0.826909 0.295327 0.674650
Si Si2 0.277348 0.003817 0.914124
Si Si3 0.193415 0.294504 0.010268
Si Si4 0.116671 0.795623 0.792348
Si Si5 0.308017 0.605170 0.609026
O O1 0.712293 0.567792 0.699331
O O2 0.137773 0.368463 0.642771
O O3 0.715283 0.179059 0.633793
O O4 0.782847 0.080096 0.718425
O O5 0.419862 0.733094 0.896803
O O6 0.982617 0.931051 0.952547
O O7 0.368437 0.165511 0.953988
O O8 0.316066 0.404095 0.049857
O O9 0.000000 0.500000 0.000000
O O10 0.000000 0.714822 0.750000
O O11 0.891515 0.815250 0.851935
#
# Coordination Sequence:
#
# PCOD9233658 Si02
#       5
#     4   4   4   4   4
#     4  10  21  42  63  98 132 171 227 285 346 418
#     4  11  22  39  63  92 137 178 223 286 341 416
#     4  11  21  39  59  92 136 180 228 279 339 412
#     4  10  21  42  69  94 130 174 219 284 355 419
#     4  10  23  39  63  97 130 181 226 276 350 415
#
# _framework density 27.189226000000001
#
# number of rings (size 3 to 8) (size 9 to 14) (size 15 to 20)
#    1.200    0.400    4.000    1.200    0.000    2.400 
#    0.000    1.000    0.000    4.800    0.000    0.000 
#    0.000    0.000    0.000    0.000    0.000    0.000 
#
# Total GULP energy -111667.040750 kJ/mol
# GULP energy per Si atom -5583.352038 kJ/mol
# Density = 2.712734 g / cm^3
# Si number density = 27.189226 Si / 1000 Ang^3
#
#
#
# Elastic Constant Matrix: (Units=GPa)
#
#
# Indices 1 2 3 4 5 6 
#
# 1 64.9167 34.0543 44.0096 0.0000 5.5166 0.0000
# 2 34.0543 180.1500 31.6468 0.0000 34.3299 0.0000
# 3 44.0096 31.6468 140.1466 0.0000 27.3703 0.0000
# 4 0.0000 0.0000 0.0000 14.6852 0.0000 29.6180
# 5 5.5166 34.3299 27.3703 0.0000 49.5908 0.0000
# 6 0.0000 0.0000 0.0000 29.6180 0.0000 37.6269
#
#
#
# Elastic Compliance Matrix: (Units=1/GPa)
#
#
# Indices 1 2 3 4 5 6 
#
# 1 0.021506 -0.003616 -0.006678 0.000000 0.003797 0.000000
# 2 -0.003616 0.007056 0.000468 0.000000 -0.004740 0.000000
# 3 -0.006678 0.000468 0.010138 0.000000 -0.005176 0.000000
# 4 0.000000 0.000000 0.000000 -0.115893 0.000000 0.091225
# 5 0.003797 -0.004740 -0.005176 0.000000 0.025881 0.000000
# 6 0.000000 0.000000 0.000000 0.091225 0.000000 -0.045231
#
#
# Mechanical properties :
#
#
# Convention : Reuss Voigt Hill
#
# Bulk Modulus (GPa) = 52.50129 67.18161 59.84145
# Shear Modulus (GPa) = -70.87899 38.74741 -16.06579
#
# Velocity S-wave (km/s) = -5.11130 3.77915 -2.43346
# Velocity P-wave (km/s) = 3.93476 6.61855 3.76317
#
# Compressibility (1/GPa) = 0.01904715
#
# Stress axis : x y z
#
# Youngs Moduli (GPa) = 46.49867 141.73274 98.64041
#
# Poissons Ratio (x) = 0.51245 0.65876
# Poissons Ratio (y) = 0.16812 -0.04616
# Poissons Ratio (z) = 0.31054 -0.06632
#
# Static dielectric constant tensor:
#      x y z
#    x 2.414270 0.000000 -0.078750 
#    y 0.000000 2.261600 0.000000 
#    z -0.078750 0.000000 2.178190 
# 
# From -- ./inp_files/94479.got.cif
#   From: 2010.05.17/outbox.cif.g08.bks.cpg/sg13_48_cif.got.tgz:94479.got - 2010.06.03 16:44:36.
