data_PCOD9233302
_publ_section_title
;
Structure prediction by ZEFSAII (Michael W. Deem and Ramdas Pophale) SiO2 
 PCOD9233302
Probable space group: P 2/C
;
_chemical_formula_sum "Si O2"
_cell_formula_units_Z 20
_cell_length_a 18.636275
_cell_length_b 7.797175
_cell_length_c 17.534876
_cell_angle_alpha 90.000000
_cell_angle_beta 157.222046
_cell_angle_gamma 90.000000
_cell_volume 986.485084
_symmetry_space_group_name_H-M "P 2/C"
_symmetry_group_IT_number 13
_symmetry_cell_setting 'monoclinic'
loop_
_space_group_symop_operation_xyz
x,y,z
-x,y,1/2-z
-x,-y,-z
x,-y,1/2+z
loop_
_atom_site_type_symbol
_atom_site_label
_atom_site_fract_x
_atom_site_fract_y
_atom_site_fract_z
Si Si1 0.254134 0.659538 0.226879
Si Si2 0.696819 0.969227 0.120093
Si Si3 0.931768 0.875838 0.103669
Si Si4 0.824825 0.717129 0.845769
Si Si5 0.608394 0.145099 0.781269
O O1 0.278664 0.460767 0.270389
O O2 0.327477 0.710217 0.215458
O O3 0.337301 0.790947 0.369963
O O4 0.032377 0.697067 0.014552
O O5 0.734512 0.116523 0.219460
O O6 0.886782 0.951247 0.259500
O O7 0.465964 0.974516 0.094881
O O8 0.000000 0.796800 0.250000
O O9 0.846906 0.747854 0.957864
O O10 0.784536 0.026953 0.974661
O O11 0.500000 0.207257 0.750000
#
# Coordination Sequence:
#
# PCOD9233302 Si02
#       5
#     4   4   4   4   4
#     4  10  21  40  64  95 120 158 214 252 303 370
#     4  11  21  40  68  89 121 165 204 261 304 357
#     4  11  21  41  62  90 128 163 205 254 312 370
#     4  10  21  40  68  90 120 165 208 258 305 359
#     4  12  23  38  63  95 124 166 206 250 317 374
#
# _framework density 20.274001999999999
#
# number of rings (size 3 to 8) (size 9 to 14) (size 15 to 20)
#    0.000    1.200    6.000    1.800    0.000    0.800 
#    0.000    8.000    0.000    0.000    0.000    0.000 
#    0.000    0.000    0.000    0.000    0.000    0.000 
#
# Total GULP energy -111815.793963 kJ/mol
# GULP energy per Si atom -5590.789698 kJ/mol
# Density = 2.022786 g / cm^3
# Si number density = 20.274002 Si / 1000 Ang^3
#
#
#
# Elastic Constant Matrix: (Units=GPa)
#
#
# Indices 1 2 3 4 5 6 
#
# 1 142.3376 34.9362 22.2430 0.0000 -5.1888 0.0000
# 2 34.9362 100.7809 12.6855 0.0000 -11.9575 0.0000
# 3 22.2430 12.6855 62.5441 0.0000 -7.0075 0.0000
# 4 0.0000 0.0000 0.0000 12.9033 0.0000 5.0955
# 5 -5.1888 -11.9575 -7.0075 0.0000 43.1399 0.0000
# 6 0.0000 0.0000 0.0000 5.0955 0.0000 13.5587
#
#
#
# Elastic Compliance Matrix: (Units=1/GPa)
#
#
# Indices 1 2 3 4 5 6 
#
# 1 0.008000 -0.002490 -0.002352 0.000000 -0.000110 0.000000
# 2 -0.002490 0.011237 -0.001098 0.000000 0.002637 0.000000
# 3 -0.002352 -0.001098 0.017297 0.000000 0.002222 0.000000
# 4 0.000000 0.000000 0.000000 0.091005 0.000000 -0.034201
# 5 -0.000110 0.002637 0.002222 0.000000 0.024259 0.000000
# 6 0.000000 0.000000 0.000000 -0.034201 0.000000 0.086606
#
#
# Mechanical properties :
#
#
# Convention : Reuss Voigt Hill
#
# Bulk Modulus (GPa) = 40.56364 49.48799 45.02582
# Shear Modulus (GPa) = 19.34206 29.64024 24.49115
#
# Velocity S-wave (km/s) = 3.09209 3.82774 3.47941
# Velocity P-wave (km/s) = 5.72706 6.63310 6.19666
#
# Compressibility (1/GPa) = 0.02465262
#
# Stress axis : x y z
#
# Youngs Moduli (GPa) = 124.99381 88.99288 57.81328
#
# Poissons Ratio (x) = 0.22162 0.13600
# Poissons Ratio (y) = 0.31128 0.06348
# Poissons Ratio (z) = 0.29404 0.09772
#
# Static dielectric constant tensor:
#      x y z
#    x 1.728470 0.000000 0.023210 
#    y 0.000000 1.687550 0.000000 
#    z 0.023210 0.000000 1.730800 
# 
# From -- ./inp_files/69333.got.cif
#   From: 2010.05.17/outbox.cif.g08.bks.cpg/sg13_35_cif.got.tgz:69333.got - 2010.06.03 16:44:36.
