data_PCOD9233648
_publ_section_title
;
Structure prediction by ZEFSAII (Michael W. Deem and Ramdas Pophale) SiO2 
 PCOD9233648
Probable space group: P 2/C
;
_chemical_formula_sum "Si O2"
_cell_formula_units_Z 20
_cell_length_a 4.849843
_cell_length_b 13.809886
_cell_length_c 12.244233
_cell_angle_alpha 90.000000
_cell_angle_beta 96.440203
_cell_angle_gamma 90.000000
_cell_volume 814.891977
_symmetry_space_group_name_H-M "P 2/C"
_symmetry_group_IT_number 13
_symmetry_cell_setting 'monoclinic'
loop_
_space_group_symop_operation_xyz
x,y,z
-x,y,1/2-z
-x,-y,-z
x,-y,1/2+z
loop_
_atom_site_type_symbol
_atom_site_label
_atom_site_fract_x
_atom_site_fract_y
_atom_site_fract_z
Si Si1 0.000000 0.910561 0.250000
Si Si2 0.741087 0.807696 0.931001
Si Si3 0.700596 0.787412 0.423657
Si Si4 0.141120 0.387054 0.144060
Si Si5 0.500000 0.956703 0.750000
Si Si6 0.696488 0.431144 0.935223
O O1 0.841539 0.843162 0.330487
O O2 0.744235 0.980656 0.204681
O O3 0.657274 0.700143 0.883011
O O4 0.658219 0.888860 0.842728
O O5 0.578319 0.827377 0.035378
O O6 0.066760 0.798992 0.970602
O O7 0.622677 0.676164 0.392812
O O8 0.247149 0.496641 0.162448
O O9 0.000000 0.356164 0.250000
O O10 0.944702 0.404824 0.030280
O O11 0.500000 0.500000 0.000000
#
# Coordination Sequence:
#
# PCOD9233648 Si02
#       6
#     2   4   4   4   2   4
#     4  12  28  48  70 104 142 190 250 290 370 430
#     4  11  25  44  73 103 140 182 240 303 355 408
#     4  11  25  46  71 103 146 186 227 299 356 429
#     4  10  23  39  66 103 139 184 230 285 348 423
#     4  12  28  46  74 106 134 190 252 304 354 430
#     4  10  21  42  63 102 141 182 228 277 348 433
#
# _framework density 24.543133000000001
#
# number of rings (size 3 to 8) (size 9 to 14) (size 15 to 20)
#    0.000    1.200    2.000    2.400    8.400    5.600 
#    0.000    2.000    0.000    0.000    0.000    0.000 
#    0.000    0.000    0.000    0.000    0.000    0.000 
#
# Total GULP energy -111677.007680 kJ/mol
# GULP energy per Si atom -5583.850384 kJ/mol
# Density = 2.448727 g / cm^3
# Si number density = 24.543133 Si / 1000 Ang^3
#
#
#
# Elastic Constant Matrix: (Units=GPa)
#
#
# Indices 1 2 3 4 5 6 
#
# 1 100.8809 44.8586 13.4096 0.0000 -14.5425 0.0000
# 2 44.8586 185.6762 64.0097 0.0000 -11.0136 0.0000
# 3 13.4096 64.0097 85.0548 0.0000 -24.4253 0.0000
# 4 0.0000 0.0000 0.0000 108.1804 0.0000 95.9447
# 5 -14.5425 -11.0136 -24.4253 0.0000 41.7664 0.0000
# 6 0.0000 0.0000 0.0000 95.9447 0.0000 187.3115
#
#
#
# Elastic Compliance Matrix: (Units=1/GPa)
#
#
# Indices 1 2 3 4 5 6 
#
# 1 0.011711 -0.003190 0.001784 0.000000 0.004279 0.000000
# 2 -0.003190 0.008225 -0.006470 0.000000 -0.002725 0.000000
# 3 0.001784 -0.006470 0.019269 0.000000 0.010184 0.000000
# 4 0.000000 0.000000 0.000000 0.016939 0.000000 -0.008676
# 5 0.004279 -0.002725 0.010184 0.000000 0.030670 0.000000
# 6 0.000000 0.000000 0.000000 -0.008676 0.000000 0.009783
#
#
# Mechanical properties :
#
#
# Convention : Reuss Voigt Hill
#
# Bulk Modulus (GPa) = 42.63919 68.46310 55.55115
# Shear Modulus (GPa) = 41.60844 84.07391 62.84118
#
# Velocity S-wave (km/s) = 4.12189 5.85918 5.06557
# Velocity P-wave (km/s) = 6.32963 8.58655 7.54298
#
# Compressibility (1/GPa) = 0.02345260
#
# Stress axis : x y z
#
# Youngs Moduli (GPa) = 85.38862 121.57750 51.89587
#
# Poissons Ratio (x) = 0.38788 -0.09256
# Poissons Ratio (y) = 0.27242 0.33575
# Poissons Ratio (z) = -0.15230 0.78657
#
# Static dielectric constant tensor:
#      x y z
#    x 2.078890 0.000000 0.058150 
#    y 0.000000 2.024840 0.000000 
#    z 0.058150 0.000000 2.001890 
# 
# From -- ./inp_files/43602.got.cif
#   From: 2010.05.17/outbox.cif.g08.bks.cpg/sg13_22_cif.got.tgz:43602.got - 2010.06.03 16:44:36.
