data_PCOD9233407
_publ_section_title
;
Structure prediction by ZEFSAII (Michael W. Deem and Ramdas Pophale) SiO2 
 PCOD9233407
Probable space group: P 2/C
;
_chemical_formula_sum "Si O2"
_cell_formula_units_Z 18
_cell_length_a 20.140258
_cell_length_b 7.348018
_cell_length_c 15.706672
_cell_angle_alpha 90.000000
_cell_angle_beta 20.640309
_cell_angle_gamma 90.000000
_cell_volume 819.367367
_symmetry_space_group_name_H-M "P 2/C"
_symmetry_group_IT_number 13
_symmetry_cell_setting 'monoclinic'
loop_
_space_group_symop_operation_xyz
x,y,z
-x,y,1/2-z
-x,-y,-z
x,-y,1/2+z
loop_
_atom_site_type_symbol
_atom_site_label
_atom_site_fract_x
_atom_site_fract_y
_atom_site_fract_z
Si Si1 0.206589 0.661705 0.039399
Si Si2 0.782864 0.790530 0.780411
Si Si3 0.432888 0.809295 0.622732
Si Si4 0.500000 0.620471 0.250000
Si Si5 0.813273 0.771595 0.239630
O O1 0.186359 0.715619 0.162351
O O2 0.000000 0.618859 0.250000
O O3 0.305076 0.815467 0.861376
O O4 0.360824 0.500851 0.858447
O O5 0.697799 0.724568 0.792904
O O6 0.993618 0.715502 0.537402
O O7 0.802187 0.008631 0.754037
O O8 0.638790 0.736968 0.025731
O O9 0.625505 0.709510 0.417062
O O10 0.500000 0.000000 0.500000
#
# Coordination Sequence:
#
# PCOD9233407 Si02
#       5
#     4   4   4   2   4
#     4  12  24  44  65  96 135 178 214 265 335 395
#     4  10  24  42  66  99 125 170 223 271 325 383
#     4  10  21  40  69  98 122 167 224 272 318 378
#     4  12  28  42  62  98 144 174 208 272 332 404
#     4  10  21  44  70  93 126 168 224 277 317 382
#
# _framework density 21.968167999999999
#
# number of rings (size 3 to 8) (size 9 to 14) (size 15 to 20)
#    0.000    1.333    4.444    0.000    6.222    3.556 
#    0.000    1.111    0.000    0.000    0.000    0.000 
#    0.000    0.000    0.000    0.000    0.000    0.000 
#
# Total GULP energy -100509.839131 kJ/mol
# GULP energy per Si atom -5583.879952 kJ/mol
# Density = 2.191817 g / cm^3
# Si number density = 21.968168 Si / 1000 Ang^3
#
#
#
# Elastic Constant Matrix: (Units=GPa)
#
#
# Indices 1 2 3 4 5 6 
#
# 1 101.8908 9.6430 61.5934 0.0000 -30.2401 0.0000
# 2 9.6430 53.0554 28.6523 0.0000 -6.3250 0.0000
# 3 61.5934 28.6523 205.7798 0.0000 -15.6673 0.0000
# 4 0.0000 0.0000 0.0000 7.9104 0.0000 -4.5694
# 5 -30.2401 -6.3250 -15.6673 0.0000 56.8866 0.0000
# 6 0.0000 0.0000 0.0000 -4.5694 0.0000 5.1656
#
#
#
# Elastic Compliance Matrix: (Units=1/GPa)
#
#
# Indices 1 2 3 4 5 6 
#
# 1 0.013943 0.000239 -0.003718 0.000000 0.006415 0.000000
# 2 0.000239 0.020514 -0.002803 0.000000 0.001636 0.000000
# 3 -0.003718 -0.002803 0.006321 0.000000 -0.000547 0.000000
# 4 0.000000 0.000000 0.000000 0.258506 0.000000 0.228670
# 5 0.006415 0.001636 -0.000547 0.000000 0.021020 0.000000
# 6 0.000000 0.000000 0.000000 0.228670 0.000000 0.395866
#
#
# Mechanical properties :
#
#
# Convention : Reuss Voigt Hill
#
# Bulk Modulus (GPa) = 35.44551 62.27815 48.86183
# Shear Modulus (GPa) = 6.77378 31.38165 19.07772
#
# Velocity S-wave (km/s) = 1.75788 3.78366 2.95010
# Velocity P-wave (km/s) = 4.50446 6.89194 5.82190
#
# Compressibility (1/GPa) = 0.02821232
#
# Stress axis : x y z
#
# Youngs Moduli (GPa) = 71.71864 48.74796 158.19911
#
# Poissons Ratio (x) = -0.01163 0.58823
# Poissons Ratio (y) = -0.01711 0.44345
# Poissons Ratio (z) = 0.26667 0.13665
#
# Static dielectric constant tensor:
#      x y z
#    x 1.822060 0.000000 -0.065810 
#    y 0.000000 1.857250 0.000000 
#    z -0.065810 0.000000 1.916480 
# 
# From -- ./inp_files/56999.got.cif
#   From: 2010.05.17/outbox.cif.g08.bks.cpg/sg13_29_cif.got.tgz:56999.got - 2010.06.03 16:44:36.
