data_PCOD9233098
_publ_section_title
;
Structure prediction by ZEFSAII (Michael W. Deem and Ramdas Pophale) SiO2 
 PCOD9233098
Probable space group: P 2/C
;
_chemical_formula_sum "Si O2"
_cell_formula_units_Z 32
_cell_length_a 11.062475
_cell_length_b 9.179844
_cell_length_c 23.628229
_cell_angle_alpha 90.000000
_cell_angle_beta 36.452290
_cell_angle_gamma 90.000000
_cell_volume 1425.664133
_symmetry_space_group_name_H-M "P 2/C"
_symmetry_group_IT_number 13
_symmetry_cell_setting 'monoclinic'
loop_
_space_group_symop_operation_xyz
x,y,z
-x,y,1/2-z
-x,-y,-z
x,-y,1/2+z
loop_
_atom_site_type_symbol
_atom_site_label
_atom_site_fract_x
_atom_site_fract_y
_atom_site_fract_z
Si Si1 0.347893 0.086963 0.097684
Si Si2 0.829659 0.569907 0.524478
Si Si3 0.615794 0.971506 0.287943
Si Si4 0.437222 0.660739 0.036422
Si Si5 0.805529 0.084799 0.049176
Si Si6 0.001657 0.651623 0.160319
Si Si7 0.544568 0.351633 0.844457
Si Si8 0.961002 0.992941 0.374835
O O1 0.342120 0.016037 0.161510
O O2 0.455748 0.243859 0.052729
O O3 0.136769 0.074781 0.141760
O O4 0.500000 0.000000 0.000000
O O5 0.818674 0.740977 0.543836
O O6 0.623395 0.473146 0.607979
O O7 0.000000 0.500000 0.500000
O O8 0.908422 0.575330 0.429796
O O9 0.410541 0.044310 0.344696
O O10 0.563607 0.798435 0.301751
O O11 0.819807 0.042543 0.184832
O O12 0.511292 0.701065 0.071011
O O13 0.192720 0.656031 0.130482
O O14 0.500000 0.500000 0.000000
O O15 0.803125 0.024509 0.985128
O O16 0.000000 0.000000 0.000000
O O17 0.777695 0.589465 0.256798
O O18 0.978761 0.826109 0.162036
#
# Coordination Sequence:
#
# PCOD9233098 Si02
#       8
#     4   4   4   4   4   4   4   4
#     4  12  19  36  64  92 125 162 202 247 300 364
#     4  11  24  43  64  87 120 165 212 260 318 379
#     4  11  22  39  65  95 124 160 209 259 313 371
#     4  12  22  37  61  90 131 167 198 244 308 368
#     4  11  23  43  65  87 122 161 208 267 319 374
#     4  10  21  40  63  90 124 164 209 254 310 379
#     4  11  22  39  65  92 122 164 208 256 313 379
#     4  10  21  39  65  94 122 162 209 258 311 372
#
# _framework density 22.445679999999999
#
# number of rings (size 3 to 8) (size 9 to 14) (size 15 to 20)
#    0.000    1.000    5.000    2.250    0.000    3.000 
#    2.250    6.250    0.000    0.000    0.000    0.000 
#    0.000    0.000    0.000    0.000    0.000    0.000 
#
# Total GULP energy -178410.921541 kJ/mol
# GULP energy per Si atom -5575.341298 kJ/mol
# Density = 2.239459 g / cm^3
# Si number density = 22.445680 Si / 1000 Ang^3
#
#
#
# Elastic Constant Matrix: (Units=GPa)
#
#
# Indices 1 2 3 4 5 6 
#
# 1 93.7016 29.3802 32.5113 0.0000 -34.1179 0.0000
# 2 29.3802 94.3068 37.5327 0.0000 -14.4357 0.0000
# 3 32.5113 37.5327 130.1268 0.0000 -36.3450 0.0000
# 4 0.0000 0.0000 0.0000 24.5538 0.0000 -6.1560
# 5 -34.1179 -14.4357 -36.3450 0.0000 45.9415 0.0000
# 6 0.0000 0.0000 0.0000 -6.1560 0.0000 26.9161
#
#
#
# Elastic Compliance Matrix: (Units=1/GPa)
#
#
# Indices 1 2 3 4 5 6 
#
# 1 0.015507 -0.003219 -0.000015 0.000000 0.010493 0.000000
# 2 -0.003219 0.012710 -0.003099 0.000000 -0.000848 0.000000
# 3 -0.000015 -0.003099 0.010663 0.000000 0.007451 0.000000
# 4 0.000000 0.000000 0.000000 0.043204 0.000000 0.009881
# 5 0.010493 -0.000848 0.007451 0.000000 0.035187 0.000000
# 6 0.000000 0.000000 0.000000 0.009881 0.000000 0.039412
#
#
# Mechanical properties :
#
#
# Convention : Reuss Voigt Hill
#
# Bulk Modulus (GPa) = 38.14601 57.44264 47.79432
# Shear Modulus (GPa) = 28.07594 34.06303 31.06949
#
# Velocity S-wave (km/s) = 3.54056 3.89983 3.72453
# Velocity P-wave (km/s) = 5.80911 6.77685 6.31155
#
# Compressibility (1/GPa) = 0.02621506
#
# Stress axis : x y z
#
# Youngs Moduli (GPa) = 64.48574 78.67906 93.77816
#
# Poissons Ratio (x) = 0.25326 0.00143
# Poissons Ratio (y) = 0.20757 0.29058
# Poissons Ratio (z) = 0.00099 0.24379
#
# Static dielectric constant tensor:
#      x y z
#    x 1.920900 0.000000 -0.041720 
#    y 0.000000 5.326160 0.000000 
#    z -0.041720 0.000000 1.926380 
# 
# From -- ./inp_files/96661.got.cif
#   From: 2010.05.17/outbox.cif.g08.bks.cpg/sg13_49_cif.got.tgz:96661.got - 2010.06.03 16:44:36.
