data_PCOD9233067
_publ_section_title
;
Structure prediction by ZEFSAII (Michael W. Deem and Ramdas Pophale) SiO2 
 PCOD9233067
Probable space group: P 2/C
;
_chemical_formula_sum "Si O2"
_cell_formula_units_Z 20
_cell_length_a 11.418544
_cell_length_b 16.722563
_cell_length_c 13.811902
_cell_angle_alpha 90.000000
_cell_angle_beta 20.603823
_cell_angle_gamma 90.000000
_cell_volume 928.092775
_symmetry_space_group_name_H-M "P 2/C"
_symmetry_group_IT_number 13
_symmetry_cell_setting 'monoclinic'
loop_
_space_group_symop_operation_xyz
x,y,z
-x,y,1/2-z
-x,-y,-z
x,-y,1/2+z
loop_
_atom_site_type_symbol
_atom_site_label
_atom_site_fract_x
_atom_site_fract_y
_atom_site_fract_z
Si Si1 0.301343 0.378679 0.615246
Si Si2 0.743828 0.942449 0.871147
Si Si3 0.759093 0.277973 0.121149
Si Si4 0.750535 0.826709 0.133590
Si Si5 0.633424 0.550471 0.038585
O O1 0.553971 0.318629 0.367061
O O2 0.332476 0.462265 0.534525
O O3 0.402399 0.399175 0.646901
O O4 0.935028 0.342115 0.913041
O O5 0.000000 0.982962 0.750000
O O6 0.973319 0.883439 0.629941
O O7 0.498743 0.885477 0.119419
O O8 0.500000 0.000000 0.000000
O O9 0.500000 0.233355 0.250000
O O10 0.052761 0.228007 0.943007
O O11 0.500000 0.784151 0.250000
O O12 0.500000 0.545462 0.250000
O O13 0.000000 0.587156 0.750000
#
# Coordination Sequence:
#
# PCOD9233067 Si02
#       5
#     4   4   4   4   4
#     4  11  24  39  59  87 118 155 202 259 310 363
#     4  10  21  39  64  92 123 158 196 243 295 346
#     4  12  24  40  62  87 121 164 204 247 306 365
#     4  10  23  41  60  89 126 160 198 246 294 350
#     4  11  22  39  61  85 115 153 203 257 314 372
#
# _framework density 21.549569000000002
#
# number of rings (size 3 to 8) (size 9 to 14) (size 15 to 20)
#    0.000    1.200    0.000    6.600    0.000    7.200 
#    0.000    0.000    0.000    0.000    0.000    0.000 
#    0.000    0.000    0.000    0.000    0.000    0.000 
#
# Total GULP energy -111753.039369 kJ/mol
# GULP energy per Si atom -5587.651968 kJ/mol
# Density = 2.150052 g / cm^3
# Si number density = 21.549569 Si / 1000 Ang^3
#
#
#
# Elastic Constant Matrix: (Units=GPa)
#
#
# Indices 1 2 3 4 5 6 
#
# 1 172.2546 49.3908 60.4255 0.0000 -25.0847 0.0000
# 2 49.3908 37.3434 18.8830 0.0000 -17.5240 0.0000
# 3 60.4255 18.8830 129.3037 0.0000 10.1712 0.0000
# 4 0.0000 0.0000 0.0000 31.4233 0.0000 -9.8375
# 5 -25.0847 -17.5240 10.1712 0.0000 64.6813 0.0000
# 6 0.0000 0.0000 0.0000 -9.8375 0.0000 40.9087
#
#
#
# Elastic Compliance Matrix: (Units=1/GPa)
#
#
# Indices 1 2 3 4 5 6 
#
# 1 0.010485 -0.011485 -0.003339 0.000000 0.001480 0.000000
# 2 -0.011485 0.047148 -0.002200 0.000000 0.008665 0.000000
# 3 -0.003339 -0.002200 0.009886 0.000000 -0.003446 0.000000
# 4 0.000000 0.000000 0.000000 0.034414 0.000000 0.008276
# 5 0.001480 0.008665 -0.003446 0.000000 0.018924 0.000000
# 6 0.000000 0.000000 0.000000 0.008276 0.000000 0.026435
#
#
# Mechanical properties :
#
#
# Convention : Reuss Voigt Hill
#
# Bulk Modulus (GPa) = 29.87623 66.25557 48.06590
# Shear Modulus (GPa) = 25.97439 41.41616 33.69528
#
# Velocity S-wave (km/s) = 3.47556 4.38871 3.95855
# Velocity P-wave (km/s) = 5.47723 7.51621 6.57622
#
# Compressibility (1/GPa) = 0.03347143
#
# Stress axis : x y z
#
# Youngs Moduli (GPa) = 95.37113 21.21000 101.14886
#
# Poissons Ratio (x) = 0.24360 0.33775
# Poissons Ratio (y) = 1.09535 0.22250
# Poissons Ratio (z) = 0.31846 0.04666
#
# Static dielectric constant tensor:
#      x y z
#    x 1.835330 0.000000 -0.022660 
#    y 0.000000 1.755640 0.000000 
#    z -0.022660 0.000000 1.750830 
# 
# From -- ./inp_files/51590.got.cif
#   From: 2010.05.17/outbox.cif.g08.bks.cpg/sg13_26_cif.got.tgz:51590.got - 2010.06.03 16:44:36.
