data_PCOD9233755
_publ_section_title
;
Structure prediction by ZEFSAII (Michael W. Deem and Ramdas Pophale) SiO2 
 PCOD9233755
Probable space group: P 2/C
;
_chemical_formula_sum "Si O2"
_cell_formula_units_Z 20
_cell_length_a 5.253992
_cell_length_b 9.915858
_cell_length_c 16.955822
_cell_angle_alpha 90.000000
_cell_angle_beta 101.136581
_cell_angle_gamma 90.000000
_cell_volume 866.727577
_symmetry_space_group_name_H-M "P 2/C"
_symmetry_group_IT_number 13
_symmetry_cell_setting 'monoclinic'
loop_
_space_group_symop_operation_xyz
x,y,z
-x,y,1/2-z
-x,-y,-z
x,-y,1/2+z
loop_
_atom_site_type_symbol
_atom_site_label
_atom_site_fract_x
_atom_site_fract_y
_atom_site_fract_z
Si Si1 0.291519 0.342774 0.673673
Si Si2 0.063295 0.553983 0.915277
Si Si3 0.094797 0.168708 0.057641
Si Si4 0.215820 0.030890 0.700501
Si Si5 0.555578 0.269032 0.989784
O O1 0.500000 0.391024 0.750000
O O2 0.043967 0.439645 0.647882
O O3 0.203828 0.192024 0.690226
O O4 0.434633 0.326388 0.597530
O O5 0.902375 0.691436 0.892130
O O6 0.000000 0.500000 0.000000
O O7 0.354459 0.613026 0.943136
O O8 0.170068 0.046021 0.116456
O O9 0.202485 0.833952 0.988361
O O10 0.291271 0.198799 0.998411
O O11 0.500000 0.998039 0.750000
O O12 0.000000 0.987165 0.750000
#
# Coordination Sequence:
#
# PCOD9233755 Si02
#       5
#     4   4   4   4   4
#     4  10  22  42  63  98 138 174 209 273 336 386
#     4   8  19  41  63  97 125 167 213 274 314 390
#     4  10  21  42  70  90 126 174 215 275 314 381
#     4  11  25  44  63  95 136 171 218 273 328 391
#     4   9  21  40  68  95 124 168 224 266 311 387
#
# _framework density 23.075301
#
# number of rings (size 3 to 8) (size 9 to 14) (size 15 to 20)
#    1.200    1.200    0.000    1.200    0.000    8.800 
#    7.200    1.000    0.000    0.000    0.000    0.000 
#    0.000    0.000    0.000    0.000    0.000    0.000 
#
# Total GULP energy -111696.552513 kJ/mol
# GULP energy per Si atom -5584.827626 kJ/mol
# Density = 2.302278 g / cm^3
# Si number density = 23.075301 Si / 1000 Ang^3
#
#
#
# Elastic Constant Matrix: (Units=GPa)
#
#
# Indices 1 2 3 4 5 6 
#
# 1 110.7313 22.3965 24.3991 0.0000 -3.4696 0.0000
# 2 22.3965 72.9530 28.3103 0.0000 17.3524 0.0000
# 3 24.3991 28.3103 94.9838 0.0000 19.7956 0.0000
# 4 0.0000 0.0000 0.0000 34.5485 0.0000 24.9242
# 5 -3.4696 17.3524 19.7956 0.0000 35.8825 0.0000
# 6 0.0000 0.0000 0.0000 24.9242 0.0000 32.0091
#
#
#
# Elastic Compliance Matrix: (Units=1/GPa)
#
#
# Indices 1 2 3 4 5 6 
#
# 1 0.010345 -0.003119 -0.002543 0.000000 0.003912 0.000000
# 2 -0.003119 0.017501 -0.002924 0.000000 -0.007152 0.000000
# 3 -0.002543 -0.002924 0.013344 0.000000 -0.006193 0.000000
# 4 0.000000 0.000000 0.000000 0.066046 0.000000 -0.051428
# 5 0.003912 -0.007152 -0.006193 0.000000 0.035122 0.000000
# 6 0.000000 0.000000 0.000000 -0.051428 0.000000 0.071286
#
#
# Mechanical properties :
#
#
# Convention : Reuss Voigt Hill
#
# Bulk Modulus (GPa) = 41.63895 47.65332 44.64614
# Shear Modulus (GPa) = 20.93609 34.05883 27.49746
#
# Velocity S-wave (km/s) = 3.01540 3.84602 3.45576
# Velocity P-wave (km/s) = 5.49614 6.35756 5.94248
#
# Compressibility (1/GPa) = 0.02401597
#
# Stress axis : x y z
#
# Youngs Moduli (GPa) = 96.66822 57.13944 74.94213
#
# Poissons Ratio (x) = 0.17824 0.19056
# Poissons Ratio (y) = 0.30155 0.21917
# Poissons Ratio (z) = 0.24580 0.16710
#
# Static dielectric constant tensor:
#      x y z
#    x 1.907380 0.000000 -0.026470 
#    y 0.000000 1.904410 0.000000 
#    z -0.026470 0.000000 1.840950 
# 
# From -- ./inp_files/60722.got.cif
#   From: 2010.05.17/outbox.cif.g08.bks.cpg/sg13_31_cif.got.tgz:60722.got - 2010.06.03 16:44:36.
