data_PCOD9233516
_publ_section_title
;
Structure prediction by ZEFSAII (Michael W. Deem and Ramdas Pophale) SiO2 
 PCOD9233516
Probable space group: P 2/C
;
_chemical_formula_sum "Si O2"
_cell_formula_units_Z 26
_cell_length_a 7.725278
_cell_length_b 17.004496
_cell_length_c 10.565221
_cell_angle_alpha 90.000000
_cell_angle_beta 128.627108
_cell_angle_gamma 90.000000
_cell_volume 1084.258207
_symmetry_space_group_name_H-M "P 2/C"
_symmetry_group_IT_number 13
_symmetry_cell_setting 'monoclinic'
loop_
_space_group_symop_operation_xyz
x,y,z
-x,y,1/2-z
-x,-y,-z
x,-y,1/2+z
loop_
_atom_site_type_symbol
_atom_site_label
_atom_site_fract_x
_atom_site_fract_y
_atom_site_fract_z
Si Si1 0.724357 0.934378 0.705786
Si Si2 0.279195 0.310084 0.554808
Si Si3 0.000000 0.796978 0.750000
Si Si4 0.778644 0.945444 0.004611
Si Si5 0.014730 0.217536 0.611951
Si Si6 0.170057 0.638500 0.592372
Si Si7 0.487457 0.409512 0.029447
O O1 0.766130 0.979153 0.856502
O O2 0.467418 0.910378 0.582499
O O3 0.871261 0.857214 0.780013
O O4 0.784823 0.986327 0.611702
O O5 0.481066 0.357094 0.583581
O O6 0.179424 0.256755 0.397750
O O7 0.247971 0.247023 0.656388
O O8 0.089128 0.375333 0.498189
O O9 0.953500 0.874442 0.088999
O O10 0.839451 0.268339 0.448528
O O11 0.000000 0.244731 0.750000
O O12 0.321242 0.615787 0.780955
O O13 0.264900 0.601149 0.508770
O O14 0.500000 0.500000 0.000000
#
# Coordination Sequence:
#
# PCOD9233516 Si02
#       7
#     4   4   2   4   4   4   4
#     4  10  23  37  62  97 134 179 233 290 352 400
#     4  10  21  41  65  96 130 171 227 275 332 412
#     4  12  20  36  70  96 122 182 238 280 336 414
#     4  10  22  42  62  94 140 182 230 293 351 405
#     4  10  22  42  67  94 132 182 229 289 338 407
#     4   9  22  43  68  95 130 171 217 275 333 414
#     4  11  22  41  70 104 128 166 216 274 352 421
#
# _framework density 23.979527000000001
#
# number of rings (size 3 to 8) (size 9 to 14) (size 15 to 20)
#    0.923    0.923    3.077    0.000    3.231    3.692 
#    5.538    0.000    0.000    0.000    0.000    0.000 
#    0.000    0.000    0.000    0.000    0.000    0.000 
#
# Total GULP energy -144949.361357 kJ/mol
# GULP energy per Si atom -5574.975437 kJ/mol
# Density = 2.392495 g / cm^3
# Si number density = 23.979527 Si / 1000 Ang^3
#
#
#
# Elastic Constant Matrix: (Units=GPa)
#
#
# Indices 1 2 3 4 5 6 
#
# 1 119.9483 58.7120 42.2881 0.0000 -37.8721 0.0000
# 2 58.7120 145.5224 42.7455 0.0000 -19.6499 0.0000
# 3 42.2881 42.7455 74.3521 0.0000 -24.2529 0.0000
# 4 0.0000 0.0000 0.0000 23.1559 0.0000 -12.5925
# 5 -37.8721 -19.6499 -24.2529 0.0000 50.6111 0.0000
# 6 0.0000 0.0000 0.0000 -12.5925 0.0000 40.4950
#
#
#
# Elastic Compliance Matrix: (Units=1/GPa)
#
#
# Indices 1 2 3 4 5 6 
#
# 1 0.013472 -0.003495 -0.003327 0.000000 0.007130 0.000000
# 2 -0.003495 0.009227 -0.003558 0.000000 -0.000738 0.000000
# 3 -0.003327 -0.003558 0.019112 0.000000 0.005288 0.000000
# 4 0.000000 0.000000 0.000000 0.051975 0.000000 0.016162
# 5 0.007130 -0.000738 0.005288 0.000000 0.027341 0.000000
# 6 0.000000 0.000000 0.000000 0.016162 0.000000 0.029720
#
#
# Mechanical properties :
#
#
# Convention : Reuss Voigt Hill
#
# Bulk Modulus (GPa) = 47.50348 69.70156 58.60252
# Shear Modulus (GPa) = 27.99177 35.92421 31.95799
#
# Velocity S-wave (km/s) = 3.42031 3.87475 3.65460
# Velocity P-wave (km/s) = 5.95408 7.01060 6.50383
#
# Compressibility (1/GPa) = 0.02105109
#
# Stress axis : x y z
#
# Youngs Moduli (GPa) = 74.22897 108.37318 52.32357
#
# Poissons Ratio (x) = 0.37880 0.17409
# Poissons Ratio (y) = 0.25945 0.18614
# Poissons Ratio (z) = 0.24697 0.38554
#
# Static dielectric constant tensor:
#      x y z
#    x 2.164270 0.000000 0.394360 
#    y 0.000000 1.835050 0.000000 
#    z 0.394360 0.000000 3.125080 
# 
# From -- ./inp_files/30232.got.cif
#   From: 2010.05.17/outbox.cif.g08.bks.cpg/sg13_16_cif.got.tgz:30232.got - 2010.06.03 16:44:36.
