data_PCOD9233184
_publ_section_title
;
Structure prediction by ZEFSAII (Michael W. Deem and Ramdas Pophale) SiO2 
 PCOD9233184
Probable space group: P 2/C
;
_chemical_formula_sum "Si O2"
_cell_formula_units_Z 30
_cell_length_a 8.175889
_cell_length_b 9.089646
_cell_length_c 20.641593
_cell_angle_alpha 90.000000
_cell_angle_beta 97.232869
_cell_angle_gamma 90.000000
_cell_volume 1521.792732
_symmetry_space_group_name_H-M "P 2/C"
_symmetry_group_IT_number 13
_symmetry_cell_setting 'monoclinic'
loop_
_space_group_symop_operation_xyz
x,y,z
-x,y,1/2-z
-x,-y,-z
x,-y,1/2+z
loop_
_atom_site_type_symbol
_atom_site_label
_atom_site_fract_x
_atom_site_fract_y
_atom_site_fract_z
Si Si1 0.345818 0.675215 0.109112
Si Si2 0.692346 0.782150 0.893767
Si Si3 0.944999 0.447353 0.427563
Si Si4 0.000000 0.936419 0.750000
Si Si5 0.329171 0.052458 0.701320
Si Si6 0.179277 0.267015 0.360295
Si Si7 0.580924 0.158124 0.020576
Si Si8 0.477025 0.437397 0.318759
O O1 0.499826 0.565268 0.127676
O O2 0.335433 0.789352 0.167515
O O3 0.185731 0.570011 0.101297
O O4 0.367273 0.759887 0.042395
O O5 0.685890 0.939981 0.860375
O O6 0.563988 0.764203 0.945930
O O7 0.629585 0.674019 0.834509
O O8 0.860710 0.714138 0.927172
O O9 0.093791 0.410008 0.387401
O O10 0.000000 0.500000 0.500000
O O11 0.835783 0.025768 0.763851
O O12 0.943419 0.832192 0.687857
O O13 0.500000 0.026603 0.750000
O O14 0.267250 0.169055 0.420858
O O15 0.319760 0.335323 0.321300
O O16 0.500000 0.000000 0.000000
O O17 0.500000 0.506318 0.250000
#
# Coordination Sequence:
#
# PCOD9233184 Si02
#       8
#     4   4   4   2   4   4   4   4
#     4  11  25  42  64  98 139 171 224 282 351 404
#     4  10  21  39  70  90 126 177 224 272 329 413
#     4  11  23  43  63  98 137 171 216 282 345 407
#     4  12  26  46  72 104 132 182 246 270 342 424
#     4  12  24  47  68 100 139 184 228 289 343 411
#     4  11  24  43  71  97 131 181 227 283 336 415
#     4  11  22  42  67  99 131 174 229 277 343 412
#     4  10  22  41  65  95 125 175 227 274 334 401
#
# _framework density 19.71359
#
# number of rings (size 3 to 8) (size 9 to 14) (size 15 to 20)
#    0.000    1.067    4.000    3.200    3.733    1.600 
#    7.200    2.000    0.000    0.000    0.000    0.000 
#    0.000    0.000    0.000    0.000    0.000    0.000 
#
# Total GULP energy -167265.568446 kJ/mol
# GULP energy per Si atom -5575.518948 kJ/mol
# Density = 1.966872 g / cm^3
# Si number density = 19.713590 Si / 1000 Ang^3
#
#
#
# Elastic Constant Matrix: (Units=GPa)
#
#
# Indices 1 2 3 4 5 6 
#
# 1 88.4831 24.7915 40.0825 0.0000 6.9115 0.0000
# 2 24.7915 99.5883 37.3058 0.0000 11.4945 0.0000
# 3 40.0825 37.3058 102.0582 0.0000 2.1612 0.0000
# 4 0.0000 0.0000 0.0000 37.6715 0.0000 -1.5977
# 5 6.9115 11.4945 2.1612 0.0000 26.9251 0.0000
# 6 0.0000 0.0000 0.0000 -1.5977 0.0000 33.4102
#
#
#
# Elastic Compliance Matrix: (Units=1/GPa)
#
#
# Indices 1 2 3 4 5 6 
#
# 1 0.014156 -0.001339 -0.005014 0.000000 -0.002660 0.000000
# 2 -0.001339 0.012368 -0.003897 0.000000 -0.004624 0.000000
# 3 -0.005014 -0.003897 0.013152 0.000000 0.001895 0.000000
# 4 0.000000 0.000000 0.000000 0.026599 0.000000 0.001272
# 5 -0.002660 -0.004624 0.001895 0.000000 0.039645 0.000000
# 6 0.000000 0.000000 0.000000 0.001272 0.000000 0.029992
#
#
# Mechanical properties :
#
#
# Convention : Reuss Voigt Hill
#
# Bulk Modulus (GPa) = 52.14845 54.94324 53.54585
# Shear Modulus (GPa) = 30.71195 32.13136 31.42165
#
# Velocity S-wave (km/s) = 3.95132 4.04159 3.99671
# Velocity P-wave (km/s) = 6.87951 7.05057 6.96557
#
# Compressibility (1/GPa) = 0.01917602
#
# Stress axis : x y z
#
# Youngs Moduli (GPa) = 70.64299 80.85256 76.03439
#
# Poissons Ratio (x) = 0.10824 0.38122
# Poissons Ratio (y) = 0.09457 0.29633
# Poissons Ratio (z) = 0.35419 0.31511
#
# Static dielectric constant tensor:
#      x y z
#    x 1.749720 0.000000 0.005740 
#    y 0.000000 1.692340 0.000000 
#    z 0.005740 0.000000 1.736430 
# 
# From -- ./inp_files/75735.got.cif
#   From: 2010.05.17/outbox.cif.g08.bks.cpg/sg13_38_cif.got.tgz:75735.got - 2010.06.03 16:44:36.
