data_PCOD9233775
_publ_section_title
;
Structure prediction by ZEFSAII (Michael W. Deem and Ramdas Pophale) SiO2 
 PCOD9233775
Probable space group: P 2/C
;
_chemical_formula_sum "Si O2"
_cell_formula_units_Z 28
_cell_length_a 14.747318
_cell_length_b 7.892042
_cell_length_c 22.421570
_cell_angle_alpha 90.000000
_cell_angle_beta 152.488434
_cell_angle_gamma 90.000000
_cell_volume 1205.431180
_symmetry_space_group_name_H-M "P 2/C"
_symmetry_group_IT_number 13
_symmetry_cell_setting 'monoclinic'
loop_
_space_group_symop_operation_xyz
x,y,z
-x,y,1/2-z
-x,-y,-z
x,-y,1/2+z
loop_
_atom_site_type_symbol
_atom_site_label
_atom_site_fract_x
_atom_site_fract_y
_atom_site_fract_z
Si Si1 0.874297 0.949271 0.484997
Si Si2 0.804738 0.598845 0.097311
Si Si3 0.549914 0.288114 0.930163
Si Si4 0.277630 0.633994 0.166917
Si Si5 0.314827 0.875791 0.390495
Si Si6 0.048929 0.116727 0.342026
Si Si7 0.863042 0.664200 0.994402
O O1 0.731976 0.802180 0.379303
O O2 0.987247 0.862176 0.607429
O O3 0.800720 0.136957 0.460833
O O4 0.000000 0.000000 0.500000
O O5 0.663632 0.442037 0.026840
O O6 0.695825 0.767251 0.055859
O O7 0.000000 0.591970 0.250000
O O8 0.857733 0.599205 0.058859
O O9 0.463096 0.353101 0.817789
O O10 0.713890 0.139740 0.018916
O O11 0.367479 0.237281 0.864490
O O12 0.263718 0.460794 0.121348
O O13 0.080430 0.646523 0.092730
O O14 0.500000 0.000000 0.500000
O O15 0.105065 0.963421 0.258237
O O16 0.000000 0.212704 0.250000
#
# Coordination Sequence:
#
# PCOD9233775 Si02
#       7
#     4   4   4   4   4   4   4
#     4  10  21  42  73 105 147 200 249 314 384 456
#     4  12  26  46  74 107 154 201 250 319 389 472
#     4  12  27  48  76 109 155 204 257 317 396 472
#     4  10  23  47  70 109 151 203 256 322 380 463
#     4  12  26  47  75 111 153 191 255 321 392 472
#     4  12  24  46  75 109 151 197 254 321 393 463
#     4  10  22  44  75 104 149 202 256 315 386 461
#
# _framework density 23.228202
#
# number of rings (size 3 to 8) (size 9 to 14) (size 15 to 20)
#    0.000    0.857    1.429    6.429    0.000    2.286 
#   10.286    1.429    0.000    0.000    0.000    0.000 
#    0.000    0.000    0.000    0.000    0.000    0.000 
#
# Total GULP energy -156135.267419 kJ/mol
# GULP energy per Si atom -5576.259551 kJ/mol
# Density = 2.317533 g / cm^3
# Si number density = 23.228202 Si / 1000 Ang^3
#
#
#
# Elastic Constant Matrix: (Units=GPa)
#
#
# Indices 1 2 3 4 5 6 
#
# 1 133.6747 12.3222 51.4532 0.0000 -5.4215 0.0000
# 2 12.3222 112.3312 53.6547 0.0000 3.2874 0.0000
# 3 51.4532 53.6547 134.8148 0.0000 -11.1604 0.0000
# 4 0.0000 0.0000 0.0000 29.5365 0.0000 -4.5520
# 5 -5.4215 3.2874 -11.1604 0.0000 50.9006 0.0000
# 6 0.0000 0.0000 0.0000 -4.5520 0.0000 29.9426
#
#
#
# Elastic Compliance Matrix: (Units=1/GPa)
#
#
# Indices 1 2 3 4 5 6 
#
# 1 0.008826 0.000784 -0.003674 0.000000 0.000084 0.000000
# 2 0.000784 0.011208 -0.004902 0.000000 -0.001715 0.000000
# 3 -0.003674 -0.004902 0.010963 0.000000 0.002329 0.000000
# 4 0.000000 0.000000 0.000000 0.034669 0.000000 0.005270
# 5 0.000084 -0.001715 0.002329 0.000000 0.020277 0.000000
# 6 0.000000 0.000000 0.000000 0.005270 0.000000 0.034198
#
#
# Mechanical properties :
#
#
# Convention : Reuss Voigt Hill
#
# Bulk Modulus (GPa) = 64.87437 68.40898 66.64167
# Shear Modulus (GPa) = 35.49586 39.63531 37.56559
#
# Velocity S-wave (km/s) = 3.91338 4.13527 4.02586
# Velocity P-wave (km/s) = 6.95767 7.23294 7.09664
#
# Compressibility (1/GPa) = 0.01541441
#
# Stress axis : x y z
#
# Youngs Moduli (GPa) = 113.30152 89.22397 91.21329
#
# Poissons Ratio (x) = -0.06996 0.33508
# Poissons Ratio (y) = -0.08884 0.44711
# Poissons Ratio (z) = 0.41623 0.43736
#
# Static dielectric constant tensor:
#      x y z
#    x 1.923780 0.000000 -0.017970 
#    y 0.000000 1.939530 0.000000 
#    z -0.017970 0.000000 1.809410 
# 
# From -- ./inp_files/86241.got.cif
#   From: 2010.05.17/outbox.cif.g08.bks.cpg/sg13_44_cif.got.tgz:86241.got - 2010.06.03 16:44:36.
