data_PCOD9233586
_publ_section_title
;
Structure prediction by ZEFSAII (Michael W. Deem and Ramdas Pophale) SiO2 
 PCOD9233586
Probable space group: P 2/C
;
_chemical_formula_sum "Si O2"
_cell_formula_units_Z 18
_cell_length_a 23.448525
_cell_length_b 5.624017
_cell_length_c 16.131734
_cell_angle_alpha 90.000000
_cell_angle_beta 158.799610
_cell_angle_gamma 90.000000
_cell_volume 769.323073
_symmetry_space_group_name_H-M "P 2/C"
_symmetry_group_IT_number 13
_symmetry_cell_setting 'monoclinic'
loop_
_space_group_symop_operation_xyz
x,y,z
-x,y,1/2-z
-x,-y,-z
x,-y,1/2+z
loop_
_atom_site_type_symbol
_atom_site_label
_atom_site_fract_x
_atom_site_fract_y
_atom_site_fract_z
Si Si1 0.238666 0.531025 0.286728
Si Si2 0.500000 0.712811 0.750000
Si Si3 0.183439 0.644421 0.027873
Si Si4 0.996568 0.807863 0.065472
Si Si5 0.243857 0.134050 0.029102
O O1 0.407324 0.560592 0.555536
O O2 0.118826 0.605246 0.198469
O O3 0.203840 0.671235 0.154824
O O4 0.182582 0.275754 0.179633
O O5 0.629427 0.859430 0.874139
O O6 0.000000 0.637772 0.750000
O O7 0.251854 0.388327 0.088231
O O8 0.262918 0.882442 0.099915
O O9 0.069192 0.877752 0.250806
O O10 0.000000 0.000000 0.000000
#
# Coordination Sequence:
#
# PCOD9233586 Si02
#       5
#     4   2   4   4   4
#     4  10  23  42  68 100 143 181 239 283 350 422
#     4  10  26  50  64 104 140 204 230 280 348 444
#     4  12  24  44  73 109 137 180 235 307 351 401
#     4  10  21  41  69 101 131 191 234 291 336 418
#     4  11  26  44  72 103 143 181 238 287 359 417
#
# _framework density 23.397190999999999
#
# number of rings (size 3 to 8) (size 9 to 14) (size 15 to 20)
#    0.000    1.333    2.222    2.000    9.333    2.667 
#    4.000    0.000    0.000    0.000    0.000    0.000 
#    0.000    0.000    0.000    0.000    0.000    0.000 
#
# Total GULP energy -100422.339155 kJ/mol
# GULP energy per Si atom -5579.018842 kJ/mol
# Density = 2.334394 g / cm^3
# Si number density = 23.397191 Si / 1000 Ang^3
#
#
#
# Elastic Constant Matrix: (Units=GPa)
#
#
# Indices 1 2 3 4 5 6 
#
# 1 119.2255 48.4050 25.6246 0.0000 -15.2548 0.0000
# 2 48.4050 127.7434 11.4526 0.0000 0.6968 0.0000
# 3 25.6246 11.4526 116.5375 0.0000 -26.3739 0.0000
# 4 0.0000 0.0000 0.0000 0.2870 0.0000 -4.1395
# 5 -15.2548 0.6968 -26.3739 0.0000 42.1606 0.0000
# 6 0.0000 0.0000 0.0000 -4.1395 0.0000 46.2627
#
#
#
# Elastic Compliance Matrix: (Units=1/GPa)
#
#
# Indices 1 2 3 4 5 6 
#
# 1 0.010659 -0.003944 -0.001245 0.000000 0.003143 0.000000
# 2 -0.003944 0.009376 -0.000480 0.000000 -0.001882 0.000000
# 3 -0.001245 -0.000480 0.010253 0.000000 0.005972 0.000000
# 4 0.000000 0.000000 0.000000-11.995373 0.000000 -1.073324
# 5 0.003143 -0.001882 0.005972 0.000000 0.028623 0.000000
# 6 0.000000 0.000000 0.000000 -1.073324 0.000000 -0.074423
#
#
# Mechanical properties :
#
#
# Convention : Reuss Voigt Hill
#
# Bulk Modulus (GPa) = 52.77176 59.38566 56.07871
# Shear Modulus (GPa) = -0.41690 36.27701 17.93005
#
# Velocity S-wave (km/s) = -0.42258 3.94189 2.77128
# Velocity P-wave (km/s) = 4.72923 6.79372 5.85322
#
# Compressibility (1/GPa) = 0.01894953
#
# Stress axis : x y z
#
# Youngs Moduli (GPa) = 93.82174 106.65410 97.53012
#
# Poissons Ratio (x) = 0.42068 0.12139
# Poissons Ratio (y) = 0.37006 0.04683
# Poissons Ratio (z) = 0.11678 0.05121
#
# Static dielectric constant tensor:
#      x y z
#    x 1.832570 0.000000 0.078960 
#    y 0.000000 1.962500 0.000000 
#    z 0.078960 0.000000 1.876270 
# 
# From -- ./inp_files/65476.got.cif
#   From: 2010.05.17/outbox.cif.g08.bks.cpg/sg13_33_cif.got.tgz:65476.got - 2010.06.03 16:44:36.
