data_PCOD9233468
_publ_section_title
;
Structure prediction by ZEFSAII (Michael W. Deem and Ramdas Pophale) SiO2 
 PCOD9233468
Probable space group: P 2/C
;
_chemical_formula_sum "Si O2"
_cell_formula_units_Z 14
_cell_length_a 21.860151
_cell_length_b 7.569973
_cell_length_c 5.242389
_cell_angle_alpha 90.000000
_cell_angle_beta 47.211552
_cell_angle_gamma 90.000000
_cell_volume 636.640108
_symmetry_space_group_name_H-M "P 2/C"
_symmetry_group_IT_number 13
_symmetry_cell_setting 'monoclinic'
loop_
_space_group_symop_operation_xyz
x,y,z
-x,y,1/2-z
-x,-y,-z
x,-y,1/2+z
loop_
_atom_site_type_symbol
_atom_site_label
_atom_site_fract_x
_atom_site_fract_y
_atom_site_fract_z
Si Si1 0.817114 0.886003 0.314806
Si Si2 0.660779 0.622837 0.788914
Si Si3 0.906387 0.570147 0.223374
Si Si4 0.500000 0.876194 0.250000
O O1 0.898181 0.766163 0.140807
O O2 0.814189 0.967372 0.042946
O O3 0.740756 0.750877 0.566138
O O4 0.660186 0.504642 0.535735
O O5 0.580526 0.750167 0.021256
O O6 0.866736 0.551552 0.615158
O O7 0.000000 0.500000 0.000000
O O8 0.500000 0.000000 0.500000
#
# Coordination Sequence:
#
# PCOD9233468 Si02
#       4
#     4   4   4   2
#     4  12  24  41  64  95 125 161 209 264 314 364
#     4  12  24  42  66  93 127 172 213 252 308 378
#     4  10  21  41  63  86 120 161 202 249 310 377
#     4  12  24  42  64  96 134 166 208 266 310 356
#
# _framework density 21.990444
#
# number of rings (size 3 to 8) (size 9 to 14) (size 15 to 20)
#    0.000    0.571    0.000    9.429    0.000    0.000 
#    0.000   17.143    0.000    0.000    0.000    0.000 
#    0.000    0.000    0.000    0.000    0.000    0.000 
#
# Total GULP energy -78334.723204 kJ/mol
# GULP energy per Si atom -5595.337372 kJ/mol
# Density = 2.194039 g / cm^3
# Si number density = 21.990444 Si / 1000 Ang^3
#
#
#
# Elastic Constant Matrix: (Units=GPa)
#
#
# Indices 1 2 3 4 5 6 
#
# 1 115.4013 55.6651 55.9792 0.0000 16.9031 0.0000
# 2 55.6651 120.6917 42.7456 0.0000 -5.1106 0.0000
# 3 55.9792 42.7456 76.2588 0.0000 8.7357 0.0000
# 4 0.0000 0.0000 0.0000 66.1692 0.0000 6.4018
# 5 16.9031 -5.1106 8.7357 0.0000 68.4909 0.0000
# 6 0.0000 0.0000 0.0000 6.4018 0.0000 77.6504
#
#
#
# Elastic Compliance Matrix: (Units=1/GPa)
#
#
# Indices 1 2 3 4 5 6 
#
# 1 0.015228 -0.004132 -0.008521 0.000000 -0.002980 0.000000
# 2 -0.004132 0.011620 -0.003751 0.000000 0.002365 0.000000
# 3 -0.008521 -0.003751 0.021578 0.000000 -0.000929 0.000000
# 4 0.000000 0.000000 0.000000 0.015234 0.000000 -0.001256
# 5 -0.002980 0.002365 -0.000929 0.000000 0.015631 0.000000
# 6 0.000000 0.000000 0.000000 -0.001256 0.000000 0.012982
#
#
# Mechanical properties :
#
#
# Convention : Reuss Voigt Hill
#
# Bulk Modulus (GPa) = 64.03220 69.01462 66.52341
# Shear Modulus (GPa) = 38.37664 52.99289 45.68476
#
# Velocity S-wave (km/s) = 4.18203 4.91431 4.56289
# Velocity P-wave (km/s) = 7.24573 7.97826 7.62080
#
# Compressibility (1/GPa) = 0.01561714
#
# Stress axis : x y z
#
# Youngs Moduli (GPa) = 65.66675 86.05868 46.34419
#
# Poissons Ratio (x) = 0.35557 0.39492
# Poissons Ratio (y) = 0.27132 0.17385
# Poissons Ratio (z) = 0.55957 0.32284
#
# Static dielectric constant tensor:
#      x y z
#    x 1.832920 0.000000 -0.035980 
#    y 0.000000 1.793490 0.000000 
#    z -0.035980 0.000000 1.974860 
# 
# From -- ./inp_files/7621.got.cif
#   From: 2010.05.17/outbox.cif.g08.bks.cpg/sg13_4_cif.got.tgz:7621.got - 2010.06.03 16:44:36.
