data_PCOD9233796
_publ_section_title
;
Structure prediction by ZEFSAII (Michael W. Deem and Ramdas Pophale) SiO2 
 PCOD9233796
Probable space group: P 2/C
;
_chemical_formula_sum "Si O2"
_cell_formula_units_Z 26
_cell_length_a 13.870678
_cell_length_b 7.963437
_cell_length_c 11.885571
_cell_angle_alpha 90.000000
_cell_angle_beta 112.611342
_cell_angle_gamma 90.000000
_cell_volume 1211.945513
_symmetry_space_group_name_H-M "P 2/C"
_symmetry_group_IT_number 13
_symmetry_cell_setting 'monoclinic'
loop_
_space_group_symop_operation_xyz
x,y,z
-x,y,1/2-z
-x,-y,-z
x,-y,1/2+z
loop_
_atom_site_type_symbol
_atom_site_label
_atom_site_fract_x
_atom_site_fract_y
_atom_site_fract_z
Si Si1 0.131712 0.338372 0.189522
Si Si2 0.000000 0.089201 0.250000
Si Si3 0.569867 0.715406 0.038040
Si Si4 0.500000 0.826647 0.250000
Si Si5 0.325520 0.032918 0.526300
Si Si6 0.107810 0.149626 0.950445
Si Si7 0.000000 0.606352 0.250000
Si Si8 0.344839 0.633986 0.891525
O O1 0.057502 0.495287 0.182164
O O2 0.254960 0.370521 0.257097
O O3 0.098614 0.205815 0.271224
O O4 0.100192 0.254602 0.059471
O O5 0.981245 0.979419 0.130238
O O6 0.534842 0.724116 0.154079
O O7 0.644935 0.555165 0.055312
O O8 0.618740 0.894143 0.028057
O O9 0.465109 0.681520 0.918104
O O10 0.598378 0.937396 0.333848
O O11 0.214479 0.953350 0.504052
O O12 0.315773 0.215262 0.463768
O O13 0.093426 0.284450 0.844317
#
# Coordination Sequence:
#
# PCOD9233796 Si02
#       8
#     4   2   4   2   4   4   2   4
#     4  11  22  41  66  94 125 179 218 273 336 393
#     4  10  22  42  62  92 132 158 222 282 316 390
#     4  10  23  43  63  95 140 172 211 281 320 388
#     4  10  22  40  66  98 130 176 222 262 326 402
#     4  11  23  41  67  97 136 171 218 271 328 391
#     4  11  23  40  68  96 127 176 220 267 345 386
#     4  10  24  44  62  94 142 164 224 292 320 394
#     4  10  21  43  63  90 132 171 218 265 329 384
#
# _framework density 21.453108
#
# number of rings (size 3 to 8) (size 9 to 14) (size 15 to 20)
#    0.000    1.538    1.538    3.692    4.308    0.000 
#   13.846    3.077    0.000    0.000    0.000    0.000 
#    0.000    0.000    0.000    0.000    0.000    0.000 
#
# Total GULP energy -144964.352719 kJ/mol
# GULP energy per Si atom -5575.552028 kJ/mol
# Density = 2.140428 g / cm^3
# Si number density = 21.453108 Si / 1000 Ang^3
#
#
#
# Elastic Constant Matrix: (Units=GPa)
#
#
# Indices 1 2 3 4 5 6 
#
# 1 45.2053 39.6103 26.5687 0.0000 22.6211 0.0000
# 2 39.6103 120.4850 43.5892 0.0000 8.5946 0.0000
# 3 26.5687 43.5892 87.0941 0.0000 29.5976 0.0000
# 4 0.0000 0.0000 0.0000 12.2818 0.0000 -3.0170
# 5 22.6211 8.5946 29.5976 0.0000 34.2796 0.0000
# 6 0.0000 0.0000 0.0000 -3.0170 0.0000 12.3598
#
#
#
# Elastic Compliance Matrix: (Units=1/GPa)
#
#
# Indices 1 2 3 4 5 6 
#
# 1 0.049205 -0.015107 0.003252 0.000000 -0.031491 0.000000
# 2 -0.015107 0.014940 -0.007053 0.000000 0.012313 0.000000
# 3 0.003252 -0.007053 0.020023 0.000000 -0.017666 0.000000
# 4 0.000000 0.000000 0.000000 0.086615 0.000000 0.021142
# 5 -0.031491 0.012313 -0.017666 0.000000 0.062119 0.000000
# 6 0.000000 0.000000 0.000000 0.021142 0.000000 0.086068
#
#
# Mechanical properties :
#
#
# Convention : Reuss Voigt Hill
#
# Bulk Modulus (GPa) = 21.57379 52.48007 37.02693
# Shear Modulus (GPa) = 13.43234 21.31866 17.37550
#
# Velocity S-wave (km/s) = 2.50496 3.15577 2.84901
# Velocity P-wave (km/s) = 4.29471 6.14771 5.30278
#
# Compressibility (1/GPa) = 0.04635255
#
# Stress axis : x y z
#
# Youngs Moduli (GPa) = 20.32301 66.93657 49.94200
#
# Poissons Ratio (x) = 1.01119 -0.16241
# Poissons Ratio (y) = 0.30701 0.35224
# Poissons Ratio (z) = -0.06609 0.47210
#
# Static dielectric constant tensor:
#      x y z
#    x 1.791760 0.000000 0.010930 
#    y 0.000000 1.820010 0.000000 
#    z 0.010930 0.000000 1.770550 
# 
# From -- ./inp_files/36319.got.cif
#   From: 2010.05.17/outbox.cif.g08.bks.cpg/sg13_19_cif.got.tgz:36319.got - 2010.06.03 16:44:36.
