data_PCOD9233547
_publ_section_title
;
Structure prediction by ZEFSAII (Michael W. Deem and Ramdas Pophale) SiO2 
 PCOD9233547
Probable space group: P 2/C
;
_chemical_formula_sum "Si O2"
_cell_formula_units_Z 30
_cell_length_a 7.658558
_cell_length_b 15.426032
_cell_length_c 11.274395
_cell_angle_alpha 90.000000
_cell_angle_beta 92.708745
_cell_angle_gamma 90.000000
_cell_volume 1330.481867
_symmetry_space_group_name_H-M "P 2/C"
_symmetry_group_IT_number 13
_symmetry_cell_setting 'monoclinic'
loop_
_space_group_symop_operation_xyz
x,y,z
-x,y,1/2-z
-x,-y,-z
x,-y,1/2+z
loop_
_atom_site_type_symbol
_atom_site_label
_atom_site_fract_x
_atom_site_fract_y
_atom_site_fract_z
Si Si1 0.341227 0.410871 0.161101
Si Si2 0.797725 0.938147 0.718019
Si Si3 0.342349 0.197289 0.668284
Si Si4 0.691659 0.024538 0.962877
Si Si5 0.594386 0.647246 0.489517
Si Si6 0.207277 0.258750 0.287946
Si Si7 0.000000 0.704255 0.250000
Si Si8 0.097264 0.545944 0.108420
O O1 0.500000 0.439887 0.250000
O O2 0.425758 0.401597 0.034018
O O3 0.298980 0.310345 0.185490
O O4 0.170173 0.466424 0.190139
O O5 0.790128 0.989493 0.592060
O O6 0.730563 0.840141 0.698560
O O7 0.000000 0.930395 0.750000
O O8 0.721847 0.975919 0.838484
O O9 0.500000 0.156717 0.750000
O O10 0.279551 0.124253 0.574866
O O11 0.438601 0.274574 0.601314
O O12 0.172865 0.237845 0.730789
O O13 0.500000 0.000000 0.000000
O O14 0.721425 0.687770 0.595946
O O15 0.715049 0.580663 0.424950
O O16 0.000000 0.260947 0.250000
O O17 0.007881 0.631233 0.354340
O O18 0.000000 0.500000 0.000000
#
# Coordination Sequence:
#
# PCOD9233547 Si02
#       8
#     4   4   4   4   4   4   2   4
#     4  10  23  37  66  94 132 176 225 293 355 424
#     4  11  25  46  73 109 145 189 243 306 374 451
#     4  11  25  48  70  98 145 190 243 299 372 454
#     4  12  26  47  75 110 147 192 246 309 373 451
#     4  10  22  41  62  95 129 181 227 291 354 431
#     4  10  21  41  66  96 133 174 225 288 358 431
#     4  10  28  46  68 100 144 192 238 304 376 444
#     4  11  24  40  65  96 130 176 237 294 351 430
#
# _framework density 22.548223
#
# number of rings (size 3 to 8) (size 9 to 14) (size 15 to 20)
#    0.000    1.333    1.333    2.800    9.333    3.200 
#    2.400    0.000    0.000    0.000    0.000    0.000 
#    0.000    0.000    0.000    0.000    0.000    0.000 
#
# Total GULP energy -167115.105857 kJ/mol
# GULP energy per Si atom -5570.503529 kJ/mol
# Density = 2.249690 g / cm^3
# Si number density = 22.548223 Si / 1000 Ang^3
#
#
#
# Elastic Constant Matrix: (Units=GPa)
#
#
# Indices 1 2 3 4 5 6 
#
# 1 63.6976 23.2829 27.7121 0.0000 -4.9365 0.0000
# 2 23.2829 79.4102 26.4419 0.0000 -16.0936 0.0000
# 3 27.7121 26.4419 94.8926 0.0000 -13.8150 0.0000
# 4 0.0000 0.0000 0.0000 -15.7853 0.0000 7.8418
# 5 -4.9365 -16.0936 -13.8150 0.0000 44.9540 0.0000
# 6 0.0000 0.0000 0.0000 7.8418 0.0000 24.2218
#
#
#
# Elastic Compliance Matrix: (Units=1/GPa)
#
#
# Indices 1 2 3 4 5 6 
#
# 1 0.019168 -0.004279 -0.004524 0.000000 -0.000817 0.000000
# 2 -0.004279 0.015543 -0.002449 0.000000 0.004342 0.000000
# 3 -0.004524 -0.002449 0.012920 0.000000 0.002597 0.000000
# 4 0.000000 0.000000 0.000000 -0.054573 0.000000 0.017668
# 5 -0.000817 0.004342 0.002597 0.000000 0.024508 0.000000
# 6 0.000000 0.000000 0.000000 0.017668 0.000000 0.035565
#
#
# Mechanical properties :
#
#
# Convention : Reuss Voigt Hill
#
# Bulk Modulus (GPa) = 39.80020 43.65268 41.72644
# Shear Modulus (GPa) = 59.51503 21.38234 40.44868
#
# Velocity S-wave (km/s) = 5.14314 3.08278 4.24001
# Velocity P-wave (km/s) = 7.27727 5.66331 6.52042
#
# Compressibility (1/GPa) = 0.02512550
#
# Stress axis : x y z
#
# Youngs Moduli (GPa) = 52.16926 64.33769 77.39892
#
# Poissons Ratio (x) = 0.27532 0.35019
# Poissons Ratio (y) = 0.22325 0.18957
# Poissons Ratio (z) = 0.23604 0.15758
#
# Static dielectric constant tensor:
#      x y z
#    x 1.854770 0.000000 0.069370 
#    y 0.000000 1.861050 0.000000 
#    z 0.069370 0.000000 2.069310 
# 
# From -- ./inp_files/30154.got.cif
#   From: 2010.05.17/outbox.cif.g08.bks.cpg/sg13_16_cif.got.tgz:30154.got - 2010.06.03 16:44:36.
