data_PCOD9233885
_publ_section_title
;
Structure prediction by ZEFSAII (Michael W. Deem and Ramdas Pophale) SiO2 
 PCOD9233885
Probable space group: P 2/C
;
_chemical_formula_sum "Si O2"
_cell_formula_units_Z 28
_cell_length_a 9.810659
_cell_length_b 14.311512
_cell_length_c 22.277670
_cell_angle_alpha 90.000000
_cell_angle_beta 151.644187
_cell_angle_gamma 90.000000
_cell_volume 1485.584651
_symmetry_space_group_name_H-M "P 2/C"
_symmetry_group_IT_number 13
_symmetry_cell_setting 'monoclinic'
loop_
_space_group_symop_operation_xyz
x,y,z
-x,y,1/2-z
-x,-y,-z
x,-y,1/2+z
loop_
_atom_site_type_symbol
_atom_site_label
_atom_site_fract_x
_atom_site_fract_y
_atom_site_fract_z
Si Si1 0.684945 0.706042 0.770501
Si Si2 0.973473 0.898257 0.906880
Si Si3 0.687528 0.783854 0.982588
Si Si4 0.803643 0.093638 0.874717
Si Si5 0.870209 0.408769 0.132749
Si Si6 0.724953 0.081519 0.101959
Si Si7 0.197550 0.374447 0.883576
O O1 0.500000 0.655784 0.750000
O O2 0.483234 0.735466 0.637354
O O3 0.801912 0.802100 0.844846
O O4 0.941160 0.645884 0.842296
O O5 0.150631 0.888891 0.914270
O O6 0.152207 0.914657 0.036764
O O7 0.787889 0.993561 0.834308
O O8 0.837513 0.704523 0.080269
O O9 0.924239 0.853863 0.047740
O O10 0.454695 0.839540 0.932548
O O11 0.500000 0.143928 0.750000
O O12 0.881063 0.520333 0.126875
O O13 0.000000 0.390891 0.250000
O O14 0.538290 0.378299 0.001377
O O15 0.000000 0.054922 0.250000
O O16 0.500000 0.000000 0.000000
O O17 0.000000 0.352587 0.750000
#
# Coordination Sequence:
#
# PCOD9233885 Si02
#       7
#     4   4   4   4   4   4   4
#     4  12  23  41  69  98 124 169 224 266 319 395
#     4  11  24  41  64  92 128 175 219 259 325 389
#     4  12  24  43  64  99 128 172 223 268 320 397
#     4  11  26  42  62  89 137 178 212 264 327 394
#     4  10  21  43  73  97 126 168 219 270 333 401
#     4  12  26  40  66  99 131 170 225 281 322 377
#     4  10  23  42  69  99 131 167 212 275 340 387
#
# _framework density 18.847798999999998
#
# number of rings (size 3 to 8) (size 9 to 14) (size 15 to 20)
#    0.000    0.857    5.714    1.286    4.000    2.857 
#    0.000    1.429    0.000    0.000    0.000    0.000 
#    0.000    0.000    0.000    0.000    0.000    0.000 
#
# Total GULP energy -156384.715182 kJ/mol
# GULP energy per Si atom -5585.168399 kJ/mol
# Density = 1.880490 g / cm^3
# Si number density = 18.847799 Si / 1000 Ang^3
#
#
#
# Elastic Constant Matrix: (Units=GPa)
#
#
# Indices 1 2 3 4 5 6 
#
# 1 139.7380 38.8055 41.1147 0.0000 7.9886 0.0000
# 2 38.8055 65.8522 34.4958 0.0000 -0.3579 0.0000
# 3 41.1147 34.4958 109.6966 0.0000 -0.3885 0.0000
# 4 0.0000 0.0000 0.0000 19.2260 0.0000 -6.1485
# 5 7.9886 -0.3579 -0.3885 0.0000 32.3989 0.0000
# 6 0.0000 0.0000 0.0000 -6.1485 0.0000 6.1805
#
#
#
# Elastic Compliance Matrix: (Units=1/GPa)
#
#
# Indices 1 2 3 4 5 6 
#
# 1 0.009086 -0.004284 -0.002066 0.000000 -0.002313 0.000000
# 2 -0.004284 0.020201 -0.004742 0.000000 0.001223 0.000000
# 3 -0.002066 -0.004742 0.011384 0.000000 0.000594 0.000000
# 4 0.000000 0.000000 0.000000 0.076282 0.000000 0.075887
# 5 -0.002313 0.001223 0.000594 0.000000 0.031456 0.000000
# 6 0.000000 0.000000 0.000000 0.075887 0.000000 0.237295
#
#
# Mechanical properties :
#
#
# Convention : Reuss Voigt Hill
#
# Bulk Modulus (GPa) = 54.09850 60.45763 57.27806
# Shear Modulus (GPa) = 12.07577 24.95248 18.51413
#
# Velocity S-wave (km/s) = 2.53395 3.64248 3.13756
# Velocity P-wave (km/s) = 6.10953 7.05951 6.60163
#
# Compressibility (1/GPa) = 0.01848480
#
# Stress axis : x y z
#
# Youngs Moduli (GPa) = 110.05639 49.50217 87.84268
#
# Poissons Ratio (x) = 0.21209 0.18152
# Poissons Ratio (y) = 0.47153 0.41659
# Poissons Ratio (z) = 0.22743 0.23476
#
# Static dielectric constant tensor:
#      x y z
#    x 1.669730 0.000000 0.008120 
#    y 0.000000 1.671370 0.000000 
#    z 0.008120 0.000000 1.673560 
# 
# From -- ./inp_files/76699.got.cif
#   From: 2010.05.17/outbox.cif.g08.bks.cpg/sg13_39_cif.got.tgz:76699.got - 2010.06.03 16:44:36.
