data_PCOD9233746
_publ_section_title
;
Structure prediction by ZEFSAII (Michael W. Deem and Ramdas Pophale) SiO2 
 PCOD9233746
Probable space group: P 2/C
;
_chemical_formula_sum "Si O2"
_cell_formula_units_Z 28
_cell_length_a 16.249927
_cell_length_b 9.273525
_cell_length_c 20.428116
_cell_angle_alpha 90.000000
_cell_angle_beta 152.184747
_cell_angle_gamma 90.000000
_cell_volume 1436.447945
_symmetry_space_group_name_H-M "P 2/C"
_symmetry_group_IT_number 13
_symmetry_cell_setting 'monoclinic'
loop_
_space_group_symop_operation_xyz
x,y,z
-x,y,1/2-z
-x,-y,-z
x,-y,1/2+z
loop_
_atom_site_type_symbol
_atom_site_label
_atom_site_fract_x
_atom_site_fract_y
_atom_site_fract_z
Si Si1 0.829394 0.549496 0.973508
Si Si2 0.640755 0.114859 0.170612
Si Si3 0.325328 0.847625 0.660757
Si Si4 0.177742 0.652807 0.148797
Si Si5 0.514066 0.798809 0.445013
Si Si6 0.838740 0.693820 0.586383
Si Si7 0.054036 0.107366 0.458378
O O1 0.817257 0.451056 0.028773
O O2 0.029989 0.581997 0.091154
O O3 0.735178 0.701629 0.916404
O O4 0.755835 0.460178 0.859346
O O5 0.632141 0.190661 0.234375
O O6 0.846867 0.076226 0.305716
O O7 0.528061 0.968100 0.096133
O O8 0.574630 0.208029 0.063025
O O9 0.500000 0.908949 0.750000
O O10 0.171694 0.966388 0.551963
O O11 0.336481 0.714570 0.302788
O O12 0.089639 0.780915 0.043154
O O13 0.666907 0.740866 0.505550
O O14 0.883745 0.814754 0.563986
O O15 0.000000 0.679645 0.750000
#
# Coordination Sequence:
#
# PCOD9233746 Si02
#       7
#     4   4   4   4   4   4   4
#     4  10  24  41  66  92 134 176 220 266 331 396
#     4  11  22  41  66 103 130 166 223 279 336 386
#     4  12  24  40  64 101 134 169 224 286 327 389
#     4  10  21  42  69  96 125 179 227 259 321 406
#     4  11  23  39  70 100 132 172 222 277 330 397
#     4  11  24  45  65  97 135 178 218 272 338 399
#     4  11  21  41  73  92 135 175 220 276 334 391
#
# _framework density 19.492526999999999
#
# number of rings (size 3 to 8) (size 9 to 14) (size 15 to 20)
#    0.000    1.143    4.286    2.143    2.000    1.143 
#    2.571    2.143    0.000    0.000    0.000    0.000 
#    0.000    0.000    0.000    0.000    0.000    0.000 
#
# Total GULP energy -156521.948356 kJ/mol
# GULP energy per Si atom -5590.069584 kJ/mol
# Density = 1.944816 g / cm^3
# Si number density = 19.492527 Si / 1000 Ang^3
#
#
#
# Elastic Constant Matrix: (Units=GPa)
#
#
# Indices 1 2 3 4 5 6 
#
# 1 120.2125 37.9923 56.8129 0.0000 -15.9226 0.0000
# 2 37.9923 89.1554 26.6000 0.0000 -13.4712 0.0000
# 3 56.8129 26.6000 108.2425 0.0000 -16.9507 0.0000
# 4 0.0000 0.0000 0.0000 29.7036 0.0000 -9.5096
# 5 -15.9226 -13.4712 -16.9507 0.0000 27.5018 0.0000
# 6 0.0000 0.0000 0.0000 -9.5096 0.0000 18.5888
#
#
#
# Elastic Compliance Matrix: (Units=1/GPa)
#
#
# Indices 1 2 3 4 5 6 
#
# 1 0.012104 -0.003273 -0.005204 0.000000 0.002197 0.000000
# 2 -0.003273 0.013522 -0.000957 0.000000 0.004139 0.000000
# 3 -0.005204 -0.000957 0.012906 0.000000 0.004472 0.000000
# 4 0.000000 0.000000 0.000000 0.040260 0.000000 0.020596
# 5 0.002197 0.004139 0.004472 0.000000 0.042417 0.000000
# 6 0.000000 0.000000 0.000000 0.020596 0.000000 0.064332
#
#
# Mechanical properties :
#
#
# Convention : Reuss Voigt Hill
#
# Bulk Modulus (GPa) = 50.85856 62.26899 56.56378
# Shear Modulus (GPa) = 23.70082 28.23921 25.97002
#
# Velocity S-wave (km/s) = 3.49075 3.81033 3.65404
# Velocity P-wave (km/s) = 6.51115 7.16747 6.84718
#
# Compressibility (1/GPa) = 0.01966237
#
# Stress axis : x y z
#
# Youngs Moduli (GPa) = 82.61975 73.95358 77.48506
#
# Poissons Ratio (x) = 0.24206 0.40327
# Poissons Ratio (y) = 0.27043 0.07414
# Poissons Ratio (z) = 0.42999 0.07076
#
# Static dielectric constant tensor:
#      x y z
#    x 1.670000 0.000000 0.004110 
#    y 0.000000 1.689300 0.000000 
#    z 0.004110 0.000000 1.671200 
# 
# From -- ./inp_files/79988.got.cif
#   From: 2010.05.17/outbox.cif.g08.bks.cpg/sg13_40_cif.got.tgz:79988.got - 2010.06.03 16:44:36.
