data_PCOD9233920
_publ_section_title
;
Structure prediction by ZEFSAII (Michael W. Deem and Ramdas Pophale) SiO2 
 PCOD9233920
Probable space group: P 2/C
;
_chemical_formula_sum "Si O2"
_cell_formula_units_Z 14
_cell_length_a 5.649724
_cell_length_b 13.626363
_cell_length_c 7.810252
_cell_angle_alpha 90.000000
_cell_angle_beta 62.415520
_cell_angle_gamma 90.000000
_cell_volume 532.926373
_symmetry_space_group_name_H-M "P 2/C"
_symmetry_group_IT_number 13
_symmetry_cell_setting 'monoclinic'
loop_
_space_group_symop_operation_xyz
x,y,z
-x,y,1/2-z
-x,-y,-z
x,-y,1/2+z
loop_
_atom_site_type_symbol
_atom_site_label
_atom_site_fract_x
_atom_site_fract_y
_atom_site_fract_z
Si Si1 0.070651 0.885424 0.978641
Si Si2 0.000000 0.567658 0.250000
Si Si3 0.415288 0.188082 0.036324
Si Si4 0.711178 0.604624 0.035220
O O1 0.286029 0.855086 0.051649
O O2 0.246019 0.854499 0.752958
O O3 0.778272 0.837545 0.057425
O O4 0.000000 0.000000 0.000000
O O5 0.946495 0.629974 0.094876
O O6 0.794574 0.487022 0.395631
O O7 0.398461 0.306116 0.039993
O O8 0.500000 0.578547 0.250000
#
# Coordination Sequence:
#
# PCOD9233920 Si02
#       4
#     4   2   4   4
#     4  10  21  44  71 100 140 193 245 306 377 440
#     4  10  24  46  76 108 152 200 254 310 372 466
#     4  10  23  42  71 105 143 191 244 314 366 448
#     4  11  24  46  72 110 150 198 253 308 384 448
#
# _framework density 26.270046000000001
#
# number of rings (size 3 to 8) (size 9 to 14) (size 15 to 20)
#    0.000    1.714    0.000    3.429    4.000    0.000 
#   25.714    0.000    0.000    0.000    0.000    0.000 
#    0.000    0.000    0.000    0.000    0.000    0.000 
#
# Total GULP energy -78097.665130 kJ/mol
# GULP energy per Si atom -5578.404652 kJ/mol
# Density = 2.621025 g / cm^3
# Si number density = 26.270046 Si / 1000 Ang^3
#
#
#
# Elastic Constant Matrix: (Units=GPa)
#
#
# Indices 1 2 3 4 5 6 
#
# 1 246.0122 81.6427 28.5515 0.0000 -9.2259 0.0000
# 2 81.6427 141.0787 40.8144 0.0000 14.0487 0.0000
# 3 28.5515 40.8144 133.4159 0.0000 5.3249 0.0000
# 4 0.0000 0.0000 0.0000 21.4084 0.0000 7.0945
# 5 -9.2259 14.0487 5.3249 0.0000 44.7763 0.0000
# 6 0.0000 0.0000 0.0000 7.0945 0.0000 62.4313
#
#
#
# Elastic Compliance Matrix: (Units=1/GPa)
#
#
# Indices 1 2 3 4 5 6 
#
# 1 0.005220 -0.003162 -0.000233 0.000000 0.002095 0.000000
# 2 -0.003162 0.009907 -0.002214 0.000000 -0.003496 0.000000
# 3 -0.000233 -0.002214 0.008236 0.000000 -0.000333 0.000000
# 4 0.000000 0.000000 0.000000 0.048538 0.000000 -0.005516
# 5 0.002095 -0.003496 -0.000333 0.000000 0.023902 0.000000
# 6 0.000000 0.000000 0.000000 -0.005516 0.000000 0.016644
#
#
# Mechanical properties :
#
#
# Convention : Reuss Voigt Hill
#
# Bulk Modulus (GPa) = 82.35067 91.39154 86.87110
# Shear Modulus (GPa) = 39.14985 50.35640 44.75313
#
# Velocity S-wave (km/s) = 3.86461 4.38296 4.13192
# Velocity P-wave (km/s) = 7.16445 7.77680 7.47690
#
# Compressibility (1/GPa) = 0.01214319
#
# Stress axis : x y z
#
# Youngs Moduli (GPa) = 191.57785 100.94032 121.41744
#
# Poissons Ratio (x) = 0.31916 0.02834
# Poissons Ratio (y) = 0.60574 0.26888
# Poissons Ratio (z) = 0.04472 0.22353
#
# Static dielectric constant tensor:
#      x y z
#    x -0.983710 0.000000 -0.240400 
#    y 0.000000 1.992650 0.000000 
#    z -0.240400 0.000000 1.988090 
# 
# From -- ./inp_files/8748.got.cif
#   From: 2010.05.17/outbox.cif.g08.bks.cpg/sg13_5_cif.got.tgz:8748.got - 2010.06.03 16:44:36.
