data_PCOD9233452
_publ_section_title
;
Structure prediction by ZEFSAII (Michael W. Deem and Ramdas Pophale) SiO2 
 PCOD9233452
Probable space group: P 2/C
;
_chemical_formula_sum "Si O2"
_cell_formula_units_Z 18
_cell_length_a 5.059070
_cell_length_b 9.766370
_cell_length_c 16.680601
_cell_angle_alpha 90.000000
_cell_angle_beta 73.593640
_cell_angle_gamma 90.000000
_cell_volume 790.609696
_symmetry_space_group_name_H-M "P 2/C"
_symmetry_group_IT_number 13
_symmetry_cell_setting 'monoclinic'
loop_
_space_group_symop_operation_xyz
x,y,z
-x,y,1/2-z
-x,-y,-z
x,-y,1/2+z
loop_
_atom_site_type_symbol
_atom_site_label
_atom_site_fract_x
_atom_site_fract_y
_atom_site_fract_z
Si Si1 0.500000 0.713646 0.250000
Si Si2 0.771122 0.092512 0.619503
Si Si3 0.000000 0.526420 0.250000
Si Si4 0.237814 0.184292 0.468504
Si Si5 0.797112 0.710890 0.879444
Si Si6 0.000000 0.071408 0.250000
O O1 0.469326 0.807411 0.331799
O O2 0.767708 0.620507 0.231592
O O3 0.030439 0.172538 0.560261
O O4 0.867721 0.018665 0.692372
O O5 0.695338 0.972877 0.563315
O O6 0.855659 0.429618 0.328827
O O7 0.516312 0.270458 0.452885
O O8 0.056196 0.250218 0.412572
O O9 0.783830 0.826545 0.810873
#
# Coordination Sequence:
#
# PCOD9233452 Si02
#       6
#     2   4   2   4   4   2
#     4  12  24  40  60  88 122 158 196 248 296 356
#     4  10  22  38  62  96 125 152 191 246 317 359
#     4  11  25  42  62  84 119 165 212 244 280 347
#     4  10  22  39  65  92 122 152 193 253 303 359
#     4  10  21  41  62  86 116 162 209 243 286 346
#     4   9  19  36  64  90 119 155 196 248 298 361
#
# _framework density 22.767239
#
# number of rings (size 3 to 8) (size 9 to 14) (size 15 to 20)
#    0.000    1.778    0.000    3.333    0.000   19.556 
#    0.000    6.667    0.000    0.000    0.000    0.000 
#    0.000    0.000    0.000    0.000    0.000    0.000 
#
# Total GULP energy -100753.996362 kJ/mol
# GULP energy per Si atom -5597.444242 kJ/mol
# Density = 2.271542 g / cm^3
# Si number density = 22.767239 Si / 1000 Ang^3
#
#
#
# Elastic Constant Matrix: (Units=GPa)
#
#
# Indices 1 2 3 4 5 6 
#
# 1 73.4321 20.4239 7.2554 0.0000 -14.3333 0.0000
# 2 20.4239 69.7964 37.6187 0.0000 -13.1181 0.0000
# 3 7.2554 37.6187 87.7888 0.0000 -22.3291 0.0000
# 4 0.0000 0.0000 0.0000 20.5997 0.0000 -11.3116
# 5 -14.3333 -13.1181 -22.3291 0.0000 46.9349 0.0000
# 6 0.0000 0.0000 0.0000 -11.3116 0.0000 19.5203
#
#
#
# Elastic Compliance Matrix: (Units=1/GPa)
#
#
# Indices 1 2 3 4 5 6 
#
# 1 0.015598 -0.004746 0.001842 0.000000 0.004313 0.000000
# 2 -0.004746 0.020181 -0.008179 0.000000 0.000300 0.000000
# 3 0.001842 -0.008179 0.016275 0.000000 0.006019 0.000000
# 4 0.000000 0.000000 0.000000 0.071200 0.000000 0.041259
# 5 0.004313 0.000300 0.006019 0.000000 0.025570 0.000000
# 6 0.000000 0.000000 0.000000 0.041259 0.000000 0.075137
#
#
# Mechanical properties :
#
#
# Convention : Reuss Voigt Hill
#
# Bulk Modulus (GPa) = 33.46060 40.17926 36.81993
# Shear Modulus (GPa) = 19.52425 28.45896 23.99160
#
# Velocity S-wave (km/s) = 2.93159 3.53936 3.24972
# Velocity P-wave (km/s) = 5.11739 5.86421 5.50348
#
# Compressibility (1/GPa) = 0.02988589
#
# Stress axis : x y z
#
# Youngs Moduli (GPa) = 64.11069 49.55132 61.44523
#
# Poissons Ratio (x) = 0.23519 -0.11317
# Poissons Ratio (y) = 0.30429 0.50258
# Poissons Ratio (z) = -0.11808 0.40530
#
# Static dielectric constant tensor:
#      x y z
#    x 1.820750 0.000000 -0.015890 
#    y 0.000000 1.848500 0.000000 
#    z -0.015890 0.000000 1.844810 
# 
# From -- ./inp_files/60231.got.cif
#   From: 2010.05.17/outbox.cif.g08.bks.cpg/sg13_31_cif.got.tgz:60231.got - 2010.06.03 16:44:36.
