data_PCOD9233445
_publ_section_title
;
Structure prediction by ZEFSAII (Michael W. Deem and Ramdas Pophale) SiO2 
 PCOD9233445
Probable space group: P 2/C
;
_chemical_formula_sum "Si O2"
_cell_formula_units_Z 24
_cell_length_a 22.246713
_cell_length_b 8.022540
_cell_length_c 9.130965
_cell_angle_alpha 90.000000
_cell_angle_beta 136.956044
_cell_angle_gamma 90.000000
_cell_volume 1112.332866
_symmetry_space_group_name_H-M "P 2/C"
_symmetry_group_IT_number 13
_symmetry_cell_setting 'monoclinic'
loop_
_space_group_symop_operation_xyz
x,y,z
-x,y,1/2-z
-x,-y,-z
x,-y,1/2+z
loop_
_atom_site_type_symbol
_atom_site_label
_atom_site_fract_x
_atom_site_fract_y
_atom_site_fract_z
Si Si1 0.500000 0.464200 0.750000
Si Si2 0.891980 0.698106 0.222942
Si Si3 0.582247 0.301968 0.184602
Si Si4 0.801595 0.058372 0.122791
Si Si5 0.500000 0.041951 0.250000
Si Si6 0.103103 0.636471 0.605939
Si Si7 0.684617 0.072886 0.196769
O O1 0.463585 0.372695 0.542416
O O2 0.421295 0.571195 0.685342
O O3 0.855856 0.884305 0.198102
O O4 0.866007 0.544935 0.282966
O O5 0.998401 0.675979 0.419589
O O6 0.868330 0.660093 0.011915
O O7 0.526007 0.152498 0.155606
O O8 0.673548 0.229159 0.287693
O O9 0.860353 0.221912 0.220435
O O10 0.756609 0.070243 0.200293
O O11 0.719620 0.069900 0.865765
O O12 0.589496 0.950012 0.453823
#
# Coordination Sequence:
#
# PCOD9233445 Si02
#       7
#     2   4   4   4   2   4   4
#     4   9  21  40  64  86 127 161 230 278 340 402
#     4  10  23  45  72 104 140 182 225 270 341 414
#     4  10  21  41  61  92 118 172 221 274 340 403
#     4  12  25  45  66 105 139 181 228 287 338 404
#     4  11  23  42  66  88 125 175 230 282 332 414
#     4  10  23  45  72 103 141 182 223 273 340 414
#     4  12  25  42  66  94 133 176 236 279 345 397
#
# _framework density 21.576276
#
# number of rings (size 3 to 8) (size 9 to 14) (size 15 to 20)
#    0.000    1.333    3.333    1.500    4.667    0.000 
#    3.000    0.000    0.000    0.000    0.000    0.000 
#    0.000    0.000    0.000    0.000    0.000    0.000 
#
# Total GULP energy -133657.373713 kJ/mol
# GULP energy per Si atom -5569.057238 kJ/mol
# Density = 2.152717 g / cm^3
# Si number density = 21.576276 Si / 1000 Ang^3
#
#
#
# Elastic Constant Matrix: (Units=GPa)
#
#
# Indices 1 2 3 4 5 6 
#
# 1 91.4451 6.5722 10.3825 0.0000 -21.0728 0.0000
# 2 6.5722 48.3211 30.4475 0.0000 2.4367 0.0000
# 3 10.3825 30.4475 97.0382 0.0000 -11.3933 0.0000
# 4 0.0000 0.0000 0.0000 24.6785 0.0000 -11.4194
# 5 -21.0728 2.4367 -11.3933 0.0000 24.0776 0.0000
# 6 0.0000 0.0000 0.0000 -11.4194 0.0000 68.0806
#
#
#
# Elastic Compliance Matrix: (Units=1/GPa)
#
#
# Indices 1 2 3 4 5 6 
#
# 1 0.014079 -0.003243 0.001055 0.000000 0.013149 0.000000
# 2 -0.003243 0.027644 -0.009517 0.000000 -0.010139 0.000000
# 3 0.001055 -0.009517 0.014188 0.000000 0.008600 0.000000
# 4 0.000000 0.000000 0.000000 0.043931 0.000000 0.007369
# 5 0.013149 -0.010139 0.008600 0.000000 0.058136 0.000000
# 6 0.000000 0.000000 0.000000 0.007369 0.000000 0.015924
#
#
# Mechanical properties :
#
#
# Convention : Reuss Voigt Hill
#
# Bulk Modulus (GPa) = 30.76801 36.84541 33.80671
# Shear Modulus (GPa) = 24.02148 35.99415 30.00781
#
# Velocity S-wave (km/s) = 3.34028 4.08883 3.73336
# Velocity P-wave (km/s) = 5.40071 6.27736 5.85546
#
# Compressibility (1/GPa) = 0.03250129
#
# Stress axis : x y z
#
# Youngs Moduli (GPa) = 71.02798 36.17395 70.48040
#
# Poissons Ratio (x) = 0.11730 -0.07435
# Poissons Ratio (y) = 0.23032 0.67079
# Poissons Ratio (z) = -0.07493 0.34428
#
# Static dielectric constant tensor:
#      x y z
#    x 1.665060 0.000000 0.007090 
#    y 0.000000 1.876970 0.000000 
#    z 0.007090 0.000000 1.808250 
# 
# From -- ./inp_files/22842.got.cif
#   From: 2010.05.17/outbox.cif.g08.bks.cpg/sg13_12_cif.got.tgz:22842.got - 2010.06.03 16:44:36.
