data_PCOD9233044
_publ_section_title
;
Structure prediction by ZEFSAII (Michael W. Deem and Ramdas Pophale) SiO2 
 PCOD9233044
Probable space group: P 2/C
;
_chemical_formula_sum "Si O2"
_cell_formula_units_Z 26
_cell_length_a 23.508768
_cell_length_b 5.330822
_cell_length_c 33.115805
_cell_angle_alpha 90.000000
_cell_angle_beta 163.814023
_cell_angle_gamma 90.000000
_cell_volume 1156.867707
_symmetry_space_group_name_H-M "P 2/C"
_symmetry_group_IT_number 13
_symmetry_cell_setting 'monoclinic'
loop_
_space_group_symop_operation_xyz
x,y,z
-x,y,1/2-z
-x,-y,-z
x,-y,1/2+z
loop_
_atom_site_type_symbol
_atom_site_label
_atom_site_fract_x
_atom_site_fract_y
_atom_site_fract_z
Si Si1 0.000000 0.549524 0.250000
Si Si2 0.649017 0.098651 0.508040
Si Si3 0.284004 0.745297 0.882436
Si Si4 0.045877 0.315662 0.568634
Si Si5 0.582241 0.717892 0.761814
Si Si6 0.540116 0.801767 0.184847
Si Si7 0.677006 0.569794 0.677920
O O1 0.172228 0.729313 0.386375
O O2 0.110944 0.391564 0.290833
O O3 0.442511 0.254324 0.371950
O O4 0.706585 0.023611 0.593117
O O5 0.611359 0.850858 0.455957
O O6 0.250628 0.718968 0.812252
O O7 0.504656 0.623708 0.044109
O O8 0.232253 0.151955 0.678220
O O9 0.143229 0.443739 0.674507
O O10 0.000000 0.500000 0.500000
O O11 0.823689 0.219541 0.428748
O O12 0.500000 0.662602 0.750000
O O13 0.541328 0.471490 0.706118
O O14 0.487497 0.971379 0.678976
#
# Coordination Sequence:
#
# PCOD9233044 Si02
#       7
#     2   4   4   4   4   4   4
#     4  10  24  38  62  92 134 178 216 274 346 422
#     4  11  21  40  65  94 130 175 227 274 345 412
#     4  10  21  40  63  89 133 167 226 275 342 398
#     4  10  21  42  68  97 130 176 230 277 336 408
#     4  11  25  44  67 103 140 177 226 290 347 408
#     4  11  23  43  73  94 135 185 229 280 345 416
#     4  10  21  39  63  95 124 173 224 289 326 395
#
# _framework density 22.474481000000001
#
# number of rings (size 3 to 8) (size 9 to 14) (size 15 to 20)
#    0.000    1.538    1.538    3.692    2.154    2.462 
#    2.769    0.000    0.000    0.000    0.000    0.000 
#    0.000    0.000    0.000    0.000    0.000    0.000 
#
# Total GULP energy -145284.099557 kJ/mol
# GULP energy per Si atom -5587.849983 kJ/mol
# Density = 2.242333 g / cm^3
# Si number density = 22.474481 Si / 1000 Ang^3
#
#
#
# Elastic Constant Matrix: (Units=GPa)
#
#
# Indices 1 2 3 4 5 6 
#
# 1 99.7796 12.0958 38.6445 0.0000 -13.9666 0.0000
# 2 12.0958 72.1581 13.3633 0.0000 -11.6162 0.0000
# 3 38.6445 13.3633 62.5962 0.0000 -11.0483 0.0000
# 4 0.0000 0.0000 0.0000 37.4210 0.0000 -8.5418
# 5 -13.9666 -11.6162 -11.0483 0.0000 37.2132 0.0000
# 6 0.0000 0.0000 0.0000 -8.5418 0.0000 30.4695
#
#
#
# Elastic Compliance Matrix: (Units=1/GPa)
#
#
# Indices 1 2 3 4 5 6 
#
# 1 0.013438 -0.000396 -0.007749 0.000000 0.002619 0.000000
# 2 -0.000396 0.014965 -0.002271 0.000000 0.003849 0.000000
# 3 -0.007749 -0.002271 0.021745 0.000000 0.002839 0.000000
# 4 0.000000 0.000000 0.000000 0.028550 0.000000 0.008004
# 5 0.002619 0.003849 0.002839 0.000000 0.029899 0.000000
# 6 0.000000 0.000000 0.000000 0.008004 0.000000 0.035063
#
#
# Mechanical properties :
#
#
# Convention : Reuss Voigt Hill
#
# Bulk Modulus (GPa) = 34.11129 40.30457 37.20793
# Shear Modulus (GPa) = 28.69183 32.38274 30.53729
#
# Velocity S-wave (km/s) = 3.57689 3.79999 3.69013
# Velocity P-wave (km/s) = 5.68063 6.10129 5.89471
#
# Compressibility (1/GPa) = 0.02931580
#
# Stress axis : x y z
#
# Youngs Moduli (GPa) = 74.41585 66.82277 45.98666
#
# Poissons Ratio (x) = 0.02645 0.35637
# Poissons Ratio (y) = 0.02946 0.10444
# Poissons Ratio (z) = 0.57667 0.15176
#
# Static dielectric constant tensor:
#      x y z
#    x 1.832840 0.000000 -0.027860 
#    y 0.000000 1.863190 0.000000 
#    z -0.027860 0.000000 1.905640 
# 
# From -- ./inp_files/97473.got.cif
#   From: 2010.05.17/outbox.cif.g08.bks.cpg/sg13_49_cif.got.tgz:97473.got - 2010.06.03 16:44:36.
