data_PCOD9233992
_publ_section_title
;
Structure prediction by ZEFSAII (Michael W. Deem and Ramdas Pophale) SiO2 
 PCOD9233992
Probable space group: P 2/C
;
_chemical_formula_sum "Si O2"
_cell_formula_units_Z 26
_cell_length_a 12.066494
_cell_length_b 23.346810
_cell_length_c 5.448901
_cell_angle_alpha 90.000000
_cell_angle_beta 56.120649
_cell_angle_gamma 90.000000
_cell_volume 1274.404282
_symmetry_space_group_name_H-M "P 2/C"
_symmetry_group_IT_number 13
_symmetry_cell_setting 'monoclinic'
loop_
_space_group_symop_operation_xyz
x,y,z
-x,y,1/2-z
-x,-y,-z
x,-y,1/2+z
loop_
_atom_site_type_symbol
_atom_site_label
_atom_site_fract_x
_atom_site_fract_y
_atom_site_fract_z
Si Si1 0.414600 0.228248 0.610242
Si Si2 0.854122 0.264149 0.055256
Si Si3 0.789838 0.847189 0.334540
Si Si4 0.657940 0.035252 0.069768
Si Si5 0.000000 0.198414 0.250000
Si Si6 0.659619 0.659958 0.517918
Si Si7 0.662475 0.530070 0.525405
O O1 0.500000 0.229757 0.750000
O O2 0.320976 0.172726 0.725825
O O3 0.336462 0.288857 0.684561
O O4 0.500000 0.224306 0.250000
O O5 0.791392 0.206312 0.017374
O O6 0.000000 0.276216 0.750000
O O7 0.749351 0.314188 0.127996
O O8 0.892223 0.242194 0.275119
O O9 0.746606 0.907952 0.485233
O O10 0.934213 0.842010 0.033090
O O11 0.500000 0.050507 0.250000
O O12 0.683380 0.996350 0.278431
O O13 0.500000 0.654440 0.750000
O O14 0.703943 0.595300 0.414543
O O15 0.500000 0.527656 0.750000
O O16 0.706692 0.491118 0.240618
#
# Coordination Sequence:
#
# PCOD9233992 Si02
#       7
#     4   4   4   4   2   4   4
#     4  10  22  34  56  90 121 150 190 249 312 359
#     4   9  20  40  58  88 121 160 200 245 312 369
#     4  10  22  38  62  85 122 159 201 246 298 369
#     4  10  23  41  63  92 124 159 201 250 305 359
#     4  10  22  38  64  84 120 166 202 242 304 384
#     4   9  19  34  58  89 120 150 203 258 300 360
#     4   9  18  33  51  79 117 159 195 240 301 358
#
# _framework density 20.401691
#
# number of rings (size 3 to 8) (size 9 to 14) (size 15 to 20)
#    0.000    2.462    0.000    0.462    8.615    6.769 
#    5.538    0.769    0.000    0.923    0.000    0.000 
#    0.000    0.000    0.000    0.000    0.000    0.000 
#
# Total GULP energy -144827.601924 kJ/mol
# GULP energy per Si atom -5570.292382 kJ/mol
# Density = 2.035526 g / cm^3
# Si number density = 20.401691 Si / 1000 Ang^3
#
#
#
# Elastic Constant Matrix: (Units=GPa)
#
#
# Indices 1 2 3 4 5 6 
#
# 1 85.5120 30.0417 24.1838 0.0000 13.2127 0.0000
# 2 30.0417 90.1295 22.7941 0.0000 -9.2447 0.0000
# 3 24.1838 22.7941 74.8022 0.0000 4.6931 0.0000
# 4 0.0000 0.0000 0.0000 17.3341 0.0000 -2.1113
# 5 13.2127 -9.2447 4.6931 0.0000 28.1315 0.0000
# 6 0.0000 0.0000 0.0000 -2.1113 0.0000 9.9057
#
#
#
# Elastic Compliance Matrix: (Units=1/GPa)
#
#
# Indices 1 2 3 4 5 6 
#
# 1 0.015759 -0.005411 -0.002900 0.000000 -0.008696 0.000000
# 2 -0.005411 0.014502 -0.003161 0.000000 0.007835 0.000000
# 3 -0.002900 -0.003161 0.015411 0.000000 -0.002247 0.000000
# 4 0.000000 0.000000 0.000000 0.059227 0.000000 0.012624
# 5 -0.008696 0.007835 -0.002247 0.000000 0.042581 0.000000
# 6 0.000000 0.000000 0.000000 0.012624 0.000000 0.103643
#
#
# Mechanical properties :
#
#
# Convention : Reuss Voigt Hill
#
# Bulk Modulus (GPa) = 44.00250 44.94254 44.47252
# Shear Modulus (GPa) = 17.75289 22.63585 20.19437
#
# Velocity S-wave (km/s) = 2.95306 3.33454 3.14958
# Velocity P-wave (km/s) = 5.76561 6.07472 5.92218
#
# Compressibility (1/GPa) = 0.02272598
#
# Stress axis : x y z
#
# Youngs Moduli (GPa) = 63.45468 68.95657 64.89035
#
# Poissons Ratio (x) = 0.37314 0.18821
# Poissons Ratio (y) = 0.34337 0.20513
# Poissons Ratio (z) = 0.18405 0.21798
#
# Static dielectric constant tensor:
#      x y z
#    x 1.822520 0.000000 -0.015750 
#    y 0.000000 1.693330 0.000000 
#    z -0.015750 0.000000 1.823940 
# 
# From -- ./inp_files/4043.got.cif
#   From: 2010.05.17/outbox.cif.g08.bks.cpg/sg13_3_cif.got.tgz:4043.got - 2010.06.03 16:44:36.
