data_PCOD9233127
_publ_section_title
;
Structure prediction by ZEFSAII (Michael W. Deem and Ramdas Pophale) SiO2 
 PCOD9233127
Probable space group: P 2/C
;
_chemical_formula_sum "Si O2"
_cell_formula_units_Z 24
_cell_length_a 15.262171
_cell_length_b 7.892503
_cell_length_c 15.483117
_cell_angle_alpha 90.000000
_cell_angle_beta 147.111144
_cell_angle_gamma 90.000000
_cell_volume 1012.740554
_symmetry_space_group_name_H-M "P 2/C"
_symmetry_group_IT_number 13
_symmetry_cell_setting 'monoclinic'
loop_
_space_group_symop_operation_xyz
x,y,z
-x,y,1/2-z
-x,-y,-z
x,-y,1/2+z
loop_
_atom_site_type_symbol
_atom_site_label
_atom_site_fract_x
_atom_site_fract_y
_atom_site_fract_z
Si Si1 0.475223 0.882700 0.062239
Si Si2 0.987442 0.463887 0.344196
Si Si3 0.346736 0.380129 0.880405
Si Si4 0.384865 0.178531 0.090108
Si Si5 0.871424 0.876677 0.795649
Si Si6 0.892717 0.178584 0.511482
O O1 0.286101 0.832981 0.892365
O O2 0.615883 0.745204 0.168757
O O3 0.500000 0.000000 0.000000
O O4 0.480580 0.008507 0.145508
O O5 0.816392 0.516376 0.246012
O O6 0.005033 0.267737 0.385516
O O7 0.000000 0.475443 0.250000
O O8 0.093573 0.617823 0.468807
O O9 0.500000 0.500000 0.000000
O O10 0.355484 0.278233 0.977777
O O11 0.500000 0.281994 0.250000
O O12 0.222938 0.132716 0.005597
O O13 0.831788 0.862867 0.864729
O O14 0.945028 0.064846 0.842811
#
# Coordination Sequence:
#
# PCOD9233127 Si02
#       6
#     4   4   4   4   4   4
#     4  10  21  39  66  93 122 172 217 264 333 394
#     4  12  25  42  70 100 135 177 227 274 333 406
#     4  11  22  42  67  94 131 176 216 270 339 394
#     4  11  24  42  67  96 132 171 225 280 334 396
#     4  11  25  42  70  96 138 176 222 277 332 399
#     4  11  24  44  66 100 135 179 220 279 338 393
#
# _framework density 23.698074999999999
#
# number of rings (size 3 to 8) (size 9 to 14) (size 15 to 20)
#    0.000    1.000    3.333    4.500    2.333    1.333 
#    0.000    0.833    0.000    0.000    0.000    0.000 
#    0.000    0.000    0.000    0.000    0.000    0.000 
#
# Total GULP energy -133996.698995 kJ/mol
# GULP energy per Si atom -5583.195791 kJ/mol
# Density = 2.364414 g / cm^3
# Si number density = 23.698075 Si / 1000 Ang^3
#
#
#
# Elastic Constant Matrix: (Units=GPa)
#
#
# Indices 1 2 3 4 5 6 
#
# 1 143.0000 19.4179 14.5893 0.0000 -2.7851 0.0000
# 2 19.4179 81.1574 -1.2267 0.0000 -5.3491 0.0000
# 3 14.5893 -1.2267 45.4601 0.0000 -6.7193 0.0000
# 4 0.0000 0.0000 0.0000 20.0505 0.0000 4.1869
# 5 -2.7851 -5.3491 -6.7193 0.0000 33.8574 0.0000
# 6 0.0000 0.0000 0.0000 4.1869 0.0000 18.9967
#
#
#
# Elastic Compliance Matrix: (Units=1/GPa)
#
#
# Indices 1 2 3 4 5 6 
#
# 1 0.007493 -0.001841 -0.002479 0.000000 -0.000166 0.000000
# 2 -0.001841 0.012922 0.001256 0.000000 0.002139 0.000000
# 3 -0.002479 0.001256 0.023516 0.000000 0.004661 0.000000
# 4 0.000000 0.000000 0.000000 0.052280 0.000000 -0.011523
# 5 -0.000166 0.002139 0.004661 0.000000 0.030785 0.000000
# 6 0.000000 0.000000 0.000000 -0.011523 0.000000 0.055180
#
#
# Mechanical properties :
#
#
# Convention : Reuss Voigt Hill
#
# Bulk Modulus (GPa) = 26.45354 37.24206 31.84780
# Shear Modulus (GPa) = 24.88734 30.37004 27.62869
#
# Velocity S-wave (km/s) = 3.24417 3.58374 3.41818
# Velocity P-wave (km/s) = 5.02193 5.73355 5.38950
#
# Compressibility (1/GPa) = 0.03780213
#
# Stress axis : x y z
#
# Youngs Moduli (GPa) = 133.46366 77.38593 42.52471
#
# Poissons Ratio (x) = 0.14248 0.10541
# Poissons Ratio (y) = 0.24573 -0.05340
# Poissons Ratio (z) = 0.33084 -0.09718
#
# Static dielectric constant tensor:
#      x y z
#    x 1.885460 0.000000 0.053420 
#    y 0.000000 1.976540 0.000000 
#    z 0.053420 0.000000 2.018670 
# 
# From -- ./inp_files/53185.got.cif
#   From: 2010.05.17/outbox.cif.g08.bks.cpg/sg13_27_cif.got.tgz:53185.got - 2010.06.03 16:44:36.
