data_PCOD9233874
_publ_section_title
;
Structure prediction by ZEFSAII (Michael W. Deem and Ramdas Pophale) SiO2 
 PCOD9233874
Probable space group: P 2/C
;
_chemical_formula_sum "Si O2"
_cell_formula_units_Z 26
_cell_length_a 12.553145
_cell_length_b 4.975333
_cell_length_c 19.294234
_cell_angle_alpha 90.000000
_cell_angle_beta 54.409343
_cell_angle_gamma 90.000000
_cell_volume 979.935069
_symmetry_space_group_name_H-M "P 2/C"
_symmetry_group_IT_number 13
_symmetry_cell_setting 'monoclinic'
loop_
_space_group_symop_operation_xyz
x,y,z
-x,y,1/2-z
-x,-y,-z
x,-y,1/2+z
loop_
_atom_site_type_symbol
_atom_site_label
_atom_site_fract_x
_atom_site_fract_y
_atom_site_fract_z
Si Si1 0.162820 0.031670 0.798450
Si Si2 0.462487 0.664556 0.426432
Si Si3 0.923490 0.435339 0.900797
Si Si4 0.000000 0.822311 0.750000
Si Si5 0.884743 0.777098 0.551726
Si Si6 0.656732 0.834521 0.458819
Si Si7 0.629041 0.935914 0.172902
O O1 0.290973 0.147090 0.787939
O O2 0.046701 0.239873 0.853741
O O3 0.131448 0.958696 0.731627
O O4 0.135306 0.766818 0.857718
O O5 0.603304 0.764066 0.401961
O O6 0.436525 0.359129 0.458041
O O7 0.426534 0.718857 0.360248
O O8 0.367887 0.860683 0.508080
O O9 0.800313 0.267258 0.920242
O O10 0.945138 0.659947 0.835904
O O11 0.898619 0.471544 0.993207
O O12 0.742132 0.905913 0.588640
O O13 0.000000 0.000000 0.500000
O O14 0.500000 0.086923 0.250000
#
# Coordination Sequence:
#
# PCOD9233874 Si02
#       7
#     4   4   4   2   4   4   4
#     4   9  23  45  63 101 137 187 244 314 372 452
#     4  10  22  43  66 107 139 190 239 304 358 447
#     4  11  22  43  70 101 138 191 247 311 373 456
#     4  12  26  38  64 102 144 186 240 322 388 434
#     4   8  18  41  67  94 132 183 243 297 359 449
#     4  10  22  42  73 100 141 188 248 293 370 437
#     4  10  21  43  72 101 141 194 243 309 372 446
#
# _framework density 26.532371999999999
#
# number of rings (size 3 to 8) (size 9 to 14) (size 15 to 20)
#    0.923    1.231    1.538    0.462    2.154    3.077 
#   11.077    0.769    0.000    0.000    0.000    0.000 
#    0.000    0.000    0.000    0.000    0.000    0.000 
#
# Total GULP energy -145024.049397 kJ/mol
# GULP energy per Si atom -5577.848054 kJ/mol
# Density = 2.647198 g / cm^3
# Si number density = 26.532372 Si / 1000 Ang^3
#
#
#
# Elastic Constant Matrix: (Units=GPa)
#
#
# Indices 1 2 3 4 5 6 
#
# 1 265.1598 25.0126 67.6430 0.0000 24.8856 0.0000
# 2 25.0126 70.2487 21.3167 0.0000 10.0522 0.0000
# 3 67.6430 21.3167 77.5622 0.0000 22.6552 0.0000
# 4 0.0000 0.0000 0.0000 32.3419 0.0000 17.5874
# 5 24.8856 10.0522 22.6552 0.0000 75.1652 0.0000
# 6 0.0000 0.0000 0.0000 17.5874 0.0000 28.7844
#
#
#
# Elastic Compliance Matrix: (Units=1/GPa)
#
#
# Indices 1 2 3 4 5 6 
#
# 1 0.004873 -0.000466 -0.004023 0.000000 -0.000339 0.000000
# 2 -0.000466 0.015627 -0.003644 0.000000 -0.000837 0.000000
# 3 -0.004023 -0.003644 0.018500 0.000000 -0.003757 0.000000
# 4 0.000000 0.000000 0.000000 0.046305 0.000000 -0.028293
# 5 -0.000339 -0.000837 -0.003757 0.000000 0.014660 0.000000
# 6 0.000000 0.000000 0.000000 -0.028293 0.000000 0.052028
#
#
# Mechanical properties :
#
#
# Convention : Reuss Voigt Hill
#
# Bulk Modulus (GPa) = 43.98621 71.21282 57.59951
# Shear Modulus (GPa) = 28.43530 47.19153 37.81341
#
# Velocity S-wave (km/s) = 3.27727 4.22197 3.77925
# Velocity P-wave (km/s) = 5.56192 7.11793 6.38748
#
# Compressibility (1/GPa) = 0.02273440
#
# Stress axis : x y z
#
# Youngs Moduli (GPa) = 205.19734 63.99365 54.05319
#
# Poissons Ratio (x) = 0.02982 0.21747
# Poissons Ratio (y) = 0.09561 0.19696
# Poissons Ratio (z) = 0.82554 0.23318
#
# Static dielectric constant tensor:
#      x y z
#    x 2.192840 0.000000 0.055110 
#    y 0.000000 2.073090 0.000000 
#    z 0.055110 0.000000 2.288960 
# 
# From -- ./inp_files/77187.got.cif
#   From: 2010.05.17/outbox.cif.g08.bks.cpg/sg13_39_cif.got.tgz:77187.got - 2010.06.03 16:44:36.
