data_PCOD9233471
_publ_section_title
;
Structure prediction by ZEFSAII (Michael W. Deem and Ramdas Pophale) SiO2 
 PCOD9233471
Probable space group: P 2/C
;
_chemical_formula_sum "Si O2"
_cell_formula_units_Z 20
_cell_length_a 7.246814
_cell_length_b 6.636862
_cell_length_c 17.859737
_cell_angle_alpha 90.000000
_cell_angle_beta 81.565999
_cell_angle_gamma 90.000000
_cell_volume 849.694270
_symmetry_space_group_name_H-M "P 2/C"
_symmetry_group_IT_number 13
_symmetry_cell_setting 'monoclinic'
loop_
_space_group_symop_operation_xyz
x,y,z
-x,y,1/2-z
-x,-y,-z
x,-y,1/2+z
loop_
_atom_site_type_symbol
_atom_site_label
_atom_site_fract_x
_atom_site_fract_y
_atom_site_fract_z
Si Si1 0.927542 0.348295 0.839011
Si Si2 0.503749 0.270253 0.833370
Si Si3 0.359820 0.359662 0.414043
Si Si4 0.771730 0.329490 0.450327
Si Si5 0.823930 0.054536 0.573686
O O1 0.713698 0.279277 0.847929
O O2 0.907524 0.561206 0.883235
O O3 0.000000 0.368251 0.750000
O O4 0.046582 0.184046 0.877981
O O5 0.500000 0.188707 0.750000
O O6 0.594242 0.491035 0.657617
O O7 0.382985 0.142709 0.896882
O O8 0.566732 0.289173 0.428024
O O9 0.269153 0.499296 0.484210
O O10 0.221079 0.177155 0.409745
O O11 0.855030 0.132701 0.486611
#
# Coordination Sequence:
#
# PCOD9233471 Si02
#       5
#     4   4   4   4   4
#     4  11  22  39  64  93 129 175 216 271 334 398
#     4  10  21  41  63  88 130 172 214 271 333 395
#     4   9  20  38  66  94 122 167 220 268 328 394
#     4   9  20  39  64  94 129 168 217 268 331 395
#     4  11  21  39  69  92 125 169 223 274 331 385
#
# _framework density 23.537877000000002
#
# number of rings (size 3 to 8) (size 9 to 14) (size 15 to 20)
#    0.000    2.000    2.000    2.400    0.000    1.600 
#    0.000    8.000    0.000    0.000    0.000    0.000 
#    0.000    0.000    0.000    0.000    0.000    0.000 
#
# Total GULP energy -111847.722582 kJ/mol
# GULP energy per Si atom -5592.386129 kJ/mol
# Density = 2.348430 g / cm^3
# Si number density = 23.537877 Si / 1000 Ang^3
#
#
#
# Elastic Constant Matrix: (Units=GPa)
#
#
# Indices 1 2 3 4 5 6 
#
# 1 126.3127 52.8476 17.1936 0.0000 -3.4169 0.0000
# 2 52.8476 89.3295 15.9187 0.0000 11.3288 0.0000
# 3 17.1936 15.9187 80.4516 0.0000 -12.0432 0.0000
# 4 0.0000 0.0000 0.0000 11.6833 0.0000 11.8334
# 5 -3.4169 11.3288 -12.0432 0.0000 33.2731 0.0000
# 6 0.0000 0.0000 0.0000 11.8334 0.0000 16.1748
#
#
#
# Elastic Compliance Matrix: (Units=1/GPa)
#
#
# Indices 1 2 3 4 5 6 
#
# 1 0.010908 -0.006774 -0.000505 0.000000 0.003244 0.000000
# 2 -0.006774 0.016675 -0.002967 0.000000 -0.007447 0.000000
# 3 -0.000505 -0.002967 0.014028 0.000000 0.006036 0.000000
# 4 0.000000 0.000000 0.000000 0.330457 0.000000 -0.241760
# 5 0.003244 -0.007447 0.006036 0.000000 0.035108 0.000000
# 6 0.000000 0.000000 0.000000 -0.241760 0.000000 0.238694
#
#
# Mechanical properties :
#
#
# Convention : Reuss Voigt Hill
#
# Bulk Modulus (GPa) = 47.35006 52.00151 49.67579
# Shear Modulus (GPa) = 7.42499 26.23518 16.83009
#
# Velocity S-wave (km/s) = 1.77801 3.34218 2.67689
# Velocity P-wave (km/s) = 4.93714 6.08557 5.54119
#
# Compressibility (1/GPa) = 0.02111930
#
# Stress axis : x y z
#
# Youngs Moduli (GPa) = 91.67849 59.96880 71.28460
#
# Poissons Ratio (x) = 0.40625 0.03601
# Poissons Ratio (y) = 0.62107 0.21147
# Poissons Ratio (z) = 0.04631 0.17790
#
# Static dielectric constant tensor:
#      x y z
#    x 1.948300 0.000000 -0.020000 
#    y 0.000000 1.910120 0.000000 
#    z -0.020000 0.000000 1.912110 
# 
# From -- ./inp_files/60716.got.cif
#   From: 2010.05.17/outbox.cif.g08.bks.cpg/sg13_31_cif.got.tgz:60716.got - 2010.06.03 16:44:36.
