data_PCOD9233568
_publ_section_title
;
Structure prediction by ZEFSAII (Michael W. Deem and Ramdas Pophale) SiO2 
 PCOD9233568
Probable space group: P 2/C
;
_chemical_formula_sum "Si O2"
_cell_formula_units_Z 30
_cell_length_a 6.288428
_cell_length_b 15.616689
_cell_length_c 17.672770
_cell_angle_alpha 90.000000
_cell_angle_beta 119.049555
_cell_angle_gamma 90.000000
_cell_volume 1517.212864
_symmetry_space_group_name_H-M "P 2/C"
_symmetry_group_IT_number 13
_symmetry_cell_setting 'monoclinic'
loop_
_space_group_symop_operation_xyz
x,y,z
-x,y,1/2-z
-x,-y,-z
x,-y,1/2+z
loop_
_atom_site_type_symbol
_atom_site_label
_atom_site_fract_x
_atom_site_fract_y
_atom_site_fract_z
Si Si1 0.000000 0.928948 0.250000
Si Si2 0.431039 0.825445 0.949258
Si Si3 0.755398 0.945619 0.449344
Si Si4 0.621335 0.068902 0.195645
Si Si5 0.033908 0.820270 0.399312
Si Si6 0.725185 0.649492 0.344487
Si Si7 0.896475 0.478011 0.565510
Si Si8 0.586636 0.365799 0.998620
O O1 0.897020 0.866918 0.167426
O O2 0.815797 0.997609 0.254152
O O3 0.327410 0.894644 0.990865
O O4 0.727058 0.825835 0.006765
O O5 0.372829 0.728787 0.962730
O O6 0.318365 0.853679 0.849823
O O7 0.815671 0.874343 0.397744
O O8 0.555874 0.011446 0.386472
O O9 0.000000 0.000000 0.500000
O O10 0.500000 0.103032 0.250000
O O11 0.920249 0.726574 0.370713
O O12 0.500000 0.663414 0.250000
O O13 0.631067 0.641588 0.415281
O O14 0.876722 0.563462 0.352022
O O15 0.677728 0.407816 0.529737
O O16 0.774608 0.566982 0.568075
O O17 0.000000 0.500000 0.500000
#
# Coordination Sequence:
#
# PCOD9233568 Si02
#       8
#     2   4   4   4   4   4   4   4
#     4  12  26  40  58  92 138 170 214 274 338 376
#     4  12  24  41  67  93 122 175 227 262 330 395
#     4  12  23  41  61  90 123 169 222 269 324 390
#     4  12  26  41  59  87 127 177 221 275 319 375
#     4  12  24  37  60  94 133 167 210 272 323 399
#     4  11  24  37  63 105 134 162 202 268 342 397
#     4   9  20  41  66  94 126 166 206 258 330 396
#     4  10  21  41  67  96 125 171 218 264 319 395
#
# _framework density 19.773098999999998
#
# number of rings (size 3 to 8) (size 9 to 14) (size 15 to 20)
#    0.000    0.800    6.667    1.200    3.733    0.533 
#    0.000    0.000    0.000   13.600    0.000    0.000 
#    0.000    0.000    0.000    0.000    0.000    0.000 
#
# Total GULP energy -167341.539682 kJ/mol
# GULP energy per Si atom -5578.051323 kJ/mol
# Density = 1.972809 g / cm^3
# Si number density = 19.773099 Si / 1000 Ang^3
#
#
#
# Elastic Constant Matrix: (Units=GPa)
#
#
# Indices 1 2 3 4 5 6 
#
# 1 70.5530 33.8203 12.4556 0.0000 -7.1321 0.0000
# 2 33.8203 117.5690 42.5466 0.0000 -0.6301 0.0000
# 3 12.4556 42.5466 36.4905 0.0000 -11.2425 0.0000
# 4 0.0000 0.0000 0.0000 22.7107 0.0000 2.9125
# 5 -7.1321 -0.6301 -11.2425 0.0000 34.2779 0.0000
# 6 0.0000 0.0000 0.0000 2.9125 0.0000 39.4558
#
#
#
# Elastic Compliance Matrix: (Units=1/GPa)
#
#
# Indices 1 2 3 4 5 6 
#
# 1 0.016897 -0.005542 0.001942 0.000000 0.004051 0.000000
# 2 -0.005542 0.017714 -0.021154 0.000000 -0.007766 0.000000
# 3 0.001942 -0.021154 0.057191 0.000000 0.018773 0.000000
# 4 0.000000 0.000000 0.000000 0.044453 0.000000 -0.003281
# 5 0.004051 -0.007766 0.018773 0.000000 0.036030 0.000000
# 6 0.000000 0.000000 0.000000 -0.003281 0.000000 0.025587
#
#
# Mechanical properties :
#
#
# Convention : Reuss Voigt Hill
#
# Bulk Modulus (GPa) = 23.64486 44.69529 34.17007
# Shear Modulus (GPa) = 19.12209 28.34156 23.73183
#
# Velocity S-wave (km/s) = 3.11316 3.79005 3.46816
# Velocity P-wave (km/s) = 4.99063 6.46574 5.77548
#
# Compressibility (1/GPa) = 0.04229249
#
# Stress axis : x y z
#
# Youngs Moduli (GPa) = 59.18270 56.45365 17.48538
#
# Poissons Ratio (x) = 0.31284 -0.03395
# Poissons Ratio (y) = 0.32797 0.36989
# Poissons Ratio (z) = -0.11492 1.19425
#
# Static dielectric constant tensor:
#      x y z
#    x 1.760760 0.000000 0.021120 
#    y 0.000000 1.732160 0.000000 
#    z 0.021120 0.000000 1.678470 
# 
# From -- ./inp_files/73938.got.cif
#   From: 2010.05.17/outbox.cif.g08.bks.cpg/sg13_37_cif.got.tgz:73938.got - 2010.06.03 16:44:36.
