data_PCOD9233462
_publ_section_title
;
Structure prediction by ZEFSAII (Michael W. Deem and Ramdas Pophale) SiO2 
 PCOD9233462
Probable space group: P 2/C
;
_chemical_formula_sum "Si O2"
_cell_formula_units_Z 26
_cell_length_a 15.604622
_cell_length_b 10.143931
_cell_length_c 21.472226
_cell_angle_alpha 90.000000
_cell_angle_beta 157.833699
_cell_angle_gamma 90.000000
_cell_volume 1282.386677
_symmetry_space_group_name_H-M "P 2/C"
_symmetry_group_IT_number 13
_symmetry_cell_setting 'monoclinic'
loop_
_space_group_symop_operation_xyz
x,y,z
-x,y,1/2-z
-x,-y,-z
x,-y,1/2+z
loop_
_atom_site_type_symbol
_atom_site_label
_atom_site_fract_x
_atom_site_fract_y
_atom_site_fract_z
Si Si1 0.301716 0.347512 0.161378
Si Si2 0.540755 0.583847 0.396569
Si Si3 0.000000 0.448173 0.750000
Si Si4 0.324735 0.967458 0.328002
Si Si5 0.853487 0.324717 0.779470
Si Si6 0.947109 0.862614 0.927863
Si Si7 0.444731 0.147657 0.779378
O O1 0.500000 0.297262 0.250000
O O2 0.405428 0.476481 0.264124
O O3 0.234452 0.233882 0.164389
O O4 0.071252 0.368994 0.966863
O O5 0.783811 0.529940 0.580608
O O6 0.374140 0.615242 0.342800
O O7 0.581291 0.720697 0.387234
O O8 0.904372 0.365134 0.743514
O O9 0.186897 0.832448 0.245181
O O10 0.444809 0.944262 0.340809
O O11 0.500000 0.000000 0.500000
O O12 0.148489 0.087248 0.201598
O O13 0.190360 0.795933 0.096631
O O14 0.000000 0.000000 0.000000
O O15 0.500000 0.082958 0.750000
#
# Coordination Sequence:
#
# PCOD9233462 Si02
#       7
#     4   4   2   4   4   4   4
#     4  12  22  40  72  97 126 176 234 271 325 398
#     4  11  24  42  68  96 136 175 215 284 334 402
#     4  12  26  42  62 104 138 174 222 272 348 422
#     4  10  23  45  66  94 138 173 219 284 347 391
#     4  11  24  46  64  99 133 174 227 272 342 400
#     4  10  21  41  62  92 130 171 221 281 317 394
#     4  10  22  43  66  96 128 174 229 266 330 405
#
# _framework density 20.274695000000001
#
# number of rings (size 3 to 8) (size 9 to 14) (size 15 to 20)
#    0.000    1.231    6.154    1.385    2.154    2.462 
#    8.308    0.000    0.000    0.000    0.000    0.000 
#    0.000    0.000    0.000    0.000    0.000    0.000 
#
# Total GULP energy -145033.556156 kJ/mol
# GULP energy per Si atom -5578.213698 kJ/mol
# Density = 2.022855 g / cm^3
# Si number density = 20.274695 Si / 1000 Ang^3
#
#
#
# Elastic Constant Matrix: (Units=GPa)
#
#
# Indices 1 2 3 4 5 6 
#
# 1 107.6963 13.3500 29.1389 0.0000 -8.8156 0.0000
# 2 13.3500 45.7356 8.8293 0.0000 -14.5774 0.0000
# 3 29.1389 8.8293 91.1489 0.0000 -22.1260 0.0000
# 4 0.0000 0.0000 0.0000 22.3242 0.0000 -10.2739
# 5 -8.8156 -14.5774 -22.1260 0.0000 38.2725 0.0000
# 6 0.0000 0.0000 0.0000 -10.2739 0.0000 10.5819
#
#
#
# Elastic Compliance Matrix: (Units=1/GPa)
#
#
# Indices 1 2 3 4 5 6 
#
# 1 0.010431 -0.002562 -0.003188 0.000000 -0.000416 0.000000
# 2 -0.002562 0.025516 0.000655 0.000000 0.009507 0.000000
# 3 -0.003188 0.000655 0.013737 0.000000 0.007457 0.000000
# 4 0.000000 0.000000 0.000000 0.080976 0.000000 0.078619
# 5 -0.000416 0.009507 0.007457 0.000000 0.033965 0.000000
# 6 0.000000 0.000000 0.000000 0.078619 0.000000 0.170832
#
#
# Mechanical properties :
#
#
# Convention : Reuss Voigt Hill
#
# Bulk Modulus (GPa) = 25.31911 38.57971 31.94941
# Shear Modulus (GPa) = 13.93489 27.11988 20.52739
#
# Velocity S-wave (km/s) = 2.62449 3.66132 3.18538
# Velocity P-wave (km/s) = 4.65823 6.07812 5.41491
#
# Compressibility (1/GPa) = 0.03949585
#
# Stress axis : x y z
#
# Youngs Moduli (GPa) = 95.86481 39.19036 72.79776
#
# Poissons Ratio (x) = 0.10041 0.23204
# Poissons Ratio (y) = 0.24561 -0.04770
# Poissons Ratio (z) = 0.30557 -0.02568
#
# Static dielectric constant tensor:
#      x y z
#    x 1.785500 0.000000 0.010270 
#    y 0.000000 1.729170 0.000000 
#    z 0.010270 0.000000 1.749780 
# 
# From -- ./inp_files/88078.got.cif
#   From: 2010.05.17/outbox.cif.g08.bks.cpg/sg13_45_cif.got.tgz:88078.got - 2010.06.03 16:44:36.
