data_PCOD9233668
_publ_section_title
;
Structure prediction by ZEFSAII (Michael W. Deem and Ramdas Pophale) SiO2 
 PCOD9233668
Probable space group: P 2/C
;
_chemical_formula_sum "Si O2"
_cell_formula_units_Z 28
_cell_length_a 20.194346
_cell_length_b 5.919168
_cell_length_c 21.403637
_cell_angle_alpha 90.000000
_cell_angle_beta 24.620264
_cell_angle_gamma 90.000000
_cell_volume 1065.858959
_symmetry_space_group_name_H-M "P 2/C"
_symmetry_group_IT_number 13
_symmetry_cell_setting 'monoclinic'
loop_
_space_group_symop_operation_xyz
x,y,z
-x,y,1/2-z
-x,-y,-z
x,-y,1/2+z
loop_
_atom_site_type_symbol
_atom_site_label
_atom_site_fract_x
_atom_site_fract_y
_atom_site_fract_z
Si Si1 0.000000 0.432094 0.750000
Si Si2 0.102704 0.412243 0.853335
Si Si3 0.382103 0.481890 0.042648
Si Si4 0.877928 0.944793 0.547243
Si Si5 0.301916 0.169943 0.511805
Si Si6 0.785314 0.772731 0.009642
Si Si7 0.500000 0.481869 0.250000
Si Si8 0.402920 0.897271 0.141557
O O1 0.728086 0.941428 0.002718
O O2 0.903850 0.595980 0.877504
O O3 0.204841 0.575260 0.720622
O O4 0.250714 0.257781 0.751050
O O5 0.000000 0.500000 0.000000
O O6 0.963156 0.267992 0.941853
O O7 0.375843 0.723550 0.012782
O O8 0.500000 0.500000 0.000000
O O9 0.465200 0.264858 0.937896
O O10 0.864245 0.118060 0.502553
O O11 0.699137 0.925835 0.728591
O O12 0.000000 0.000000 0.500000
O O13 0.404718 0.320684 0.376990
O O14 0.126856 0.267763 0.671486
O O15 0.631291 0.642879 0.167022
O O16 0.500000 0.000000 0.000000
#
# Coordination Sequence:
#
# PCOD9233668 Si02
#       8
#     2   4   4   4   4   4   2   4
#     4  10  26  42  74 100 148 192 242 302 360 462
#     4  10  22  40  62 100 138 178 225 289 362 432
#     4  10  23  44  69 105 142 184 241 306 368 443
#     4  10  23  43  70 105 141 185 243 304 372 442
#     4  11  24  46  73 104 146 193 253 297 371 451
#     4  11  24  47  73 103 146 196 247 300 377 438
#     4  10  24  50  68 102 138 200 244 306 356 458
#     4  10  21  42  65 101 140 182 228 299 371 431
#
# _framework density 26.269891000000001
#
# number of rings (size 3 to 8) (size 9 to 14) (size 15 to 20)
#    0.000    1.714    0.000    2.571    4.000    4.571 
#   33.429    0.000    0.000    0.000    0.000    0.000 
#    0.000    0.000    0.000    0.000    0.000    0.000 
#
# Total GULP energy -156158.001724 kJ/mol
# GULP energy per Si atom -5577.071490 kJ/mol
# Density = 2.621010 g / cm^3
# Si number density = 26.269891 Si / 1000 Ang^3
#
#
#
# Elastic Constant Matrix: (Units=GPa)
#
#
# Indices 1 2 3 4 5 6 
#
# 1 109.6717 22.5039 19.1459 0.0000 -3.3014 0.0000
# 2 22.5039 63.0678 53.2315 0.0000 -9.1047 0.0000
# 3 19.1459 53.2315 240.2647 0.0000 -1.2925 0.0000
# 4 0.0000 0.0000 0.0000 60.6970 0.0000 -17.2845
# 5 -3.3014 -9.1047 -1.2925 0.0000 38.9103 0.0000
# 6 0.0000 0.0000 0.0000 -17.2845 0.0000 27.9351
#
#
#
# Elastic Compliance Matrix: (Units=1/GPa)
#
#
# Indices 1 2 3 4 5 6 
#
# 1 0.009838 -0.003502 -0.000008 0.000000 0.000015 0.000000
# 2 -0.003502 0.021540 -0.004469 0.000000 0.004595 0.000000
# 3 -0.000008 -0.004469 0.005148 0.000000 -0.000875 0.000000
# 4 0.000000 0.000000 0.000000 0.019999 0.000000 0.012374
# 5 0.000015 0.004595 -0.000875 0.000000 0.026747 0.000000
# 6 0.000000 0.000000 0.000000 0.012374 0.000000 0.043454
#
#
# Mechanical properties :
#
#
# Convention : Reuss Voigt Hill
#
# Bulk Modulus (GPa) = 48.61366 66.97411 57.79388
# Shear Modulus (GPa) = 33.43582 46.71668 40.07625
#
# Velocity S-wave (km/s) = 3.57148 4.22161 3.91008
# Velocity P-wave (km/s) = 5.96262 7.02229 6.51404
#
# Compressibility (1/GPa) = 0.02057035
#
# Stress axis : x y z
#
# Youngs Moduli (GPa) = 101.64162 46.42453 194.24824
#
# Poissons Ratio (x) = 0.16256 0.00158
# Poissons Ratio (y) = 0.35590 0.86802
# Poissons Ratio (z) = 0.00083 0.20745
#
# Static dielectric constant tensor:
#      x y z
#    x 2.305930 0.000000 0.025600 
#    y 0.000000 2.436730 0.000000 
#    z 0.025600 0.000000 2.098860 
# 
# From -- ./inp_files/88869.got.cif
#   From: 2010.05.17/outbox.cif.g08.bks.cpg/sg13_45_cif.got.tgz:88869.got - 2010.06.03 16:44:36.
