data_PCOD9233346
_publ_section_title
;
Structure prediction by ZEFSAII (Michael W. Deem and Ramdas Pophale) SiO2 
 PCOD9233346
Probable space group: P 2/C
;
_chemical_formula_sum "Si O2"
_cell_formula_units_Z 24
_cell_length_a 14.975446
_cell_length_b 7.029645
_cell_length_c 21.927790
_cell_angle_alpha 90.000000
_cell_angle_beta 24.530365
_cell_angle_gamma 90.000000
_cell_volume 958.384260
_symmetry_space_group_name_H-M "P 2/C"
_symmetry_group_IT_number 13
_symmetry_cell_setting 'monoclinic'
loop_
_space_group_symop_operation_xyz
x,y,z
-x,y,1/2-z
-x,-y,-z
x,-y,1/2+z
loop_
_atom_site_type_symbol
_atom_site_label
_atom_site_fract_x
_atom_site_fract_y
_atom_site_fract_z
Si Si1 0.630789 0.098035 0.338859
Si Si2 0.238655 0.623130 0.494347
Si Si3 0.783933 0.610151 0.823134
Si Si4 0.710926 0.677831 0.257790
Si Si5 0.211394 0.715675 0.082523
Si Si6 0.992496 0.785612 0.977860
O O1 0.651146 0.200989 0.391684
O O2 0.385991 0.122155 0.471569
O O3 0.776492 0.217242 0.199544
O O4 0.715569 0.886545 0.284770
O O5 0.482075 0.665322 0.364115
O O6 0.273078 0.468214 0.586766
O O7 0.178469 0.729546 0.469058
O O8 0.031697 0.679944 0.664961
O O9 0.739881 0.471840 0.793249
O O10 0.206842 0.608090 0.020061
O O11 0.906660 0.664784 0.088362
O O12 0.000000 0.781001 0.250000
O O13 0.000000 0.000000 0.000000
#
# Coordination Sequence:
#
# PCOD9233346 Si02
#       6
#     4   4   4   4   4   4
#     4  10  21  40  66  95 129 180 223 278 352 392
#     4  10  21  40  66  93 132 184 215 281 346 392
#     4  10  22  42  65  95 137 174 224 291 333 408
#     4  11  22  41  68  97 135 177 229 276 348 412
#     4  10  21  42  64  95 138 174 232 288 334 411
#     4   9  21  42  64  95 135 170 226 282 330 410
#
# _framework density 25.042148000000001
#
# number of rings (size 3 to 8) (size 9 to 14) (size 15 to 20)
#    0.000    2.000    1.667    1.000    0.000    3.333 
#   21.000    0.833    3.667    0.000    0.000    0.000 
#    0.000    0.000    0.000    0.000    0.000    0.000 
#
# Total GULP energy -133840.462452 kJ/mol
# GULP energy per Si atom -5576.685935 kJ/mol
# Density = 2.498515 g / cm^3
# Si number density = 25.042148 Si / 1000 Ang^3
#
#
#
# Elastic Constant Matrix: (Units=GPa)
#
#
# Indices 1 2 3 4 5 6 
#
# 1 106.8187 31.1411 26.9669 0.0000 12.5989 0.0000
# 2 31.1411 87.8772 24.6629 0.0000 6.6577 0.0000
# 3 26.9669 24.6629 131.8934 0.0000 3.7358 0.0000
# 4 0.0000 0.0000 0.0000 40.1462 0.0000 0.4767
# 5 12.5989 6.6577 3.7358 0.0000 39.7729 0.0000
# 6 0.0000 0.0000 0.0000 0.4767 0.0000 28.7909
#
#
#
# Elastic Compliance Matrix: (Units=1/GPa)
#
#
# Indices 1 2 3 4 5 6 
#
# 1 0.011038 -0.003259 -0.001568 0.000000 -0.002804 0.000000
# 2 -0.003259 0.013103 -0.001755 0.000000 -0.000996 0.000000
# 3 -0.001568 -0.001755 0.008230 0.000000 0.000018 0.000000
# 4 0.000000 0.000000 0.000000 0.024914 0.000000 -0.000412
# 5 -0.002804 -0.000996 0.000018 0.000000 0.026196 0.000000
# 6 0.000000 0.000000 0.000000 -0.000412 0.000000 0.034740
#
#
# Mechanical properties :
#
#
# Convention : Reuss Voigt Hill
#
# Bulk Modulus (GPa) = 52.06765 54.68125 53.37445
# Shear Modulus (GPa) = 36.28752 37.99657 37.14204
#
# Velocity S-wave (km/s) = 3.81078 3.89949 3.85539
# Velocity P-wave (km/s) = 6.34034 6.49290 6.41707
#
# Compressibility (1/GPa) = 0.01920578
#
# Stress axis : x y z
#
# Youngs Moduli (GPa) = 90.59306 76.32067 121.50297
#
# Poissons Ratio (x) = 0.24874 0.19052
# Poissons Ratio (y) = 0.29526 0.21330
# Poissons Ratio (z) = 0.14205 0.13398
#
# Static dielectric constant tensor:
#      x y z
#    x 2.198200 0.000000 -0.014370 
#    y 0.000000 1.953000 0.000000 
#    z -0.014370 0.000000 2.072330 
# 
# From -- ./inp_files/93266.got.cif
#   From: 2010.05.17/outbox.cif.g08.bks.cpg/sg13_47_cif.got.tgz:93266.got - 2010.06.03 16:44:36.
