data_PCOD9233363
_publ_section_title
;
Structure prediction by ZEFSAII (Michael W. Deem and Ramdas Pophale) SiO2 
 PCOD9233363
Probable space group: P 2/C
;
_chemical_formula_sum "Si O2"
_cell_formula_units_Z 22
_cell_length_a 9.679646
_cell_length_b 7.088133
_cell_length_c 26.522845
_cell_angle_alpha 90.000000
_cell_angle_beta 147.815448
_cell_angle_gamma 90.000000
_cell_volume 969.285751
_symmetry_space_group_name_H-M "P 2/C"
_symmetry_group_IT_number 13
_symmetry_cell_setting 'monoclinic'
loop_
_space_group_symop_operation_xyz
x,y,z
-x,y,1/2-z
-x,-y,-z
x,-y,1/2+z
loop_
_atom_site_type_symbol
_atom_site_label
_atom_site_fract_x
_atom_site_fract_y
_atom_site_fract_z
Si Si1 0.546523 0.612893 0.593009
Si Si2 0.401537 0.182100 0.786283
Si Si3 0.162463 0.647411 0.388271
Si Si4 0.699513 0.956816 0.139791
Si Si5 0.724186 0.481194 0.388304
Si Si6 0.500000 0.171588 0.250000
O O1 0.295755 0.573408 0.480152
O O2 0.779964 0.499526 0.638820
O O3 0.605293 0.832403 0.606835
O O4 0.480410 0.565853 0.630032
O O5 0.635289 0.315005 0.840100
O O6 0.133837 0.295014 0.697231
O O7 0.448148 0.144317 0.859994
O O8 0.384888 0.977273 0.754867
O O9 0.308806 0.834565 0.413198
O O10 0.000000 0.957220 0.250000
O O11 0.697234 0.313805 0.339208
O O12 0.000000 0.500000 0.500000
#
# Coordination Sequence:
#
# PCOD9233363 Si02
#       6
#     4   4   4   4   4   2
#     4  11  23  43  69 104 136 181 229 291 365 424
#     4  11  25  47  71 103 142 191 244 293 361 426
#     4  10  24  42  70 102 139 178 228 300 357 428
#     4  10  21  40  67 101 137 176 225 290 353 429
#     4  12  29  48  72 105 145 191 247 303 358 439
#     4  12  28  50  74 100 144 204 242 304 358 434
#
# _framework density 22.697126000000001
#
# number of rings (size 3 to 8) (size 9 to 14) (size 15 to 20)
#    0.000    1.091    3.636    1.091    7.636    2.182 
#    6.545    0.000    0.000    0.000    0.000    0.000 
#    0.000    0.000    0.000    0.000    0.000    0.000 
#
# Total GULP energy -123049.835180 kJ/mol
# GULP energy per Si atom -5593.174326 kJ/mol
# Density = 2.264547 g / cm^3
# Si number density = 22.697126 Si / 1000 Ang^3
#
#
#
# Elastic Constant Matrix: (Units=GPa)
#
#
# Indices 1 2 3 4 5 6 
#
# 1 64.6410 29.4647 15.5753 0.0000 -4.6114 0.0000
# 2 29.4647 138.0521 50.6920 0.0000 9.1528 0.0000
# 3 15.5753 50.6920 104.2022 0.0000 -2.4279 0.0000
# 4 0.0000 0.0000 0.0000 32.2686 0.0000 -4.8058
# 5 -4.6114 9.1528 -2.4279 0.0000 26.7982 0.0000
# 6 0.0000 0.0000 0.0000 -4.8058 0.0000 31.7575
#
#
#
# Elastic Compliance Matrix: (Units=1/GPa)
#
#
# Indices 1 2 3 4 5 6 
#
# 1 0.017675 -0.003802 -0.000693 0.000000 0.004277 0.000000
# 2 -0.003802 0.009959 -0.004380 0.000000 -0.004452 0.000000
# 3 -0.000693 -0.004380 0.011888 0.000000 0.002454 0.000000
# 4 0.000000 0.000000 0.000000 0.031704 0.000000 0.004798
# 5 0.004277 -0.004452 0.002454 0.000000 0.039795 0.000000
# 6 0.000000 0.000000 0.000000 0.004798 0.000000 0.032215
#
#
# Mechanical properties :
#
#
# Convention : Reuss Voigt Hill
#
# Bulk Modulus (GPa) = 45.92906 55.37325 50.65115
# Shear Modulus (GPa) = 29.71900 32.24241 30.98071
#
# Velocity S-wave (km/s) = 3.62245 3.77311 3.69855
# Velocity P-wave (km/s) = 6.14620 6.59025 6.37209
#
# Compressibility (1/GPa) = 0.02177271
#
# Stress axis : x y z
#
# Youngs Moduli (GPa) = 56.57721 100.41615 84.11635
#
# Poissons Ratio (x) = 0.38174 0.05828
# Poissons Ratio (y) = 0.21508 0.36844
# Poissons Ratio (z) = 0.03920 0.43984
#
# Static dielectric constant tensor:
#      x y z
#    x 1.899790 0.000000 -0.031040 
#    y 0.000000 1.825610 0.000000 
#    z -0.031040 0.000000 1.826250 
# 
# From -- ./inp_files/96486.got.cif
#   From: 2010.05.17/outbox.cif.g08.bks.cpg/sg13_49_cif.got.tgz:96486.got - 2010.06.03 16:44:36.
