data_PCOD9233948
_publ_section_title
;
Structure prediction by ZEFSAII (Michael W. Deem and Ramdas Pophale) SiO2 
 PCOD9233948
Probable space group: P 2/C
;
_chemical_formula_sum "Si O2"
_cell_formula_units_Z 20
_cell_length_a 5.136397
_cell_length_b 11.331280
_cell_length_c 13.279950
_cell_angle_alpha 90.000000
_cell_angle_beta 89.856117
_cell_angle_gamma 90.000000
_cell_volume 772.916583
_symmetry_space_group_name_H-M "P 2/C"
_symmetry_group_IT_number 13
_symmetry_cell_setting 'monoclinic'
loop_
_space_group_symop_operation_xyz
x,y,z
-x,y,1/2-z
-x,-y,-z
x,-y,1/2+z
loop_
_atom_site_type_symbol
_atom_site_label
_atom_site_fract_x
_atom_site_fract_y
_atom_site_fract_z
Si Si1 0.000000 0.371564 0.250000
Si Si2 0.763945 0.650871 0.450298
Si Si3 0.101351 0.875326 0.457948
Si Si4 0.296978 0.528197 0.374089
Si Si5 0.000000 0.037630 0.750000
Si Si6 0.305723 0.177886 0.157224
O O1 0.231674 0.459661 0.273133
O O2 0.091236 0.281915 0.164102
O O3 0.866050 0.782087 0.464814
O O4 0.522539 0.624405 0.377102
O O5 0.661750 0.582384 0.549645
O O6 0.025951 0.586607 0.410512
O O7 0.145900 0.891199 0.338304
O O8 0.330559 0.837180 0.536152
O O9 0.000000 0.000000 0.500000
O O10 0.197182 0.947606 0.695420
O O11 0.500000 0.209285 0.250000
#
# Coordination Sequence:
#
# PCOD9233948 Si02
#       6
#     2   4   4   4   2   4
#     4  11  22  39  66 104 136 189 239 308 362 450
#     4  10  22  44  63 103 137 192 228 303 363 438
#     4  10  21  45  70 102 144 188 248 307 373 450
#     4  10  23  39  68  95 145 179 245 294 365 429
#     4   9  22  43  62 100 144 189 243 308 386 448
#     4  10  22  39  67 103 139 184 250 310 371 450
#
# _framework density 25.876016
#
# number of rings (size 3 to 8) (size 9 to 14) (size 15 to 20)
#    0.000    2.000    2.000    0.000    2.800    3.200 
#    7.200    0.000    0.000    0.000    0.000    0.000 
#    0.000    0.000    0.000    0.000    0.000    0.000 
#
# Total GULP energy -111624.775764 kJ/mol
# GULP energy per Si atom -5581.238788 kJ/mol
# Density = 2.581712 g / cm^3
# Si number density = 25.876016 Si / 1000 Ang^3
#
#
#
# Elastic Constant Matrix: (Units=GPa)
#
#
# Indices 1 2 3 4 5 6 
#
# 1 96.7355 40.1764 42.4506 0.0000 27.9976 0.0000
# 2 40.1764 154.1867 50.3815 0.0000 17.2841 0.0000
# 3 42.4506 50.3815 182.6439 0.0000 34.9072 0.0000
# 4 0.0000 0.0000 0.0000 1.9972 0.0000 11.9523
# 5 27.9976 17.2841 34.9072 0.0000 33.1826 0.0000
# 6 0.0000 0.0000 0.0000 11.9523 0.0000 34.1277
#
#
#
# Elastic Compliance Matrix: (Units=1/GPa)
#
#
# Indices 1 2 3 4 5 6 
#
# 1 0.014660 -0.002413 -0.000773 0.000000 -0.010299 0.000000
# 2 -0.002413 0.007639 -0.001471 0.000000 -0.000396 0.000000
# 3 -0.000773 -0.001471 0.007246 0.000000 -0.006204 0.000000
# 4 0.000000 0.000000 0.000000 -0.456877 0.000000 0.160009
# 5 -0.010299 -0.000396 -0.006204 0.000000 0.045559 0.000000
# 6 0.000000 0.000000 0.000000 0.160009 0.000000 -0.026737
#
#
# Mechanical properties :
#
#
# Convention : Reuss Voigt Hill
#
# Bulk Modulus (GPa) = 49.42773 77.73145 63.57959
# Shear Modulus (GPa) = -12.74040 33.89869 10.57914
#
# Velocity S-wave (km/s) = -2.22133 3.62338 2.02417
# Velocity P-wave (km/s) = 3.54459 6.90002 5.48518
#
# Compressibility (1/GPa) = 0.02023156
#
# Stress axis : x y z
#
# Youngs Moduli (GPa) = 68.21490 130.90171 137.99983
#
# Poissons Ratio (x) = 0.31582 0.10673
# Poissons Ratio (y) = 0.16458 0.20297
# Poissons Ratio (z) = 0.05276 0.19253
#
# Static dielectric constant tensor:
#      x y z
#    x 2.100820 0.000000 0.076270 
#    y 0.000000 1.960410 0.000000 
#    z 0.076270 0.000000 2.211500 
# 
# From -- ./inp_files/43736.got.cif
#   From: 2010.05.17/outbox.cif.g08.bks.cpg/sg13_22_cif.got.tgz:43736.got - 2010.06.03 16:44:36.
