data_PCOD9233294
_publ_section_title
;
Structure prediction by ZEFSAII (Michael W. Deem and Ramdas Pophale) SiO2 
 PCOD9233294
Probable space group: P 2/C
;
_chemical_formula_sum "Si O2"
_cell_formula_units_Z 22
_cell_length_a 23.146715
_cell_length_b 8.442372
_cell_length_c 15.738972
_cell_angle_alpha 90.000000
_cell_angle_beta 159.858955
_cell_angle_gamma 90.000000
_cell_volume 1059.029439
_symmetry_space_group_name_H-M "P 2/C"
_symmetry_group_IT_number 13
_symmetry_cell_setting 'monoclinic'
loop_
_space_group_symop_operation_xyz
x,y,z
-x,y,1/2-z
-x,-y,-z
x,-y,1/2+z
loop_
_atom_site_type_symbol
_atom_site_label
_atom_site_fract_x
_atom_site_fract_y
_atom_site_fract_z
Si Si1 0.965767 0.638621 0.522365
Si Si2 0.166337 0.406074 0.016949
Si Si3 0.551679 0.206076 0.998892
Si Si4 0.307008 0.399598 0.552826
Si Si5 0.500000 0.665147 0.750000
Si Si6 0.353920 0.150767 0.897821
O O1 0.901347 0.539296 0.513607
O O2 0.826655 0.777362 0.323173
O O3 0.000000 0.500000 0.500000
O O4 0.151290 0.700722 0.803066
O O5 0.295903 0.300274 0.247617
O O6 0.256634 0.498788 0.066089
O O7 0.000000 0.320447 0.750000
O O8 0.463996 0.296468 0.800063
O O9 0.411804 0.191592 0.881226
O O10 0.622056 0.037299 0.066250
O O11 0.348259 0.540470 0.544301
O O12 0.482570 0.769017 0.642030
#
# Coordination Sequence:
#
# PCOD9233294 Si02
#       6
#     4   4   4   4   2   4
#     4  11  22  41  65  99 129 170 225 279 332 393
#     4  10  21  40  64  93 126 172 225 271 329 409
#     4  11  23  43  65  96 130 181 218 272 349 410
#     4  11  22  38  71  94 128 174 232 275 323 413
#     4  12  22  40  68  96 126 174 228 282 328 408
#     4  11  24  42  64  96 140 168 217 284 345 409
#
# _framework density 20.773738000000002
#
# number of rings (size 3 to 8) (size 9 to 14) (size 15 to 20)
#    0.000    1.091    5.455    1.636    0.000    0.727 
#    6.545    0.909    0.000    0.000    0.000    0.000 
#    0.000    0.000    0.000    0.000    0.000    0.000 
#
# Total GULP energy -122695.966438 kJ/mol
# GULP energy per Si atom -5577.089384 kJ/mol
# Density = 2.072646 g / cm^3
# Si number density = 20.773738 Si / 1000 Ang^3
#
#
#
# Elastic Constant Matrix: (Units=GPa)
#
#
# Indices 1 2 3 4 5 6 
#
# 1 55.7689 18.4841 -4.8865 0.0000 -4.0952 0.0000
# 2 18.4841 97.0940 70.1580 0.0000 1.9482 0.0000
# 3 -4.8865 70.1580 153.3662 0.0000 13.2750 0.0000
# 4 0.0000 0.0000 0.0000 2.8508 0.0000 3.5267
# 5 -4.0952 1.9482 13.2750 0.0000 21.6909 0.0000
# 6 0.0000 0.0000 0.0000 3.5267 0.0000 31.8757
#
#
#
# Elastic Compliance Matrix: (Units=1/GPa)
#
#
# Indices 1 2 3 4 5 6 
#
# 1 0.020519 -0.006389 0.003370 0.000000 0.002385 0.000000
# 2 -0.006389 0.017573 -0.008449 0.000000 0.002386 0.000000
# 3 0.003370 -0.008449 0.010952 0.000000 -0.005308 0.000000
# 4 0.000000 0.000000 0.000000 0.406403 0.000000 -0.044963
# 5 0.002385 0.002386 -0.005308 0.000000 0.049587 0.000000
# 6 0.000000 0.000000 0.000000 -0.044963 0.000000 0.036346
#
#
# Mechanical properties :
#
#
# Convention : Reuss Voigt Hill
#
# Bulk Modulus (GPa) = 38.30245 52.63780 45.47013
# Shear Modulus (GPa) = 8.72572 26.11506 17.42039
#
# Velocity S-wave (km/s) = 2.05170 3.54943 2.89896
# Velocity P-wave (km/s) = 4.90822 6.49551 5.75683
#
# Compressibility (1/GPa) = 0.02610799
#
# Stress axis : x y z
#
# Youngs Moduli (GPa) = 48.73467 56.90637 91.30684
#
# Poissons Ratio (x) = 0.36360 -0.30772
# Poissons Ratio (y) = 0.31138 0.77144
# Poissons Ratio (z) = -0.16424 0.48079
#
# Static dielectric constant tensor:
#      x y z
#    x 1.807430 0.000000 0.052330 
#    y 0.000000 1.696040 0.000000 
#    z 0.052330 0.000000 1.809850 
# 
# From -- ./inp_files/58748.got.cif
#   From: 2010.05.17/outbox.cif.g08.bks.cpg/sg13_30_cif.got.tgz:58748.got - 2010.06.03 16:44:36.
