data_PCOD9233939
_publ_section_title
;
Structure prediction by ZEFSAII (Michael W. Deem and Ramdas Pophale) SiO2 
 PCOD9233939
Probable space group: P 2/C
;
_chemical_formula_sum "Si O2"
_cell_formula_units_Z 24
_cell_length_a 27.469307
_cell_length_b 5.222882
_cell_length_c 14.054422
_cell_angle_alpha 90.000000
_cell_angle_beta 152.527337
_cell_angle_gamma 90.000000
_cell_volume 930.204050
_symmetry_space_group_name_H-M "P 2/C"
_symmetry_group_IT_number 13
_symmetry_cell_setting 'monoclinic'
loop_
_space_group_symop_operation_xyz
x,y,z
-x,y,1/2-z
-x,-y,-z
x,-y,1/2+z
loop_
_atom_site_type_symbol
_atom_site_label
_atom_site_fract_x
_atom_site_fract_y
_atom_site_fract_z
Si Si1 0.600709 0.405555 0.614062
Si Si2 0.123907 0.688074 0.687198
Si Si3 0.951676 0.034747 0.764359
Si Si4 0.768890 0.324633 0.499114
Si Si5 0.576408 0.127885 0.268011
Si Si6 0.648355 0.351895 0.000135
O O1 0.500000 0.500000 0.500000
O O2 0.585249 0.870998 0.340418
O O3 0.544220 0.155529 0.475147
O O4 0.706505 0.419515 0.859254
O O5 0.154362 0.402656 0.779431
O O6 0.233455 0.735086 0.822178
O O7 0.036056 0.771374 0.458802
O O8 0.086892 0.837095 0.719758
O O9 0.846740 0.197898 0.559516
O O10 0.000000 0.924918 0.750000
O O11 0.671626 0.139684 0.356606
O O12 0.630722 0.409155 0.079491
O O13 0.609509 0.380875 0.385065
#
# Coordination Sequence:
#
# PCOD9233939 Si02
#       6
#     4   4   4   4   4   4
#     4  10  23  43  69 106 144 191 259 314 377 453
#     4  10  23  42  68 103 147 195 245 315 387 457
#     4  11  22  41  70 105 141 189 258 309 386 459
#     4  10  21  45  65 100 145 192 245 314 382 457
#     4  10  23  43  70 100 140 193 242 300 372 446
#     4  11  22  46  69 102 145 195 244 304 379 445
#
# _framework density 25.800789000000002
#
# number of rings (size 3 to 8) (size 9 to 14) (size 15 to 20)
#    0.000    1.667    1.667    2.000    0.000    3.333 
#    9.000    5.833    0.000    0.000    0.000    0.000 
#    0.000    0.000    0.000    0.000    0.000    0.000 
#
# Total GULP energy -133978.157943 kJ/mol
# GULP energy per Si atom -5582.423248 kJ/mol
# Density = 2.574207 g / cm^3
# Si number density = 25.800789 Si / 1000 Ang^3
#
#
#
# Elastic Constant Matrix: (Units=GPa)
#
#
# Indices 1 2 3 4 5 6 
#
# 1 204.5690 30.8450 62.0503 0.0000 16.8788 0.0000
# 2 30.8450 94.1763 23.1644 0.0000 -3.1886 0.0000
# 3 62.0503 23.1644 95.4380 0.0000 14.5939 0.0000
# 4 0.0000 0.0000 0.0000 40.6292 0.0000 -11.5065
# 5 16.8788 -3.1886 14.5939 0.0000 48.1728 0.0000
# 6 0.0000 0.0000 0.0000 -11.5065 0.0000 74.0548
#
#
#
# Elastic Compliance Matrix: (Units=1/GPa)
#
#
# Indices 1 2 3 4 5 6 
#
# 1 0.006258 -0.001205 -0.003595 0.000000 -0.001183 0.000000
# 2 -0.001205 0.011652 -0.002335 0.000000 0.001901 0.000000
# 3 -0.003595 -0.002335 0.013855 0.000000 -0.003092 0.000000
# 4 0.000000 0.000000 0.000000 0.025746 0.000000 0.004000
# 5 -0.001183 0.001901 -0.003092 0.000000 0.022236 0.000000
# 6 0.000000 0.000000 0.000000 0.004000 0.000000 0.014125
#
#
# Mechanical properties :
#
#
# Convention : Reuss Voigt Hill
#
# Bulk Modulus (GPa) = 57.16373 69.58919 63.37646
# Shear Modulus (GPa) = 43.86924 51.11293 47.49108
#
# Velocity S-wave (km/s) = 4.12795 4.45574 4.29497
# Velocity P-wave (km/s) = 6.70253 7.31449 7.01518
#
# Compressibility (1/GPa) = 0.01749361
#
# Stress axis : x y z
#
# Youngs Moduli (GPa) = 159.78845 85.82274 72.17514
#
# Poissons Ratio (x) = 0.10346 0.25950
# Poissons Ratio (y) = 0.19262 0.16853
# Poissons Ratio (z) = 0.57450 0.20040
#
# Static dielectric constant tensor:
#      x y z
#    x 2.125590 0.000000 -0.073420 
#    y 0.000000 2.102480 0.000000 
#    z -0.073420 0.000000 2.095020 
# 
# From -- ./inp_files/42213.got.cif
#   From: 2010.05.17/outbox.cif.g08.bks.cpg/sg13_22_cif.got.tgz:42213.got - 2010.06.03 16:44:36.
