data_PCOD9233282
_publ_section_title
;
Structure prediction by ZEFSAII (Michael W. Deem and Ramdas Pophale) SiO2 
 PCOD9233282
Probable space group: P 2/C
;
_chemical_formula_sum "Si O2"
_cell_formula_units_Z 32
_cell_length_a 14.811622
_cell_length_b 11.088575
_cell_length_c 18.491403
_cell_angle_alpha 90.000000
_cell_angle_beta 152.641235
_cell_angle_gamma 90.000000
_cell_volume 1395.696921
_symmetry_space_group_name_H-M "P 2/C"
_symmetry_group_IT_number 13
_symmetry_cell_setting 'monoclinic'
loop_
_space_group_symop_operation_xyz
x,y,z
-x,y,1/2-z
-x,-y,-z
x,-y,1/2+z
loop_
_atom_site_type_symbol
_atom_site_label
_atom_site_fract_x
_atom_site_fract_y
_atom_site_fract_z
Si Si1 0.347667 0.437419 0.813261
Si Si2 0.439620 0.200080 0.960411
Si Si3 0.808838 0.695269 0.782663
Si Si4 0.172495 0.847163 0.570758
Si Si5 0.282717 0.903741 0.213545
Si Si6 0.774077 0.522970 0.560257
Si Si7 0.748502 0.315634 0.902230
Si Si8 0.791389 0.236604 0.564288
O O1 0.328484 0.320116 0.849958
O O2 0.229129 0.554181 0.753064
O O3 0.263837 0.405815 0.674447
O O4 0.580943 0.464615 0.973873
O O5 0.404618 0.101942 0.874237
O O6 0.360061 0.186039 0.984436
O O7 0.666464 0.232128 0.129355
O O8 0.768392 0.734833 0.836543
O O9 0.031144 0.727669 0.926414
O O10 0.217718 0.823393 0.520092
O O11 0.939611 0.869832 0.418841
O O12 0.277085 0.966611 0.673912
O O13 0.352832 0.802445 0.205681
O O14 0.708291 0.609116 0.446335
O O15 0.774555 0.381183 0.541370
O O16 0.000000 0.550389 0.750000
O O17 0.000000 0.214237 0.750000
#
# Coordination Sequence:
#
# PCOD9233282 Si02
#       8
#     4   4   4   4   4   4   4   4
#     4  11  22  38  62  90 133 169 202 258 323 393
#     4  11  22  38  64  92 126 164 211 258 327 385
#     4  11  22  36  62  94 126 163 210 263 320 391
#     4  10  21  40  64  87 124 161 219 266 321 379
#     4   9  21  42  64  86 117 171 213 266 318 386
#     4  11  23  37  62  93 134 166 208 265 320 387
#     4  10  22  38  62  90 123 170 214 256 320 384
#     4  11  22  36  63  96 125 163 211 270 324 382
#
# _framework density 22.927612
#
# number of rings (size 3 to 8) (size 9 to 14) (size 15 to 20)
#    0.000    1.500    2.500    2.625    3.500    1.000 
#    0.000    0.625   13.750    0.000    0.000    0.000 
#    0.000    0.000    0.000    0.000    0.000    0.000 
#
# Total GULP energy -178859.437616 kJ/mol
# GULP energy per Si atom -5589.357425 kJ/mol
# Density = 2.287543 g / cm^3
# Si number density = 22.927612 Si / 1000 Ang^3
#
#
#
# Elastic Constant Matrix: (Units=GPa)
#
#
# Indices 1 2 3 4 5 6 
#
# 1 84.5262 32.3422 10.6812 0.0000 -30.5336 0.0000
# 2 32.3422 69.2194 15.0858 0.0000 -26.1534 0.0000
# 3 10.6812 15.0858 80.2474 0.0000 -18.7959 0.0000
# 4 0.0000 0.0000 0.0000 33.1383 0.0000 -9.0048
# 5 -30.5336 -26.1534 -18.7959 0.0000 38.3327 0.0000
# 6 0.0000 0.0000 0.0000 -9.0048 0.0000 29.0145
#
#
#
# Elastic Compliance Matrix: (Units=1/GPa)
#
#
# Indices 1 2 3 4 5 6 
#
# 1 0.017451 -0.003962 0.001180 0.000000 0.011777 0.000000
# 2 -0.003962 0.020391 -0.000889 0.000000 0.010321 0.000000
# 3 0.001180 -0.000889 0.014178 0.000000 0.007286 0.000000
# 4 0.000000 0.000000 0.000000 0.032956 0.000000 0.010228
# 5 0.011777 0.010321 0.007286 0.000000 0.046082 0.000000
# 6 0.000000 0.000000 0.000000 0.010228 0.000000 0.037640
#
#
# Mechanical properties :
#
#
# Convention : Reuss Voigt Hill
#
# Bulk Modulus (GPa) = 22.38118 38.91239 30.64678
# Shear Modulus (GPa) = 26.18734 31.82268 29.00501
#
# Velocity S-wave (km/s) = 3.38327 3.72958 3.56064
# Velocity P-wave (km/s) = 5.00449 5.96280 5.50454
#
# Compressibility (1/GPa) = 0.04468040
#
# Stress axis : x y z
#
# Youngs Moduli (GPa) = 57.30181 49.04096 70.53222
#
# Poissons Ratio (x) = 0.19429 -0.08325
# Poissons Ratio (y) = 0.22701 0.06268
# Poissons Ratio (z) = -0.06763 0.04358
#
# Static dielectric constant tensor:
#      x y z
#    x 1.920880 0.000000 0.031160 
#    y 0.000000 1.845510 0.000000 
#    z 0.031160 0.000000 1.876900 
# 
# From -- ./inp_files/68705.got.cif
#   From: 2010.05.17/outbox.cif.g08.bks.cpg/sg13_35_cif.got.tgz:68705.got - 2010.06.03 16:44:36.
