data_PCOD9233691
_publ_section_title
;
Structure prediction by ZEFSAII (Michael W. Deem and Ramdas Pophale) SiO2 
 PCOD9233691
Probable space group: P 2/C
;
_chemical_formula_sum "Si O2"
_cell_formula_units_Z 22
_cell_length_a 8.361246
_cell_length_b 21.744642
_cell_length_c 8.532735
_cell_angle_alpha 90.000000
_cell_angle_beta 40.708703
_cell_angle_gamma 90.000000
_cell_volume 1011.815530
_symmetry_space_group_name_H-M "P 2/C"
_symmetry_group_IT_number 13
_symmetry_cell_setting 'monoclinic'
loop_
_space_group_symop_operation_xyz
x,y,z
-x,y,1/2-z
-x,-y,-z
x,-y,1/2+z
loop_
_atom_site_type_symbol
_atom_site_label
_atom_site_fract_x
_atom_site_fract_y
_atom_site_fract_z
Si Si1 0.244490 0.420436 0.679643
Si Si2 0.205196 0.820259 0.456023
Si Si3 0.500000 0.806612 0.750000
Si Si4 0.000000 0.987701 0.750000
Si Si5 0.238516 0.720878 0.181999
Si Si6 0.500000 0.490360 0.750000
Si Si7 0.864844 0.911113 0.585997
O O1 0.321149 0.349242 0.639352
O O2 0.284226 0.449836 0.825384
O O3 0.412072 0.463060 0.448247
O O4 0.000000 0.420145 0.750000
O O5 0.500000 0.824049 0.250000
O O6 0.169060 0.755924 0.392036
O O7 0.130802 0.879402 0.406033
O O8 0.000000 0.820843 0.750000
O O9 0.569880 0.763131 0.553658
O O10 0.706475 0.853586 0.653064
O O11 0.141800 0.033632 0.530750
O O12 0.820088 0.944023 0.784974
O O13 0.000000 0.720510 0.250000
#
# Coordination Sequence:
#
# PCOD9233691 Si02
#       7
#     4   4   2   2   4   2   4
#     4  10  22  41  66  99 137 186 236 293 352 424
#     4  12  26  47  71 104 146 186 234 298 370 435
#     4  12  23  44  74  96 141 182 240 294 378 418
#     4  10  24  44  62  96 136 168 250 276 366 428
#     4  11  24  42  68 102 137 179 239 291 362 426
#     4  10  21  42  66  96 141 186 242 286 358 414
#     4  11  23  45  66  99 130 185 223 302 351 438
#
# _framework density 21.743092000000001
#
# number of rings (size 3 to 8) (size 9 to 14) (size 15 to 20)
#    0.000    1.091    2.727    3.273    1.273    0.727 
#    6.545    0.909    0.000    0.000    0.000    0.000 
#    0.000    0.000    0.000    0.000    0.000    0.000 
#
# Total GULP energy -122566.684375 kJ/mol
# GULP energy per Si atom -5571.212926 kJ/mol
# Density = 2.169360 g / cm^3
# Si number density = 21.743092 Si / 1000 Ang^3
#
#
#
# Elastic Constant Matrix: (Units=GPa)
#
#
# Indices 1 2 3 4 5 6 
#
# 1 56.8106 42.9263 22.7446 0.0000 -6.7757 0.0000
# 2 42.9263 183.0346 45.1631 0.0000 7.9598 0.0000
# 3 22.7446 45.1631 75.4695 0.0000 9.9111 0.0000
# 4 0.0000 0.0000 0.0000 42.3495 0.0000 4.2377
# 5 -6.7757 7.9598 9.9111 0.0000 31.4365 0.0000
# 6 0.0000 0.0000 0.0000 4.2377 0.0000 53.0743
#
#
#
# Elastic Compliance Matrix: (Units=1/GPa)
#
#
# Indices 1 2 3 4 5 6 
#
# 1 0.024373 -0.004687 -0.005619 0.000000 0.008211 0.000000
# 2 -0.004687 0.007317 -0.002702 0.000000 -0.002011 0.000000
# 3 -0.005619 -0.002702 0.017348 0.000000 -0.005996 0.000000
# 4 0.000000 0.000000 0.000000 0.023803 0.000000 -0.001901
# 5 0.008211 -0.002011 -0.005996 0.000000 0.035980 0.000000
# 6 0.000000 0.000000 0.000000 -0.001901 0.000000 0.018993
#
#
# Mechanical properties :
#
#
# Convention : Reuss Voigt Hill
#
# Bulk Modulus (GPa) = 43.43630 59.66473 51.55051
# Shear Modulus (GPa) = 30.95915 39.00410 34.98163
#
# Velocity S-wave (km/s) = 3.77750 4.24000 4.01541
# Velocity P-wave (km/s) = 6.24872 7.17429 6.72744
#
# Compressibility (1/GPa) = 0.02302222
#
# Stress axis : x y z
#
# Youngs Moduli (GPa) = 41.02978 136.67281 57.64256
#
# Poissons Ratio (x) = 0.64053 0.32390
# Poissons Ratio (y) = 0.19229 0.15575
# Poissons Ratio (z) = 0.23055 0.36930
#
# Static dielectric constant tensor:
#      x y z
#    x 1.924080 0.000000 0.023390 
#    y 0.000000 1.765710 0.000000 
#    z 0.023390 0.000000 1.847080 
# 
# From -- ./inp_files/13430.got.cif
#   From: 2010.05.17/outbox.cif.g08.bks.cpg/sg13_7_cif.got.tgz:13430.got - 2010.06.03 16:44:36.
