data_PCOD9233793
_publ_section_title
;
Structure prediction by ZEFSAII (Michael W. Deem and Ramdas Pophale) SiO2 
 PCOD9233793
Probable space group: P 2/C
;
_chemical_formula_sum "Si O2"
_cell_formula_units_Z 22
_cell_length_a 5.430444
_cell_length_b 9.823140
_cell_length_c 16.177100
_cell_angle_alpha 90.000000
_cell_angle_beta 85.500797
_cell_angle_gamma 90.000000
_cell_volume 860.292162
_symmetry_space_group_name_H-M "P 2/C"
_symmetry_group_IT_number 13
_symmetry_cell_setting 'monoclinic'
loop_
_space_group_symop_operation_xyz
x,y,z
-x,y,1/2-z
-x,-y,-z
x,-y,1/2+z
loop_
_atom_site_type_symbol
_atom_site_label
_atom_site_fract_x
_atom_site_fract_y
_atom_site_fract_z
Si Si1 0.000000 0.189836 0.250000
Si Si2 0.782576 0.641448 0.538492
Si Si3 0.692152 0.657196 0.011885
Si Si4 0.484278 0.825146 0.152151
Si Si5 0.763264 0.451604 0.223850
Si Si6 0.989191 0.023483 0.599455
O O1 0.219197 0.301397 0.234380
O O2 0.995408 0.101426 0.166526
O O3 0.522290 0.718539 0.540051
O O4 0.739241 0.501409 0.488029
O O5 0.812240 0.584389 0.628578
O O6 0.031047 0.711983 0.502429
O O7 0.569306 0.686797 0.103513
O O8 0.500000 0.816979 0.250000
O O9 0.221037 0.881890 0.125409
O O10 0.712857 0.920352 0.120340
O O11 0.500000 0.509420 0.250000
O O12 0.000000 0.534278 0.250000
O O13 0.000000 0.000000 0.500000
#
# Coordination Sequence:
#
# PCOD9233793 Si02
#       6
#     2   4   4   4   4   4
#     4  10  26  42  66  96 136 166 226 282 326 390
#     4  10  21  43  62  98 126 167 220 273 327 405
#     4  10  23  39  68  89 132 169 216 272 333 405
#     4  12  25  45  65  99 136 177 227 285 334 413
#     4  10  23  36  64  91 125 165 206 278 329 386
#     4  12  27  45  69  96 135 183 229 279 344 403
#
# _framework density 25.572710000000001
#
# number of rings (size 3 to 8) (size 9 to 14) (size 15 to 20)
#    0.545    0.727    1.818    2.727    7.636    0.727 
#    0.000    1.818    0.000    0.000    0.000    0.000 
#    0.000    0.000    0.000    0.000    0.000    0.000 
#
# Total GULP energy -122766.828924 kJ/mol
# GULP energy per Si atom -5580.310406 kJ/mol
# Density = 2.551450 g / cm^3
# Si number density = 25.572710 Si / 1000 Ang^3
#
#
#
# Elastic Constant Matrix: (Units=GPa)
#
#
# Indices 1 2 3 4 5 6 
#
# 1 245.4471 12.1965 61.6362 0.0000 4.3371 0.0000
# 2 12.1965 80.6640 6.5515 0.0000 -0.9328 0.0000
# 3 61.6362 6.5515 178.7364 0.0000 5.2014 0.0000
# 4 0.0000 0.0000 0.0000 38.2041 0.0000 -0.3236
# 5 4.3371 -0.9328 5.2014 0.0000 41.5559 0.0000
# 6 0.0000 0.0000 0.0000 -0.3236 0.0000 -12.3349
#
#
#
# Elastic Compliance Matrix: (Units=1/GPa)
#
#
# Indices 1 2 3 4 5 6 
#
# 1 0.004489 -0.000559 -0.001519 0.000000 -0.000291 0.000000
# 2 -0.000559 0.012508 -0.000277 0.000000 0.000374 0.000000
# 3 -0.001519 -0.000277 0.006147 0.000000 -0.000617 0.000000
# 4 0.000000 0.000000 0.000000 0.026169 0.000000 -0.000687
# 5 -0.000291 0.000374 -0.000617 0.000000 0.024180 0.000000
# 6 0.000000 0.000000 0.000000 -0.000687 0.000000 -0.081053
#
#
# Mechanical properties :
#
#
# Convention : Reuss Voigt Hill
#
# Bulk Modulus (GPa) = 54.24447 73.95732 64.10090
# Shear Modulus (GPa) = 1517.98342 41.78258 779.88300
#
# Velocity S-wave (km/s) = 24.39024 4.04651 17.48225
# Velocity P-wave (km/s) = 28.53833 7.12850 20.79966
#
# Compressibility (1/GPa) = 0.01843506
#
# Stress axis : x y z
#
# Youngs Moduli (GPa) = 222.79056 79.94641 162.68852
#
# Poissons Ratio (x) = 0.04466 0.24711
# Poissons Ratio (y) = 0.12447 0.04502
# Poissons Ratio (z) = 0.33840 0.02212
#
# Static dielectric constant tensor:
#      x y z
#    x 2.161360 0.000000 0.087380 
#    y 0.000000 2.094750 0.000000 
#    z 0.087380 0.000000 2.009770 
# 
# From -- ./inp_files/43607.got.cif
#   From: 2010.05.17/outbox.cif.g08.bks.cpg/sg13_22_cif.got.tgz:43607.got - 2010.06.03 16:44:36.
