data_PCOD9233631
_publ_section_title
;
Structure prediction by ZEFSAII (Michael W. Deem and Ramdas Pophale) SiO2 
 PCOD9233631
Probable space group: P 2/C
;
_chemical_formula_sum "Si O2"
_cell_formula_units_Z 28
_cell_length_a 13.755759
_cell_length_b 7.278874
_cell_length_c 15.812480
_cell_angle_alpha 90.000000
_cell_angle_beta 57.708861
_cell_angle_gamma 90.000000
_cell_volume 1338.389317
_symmetry_space_group_name_H-M "P 2/C"
_symmetry_group_IT_number 13
_symmetry_cell_setting 'monoclinic'
loop_
_space_group_symop_operation_xyz
x,y,z
-x,y,1/2-z
-x,-y,-z
x,-y,1/2+z
loop_
_atom_site_type_symbol
_atom_site_label
_atom_site_fract_x
_atom_site_fract_y
_atom_site_fract_z
Si Si1 0.575293 0.746865 0.390882
Si Si2 0.280317 0.004670 0.433500
Si Si3 0.000000 0.358491 0.250000
Si Si4 0.073856 0.261021 0.038983
Si Si5 0.836621 0.632349 0.565107
Si Si6 0.227330 0.533921 0.718474
Si Si7 0.500000 0.825491 0.250000
Si Si8 0.640983 0.864910 0.918736
O O1 0.683851 0.618417 0.354069
O O2 0.525906 0.706237 0.320979
O O3 0.473056 0.745637 0.506717
O O4 0.610561 0.961457 0.375431
O O5 0.167209 0.884569 0.464824
O O6 0.388483 0.945869 0.326088
O O7 0.314897 0.948880 0.513060
O O8 0.245560 0.215582 0.436929
O O9 0.038383 0.234608 0.152836
O O10 0.101535 0.485903 0.237956
O O11 0.958312 0.275871 0.036956
O O12 0.133368 0.461619 0.008267
O O13 0.783418 0.545938 0.675427
O O14 0.269751 0.731661 0.666345
#
# Coordination Sequence:
#
# PCOD9233631 Si02
#       8
#     4   4   2   4   4   4   2   4
#     4  10  22  40  61  90 125 166 212 265 319 380
#     4  11  21  39  63  90 127 167 205 266 320 380
#     4  10  22  38  64  92 130 164 214 266 312 380
#     4  10  21  42  60  93 128 165 214 265 312 379
#     4  10  23  37  65  90 126 169 213 257 321 377
#     4  11  21  41  61  91 128 169 209 269 315 380
#     4  10  22  40  62  92 126 162 214 268 314 384
#     4  10  22  38  63  92 125 165 215 260 323 382
#
# _framework density 20.920669
#
# number of rings (size 3 to 8) (size 9 to 14) (size 15 to 20)
#    0.000    1.714    1.429    2.571    2.000    0.000 
#    0.000   15.000    0.000    0.000    0.000    0.000 
#    0.000    0.000    0.000    0.000    0.000    0.000 
#
# Total GULP energy -156454.430522 kJ/mol
# GULP energy per Si atom -5587.658233 kJ/mol
# Density = 2.087305 g / cm^3
# Si number density = 20.920669 Si / 1000 Ang^3
#
#
#
# Elastic Constant Matrix: (Units=GPa)
#
#
# Indices 1 2 3 4 5 6 
#
# 1 38.8537 10.2714 13.6645 0.0000 -22.0668 0.0000
# 2 10.2714 36.7103 19.3562 0.0000 -18.3826 0.0000
# 3 13.6645 19.3562 84.9014 0.0000 -6.4658 0.0000
# 4 0.0000 0.0000 0.0000 10.8853 0.0000 -7.1660
# 5 -22.0668 -18.3826 -6.4658 0.0000 27.5507 0.0000
# 6 0.0000 0.0000 0.0000 -7.1660 0.0000 29.4661
#
#
#
# Elastic Compliance Matrix: (Units=1/GPa)
#
#
# Indices 1 2 3 4 5 6 
#
# 1 0.053566 0.014748 -0.008112 0.000000 0.050840 0.000000
# 2 0.014748 0.050077 -0.010534 0.000000 0.042752 0.000000
# 3 -0.008112 -0.010534 0.014719 0.000000 -0.010072 0.000000
# 4 0.000000 0.000000 0.000000 0.109379 0.000000 0.026600
# 5 0.050840 0.042752 -0.010072 0.000000 0.103179 0.000000
# 6 0.000000 0.000000 0.000000 0.026600 0.000000 0.040406
#
#
# Mechanical properties :
#
#
# Convention : Reuss Voigt Hill
#
# Bulk Modulus (GPa) = 9.04448 27.44995 18.24721
# Shear Modulus (GPa) = 12.01988 21.39196 16.70592
#
# Velocity S-wave (km/s) = 2.39957 3.20117 2.82890
# Velocity P-wave (km/s) = 3.46552 5.17810 4.40583
#
# Compressibility (1/GPa) = 0.11056467
#
# Stress axis : x y z
#
# Youngs Moduli (GPa) = 18.66848 19.96939 67.94141
#
# Poissons Ratio (x) = -0.29450 0.55112
# Poissons Ratio (y) = -0.27532 0.71572
# Poissons Ratio (z) = 0.15143 0.21037
#
# Static dielectric constant tensor:
#      x y z
#    x 1.790810 0.000000 -0.007620 
#    y 0.000000 1.700750 0.000000 
#    z -0.007620 0.000000 1.762080 
# 
# From -- ./inp_files/67294.got.cif
#   From: 2010.05.17/outbox.cif.g08.bks.cpg/sg13_34_cif.got.tgz:67294.got - 2010.06.03 16:44:36.
