data_PCOD9233319
_publ_section_title
;
Structure prediction by ZEFSAII (Michael W. Deem and Ramdas Pophale) SiO2 
 PCOD9233319
Probable space group: P 2/C
;
_chemical_formula_sum "Si O2"
_cell_formula_units_Z 26
_cell_length_a 8.154551
_cell_length_b 17.180369
_cell_length_c 14.694342
_cell_angle_alpha 90.000000
_cell_angle_beta 141.108139
_cell_angle_gamma 90.000000
_cell_volume 1292.529048
_symmetry_space_group_name_H-M "P 2/C"
_symmetry_group_IT_number 13
_symmetry_cell_setting 'monoclinic'
loop_
_space_group_symop_operation_xyz
x,y,z
-x,y,1/2-z
-x,-y,-z
x,-y,1/2+z
loop_
_atom_site_type_symbol
_atom_site_label
_atom_site_fract_x
_atom_site_fract_y
_atom_site_fract_z
Si Si1 0.023821 0.081346 0.958643
Si Si2 0.500000 0.177767 0.250000
Si Si3 0.378419 0.730035 0.367337
Si Si4 0.500000 0.817172 0.250000
Si Si5 0.215138 0.594062 0.174597
Si Si6 0.751384 0.724484 0.692897
Si Si7 0.000000 0.128763 0.750000
Si Si8 0.207947 0.415489 0.164554
O O1 0.756153 0.129956 0.853561
O O2 0.058245 0.077931 0.864210
O O3 0.266790 0.127190 0.106526
O O4 0.000000 0.000000 0.000000
O O5 0.377400 0.227172 0.280296
O O6 0.548780 0.760986 0.356656
O O7 0.210391 0.659795 0.250836
O O8 0.540123 0.705604 0.524346
O O9 0.228675 0.808931 0.330237
O O10 0.500000 0.597414 0.250000
O O11 0.178381 0.503962 0.186766
O O12 0.992843 0.604984 0.002847
O O13 0.842163 0.644782 0.777540
O O14 0.000000 0.763315 0.750000
O O15 0.500000 0.407323 0.250000
#
# Coordination Sequence:
#
# PCOD9233319 Si02
#       8
#     4   2   4   2   4   4   2   4
#     4  11  24  48  71 100 139 179 216 285 354 415
#     4  12  25  46  73 106 142 180 232 290 351 410
#     4  11  22  40  66  96 130 178 228 280 337 414
#     4  10  23  42  71  98 134 176 224 276 339 424
#     4  10  21  40  65  93 134 189 232 285 353 404
#     4  12  25  41  68 104 138 182 235 296 346 409
#     4  10  24  42  66 104 130 168 232 266 340 434
#     4  10  23  40  63  96 137 182 238 294 342 404
#
# _framework density 20.115603
#
# number of rings (size 3 to 8) (size 9 to 14) (size 15 to 20)
#    0.000    1.231    3.077    2.308    6.462    0.615 
#    5.538    2.308    0.000    0.000    0.000    0.000 
#    0.000    0.000    0.000    0.000    0.000    0.000 
#
# Total GULP energy -145171.607938 kJ/mol
# GULP energy per Si atom -5583.523382 kJ/mol
# Density = 2.006982 g / cm^3
# Si number density = 20.115603 Si / 1000 Ang^3
#
#
#
# Elastic Constant Matrix: (Units=GPa)
#
#
# Indices 1 2 3 4 5 6 
#
# 1 103.7781 55.4038 58.6073 0.0000 -18.8200 0.0000
# 2 55.4038 124.8467 74.5838 0.0000 -25.6738 0.0000
# 3 58.6073 74.5838 165.3007 0.0000 -13.4606 0.0000
# 4 0.0000 0.0000 0.0000 29.6965 0.0000 -5.7917
# 5 -18.8200 -25.6738 -13.4606 0.0000 37.1647 0.0000
# 6 0.0000 0.0000 0.0000 -5.7917 0.0000 -13.7676
#
#
#
# Elastic Compliance Matrix: (Units=1/GPa)
#
#
# Indices 1 2 3 4 5 6 
#
# 1 0.013912 -0.003684 -0.002992 0.000000 0.003416 0.000000
# 2 -0.003684 0.013391 -0.004260 0.000000 0.005842 0.000000
# 3 -0.002992 -0.004260 0.008933 0.000000 -0.001223 0.000000
# 4 0.000000 0.000000 0.000000 0.031121 0.000000 -0.013092
# 5 0.003416 0.005842 -0.001223 0.000000 0.032230 0.000000
# 6 0.000000 0.000000 0.000000 -0.013092 0.000000 -0.067127
#
#
# Mechanical properties :
#
#
# Convention : Reuss Voigt Hill
#
# Bulk Modulus (GPa) = 69.61910 85.67948 77.64929
# Shear Modulus (GPa) = 84.57341 24.30742 54.44042
#
# Velocity S-wave (km/s) = 6.49114 3.47996 5.20793
# Velocity P-wave (km/s) = 9.53229 7.67025 8.65151
#
# Compressibility (1/GPa) = 0.01436387
#
# Stress axis : x y z
#
# Youngs Moduli (GPa) = 71.88102 74.67668 111.94281
#
# Poissons Ratio (x) = 0.27508 0.33495
# Poissons Ratio (y) = 0.26478 0.47691
# Poissons Ratio (z) = 0.21508 0.31814
#
# Static dielectric constant tensor:
#      x y z
#    x 1.773610 0.000000 0.008390 
#    y 0.000000 1.700440 0.000000 
#    z 0.008390 0.000000 1.683740 
# 
# From -- ./inp_files/47843.got.cif
#   From: 2010.05.17/outbox.cif.g08.bks.cpg/sg13_24_cif.got.tgz:47843.got - 2010.06.03 16:44:36.
