data_PCOD9233674
_publ_section_title
;
Structure prediction by ZEFSAII (Michael W. Deem and Ramdas Pophale) SiO2 
 PCOD9233674
Probable space group: P 2/C
;
_chemical_formula_sum "Si O2"
_cell_formula_units_Z 22
_cell_length_a 6.800840
_cell_length_b 13.515089
_cell_length_c 10.399308
_cell_angle_alpha 90.000000
_cell_angle_beta 87.996860
_cell_angle_gamma 90.000000
_cell_volume 955.257455
_symmetry_space_group_name_H-M "P 2/C"
_symmetry_group_IT_number 13
_symmetry_cell_setting 'monoclinic'
loop_
_space_group_symop_operation_xyz
x,y,z
-x,y,1/2-z
-x,-y,-z
x,-y,1/2+z
loop_
_atom_site_type_symbol
_atom_site_label
_atom_site_fract_x
_atom_site_fract_y
_atom_site_fract_z
Si Si1 0.195536 0.402124 0.596857
Si Si2 0.110521 0.620849 0.624661
Si Si3 0.401692 0.123425 0.391919
Si Si4 0.327468 0.088883 0.865569
Si Si5 0.000000 0.771763 0.250000
Si Si6 0.479125 0.667691 0.898686
O O1 0.179387 0.509262 0.662422
O O2 0.395628 0.400350 0.511561
O O3 0.028423 0.394221 0.492487
O O4 0.155963 0.306205 0.684375
O O5 0.293284 0.686681 0.577265
O O6 0.000000 0.663261 0.750000
O O7 0.500000 0.125668 0.250000
O O8 0.556435 0.111003 0.504843
O O9 0.337006 0.236683 0.408647
O O10 0.265928 0.026765 0.387084
O O11 0.500000 0.095168 0.750000
O O12 0.140696 0.156698 0.832868
O O13 0.500000 0.633968 0.750000
#
# Coordination Sequence:
#
# PCOD9233674 Si02
#       6
#     4   4   4   4   2   4
#     4  11  24  40  62  96 136 169 222 273 329 411
#     4  11  22  42  62  92 133 174 217 280 328 394
#     4   9  20  40  65  91 129 174 223 284 334 392
#     4  10  21  42  65  92 135 175 222 284 338 404
#     4  12  24  40  68 102 138 180 224 272 348 410
#     4  11  21  39  64  90 123 172 219 267 336 388
#
# _framework density 23.030441
#
# number of rings (size 3 to 8) (size 9 to 14) (size 15 to 20)
#    0.000    1.455    2.727    2.727    0.000    0.000 
#    0.000   20.909    0.000    0.000    0.000    0.000 
#    0.000    0.000    0.000    0.000    0.000    0.000 
#
# Total GULP energy -122574.653720 kJ/mol
# GULP energy per Si atom -5571.575169 kJ/mol
# Density = 2.297802 g / cm^3
# Si number density = 23.030441 Si / 1000 Ang^3
#
#
#
# Elastic Constant Matrix: (Units=GPa)
#
#
# Indices 1 2 3 4 5 6 
#
# 1 58.6180 40.4481 18.6064 0.0000 -1.1290 0.0000
# 2 40.4481 135.9105 21.2100 0.0000 0.6154 0.0000
# 3 18.6064 21.2100 86.9520 0.0000 -0.9450 0.0000
# 4 0.0000 0.0000 0.0000 28.1986 0.0000 -0.8222
# 5 -1.1290 0.6154 -0.9450 0.0000 40.3906 0.0000
# 6 0.0000 0.0000 0.0000 -0.8222 0.0000 30.7667
#
#
#
# Elastic Compliance Matrix: (Units=1/GPa)
#
#
# Indices 1 2 3 4 5 6 
#
# 1 0.022351 -0.006143 -0.003277 0.000000 0.000642 0.000000
# 2 -0.006143 0.009339 -0.000967 0.000000 -0.000337 0.000000
# 3 -0.003277 -0.000967 0.012440 0.000000 0.000214 0.000000
# 4 0.000000 0.000000 0.000000 0.035490 0.000000 0.000948
# 5 0.000642 -0.000337 0.000214 0.000000 0.024786 0.000000
# 6 0.000000 0.000000 0.000000 0.000948 0.000000 0.032528
#
#
# Mechanical properties :
#
#
# Convention : Reuss Voigt Hill
#
# Bulk Modulus (GPa) = 42.81822 49.11218 45.96520
# Shear Modulus (GPa) = 30.21239 33.28558 31.74898
#
# Velocity S-wave (km/s) = 3.62587 3.80582 3.71693
# Velocity P-wave (km/s) = 6.01345 6.37836 6.19859
#
# Compressibility (1/GPa) = 0.02335454
#
# Stress axis : x y z
#
# Youngs Moduli (GPa) = 44.74004 107.08317 80.38518
#
# Poissons Ratio (x) = 0.65785 0.26345
# Poissons Ratio (y) = 0.27486 0.07773
# Poissons Ratio (z) = 0.14663 0.10355
#
# Static dielectric constant tensor:
#      x y z
#    x 1.651080 0.000000 0.075260 
#    y 0.000000 1.996240 0.000000 
#    z 0.075260 0.000000 1.834430 
# 
# From -- ./inp_files/26194.got.cif
#   From: 2010.05.17/outbox.cif.g08.bks.cpg/sg13_14_cif.got.tgz:26194.got - 2010.06.03 16:44:36.
