data_PCOD9233889
_publ_section_title
;
Structure prediction by ZEFSAII (Michael W. Deem and Ramdas Pophale) SiO2 
 PCOD9233889
Probable space group: P 2/C
;
_chemical_formula_sum "Si O2"
_cell_formula_units_Z 28
_cell_length_a 11.863940
_cell_length_b 12.750900
_cell_length_c 18.534077
_cell_angle_alpha 90.000000
_cell_angle_beta 23.337286
_cell_angle_gamma 90.000000
_cell_volume 1110.689973
_symmetry_space_group_name_H-M "P 2/C"
_symmetry_group_IT_number 13
_symmetry_cell_setting 'monoclinic'
loop_
_space_group_symop_operation_xyz
x,y,z
-x,y,1/2-z
-x,-y,-z
x,-y,1/2+z
loop_
_atom_site_type_symbol
_atom_site_label
_atom_site_fract_x
_atom_site_fract_y
_atom_site_fract_z
Si Si1 0.824025 0.596082 0.639865
Si Si2 0.863175 0.310429 0.410527
Si Si3 0.831530 0.826302 0.286103
Si Si4 0.618335 0.605472 0.395143
Si Si5 0.183973 0.661325 0.004522
Si Si6 0.887222 0.897968 0.987324
Si Si7 0.396770 0.969539 0.199705
O O1 0.867647 0.679425 0.549992
O O2 0.000000 0.500000 0.500000
O O3 0.943943 0.627098 0.646382
O O4 0.942135 0.411670 0.681888
O O5 0.567650 0.367445 0.565981
O O6 0.817677 0.204277 0.481923
O O7 0.000000 0.297761 0.250000
O O8 0.649353 0.720416 0.416170
O O9 0.636847 0.899367 0.351796
O O10 0.000000 0.883762 0.250000
O O11 0.095615 0.772028 0.089260
O O12 0.500000 0.500000 0.500000
O O13 0.480437 0.397443 0.344693
O O14 0.710225 0.985091 0.046378
O O15 0.766181 0.906992 0.139365
O O16 0.217950 0.925235 0.793137
#
# Coordination Sequence:
#
# PCOD9233889 Si02
#       7
#     4   4   4   4   4   4   4
#     4  11  26  46  70 102 141 195 257 324 376 447
#     4  12  28  46  73 109 153 196 254 324 388 460
#     4  10  22  41  72 102 144 193 244 306 376 457
#     4  10  25  47  74 103 147 207 254 316 378 461
#     4   9  24  46  69  97 142 193 257 308 380 455
#     4  10  22  45  73 108 145 189 244 312 388 467
#     4  10  21  43  76 109 145 187 246 310 389 464
#
# _framework density 25.209557
#
# number of rings (size 3 to 8) (size 9 to 14) (size 15 to 20)
#    0.857    0.857    1.429    0.857    4.000    6.286 
#    0.000    5.000    0.000    0.000    0.000    0.000 
#    0.000    0.000    0.000    0.000    0.000    0.000 
#
# Total GULP energy -156228.346427 kJ/mol
# GULP energy per Si atom -5579.583801 kJ/mol
# Density = 2.515218 g / cm^3
# Si number density = 25.209557 Si / 1000 Ang^3
#
#
#
# Elastic Constant Matrix: (Units=GPa)
#
#
# Indices 1 2 3 4 5 6 
#
# 1 144.5817 18.3923 5.1752 0.0000 -11.1005 0.0000
# 2 18.3923 68.0924 7.3393 0.0000 9.8524 0.0000
# 3 5.1752 7.3393 97.6880 0.0000 -11.4558 0.0000
# 4 0.0000 0.0000 0.0000 16.1209 0.0000 23.7190
# 5 -11.1005 9.8524 -11.4558 0.0000 43.2203 0.0000
# 6 0.0000 0.0000 0.0000 23.7190 0.0000 0.7577
#
#
#
# Elastic Compliance Matrix: (Units=1/GPa)
#
#
# Indices 1 2 3 4 5 6 
#
# 1 0.007403 -0.002364 0.000074 0.000000 0.002460 0.000000
# 2 -0.002364 0.016187 -0.001646 0.000000 -0.004733 0.000000
# 3 0.000074 -0.001646 0.010736 0.000000 0.003240 0.000000
# 4 0.000000 0.000000 0.000000 -0.001377 0.000000 0.043096
# 5 0.002460 -0.004733 0.003240 0.000000 0.025707 0.000000
# 6 0.000000 0.000000 0.000000 0.043096 0.000000 -0.029291
#
#
# Mechanical properties :
#
#
# Convention : Reuss Voigt Hill
#
# Bulk Modulus (GPa) = 37.80008 41.35285 39.57647
# Shear Modulus (GPa) = 108.56456 30.65013 69.60735
#
# Velocity S-wave (km/s) = 6.56950 3.49063 5.26036
# Velocity P-wave (km/s) = 8.51888 5.71711 7.25454
#
# Compressibility (1/GPa) = 0.02645497
#
# Stress axis : x y z
#
# Youngs Moduli (GPa) = 135.07316 61.77945 93.14145
#
# Poissons Ratio (x) = 0.14602 -0.00688
# Poissons Ratio (y) = 0.31926 0.15331
# Poissons Ratio (z) = -0.00997 0.10169
#
# Static dielectric constant tensor:
#      x y z
#    x 2.031270 0.000000 0.020370 
#    y 0.000000 2.099170 0.000000 
#    z 0.020370 0.000000 2.062420 
# 
# From -- ./inp_files/78540.got.cif
#   From: 2010.05.17/outbox.cif.g08.bks.cpg/sg13_40_cif.got.tgz:78540.got - 2010.06.03 16:44:36.
