data_PCOD9233149
_publ_section_title
;
Structure prediction by ZEFSAII (Michael W. Deem and Ramdas Pophale) SiO2 
 PCOD9233149
Probable space group: P 2/C
;
_chemical_formula_sum "Si O2"
_cell_formula_units_Z 20
_cell_length_a 21.021735
_cell_length_b 7.458537
_cell_length_c 9.050856
_cell_angle_alpha 90.000000
_cell_angle_beta 39.657087
_cell_angle_gamma 90.000000
_cell_volume 905.655010
_symmetry_space_group_name_H-M "P 2/C"
_symmetry_group_IT_number 13
_symmetry_cell_setting 'monoclinic'
loop_
_space_group_symop_operation_xyz
x,y,z
-x,y,1/2-z
-x,-y,-z
x,-y,1/2+z
loop_
_atom_site_type_symbol
_atom_site_label
_atom_site_fract_x
_atom_site_fract_y
_atom_site_fract_z
Si Si1 0.712328 0.869536 0.100182
Si Si2 0.428121 0.441296 0.759175
Si Si3 0.880727 0.657347 0.320882
Si Si4 0.692278 0.206561 0.974679
Si Si5 0.100016 0.721205 0.870369
O O1 0.657493 0.690964 0.141979
O O2 0.716678 0.864508 0.268345
O O3 0.654125 0.040932 0.141069
O O4 0.823639 0.864256 0.832719
O O5 0.500000 0.350959 0.750000
O O6 0.500000 0.500000 0.500000
O O7 0.379784 0.623063 0.909222
O O8 0.788560 0.726673 0.392025
O O9 0.865472 0.671322 0.524399
O O10 0.894795 0.450717 0.247370
O O11 0.982795 0.760941 0.096970
#
# Coordination Sequence:
#
# PCOD9233149 Si02
#       5
#     4   4   4   4   4
#     4  12  27  45  72 104 140 179 228 284 340 411
#     4  12  28  50  73  99 134 178 228 286 347 406
#     4  10  21  39  67 101 140 183 228 272 337 402
#     4  12  27  45  72 105 138 181 228 282 343 408
#     4  10  21  39  67 101 140 184 225 277 331 406
#
# _framework density 22.083465
#
# number of rings (size 3 to 8) (size 9 to 14) (size 15 to 20)
#    0.000    0.800    4.000    2.400    5.600    4.800 
#    0.000    0.000    0.000    0.000    0.000    0.000 
#    0.000    0.000    0.000    0.000    0.000    0.000 
#
# Total GULP energy -111892.724746 kJ/mol
# GULP energy per Si atom -5594.636237 kJ/mol
# Density = 2.203320 g / cm^3
# Si number density = 22.083465 Si / 1000 Ang^3
#
#
#
# Elastic Constant Matrix: (Units=GPa)
#
#
# Indices 1 2 3 4 5 6 
#
# 1 112.1658 -5.1689 31.1018 0.0000 15.2410 0.0000
# 2 -5.1689 57.5994 -4.5294 0.0000 -5.5659 0.0000
# 3 31.1018 -4.5294 58.1367 0.0000 9.7193 0.0000
# 4 0.0000 0.0000 0.0000 13.5018 0.0000 11.2373
# 5 15.2410 -5.5659 9.7193 0.0000 36.2758 0.0000
# 6 0.0000 0.0000 0.0000 11.2373 0.0000 19.0650
#
#
#
# Elastic Compliance Matrix: (Units=1/GPa)
#
#
# Indices 1 2 3 4 5 6 
#
# 1 0.010801 0.000258 -0.005241 0.000000 -0.003094 0.000000
# 2 0.000258 0.017681 0.000842 0.000000 0.002379 0.000000
# 3 -0.005241 0.000842 0.020603 0.000000 -0.003189 0.000000
# 4 0.000000 0.000000 0.000000 0.145385 0.000000 -0.085693
# 5 -0.003094 0.002379 -0.003189 0.000000 0.030086 0.000000
# 6 0.000000 0.000000 0.000000 -0.085693 0.000000 0.102961
#
#
# Mechanical properties :
#
#
# Convention : Reuss Voigt Hill
#
# Bulk Modulus (GPa) = 24.50818 30.07877 27.29347
# Shear Modulus (GPa) = 14.31023 27.53509 20.92266
#
# Velocity S-wave (km/s) = 2.54836 3.53493 3.08138
# Velocity P-wave (km/s) = 4.44757 5.50554 5.00459
#
# Compressibility (1/GPa) = 0.04080270
#
# Stress axis : x y z
#
# Youngs Moduli (GPa) = 92.58485 56.55947 48.53593
#
# Poissons Ratio (x) = -0.01460 0.25437
# Poissons Ratio (y) = -0.02390 -0.04085
# Poissons Ratio (z) = 0.48522 -0.04761
#
# Static dielectric constant tensor:
#      x y z
#    x 1.722140 0.000000 -0.023850 
#    y 0.000000 1.845740 0.000000 
#    z -0.023850 0.000000 1.791950 
# 
# From -- ./inp_files/22646.got.cif
#   From: 2010.05.17/outbox.cif.g08.bks.cpg/sg13_12_cif.got.tgz:22646.got - 2010.06.03 16:44:36.
