data_PCOD9233375
_publ_section_title
;
Structure prediction by ZEFSAII (Michael W. Deem and Ramdas Pophale) SiO2 
 PCOD9233375
Probable space group: P 2/C
;
_chemical_formula_sum "Si O2"
_cell_formula_units_Z 24
_cell_length_a 11.969903
_cell_length_b 7.156177
_cell_length_c 21.587045
_cell_angle_alpha 90.000000
_cell_angle_beta 148.177550
_cell_angle_gamma 90.000000
_cell_volume 975.019766
_symmetry_space_group_name_H-M "P 2/C"
_symmetry_group_IT_number 13
_symmetry_cell_setting 'monoclinic'
loop_
_space_group_symop_operation_xyz
x,y,z
-x,y,1/2-z
-x,-y,-z
x,-y,1/2+z
loop_
_atom_site_type_symbol
_atom_site_label
_atom_site_fract_x
_atom_site_fract_y
_atom_site_fract_z
Si Si1 0.999891 0.279547 0.436714
Si Si2 0.414825 0.248052 0.570124
Si Si3 0.137200 0.083947 0.755604
Si Si4 0.218846 0.328659 0.344576
Si Si5 0.560529 0.622688 0.673313
Si Si6 0.092872 0.278771 0.966758
O O1 0.755087 0.276639 0.298918
O O2 0.993077 0.233490 0.505770
O O3 0.200132 0.171525 0.501621
O O4 0.049984 0.496916 0.442791
O O5 0.617694 0.132671 0.642713
O O6 0.317641 0.308454 0.457994
O O7 0.504335 0.405409 0.660802
O O8 0.000000 0.155752 0.750000
O O9 0.019683 0.166260 0.640526
O O10 0.151055 0.864361 0.778400
O O11 0.378706 0.406794 0.369906
O O12 0.000000 0.437684 0.250000
O O13 0.346244 0.736751 0.581079
#
# Coordination Sequence:
#
# PCOD9233375 Si02
#       6
#     4   4   4   4   4   4
#     4  10  21  40  67  98 131 163 219 272 328 387
#     4  11  22  39  68  97 127 171 212 275 326 385
#     4  11  24  42  64  93 133 175 217 265 331 392
#     4  11  23  40  64  90 135 170 215 269 325 388
#     4  11  21  40  66  98 129 165 219 273 323 385
#     4  10  22  40  66  99 128 171 213 272 331 388
#
# _framework density 24.614885999999998
#
# number of rings (size 3 to 8) (size 9 to 14) (size 15 to 20)
#    0.000    1.333    3.333    2.500    0.000    4.000 
#    0.000    0.833    3.667    0.000    0.000    0.000 
#    0.000    0.000    0.000    0.000    0.000    0.000 
#
# Total GULP energy -133922.887584 kJ/mol
# GULP energy per Si atom -5580.120316 kJ/mol
# Density = 2.455886 g / cm^3
# Si number density = 24.614886 Si / 1000 Ang^3
#
#
#
# Elastic Constant Matrix: (Units=GPa)
#
#
# Indices 1 2 3 4 5 6 
#
# 1 148.2389 11.1809 87.9004 0.0000 0.0996 0.0000
# 2 11.1809 79.4824 28.1996 0.0000 1.7435 0.0000
# 3 87.9004 28.1996 154.8279 0.0000 29.2225 0.0000
# 4 0.0000 0.0000 0.0000 36.2480 0.0000 -0.2759
# 5 0.0996 1.7435 29.2225 0.0000 56.0053 0.0000
# 6 0.0000 0.0000 0.0000 -0.2759 0.0000 -1.3050
#
#
#
# Elastic Compliance Matrix: (Units=1/GPa)
#
#
# Indices 1 2 3 4 5 6 
#
# 1 0.010815 0.000875 -0.006978 0.000000 0.003594 0.000000
# 2 0.000875 0.013567 -0.003204 0.000000 0.001248 0.000000
# 3 -0.006978 -0.003204 0.012182 0.000000 -0.006244 0.000000
# 4 0.000000 0.000000 0.000000 0.027543 0.000000 -0.005824
# 5 0.003594 0.001248 -0.006244 0.000000 0.021068 0.000000
# 6 0.000000 0.000000 0.000000 -0.005824 0.000000 -0.765064
#
#
# Mechanical properties :
#
#
# Convention : Reuss Voigt Hill
#
# Bulk Modulus (GPa) = 55.70148 70.79012 63.24580
# Shear Modulus (GPa) = -7.63020 35.20756 13.78868
#
# Velocity S-wave (km/s) = -1.76254 3.78608 2.36937
# Velocity P-wave (km/s) = 4.30537 6.92344 5.76499
#
# Compressibility (1/GPa) = 0.01795285
#
# Stress axis : x y z
#
# Youngs Moduli (GPa) = 92.46349 73.70560 82.08541
#
# Poissons Ratio (x) = -0.06453 0.57279
# Poissons Ratio (y) = -0.08095 0.26297
# Poissons Ratio (z) = 0.64520 0.23613
#
# Static dielectric constant tensor:
#      x y z
#    x 2.055920 0.000000 0.102400 
#    y 0.000000 2.030690 0.000000 
#    z 0.102400 0.000000 2.005590 
# 
# From -- ./inp_files/86437.got.cif
#   From: 2010.05.17/outbox.cif.g08.bks.cpg/sg13_44_cif.got.tgz:86437.got - 2010.06.03 16:44:36.
