data_PCOD9233180
_publ_section_title
;
Structure prediction by ZEFSAII (Michael W. Deem and Ramdas Pophale) SiO2 
 PCOD9233180
Probable space group: P 2/C
;
_chemical_formula_sum "Si O2"
_cell_formula_units_Z 32
_cell_length_a 14.634723
_cell_length_b 10.863612
_cell_length_c 16.605972
_cell_angle_alpha 90.000000
_cell_angle_beta 31.995795
_cell_angle_gamma 90.000000
_cell_volume 1398.884151
_symmetry_space_group_name_H-M "P 2/C"
_symmetry_group_IT_number 13
_symmetry_cell_setting 'monoclinic'
loop_
_space_group_symop_operation_xyz
x,y,z
-x,y,1/2-z
-x,-y,-z
x,-y,1/2+z
loop_
_atom_site_type_symbol
_atom_site_label
_atom_site_fract_x
_atom_site_fract_y
_atom_site_fract_z
Si Si1 0.484184 0.920916 0.360131
Si Si2 0.536281 0.564365 0.597330
Si Si3 0.984944 0.754095 0.381713
Si Si4 0.290054 0.176653 0.532823
Si Si5 0.291151 0.680618 0.571745
Si Si6 0.785028 0.472382 0.065820
Si Si7 0.053285 0.294277 0.093808
Si Si8 0.125930 0.109433 0.921796
O O1 0.500000 0.910203 0.250000
O O2 0.384539 0.045598 0.460063
O O3 0.402913 0.799479 0.462747
O O4 0.680608 0.925384 0.242845
O O5 0.591908 0.704079 0.535406
O O6 0.596220 0.443684 0.501627
O O7 0.334866 0.566165 0.770071
O O8 0.649420 0.535472 0.593368
O O9 0.132692 0.805803 0.212805
O O10 0.045937 0.788528 0.423817
O O11 0.802821 0.808257 0.485411
O O12 0.944001 0.609632 0.415031
O O13 0.152332 0.700518 0.746118
O O14 0.156992 0.671841 0.597232
O O15 0.862257 0.604689 0.026927
O O16 0.110525 0.159522 0.023629
O O17 0.000000 0.000000 0.000000
#
# Coordination Sequence:
#
# PCOD9233180 Si02
#       8
#     4   4   4   4   4   4   4   4
#     4  12  25  42  67  93 125 169 221 262 318 380
#     4   9  18  34  65 101 123 159 217 267 307 374
#     4  10  23  42  63  94 131 167 209 264 322 377
#     4  10  23  41  69  94 126 170 218 260 313 389
#     4  10  21  39  69  97 124 165 218 264 311 379
#     4   9  18  35  66  94 127 163 210 260 320 378
#     4  10  21  40  65  95 128 167 210 263 318 379
#     4  12  27  42  61  90 135 169 212 263 323 375
#
# _framework density 22.875374000000001
#
# number of rings (size 3 to 8) (size 9 to 14) (size 15 to 20)
#    0.000    1.750    1.250    2.250    8.750    5.000 
#    0.000    0.000    0.000    3.000    0.000    0.000 
#    0.000    0.000    0.000    0.000    0.000    0.000 
#
# Total GULP energy -178433.237521 kJ/mol
# GULP energy per Si atom -5576.038673 kJ/mol
# Density = 2.282331 g / cm^3
# Si number density = 22.875374 Si / 1000 Ang^3
#
#
#
# Elastic Constant Matrix: (Units=GPa)
#
#
# Indices 1 2 3 4 5 6 
#
# 1 33.4617 22.8406 4.7197 0.0000 -12.2232 0.0000
# 2 22.8406 129.2286 56.7132 0.0000 -18.9310 0.0000
# 3 4.7197 56.7132 120.5406 0.0000 -19.3025 0.0000
# 4 0.0000 0.0000 0.0000 -4.6837 0.0000 -14.5444
# 5 -12.2232 -18.9310 -19.3025 0.0000 17.0581 0.0000
# 6 0.0000 0.0000 0.0000 -14.5444 0.0000 7.2437
#
#
#
# Elastic Compliance Matrix: (Units=1/GPa)
#
#
# Indices 1 2 3 4 5 6 
#
# 1 0.045007 -0.005901 0.006265 0.000000 0.032791 0.000000
# 2 -0.005901 0.011234 -0.004562 0.000000 0.003077 0.000000
# 3 0.006265 -0.004562 0.012341 0.000000 0.013392 0.000000
# 4 0.000000 0.000000 0.000000 -0.029510 0.000000 -0.059252
# 5 0.032791 0.003077 0.013392 0.000000 0.100689 0.000000
# 6 0.000000 0.000000 0.000000 -0.059252 0.000000 0.019081
#
#
# Mechanical properties :
#
#
# Convention : Reuss Voigt Hill
#
# Bulk Modulus (GPa) = 16.61468 50.19754 33.40611
# Shear Modulus (GPa) = 26.69527 17.18745 21.94136
#
# Velocity S-wave (km/s) = 3.41983 2.74405 3.10041
# Velocity P-wave (km/s) = 4.78252 5.65962 5.23946
#
# Compressibility (1/GPa) = 0.06018773
#
# Stress axis : x y z
#
# Youngs Moduli (GPa) = 22.21865 89.01672 81.02869
#
# Poissons Ratio (x) = 0.52525 -0.50763
# Poissons Ratio (y) = 0.13110 0.36962
# Poissons Ratio (z) = -0.13920 0.40606
#
# Static dielectric constant tensor:
#      x y z
#    x 1.933590 0.000000 0.071130 
#    y 0.000000 1.790620 0.000000 
#    z 0.071130 0.000000 1.855200 
# 
# From -- ./inp_files/68643.got.cif
#   From: 2010.05.17/outbox.cif.g08.bks.cpg/sg13_35_cif.got.tgz:68643.got - 2010.06.03 16:44:36.
