data_PCOD9233439
_publ_section_title
;
Structure prediction by ZEFSAII (Michael W. Deem and Ramdas Pophale) SiO2 
 PCOD9233439
Probable space group: P 2/C
;
_chemical_formula_sum "Si O2"
_cell_formula_units_Z 20
_cell_length_a 11.849144
_cell_length_b 9.119986
_cell_length_c 8.648856
_cell_angle_alpha 90.000000
_cell_angle_beta 93.375077
_cell_angle_gamma 90.000000
_cell_volume 933.009125
_symmetry_space_group_name_H-M "P 2/C"
_symmetry_group_IT_number 13
_symmetry_cell_setting 'monoclinic'
loop_
_space_group_symop_operation_xyz
x,y,z
-x,y,1/2-z
-x,-y,-z
x,-y,1/2+z
loop_
_atom_site_type_symbol
_atom_site_label
_atom_site_fract_x
_atom_site_fract_y
_atom_site_fract_z
Si Si1 0.376743 0.883236 0.660288
Si Si2 0.582097 0.480415 0.866770
Si Si3 0.887792 0.371327 0.642395
Si Si4 0.332582 0.807516 0.298975
Si Si5 0.800988 0.361311 0.320408
O O1 0.500000 0.870619 0.750000
O O2 0.380555 0.845709 0.475685
O O3 0.273641 0.782827 0.722155
O O4 0.341493 0.050308 0.692747
O O5 0.500000 0.572694 0.750000
O O6 0.607857 0.326394 0.786906
O O7 0.703360 0.547913 0.903116
O O8 0.500000 0.500000 0.000000
O O9 0.793489 0.252970 0.684468
O O10 0.897835 0.348658 0.458260
O O11 0.843160 0.534521 0.686610
O O12 0.000000 0.347840 0.750000
#
# Coordination Sequence:
#
# PCOD9233439 Si02
#       5
#     4   4   4   4   4
#     4  11  22  39  60  90 129 163 195 245 301 368
#     4  11  21  37  58  86 121 158 198 246 298 361
#     4  10  21  41  61  83 117 156 204 262 301 342
#     4  10  24  39  59  90 122 162 208 243 300 367
#     4  10  22  36  58  89 114 151 203 244 300 364
#
# _framework density 21.436019000000002
#
# number of rings (size 3 to 8) (size 9 to 14) (size 15 to 20)
#    0.000    1.600    0.000    6.000    0.000    8.000 
#    0.000    6.000    0.000    0.000    0.000    0.000 
#    0.000    0.000    0.000    0.000    0.000    0.000 
#
# Total GULP energy -111390.128961 kJ/mol
# GULP energy per Si atom -5569.506448 kJ/mol
# Density = 2.138723 g / cm^3
# Si number density = 21.436019 Si / 1000 Ang^3
#
#
#
# Elastic Constant Matrix: (Units=GPa)
#
#
# Indices 1 2 3 4 5 6 
#
# 1 71.0262 21.6072 18.1505 0.0000 22.1432 0.0000
# 2 21.6072 136.6962 10.0234 0.0000 -0.1391 0.0000
# 3 18.1505 10.0234 65.7395 0.0000 9.7046 0.0000
# 4 0.0000 0.0000 0.0000 9.7058 0.0000 -12.1603
# 5 22.1432 -0.1391 9.7046 0.0000 41.3865 0.0000
# 6 0.0000 0.0000 0.0000 -12.1603 0.0000 17.0152
#
#
#
# Elastic Compliance Matrix: (Units=1/GPa)
#
#
# Indices 1 2 3 4 5 6 
#
# 1 0.018628 -0.002706 -0.003375 0.000000 -0.009185 0.000000
# 2 -0.002706 0.007795 -0.000683 0.000000 0.001634 0.000000
# 3 -0.003375 -0.000683 0.016554 0.000000 -0.002078 0.000000
# 4 0.000000 0.000000 0.000000 0.985024 0.000000 0.703968
# 5 -0.009185 0.001634 -0.002078 0.000000 0.029569 0.000000
# 6 0.000000 0.000000 0.000000 0.703968 0.000000 0.561877
#
#
# Mechanical properties :
#
#
# Convention : Reuss Voigt Hill
#
# Bulk Modulus (GPa) = 33.95560 41.44711 37.70136
# Shear Modulus (GPa) = 3.04360 28.53356 15.78858
#
# Velocity S-wave (km/s) = 1.19287 3.65239 2.71688
# Velocity P-wave (km/s) = 4.21569 6.09621 5.24099
#
# Compressibility (1/GPa) = 0.02945023
#
# Stress axis : x y z
#
# Youngs Moduli (GPa) = 53.68127 128.28733 60.40759
#
# Poissons Ratio (x) = 0.34720 0.20386
# Poissons Ratio (y) = 0.14529 0.04123
# Poissons Ratio (z) = 0.18116 0.08756
#
# Static dielectric constant tensor:
#      x y z
#    x 1.787600 0.000000 0.038440 
#    y 0.000000 1.821020 0.000000 
#    z 0.038440 0.000000 1.813310 
# 
# From -- ./inp_files/14994.got.cif
#   From: 2010.05.17/outbox.cif.g08.bks.cpg/sg13_8_cif.got.tgz:14994.got - 2010.06.03 16:44:36.
