data_PCOD9233784
_publ_section_title
;
Structure prediction by ZEFSAII (Michael W. Deem and Ramdas Pophale) SiO2 
 PCOD9233784
Probable space group: P 2/C
;
_chemical_formula_sum "Si O2"
_cell_formula_units_Z 24
_cell_length_a 10.875229
_cell_length_b 12.887404
_cell_length_c 14.783939
_cell_angle_alpha 90.000000
_cell_angle_beta 28.703327
_cell_angle_gamma 90.000000
_cell_volume 995.138391
_symmetry_space_group_name_H-M "P 2/C"
_symmetry_group_IT_number 13
_symmetry_cell_setting 'monoclinic'
loop_
_space_group_symop_operation_xyz
x,y,z
-x,y,1/2-z
-x,-y,-z
x,-y,1/2+z
loop_
_atom_site_type_symbol
_atom_site_label
_atom_site_fract_x
_atom_site_fract_y
_atom_site_fract_z
Si Si1 0.388737 0.247825 0.618460
Si Si2 0.100019 0.293019 0.972659
Si Si3 0.500000 0.527201 0.250000
Si Si4 0.500000 0.937370 0.750000
Si Si5 0.233334 0.111786 0.029017
Si Si6 0.546199 0.738636 0.822461
Si Si7 0.306972 0.455452 0.051132
O O1 0.140257 0.263235 0.841335
O O2 0.522166 0.142996 0.567100
O O3 0.359918 0.258186 0.529254
O O4 0.594886 0.336490 0.516512
O O5 0.263869 0.396588 0.878456
O O6 0.194042 0.202034 0.978660
O O7 0.808649 0.313259 0.185198
O O8 0.395484 0.477574 0.407447
O O9 0.706701 0.009378 0.567172
O O10 0.607887 0.860029 0.757643
O O11 0.000000 0.105261 0.250000
O O12 0.500000 0.700945 0.750000
O O13 0.000000 0.459689 0.250000
O O14 0.500000 0.500000 0.000000
#
# Coordination Sequence:
#
# PCOD9233784 Si02
#       7
#     4   4   2   2   4   4   4
#     4  11  21  42  71  87 126 172 216 269 317 394
#     4  11  19  39  69  90 114 165 227 261 312 382
#     4  10  21  42  75  96 128 172 222 269 310 397
#     4  10  25  42  49  98 132 160 224 271 334 369
#     4  12  20  37  67  93 113 169 225 272 316 371
#     4  10  25  42  55  92 133 174 208 267 330 384
#     4  11  24  45  71 106 137 168 218 272 334 399
#
# _framework density 24.117249000000001
#
# number of rings (size 3 to 8) (size 9 to 14) (size 15 to 20)
#    0.500    0.667    6.667    1.500    0.000    4.000 
#    7.500    0.000    0.000    0.000    0.000    0.000 
#    0.000    0.000    0.000    0.000    0.000    0.000 
#
# Total GULP energy -133934.772424 kJ/mol
# GULP energy per Si atom -5580.615518 kJ/mol
# Density = 2.406236 g / cm^3
# Si number density = 24.117249 Si / 1000 Ang^3
#
#
#
# Elastic Constant Matrix: (Units=GPa)
#
#
# Indices 1 2 3 4 5 6 
#
# 1 93.2314 13.0768 40.2936 0.0000 38.5435 0.0000
# 2 13.0768 43.6931 13.0431 0.0000 10.2283 0.0000
# 3 40.2936 13.0431 151.8447 0.0000 42.1040 0.0000
# 4 0.0000 0.0000 0.0000 37.1715 0.0000 40.4695
# 5 38.5435 10.2283 42.1040 0.0000 63.2483 0.0000
# 6 0.0000 0.0000 0.0000 40.4695 0.0000 82.9181
#
#
#
# Elastic Compliance Matrix: (Units=1/GPa)
#
#
# Indices 1 2 3 4 5 6 
#
# 1 0.014899 -0.002181 -0.001651 0.000000 -0.007627 0.000000
# 2 -0.002181 0.024286 -0.000965 0.000000 -0.001956 0.000000
# 3 -0.001651 -0.000965 0.008320 0.000000 -0.004376 0.000000
# 4 0.000000 0.000000 0.000000 0.057406 0.000000 -0.028018
# 5 -0.007627 -0.001956 -0.004376 0.000000 0.023689 0.000000
# 6 0.000000 0.000000 0.000000 -0.028018 0.000000 0.025735
#
#
# Mechanical properties :
#
#
# Convention : Reuss Voigt Hill
#
# Bulk Modulus (GPa) = 26.37769 46.84402 36.61086
# Shear Modulus (GPa) = 28.31821 51.49129 39.90475
#
# Velocity S-wave (km/s) = 3.43036 4.62566 4.07211
# Velocity P-wave (km/s) = 5.16245 6.92781 6.10923
#
# Compressibility (1/GPa) = 0.03791082
#
# Stress axis : x y z
#
# Youngs Moduli (GPa) = 67.11935 41.17682 120.18861
#
# Poissons Ratio (x) = 0.08979 0.19847
# Poissons Ratio (y) = 0.14636 0.11599
# Poissons Ratio (z) = 0.11083 0.03974
#
# Static dielectric constant tensor:
#      x y z
#    x 2.219930 0.000000 0.001430 
#    y 0.000000 2.105800 0.000000 
#    z 0.001430 0.000000 1.938230 
# 
# From -- ./inp_files/51396.got.cif
#   From: 2010.05.17/outbox.cif.g08.bks.cpg/sg13_26_cif.got.tgz:51396.got - 2010.06.03 16:44:36.
