data_PCOD9233974
_publ_section_title
;
Structure prediction by ZEFSAII (Michael W. Deem and Ramdas Pophale) SiO2 
 PCOD9233974
Probable space group: P 2/C
;
_chemical_formula_sum "Si O2"
_cell_formula_units_Z 20
_cell_length_a 10.073220
_cell_length_b 5.310445
_cell_length_c 19.572684
_cell_angle_alpha 90.000000
_cell_angle_beta 139.389199
_cell_angle_gamma 90.000000
_cell_volume 681.515062
_symmetry_space_group_name_H-M "P 2/C"
_symmetry_group_IT_number 13
_symmetry_cell_setting 'monoclinic'
loop_
_space_group_symop_operation_xyz
x,y,z
-x,y,1/2-z
-x,-y,-z
x,-y,1/2+z
loop_
_atom_site_type_symbol
_atom_site_label
_atom_site_fract_x
_atom_site_fract_y
_atom_site_fract_z
Si Si1 0.534104 0.564288 0.931806
Si Si2 0.891725 0.254451 0.488278
Si Si3 0.313777 0.073969 0.478182
Si Si4 0.000000 0.014551 0.250000
Si Si5 0.232941 0.292539 0.736856
Si Si6 0.500000 0.916742 0.750000
O O1 0.334981 0.549817 0.806959
O O2 0.500000 0.500000 0.000000
O O3 0.676750 0.809929 0.976036
O O4 0.651923 0.308721 0.959854
O O5 0.000000 0.500000 0.500000
O O6 0.026176 0.287753 0.614787
O O7 0.676468 0.248629 0.355155
O O8 0.000000 0.000000 0.500000
O O9 0.121015 0.148685 0.357416
O O10 0.500000 0.000000 0.500000
O O11 0.826921 0.842250 0.215197
O O12 0.386819 0.108479 0.757838
#
# Coordination Sequence:
#
# PCOD9233974 Si02
#       6
#     4   4   4   2   4   2
#     4  10  21  47  71 107 149 192 247 304 376 436
#     4   9  23  45  71 109 148 197 249 310 368 450
#     4   9  21  45  69 108 145 191 241 308 362 450
#     4  10  24  46  76 114 148 200 252 306 386 444
#     4  11  23  47  76 112 152 201 251 316 374 456
#     4  12  22  48  80 108 158 198 258 306 386 442
#
# _framework density 29.346378000000001
#
# number of rings (size 3 to 8) (size 9 to 14) (size 15 to 20)
#    1.200    0.800    2.000    0.600    0.000    3.200 
#   14.400    2.000    0.000    0.000    0.000    0.000 
#    0.000    0.000    0.000    0.000    0.000    0.000 
#
# Total GULP energy -111554.979910 kJ/mol
# GULP energy per Si atom -5577.748995 kJ/mol
# Density = 2.927958 g / cm^3
# Si number density = 29.346378 Si / 1000 Ang^3
#
#
#
# Elastic Constant Matrix: (Units=GPa)
#
#
# Indices 1 2 3 4 5 6 
#
# 1 105.8756 8.7601 63.8710 0.0000 14.3388 0.0000
# 2 8.7601 149.8409 61.3223 0.0000 9.8690 0.0000
# 3 63.8710 61.3223 312.8115 0.0000 8.5545 0.0000
# 4 0.0000 0.0000 0.0000 72.8477 0.0000 -3.8866
# 5 14.3388 9.8690 8.5545 0.0000 55.2498 0.0000
# 6 0.0000 0.0000 0.0000 -3.8866 0.0000 25.4184
#
#
#
# Elastic Compliance Matrix: (Units=1/GPa)
#
#
# Indices 1 2 3 4 5 6 
#
# 1 0.011146 0.000460 -0.002294 0.000000 -0.002620 0.000000
# 2 0.000460 0.007340 -0.001500 0.000000 -0.001198 0.000000
# 3 -0.002294 -0.001500 0.003952 0.000000 0.000251 0.000000
# 4 0.000000 0.000000 0.000000 0.013840 0.000000 0.002116
# 5 -0.002620 -0.001198 0.000251 0.000000 0.018955 0.000000
# 6 0.000000 0.000000 0.000000 0.002116 0.000000 0.039665
#
#
# Mechanical properties :
#
#
# Convention : Reuss Voigt Hill
#
# Bulk Modulus (GPa) = 63.41515 92.93721 78.17618
# Shear Modulus (GPa) = 46.80642 59.67482 53.24062
#
# Velocity S-wave (km/s) = 3.99803 4.51429 4.26398
# Velocity P-wave (km/s) = 6.55503 7.67525 7.13716
#
# Compressibility (1/GPa) = 0.01576910
#
# Stress axis : x y z
#
# Youngs Moduli (GPa) = 89.71953 136.24657 253.00786
#
# Poissons Ratio (x) = -0.06266 0.58048
# Poissons Ratio (y) = -0.04126 0.37950
# Poissons Ratio (z) = 0.20584 0.20436
#
# Static dielectric constant tensor:
#      x y z
#    x 1.060710 0.000000 0.477570 
#    y 0.000000 3.016450 0.000000 
#    z 0.477570 0.000000 2.135890 
# 
# From -- ./inp_files/77394.got.cif
#   From: 2010.05.17/outbox.cif.g08.bks.cpg/sg13_39_cif.got.tgz:77394.got - 2010.06.03 16:44:36.
