data_PCOD9233929
_publ_section_title
;
Structure prediction by ZEFSAII (Michael W. Deem and Ramdas Pophale) SiO2 
 PCOD9233929
Probable space group: P 2/C
;
_chemical_formula_sum "Si O2"
_cell_formula_units_Z 14
_cell_length_a 9.044633
_cell_length_b 15.650186
_cell_length_c 5.373127
_cell_angle_alpha 90.000000
_cell_angle_beta 60.809326
_cell_angle_gamma 90.000000
_cell_volume 663.976235
_symmetry_space_group_name_H-M "P 2/C"
_symmetry_group_IT_number 13
_symmetry_cell_setting 'monoclinic'
loop_
_space_group_symop_operation_xyz
x,y,z
-x,y,1/2-z
-x,-y,-z
x,-y,1/2+z
loop_
_atom_site_type_symbol
_atom_site_label
_atom_site_fract_x
_atom_site_fract_y
_atom_site_fract_z
Si Si1 0.000000 0.444093 0.750000
Si Si2 0.500000 0.820877 0.750000
Si Si3 0.738952 0.055485 0.292234
Si Si4 0.821208 0.720872 0.284950
Si Si5 0.000000 0.815311 0.750000
O O1 0.841359 0.378792 0.838299
O O2 0.000000 0.500000 0.500000
O O3 0.423999 0.883823 0.604079
O O4 0.653592 0.763821 0.523526
O O5 0.900312 0.117879 0.157857
O O6 0.741124 0.004637 0.548559
O O7 0.000000 0.753827 0.250000
O O8 0.854957 0.751878 0.975911
#
# Coordination Sequence:
#
# PCOD9233929 Si02
#       5
#     2   2   4   4   2
#     4  10  21  44  73 104 140 172 214 276 345 416
#     4  12  24  48  68 100 138 182 240 282 336 424
#     4  12  26  42  65  98 138 185 238 301 346 383
#     4  10  24  44  71  99 133 184 220 274 346 408
#     4  12  23  46  67  98 138 188 242 280 341 422
#
# _framework density 21.085093000000001
#
# number of rings (size 3 to 8) (size 9 to 14) (size 15 to 20)
#    0.857    0.000    2.857    4.286    0.000    3.429 
#    0.000    1.429    0.000    0.000    0.000    0.000 
#    0.000    0.000    0.000    0.000    0.000    0.000 
#
# Total GULP energy -78042.694293 kJ/mol
# GULP energy per Si atom -5574.478164 kJ/mol
# Density = 2.103710 g / cm^3
# Si number density = 21.085093 Si / 1000 Ang^3
#
#
#
# Elastic Constant Matrix: (Units=GPa)
#
#
# Indices 1 2 3 4 5 6 
#
# 1 102.7878 69.5561 49.9374 0.0000 -0.1414 0.0000
# 2 69.5561 160.5556 90.9200 0.0000 8.5273 0.0000
# 3 49.9374 90.9200 148.9268 0.0000 -1.4267 0.0000
# 4 0.0000 0.0000 0.0000 20.5062 0.0000 0.3200
# 5 -0.1414 8.5273 -1.4267 0.0000 36.3889 0.0000
# 6 0.0000 0.0000 0.0000 0.3200 0.0000 44.2362
#
#
#
# Elastic Compliance Matrix: (Units=1/GPa)
#
#
# Indices 1 2 3 4 5 6 
#
# 1 0.014039 -0.005333 -0.001440 0.000000 0.001248 0.000000
# 2 -0.005333 0.011770 -0.005426 0.000000 -0.002992 0.000000
# 3 -0.001440 -0.005426 0.010526 0.000000 0.001679 0.000000
# 4 0.000000 0.000000 0.000000 0.048771 0.000000 -0.000353
# 5 0.001248 -0.002992 0.001679 0.000000 0.028253 0.000000
# 6 0.000000 0.000000 0.000000 -0.000353 0.000000 0.022608
#
#
# Mechanical properties :
#
#
# Convention : Reuss Voigt Hill
#
# Bulk Modulus (GPa) = 83.76865 92.56634 88.16750
# Shear Modulus (GPa) = 30.42387 33.68338 32.05362
#
# Velocity S-wave (km/s) = 3.80269 4.00121 3.90321
# Velocity P-wave (km/s) = 7.68737 8.08349 7.88792
#
# Compressibility (1/GPa) = 0.01193764
#
# Stress axis : x y z
#
# Youngs Moduli (GPa) = 71.23190 84.95887 94.99982
#
# Poissons Ratio (x) = 0.45307 0.13677
# Poissons Ratio (y) = 0.37987 0.51550
# Poissons Ratio (z) = 0.10255 0.46102
#
# Static dielectric constant tensor:
#      x y z
#    x 1.976590 0.000000 0.239200 
#    y 0.000000 1.771290 0.000000 
#    z 0.239200 0.000000 2.075710 
# 
# From -- ./inp_files/1011.got.cif
#   From: 2010.05.17/outbox.cif.g08.bks.cpg/sg13_1_cif.got.tgz:1011.got - 2010.06.03 16:44:36.
