data_PCOD9233813
_publ_section_title
;
Structure prediction by ZEFSAII (Michael W. Deem and Ramdas Pophale) SiO2 
 PCOD9233813
Probable space group: P 2/C
;
_chemical_formula_sum "Si O2"
_cell_formula_units_Z 20
_cell_length_a 5.593547
_cell_length_b 15.135813
_cell_length_c 9.773247
_cell_angle_alpha 90.000000
_cell_angle_beta 93.138167
_cell_angle_gamma 90.000000
_cell_volume 826.190456
_symmetry_space_group_name_H-M "P 2/C"
_symmetry_group_IT_number 13
_symmetry_cell_setting 'monoclinic'
loop_
_space_group_symop_operation_xyz
x,y,z
-x,y,1/2-z
-x,-y,-z
x,-y,1/2+z
loop_
_atom_site_type_symbol
_atom_site_label
_atom_site_fract_x
_atom_site_fract_y
_atom_site_fract_z
Si Si1 0.689625 0.064659 0.143265
Si Si2 0.778252 0.298686 0.492056
Si Si3 0.239604 0.483145 0.917545
Si Si4 0.000000 0.224499 0.250000
Si Si5 0.500000 0.610223 0.750000
Si Si6 0.637519 0.881925 0.116324
O O1 0.500000 0.034617 0.250000
O O2 0.796294 0.152040 0.214440
O O3 0.812128 0.968557 0.123961
O O4 0.565531 0.092816 0.000175
O O5 0.783411 0.377678 0.601082
O O6 0.982679 0.284566 0.383907
O O7 0.566924 0.327707 0.379937
O O8 0.761711 0.205061 0.563287
O O9 0.282237 0.544877 0.787089
O O10 0.500000 0.500000 0.000000
O O11 0.000000 0.500000 0.000000
O O12 0.500000 0.857954 0.250000
#
# Coordination Sequence:
#
# PCOD9233813 Si02
#       6
#     4   4   4   2   2   4
#     4  10  21  43  65  93 135 183 226 280 348 409
#     4  11  22  39  68 100 126 174 235 282 344 427
#     4  10  23  42  67  99 135 172 226 296 362 417
#     4  12  22  38  74  96 128 176 244 278 340 422
#     4  10  22  44  74  92 140 180 232 292 364 422
#     4  10  22  41  64  95 141 177 222 288 346 412
#
# _framework density 24.207495999999999
#
# number of rings (size 3 to 8) (size 9 to 14) (size 15 to 20)
#    0.000    1.600    2.000    2.400    1.400    4.800 
#    0.000    0.000    8.800    0.000    0.000    0.000 
#    0.000    0.000    0.000    0.000    0.000    0.000 
#
# Total GULP energy -111430.889020 kJ/mol
# GULP energy per Si atom -5571.544451 kJ/mol
# Density = 2.415240 g / cm^3
# Si number density = 24.207496 Si / 1000 Ang^3
#
#
#
# Elastic Constant Matrix: (Units=GPa)
#
#
# Indices 1 2 3 4 5 6 
#
# 1 67.8625 15.7100 12.6609 0.0000 -18.0045 0.0000
# 2 15.7100 157.1473 -0.3671 0.0000 -24.7897 0.0000
# 3 12.6609 -0.3671 98.9613 0.0000 -17.2385 0.0000
# 4 0.0000 0.0000 0.0000 10.7494 0.0000 -9.2575
# 5 -18.0045 -24.7897 -17.2385 0.0000 36.6130 0.0000
# 6 0.0000 0.0000 0.0000 -9.2575 0.0000 -31.1660
#
#
#
# Elastic Compliance Matrix: (Units=1/GPa)
#
#
# Indices 1 2 3 4 5 6 
#
# 1 0.017037 -0.000500 -0.000851 0.000000 0.007639 0.000000
# 2 -0.000500 0.007221 0.000980 0.000000 0.005105 0.000000
# 3 -0.000851 0.000980 0.011177 0.000000 0.005507 0.000000
# 4 0.000000 0.000000 0.000000 0.074079 0.000000 -0.022004
# 5 0.007639 0.005105 0.005507 0.000000 0.037118 0.000000
# 6 0.000000 0.000000 0.000000 -0.022004 0.000000 -0.025550
#
#
# Mechanical properties :
#
#
# Convention : Reuss Voigt Hill
#
# Bulk Modulus (GPa) = 28.82480 42.21987 35.52233
# Shear Modulus (GPa) = 37.48471 22.97041 30.22756
#
# Velocity S-wave (km/s) = 3.93934 3.08376 3.53751
# Velocity P-wave (km/s) = 5.71178 5.49164 5.60279
#
# Compressibility (1/GPa) = 0.03469235
#
# Stress axis : x y z
#
# Youngs Moduli (GPa) = 58.69645 138.48523 89.47078
#
# Poissons Ratio (x) = 0.06927 0.07613
# Poissons Ratio (y) = 0.02936 -0.08768
# Poissons Ratio (z) = 0.04995 -0.13571
#
# Static dielectric constant tensor:
#      x y z
#    x 2.317540 0.000000 -0.232930 
#    y 0.000000 2.036990 0.000000 
#    z -0.232930 0.000000 2.253980 
# 
# From -- ./inp_files/26054.got.cif
#   From: 2010.05.17/outbox.cif.g08.bks.cpg/sg13_14_cif.got.tgz:26054.got - 2010.06.03 16:44:36.
