data_PCOD9233401
_publ_section_title
;
Structure prediction by ZEFSAII (Michael W. Deem and Ramdas Pophale) SiO2 
 PCOD9233401
Probable space group: P 2/C
;
_chemical_formula_sum "Si O2"
_cell_formula_units_Z 22
_cell_length_a 20.159137
_cell_length_b 5.218094
_cell_length_c 10.312120
_cell_angle_alpha 90.000000
_cell_angle_beta 129.348863
_cell_angle_gamma 90.000000
_cell_volume 838.841046
_symmetry_space_group_name_H-M "P 2/C"
_symmetry_group_IT_number 13
_symmetry_cell_setting 'monoclinic'
loop_
_space_group_symop_operation_xyz
x,y,z
-x,y,1/2-z
-x,-y,-z
x,-y,1/2+z
loop_
_atom_site_type_symbol
_atom_site_label
_atom_site_fract_x
_atom_site_fract_y
_atom_site_fract_z
Si Si1 0.500000 0.173985 0.750000
Si Si2 0.187531 0.383500 0.219737
Si Si3 0.621946 0.539537 0.596871
Si Si4 0.645584 0.212458 0.385910
Si Si5 0.839870 0.897821 0.168564
Si Si6 0.019545 0.356547 0.893447
O O1 0.424427 0.005532 0.721087
O O2 0.454027 0.320463 0.573833
O O3 0.286357 0.328851 0.319113
O O4 0.173948 0.683830 0.232212
O O5 0.163372 0.200393 0.308307
O O6 0.120193 0.293348 0.026997
O O7 0.631794 0.285295 0.520943
O O8 0.620706 0.563722 0.751410
O O9 0.745583 0.147815 0.486707
O O10 0.942430 0.845051 0.276142
O O11 0.000000 0.542818 0.750000
O O12 0.000000 0.500000 0.000000
#
# Coordination Sequence:
#
# PCOD9233401 Si02
#       6
#     2   4   4   4   4   4
#     4  12  24  44  68  98 134 180 234 294 360 422
#     4  10  21  43  67 101 138 182 227 284 344 416
#     4  11  25  45  69 100 137 182 232 293 356 425
#     4  11  25  45  69 100 137 182 232 293 356 425
#     4  10  21  43  67 101 138 182 227 284 344 416
#     4  10  21  40  69 104 142 186 232 286 346 418
#
# _framework density 26.226659000000001
#
# number of rings (size 3 to 8) (size 9 to 14) (size 15 to 20)
#    0.000    1.455    1.818    2.727    0.000    4.364 
#    0.000   23.636    0.000    0.000    0.000    0.000 
#    0.000    0.000    0.000    0.000    0.000    0.000 
#
# Total GULP energy -122469.029109 kJ/mol
# GULP energy per Si atom -5566.774050 kJ/mol
# Density = 2.616697 g / cm^3
# Si number density = 26.226659 Si / 1000 Ang^3
#
#
#
# Elastic Constant Matrix: (Units=GPa)
#
#
# Indices 1 2 3 4 5 6 
#
# 1 93.9602 17.8749 52.4113 0.0000 58.9053 0.0000
# 2 17.8749 37.2463 3.2931 0.0000 11.9727 0.0000
# 3 52.4113 3.2931 165.8676 0.0000 51.4385 0.0000
# 4 0.0000 0.0000 0.0000 6.2046 0.0000 1.9186
# 5 58.9053 11.9727 51.4385 0.0000 73.1932 0.0000
# 6 0.0000 0.0000 0.0000 1.9186 0.0000 0.4005
#
#
#
# Elastic Compliance Matrix: (Units=1/GPa)
#
#
# Indices 1 2 3 4 5 6 
#
# 1 0.023002 -0.005687 -0.002178 0.000000 -0.016051 0.000000
# 2 -0.005687 0.029908 0.001664 0.000000 -0.001485 0.000000
# 3 -0.002178 0.001664 0.007960 0.000000 -0.004113 0.000000
# 4 0.000000 0.000000 0.000000 -0.334770 0.000000 1.603844
# 5 -0.016051 -0.001485 -0.004113 0.000000 0.029714 0.000000
# 6 0.000000 0.000000 0.000000 1.603844 0.000000 -5.186743
#
#
# Mechanical properties :
#
#
# Convention : Reuss Voigt Hill
#
# Bulk Modulus (GPa) = 20.63225 49.35917 34.99571
# Shear Modulus (GPa) = -0.92552 30.85932 14.96690
#
# Velocity S-wave (km/s) = -0.59469 3.43394 2.39147
# Velocity P-wave (km/s) = 2.72258 5.88079 4.58236
#
# Compressibility (1/GPa) = 0.04846782
#
# Stress axis : x y z
#
# Youngs Moduli (GPa) = 43.47397 33.43636 125.63432
#
# Poissons Ratio (x) = 0.19015 0.27358
# Poissons Ratio (y) = 0.24723 -0.20900
# Poissons Ratio (z) = 0.09467 -0.05562
#
# Static dielectric constant tensor:
#      x y z
#    x 2.284620 0.000000 -0.125350 
#    y 0.000000 2.049900 0.000000 
#    z -0.125350 0.000000 2.111880 
# 
# From -- ./inp_files/41327.got.cif
#   From: 2010.05.17/outbox.cif.g08.bks.cpg/sg13_21_cif.got.tgz:41327.got - 2010.06.03 16:44:36.
