data_PCOD9233500
_publ_section_title
;
Structure prediction by ZEFSAII (Michael W. Deem and Ramdas Pophale) SiO2 
 PCOD9233500
Probable space group: P 2/C
;
_chemical_formula_sum "Si O2"
_cell_formula_units_Z 24
_cell_length_a 12.257762
_cell_length_b 18.660535
_cell_length_c 12.497153
_cell_angle_alpha 90.000000
_cell_angle_beta 23.676491
_cell_angle_gamma 90.000000
_cell_volume 1147.915254
_symmetry_space_group_name_H-M "P 2/C"
_symmetry_group_IT_number 13
_symmetry_cell_setting 'monoclinic'
loop_
_space_group_symop_operation_xyz
x,y,z
-x,y,1/2-z
-x,-y,-z
x,-y,1/2+z
loop_
_atom_site_type_symbol
_atom_site_label
_atom_site_fract_x
_atom_site_fract_y
_atom_site_fract_z
Si Si1 0.307572 0.953469 0.320496
Si Si2 0.798503 0.536872 0.030926
Si Si3 0.734633 0.095935 0.265619
Si Si4 0.678234 0.309546 0.697343
Si Si5 0.772866 0.258771 0.232810
Si Si6 0.199434 0.378281 0.471248
O O1 0.500000 0.944153 0.250000
O O2 0.005907 0.920488 0.591866
O O3 0.270445 0.037361 0.324211
O O4 0.471339 0.918223 0.074943
O O5 0.500000 0.529999 0.250000
O O6 0.776931 0.607987 0.121018
O O7 0.858361 0.458207 0.023865
O O8 0.000000 0.550581 0.750000
O O9 0.736399 0.177709 0.227599
O O10 0.500000 0.305269 0.750000
O O11 0.951277 0.263323 0.445423
O O12 0.485276 0.284218 0.966464
O O13 0.819889 0.314808 0.095617
O O14 0.500000 0.377432 0.250000
O O15 0.000000 0.368400 0.750000
#
# Coordination Sequence:
#
# PCOD9233500 Si02
#       6
#     4   4   4   4   4   4
#     4  10  21  41  65  84 113 156 189 228 288 341
#     4   9  18  36  58  80 113 155 203 249 281 336
#     4  10  23  39  58  92 120 141 195 242 271 352
#     4  11  23  38  57  85 121 159 198 241 293 347
#     4  12  24  38  60  90 122 154 191 242 300 351
#     4  10  22  40  60  84 117 157 201 248 294 340
#
# _framework density 20.907465999999999
#
# number of rings (size 3 to 8) (size 9 to 14) (size 15 to 20)
#    0.000    1.667    0.000    5.000    0.000    6.000 
#    0.000    3.333    0.000    0.000    0.000    0.000 
#    0.000    0.000    0.000    0.000    0.000    0.000 
#
# Total GULP energy -134097.986568 kJ/mol
# GULP energy per Si atom -5587.416107 kJ/mol
# Density = 2.085988 g / cm^3
# Si number density = 20.907466 Si / 1000 Ang^3
#
#
#
# Elastic Constant Matrix: (Units=GPa)
#
#
# Indices 1 2 3 4 5 6 
#
# 1 24.5655 1.6629 1.7162 0.0000 -11.2408 0.0000
# 2 1.6629 151.3586 33.0567 0.0000 15.0890 0.0000
# 3 1.7162 33.0567 131.5156 0.0000 -10.7534 0.0000
# 4 0.0000 0.0000 0.0000 5.0142 0.0000 2.1305
# 5 -11.2408 15.0890 -10.7534 0.0000 22.8097 0.0000
# 6 0.0000 0.0000 0.0000 2.1305 0.0000 9.3658
#
#
#
# Elastic Compliance Matrix: (Units=1/GPa)
#
#
# Indices 1 2 3 4 5 6 
#
# 1 0.055219 -0.004395 0.002961 0.000000 0.031516 0.000000
# 2 -0.004395 0.008125 -0.002706 0.000000 -0.008816 0.000000
# 3 0.002961 -0.002706 0.008852 0.000000 0.007422 0.000000
# 4 0.000000 0.000000 0.000000 0.220774 0.000000 -0.050222
# 5 0.031516 -0.008816 0.007422 0.000000 0.068703 0.000000
# 6 0.000000 0.000000 0.000000 -0.050222 0.000000 0.118195
#
#
# Mechanical properties :
#
#
# Convention : Reuss Voigt Hill
#
# Bulk Modulus (GPa) = 15.64545 42.25681 28.95113
# Shear Modulus (GPa) = 9.81442 25.50488 17.65965
#
# Velocity S-wave (km/s) = 2.16897 3.49649 2.90945
# Velocity P-wave (km/s) = 3.71106 6.04614 5.01636
#
# Compressibility (1/GPa) = 0.06391636
#
# Stress axis : x y z
#
# Youngs Moduli (GPa) = 18.10965 123.07763 112.96890
#
# Poissons Ratio (x) = 0.54095 -0.33451
# Poissons Ratio (y) = 0.07960 0.30566
# Poissons Ratio (z) = -0.05362 0.33302
#
# Static dielectric constant tensor:
#      x y z
#    x 1.759200 0.000000 -0.026060 
#    y 0.000000 1.778300 0.000000 
#    z -0.026060 0.000000 1.703970 
# 
# From -- ./inp_files/53913.got.cif
#   From: 2010.05.17/outbox.cif.g08.bks.cpg/sg13_27_cif.got.tgz:53913.got - 2010.06.03 16:44:36.
