data_PCOD9233852
_publ_section_title
;
Structure prediction by ZEFSAII (Michael W. Deem and Ramdas Pophale) SiO2 
 PCOD9233852
Probable space group: P 2/C
;
_chemical_formula_sum "Si O2"
_cell_formula_units_Z 26
_cell_length_a 7.887848
_cell_length_b 20.140101
_cell_length_c 12.798932
_cell_angle_alpha 90.000000
_cell_angle_beta 145.213178
_cell_angle_gamma 90.000000
_cell_volume 1160.027678
_symmetry_space_group_name_H-M "P 2/C"
_symmetry_group_IT_number 13
_symmetry_cell_setting 'monoclinic'
loop_
_space_group_symop_operation_xyz
x,y,z
-x,y,1/2-z
-x,-y,-z
x,-y,1/2+z
loop_
_atom_site_type_symbol
_atom_site_label
_atom_site_fract_x
_atom_site_fract_y
_atom_site_fract_z
Si Si1 0.686761 0.077659 0.713035
Si Si2 0.811051 0.157304 0.257076
Si Si3 0.214046 0.216498 0.646394
Si Si4 0.000000 0.509293 0.750000
Si Si5 0.659715 0.049052 0.453063
Si Si6 0.373380 0.729867 0.567024
Si Si7 0.519200 0.421291 0.386153
O O1 0.647618 0.153525 0.723447
O O2 0.693345 0.065028 0.592961
O O3 0.431564 0.026264 0.613951
O O4 0.012065 0.061387 0.921899
O O5 0.621598 0.096884 0.210811
O O6 0.564747 0.213850 0.105740
O O7 0.000000 0.137801 0.250000
O O8 0.024802 0.189148 0.452281
O O9 0.500000 0.256878 0.750000
O O10 0.973923 0.252115 0.598518
O O11 0.788790 0.464513 0.569482
O O12 0.781863 0.552668 0.712245
O O13 0.500000 0.732109 0.750000
O O14 0.427687 0.655577 0.557025
O O15 0.500000 0.426310 0.250000
#
# Coordination Sequence:
#
# PCOD9233852 Si02
#       7
#     4   4   4   2   4   4   4
#     4  10  22  39  58  83 116 154 202 266 320 391
#     4  11  23  40  62  86 120 163 208 263 325 386
#     4  11  23  42  60  90 121 159 213 264 321 390
#     4  10  22  40  70 112 136 184 240 264 330 422
#     4  10  22  38  59  84 115 154 203 262 331 380
#     4   9  21  43  64  89 130 171 210 260 327 384
#     4  10  21  43  69 101 148 185 223 287 333 393
#
# _framework density 22.413257000000002
#
# number of rings (size 3 to 8) (size 9 to 14) (size 15 to 20)
#    0.000    1.846    1.538    1.385    7.538    0.615 
#    5.538    3.846    0.000    0.000    0.000    0.000 
#    0.000    0.000    0.000    0.000    0.000    0.000 
#
# Total GULP energy -145341.556952 kJ/mol
# GULP energy per Si atom -5590.059883 kJ/mol
# Density = 2.236224 g / cm^3
# Si number density = 22.413257 Si / 1000 Ang^3
#
#
#
# Elastic Constant Matrix: (Units=GPa)
#
#
# Indices 1 2 3 4 5 6 
#
# 1 104.6162 34.4164 47.9316 0.0000 18.1414 0.0000
# 2 34.4164 114.6916 34.8979 0.0000 24.1669 0.0000
# 3 47.9316 34.8979 120.2654 0.0000 21.7657 0.0000
# 4 0.0000 0.0000 0.0000 24.6161 0.0000 0.0860
# 5 18.1414 24.1669 21.7657 0.0000 55.1912 0.0000
# 6 0.0000 0.0000 0.0000 0.0860 0.0000 18.9823
#
#
#
# Elastic Compliance Matrix: (Units=1/GPa)
#
#
# Indices 1 2 3 4 5 6 
#
# 1 0.012383 -0.002167 -0.004029 0.000000 -0.001533 0.000000
# 2 -0.002167 0.010547 -0.001604 0.000000 -0.003273 0.000000
# 3 -0.004029 -0.001604 0.010790 0.000000 -0.002228 0.000000
# 4 0.000000 0.000000 0.000000 0.040624 0.000000 -0.000184
# 5 -0.001533 -0.003273 -0.002228 0.000000 0.020935 0.000000
# 6 0.000000 0.000000 0.000000 -0.000184 0.000000 0.052681
#
#
# Mechanical properties :
#
#
# Convention : Reuss Voigt Hill
#
# Bulk Modulus (GPa) = 55.19121 63.78499 59.48810
# Shear Modulus (GPa) = 29.48078 34.57973 32.03025
#
# Velocity S-wave (km/s) = 3.63068 3.93214 3.78441
# Velocity P-wave (km/s) = 6.50028 7.00971 6.75979
#
# Compressibility (1/GPa) = 0.01811883
#
# Stress axis : x y z
#
# Youngs Moduli (GPa) = 80.75266 94.81139 92.68182
#
# Poissons Ratio (x) = 0.20546 0.37344
# Poissons Ratio (y) = 0.17500 0.14870
# Poissons Ratio (z) = 0.32537 0.15212
#
# Static dielectric constant tensor:
#      x y z
#    x 1.880910 0.000000 -0.003480 
#    y 0.000000 1.796150 0.000000 
#    z -0.003480 0.000000 1.903070 
# 
# From -- ./inp_files/48186.got.cif
#   From: 2010.05.17/outbox.cif.g08.bks.cpg/sg13_25_cif.got.tgz:48186.got - 2010.06.03 16:44:36.
