data_PCOD9233314
_publ_section_title
;
Structure prediction by ZEFSAII (Michael W. Deem and Ramdas Pophale) SiO2 
 PCOD9233314
Probable space group: P 2/C
;
_chemical_formula_sum "Si O2"
_cell_formula_units_Z 28
_cell_length_a 8.885665
_cell_length_b 11.582333
_cell_length_c 14.819904
_cell_angle_alpha 90.000000
_cell_angle_beta 111.572432
_cell_angle_gamma 90.000000
_cell_volume 1418.380029
_symmetry_space_group_name_H-M "P 2/C"
_symmetry_group_IT_number 13
_symmetry_cell_setting 'monoclinic'
loop_
_space_group_symop_operation_xyz
x,y,z
-x,y,1/2-z
-x,-y,-z
x,-y,1/2+z
loop_
_atom_site_type_symbol
_atom_site_label
_atom_site_fract_x
_atom_site_fract_y
_atom_site_fract_z
Si Si1 0.342638 0.458524 0.152010
Si Si2 0.438217 0.290780 0.410204
Si Si3 0.970019 0.863280 0.983170
Si Si4 0.677141 0.094894 0.523020
Si Si5 0.484265 0.078993 0.643975
Si Si6 0.715646 0.296728 0.937300
Si Si7 0.149259 0.729950 0.712639
O O1 0.500000 0.475324 0.250000
O O2 0.427835 0.383091 0.091756
O O3 0.275989 0.583197 0.112224
O O4 0.200143 0.383216 0.166191
O O5 0.533387 0.180215 0.465299
O O6 0.330715 0.330409 0.470506
O O7 0.315261 0.251974 0.304752
O O8 0.841331 0.842403 0.034145
O O9 0.892970 0.829110 0.869269
O O10 0.123282 0.780301 0.027724
O O11 0.000000 0.000000 0.000000
O O12 0.648114 0.065493 0.621072
O O13 0.645614 0.989197 0.447161
O O14 0.500000 0.036974 0.750000
O O15 0.423608 0.211439 0.631628
O O16 0.000000 0.716745 0.750000
#
# Coordination Sequence:
#
# PCOD9233314 Si02
#       7
#     4   4   4   4   4   4   4
#     4  10  22  40  65  94 125 166 225 265 325 389
#     4  10  21  40  65  92 118 170 223 267 307 388
#     4  12  24  42  60  95 137 166 214 270 332 390
#     4  10  22  40  62  94 120 168 226 261 311 398
#     4  10  22  39  63  88 127 170 213 266 326 375
#     4  11  22  40  61  92 133 164 210 273 327 380
#     4  11  23  42  65  96 127 171 216 267 325 394
#
# _framework density 19.740829999999999
#
# number of rings (size 3 to 8) (size 9 to 14) (size 15 to 20)
#    0.000    1.429    4.286    0.857    2.000    0.571 
#    0.000    3.571    0.000    0.000    0.000    0.000 
#    0.000    0.000    0.000    0.000    0.000    0.000 
#
# Total GULP energy -156107.633949 kJ/mol
# GULP energy per Si atom -5575.272641 kJ/mol
# Density = 1.969590 g / cm^3
# Si number density = 19.740830 Si / 1000 Ang^3
#
#
#
# Elastic Constant Matrix: (Units=GPa)
#
#
# Indices 1 2 3 4 5 6 
#
# 1 132.2935 31.1343 33.6969 0.0000 -29.8870 0.0000
# 2 31.1343 112.7642 38.8813 0.0000 -9.1785 0.0000
# 3 33.6969 38.8813 80.2810 0.0000 -24.9195 0.0000
# 4 0.0000 0.0000 0.0000 25.1808 0.0000 1.2424
# 5 -29.8870 -9.1785 -24.9195 0.0000 30.7222 0.0000
# 6 0.0000 0.0000 0.0000 1.2424 0.0000 23.5446
#
#
#
# Elastic Compliance Matrix: (Units=1/GPa)
#
#
# Indices 1 2 3 4 5 6 
#
# 1 0.010147 -0.001871 -0.000618 0.000000 0.008811 0.000000
# 2 -0.001871 0.011032 -0.005479 0.000000 -0.002969 0.000000
# 3 -0.000618 -0.005479 0.019612 0.000000 0.013670 0.000000
# 4 0.000000 0.000000 0.000000 0.039816 0.000000 -0.002101
# 5 0.008811 -0.002969 0.013670 0.000000 0.051323 0.000000
# 6 0.000000 0.000000 0.000000 -0.002101 0.000000 0.042583
#
#
# Mechanical properties :
#
#
# Convention : Reuss Voigt Hill
#
# Bulk Modulus (GPa) = 40.23288 59.19598 49.71443
# Shear Modulus (GPa) = 25.15893 30.66460 27.91177
#
# Velocity S-wave (km/s) = 3.57383 3.94554 3.76428
# Velocity P-wave (km/s) = 6.12001 7.12798 6.64314
#
# Compressibility (1/GPa) = 0.02485529
#
# Stress axis : x y z
#
# Youngs Moduli (GPa) = 98.54810 90.64255 50.98804
#
# Poissons Ratio (x) = 0.16964 0.03150
# Poissons Ratio (y) = 0.18443 0.27937
# Poissons Ratio (z) = 0.06088 0.49664
#
# Static dielectric constant tensor:
#      x y z
#    x 1.768760 0.000000 -0.033950 
#    y 0.000000 1.691580 0.000000 
#    z -0.033950 0.000000 1.734520 
# 
# From -- ./inp_files/47002.got.cif
#   From: 2010.05.17/outbox.cif.g08.bks.cpg/sg13_24_cif.got.tgz:47002.got - 2010.06.03 16:44:36.
