data_PCOD9233345
_publ_section_title
;
Structure prediction by ZEFSAII (Michael W. Deem and Ramdas Pophale) SiO2 
 PCOD9233345
Probable space group: P 2/C
;
_chemical_formula_sum "Si O2"
_cell_formula_units_Z 32
_cell_length_a 14.913568
_cell_length_b 5.661273
_cell_length_c 15.369954
_cell_angle_alpha 90.000000
_cell_angle_beta 95.608084
_cell_angle_gamma 90.000000
_cell_volume 1291.470637
_symmetry_space_group_name_H-M "P 2/C"
_symmetry_group_IT_number 13
_symmetry_cell_setting 'monoclinic'
loop_
_space_group_symop_operation_xyz
x,y,z
-x,y,1/2-z
-x,-y,-z
x,-y,1/2+z
loop_
_atom_site_type_symbol
_atom_site_label
_atom_site_fract_x
_atom_site_fract_y
_atom_site_fract_z
Si Si1 0.003156 0.745039 0.615252
Si Si2 0.918730 0.241274 0.912910
Si Si3 0.433572 0.116450 0.093551
Si Si4 0.436789 0.260351 0.904386
Si Si5 0.191796 0.229289 0.322110
Si Si6 0.724335 0.759885 0.477325
Si Si7 0.609502 0.476236 0.844478
Si Si8 0.729928 0.274295 0.714630
O O1 0.970435 0.750478 0.510970
O O2 0.913901 0.754089 0.665387
O O3 0.055546 0.493609 0.628887
O O4 0.053425 0.996710 0.631370
O O5 0.814013 0.217457 0.927783
O O6 0.394743 0.248437 0.173876
O O7 0.526789 0.991902 0.124480
O O8 0.354887 0.944986 0.051299
O O9 0.458310 0.259216 0.008119
O O10 0.506200 0.422019 0.857591
O O11 0.332694 0.289654 0.876656
O O12 0.244304 0.233425 0.420408
O O13 0.216796 0.476435 0.277303
O O14 0.217531 0.974232 0.282702
O O15 0.675060 0.529242 0.435154
O O16 0.654855 0.302155 0.782145
#
# Coordination Sequence:
#
# PCOD9233345 Si02
#       8
#     4   4   4   4   4   4   4   4
#     4   9  18  35  58  94 127 158 203 267 319 370
#     4   9  18  32  61  94 126 157 205 264 321 370
#     4  10  21  40  66  93 131 163 224 271 325 376
#     4  10  22  41  63  93 121 174 216 273 318 385
#     4  11  24  42  67  95 130 171 219 265 323 389
#     4  10  22  38  66  97 126 171 217 268 321 387
#     4  11  25  40  62  92 135 171 216 276 324 387
#     4  12  26  42  65  94 132 176 217 265 328 389
#
# _framework density 24.777956
#
# number of rings (size 3 to 8) (size 9 to 14) (size 15 to 20)
#    0.000    1.750    1.250    2.250    7.000    2.000 
#    0.000    0.000    0.000    4.500    0.000    0.000 
#    0.000    0.000    0.000    0.000    0.000    0.000 
#
# Total GULP energy -178518.366914 kJ/mol
# GULP energy per Si atom -5578.698966 kJ/mol
# Density = 2.472156 g / cm^3
# Si number density = 24.777956 Si / 1000 Ang^3
#
#
#
# Elastic Constant Matrix: (Units=GPa)
#
#
# Indices 1 2 3 4 5 6 
#
# 1 126.4264 81.1449 16.9305 0.0000 -9.2712 0.0000
# 2 81.1449 189.4076 37.2882 0.0000 -38.5151 0.0000
# 3 16.9305 37.2882 52.9497 0.0000 3.9736 0.0000
# 4 0.0000 0.0000 0.0000 21.2785 0.0000 -25.2144
# 5 -9.2712 -38.5151 3.9736 0.0000 34.3325 0.0000
# 6 0.0000 0.0000 0.0000 -25.2144 0.0000 27.5450
#
#
#
# Elastic Compliance Matrix: (Units=1/GPa)
#
#
# Indices 1 2 3 4 5 6 
#
# 1 0.011164 -0.005575 0.000604 0.000000 -0.003309 0.000000
# 2 -0.005575 0.011633 -0.007340 0.000000 0.012395 0.000000
# 3 0.000604 -0.007340 0.024682 0.000000 -0.010928 0.000000
# 4 0.000000 0.000000 0.000000 -0.554789 0.000000 -0.507848
# 5 -0.003309 0.012395 -0.010928 0.000000 0.043403 0.000000
# 6 0.000000 0.000000 0.000000 -0.507848 0.000000 -0.428574
#
#
# Mechanical properties :
#
#
# Convention : Reuss Voigt Hill
#
# Bulk Modulus (GPa) = 43.74748 71.05677 57.40212
# Shear Modulus (GPa) = -5.81233 32.19255 13.19011
#
# Velocity S-wave (km/s) = -1.53325 3.60841 2.30974
# Velocity P-wave (km/s) = 3.81571 6.78973 5.50727
#
# Compressibility (1/GPa) = 0.02285846
#
# Stress axis : x y z
#
# Youngs Moduli (GPa) = 89.57171 85.95963 40.51599
#
# Poissons Ratio (x) = 0.47921 -0.02449
# Poissons Ratio (y) = 0.49935 0.29739
# Poissons Ratio (z) = -0.05415 0.63095
#
# Static dielectric constant tensor:
#      x y z
#    x 1.898780 0.000000 0.019790 
#    y 0.000000 2.137040 0.000000 
#    z 0.019790 0.000000 2.070200 
# 
# From -- ./inp_files/67565.got.cif
#   From: 2010.05.17/outbox.cif.g08.bks.cpg/sg13_34_cif.got.tgz:67565.got - 2010.06.03 16:44:36.
