data_PCOD9233836
_publ_section_title
;
Structure prediction by ZEFSAII (Michael W. Deem and Ramdas Pophale) SiO2 
 PCOD9233836
Probable space group: P 2/C
;
_chemical_formula_sum "Si O2"
_cell_formula_units_Z 24
_cell_length_a 17.732110
_cell_length_b 5.528323
_cell_length_c 22.677583
_cell_angle_alpha 90.000000
_cell_angle_beta 153.600162
_cell_angle_gamma 90.000000
_cell_volume 988.443701
_symmetry_space_group_name_H-M "P 2/C"
_symmetry_group_IT_number 13
_symmetry_cell_setting 'monoclinic'
loop_
_space_group_symop_operation_xyz
x,y,z
-x,y,1/2-z
-x,-y,-z
x,-y,1/2+z
loop_
_atom_site_type_symbol
_atom_site_label
_atom_site_fract_x
_atom_site_fract_y
_atom_site_fract_z
Si Si1 0.972817 0.821164 0.101739
Si Si2 0.647830 0.428595 0.033028
Si Si3 0.480350 0.694202 0.307501
Si Si4 0.986571 0.307642 0.308940
Si Si5 0.641740 0.807401 0.796534
Si Si6 0.650689 0.817973 0.118478
O O1 0.962233 0.544454 0.117981
O O2 0.170454 0.860987 0.224621
O O3 0.937728 0.047773 0.121111
O O4 0.828884 0.848728 0.952183
O O5 0.646490 0.365461 0.962924
O O6 0.454873 0.378272 0.917115
O O7 0.780478 0.278482 0.165514
O O8 0.693725 0.699574 0.084512
O O9 0.500000 0.710679 0.250000
O O10 0.366479 0.456772 0.237567
O O11 0.413844 0.958178 0.279282
O O12 0.000000 0.372123 0.250000
O O13 0.500000 0.792785 0.750000
O O14 0.500000 0.000000 0.000000
#
# Coordination Sequence:
#
# PCOD9233836 Si02
#       6
#     4   4   4   4   4   4
#     4  11  23  42  62  94 129 168 217 265 325 379
#     4  10  23  40  67  98 127 171 215 265 333 376
#     4  10  23  41  63  92 128 172 211 257 317 391
#     4  11  24  36  64  98 130 159 210 281 330 381
#     4  10  23  39  62  86 129 174 207 256 316 384
#     4  10  21  43  67  94 128 169 216 276 317 379
#
# _framework density 24.280593
#
# number of rings (size 3 to 8) (size 9 to 14) (size 15 to 20)
#    0.000    1.667    1.667    1.500   11.667    0.000 
#    0.000    1.667    0.000    0.000    0.000    0.000 
#    0.000    0.000    0.000    0.000    0.000    0.000 
#
# Total GULP energy -133770.622052 kJ/mol
# GULP energy per Si atom -5573.775919 kJ/mol
# Density = 2.422533 g / cm^3
# Si number density = 24.280593 Si / 1000 Ang^3
#
#
#
# Elastic Constant Matrix: (Units=GPa)
#
#
# Indices 1 2 3 4 5 6 
#
# 1 36.4950 0.3702 -7.2808 0.0000 8.1486 0.0000
# 2 0.3702 94.6239 17.8022 0.0000 1.4706 0.0000
# 3 -7.2808 17.8022 108.3158 0.0000 5.1755 0.0000
# 4 0.0000 0.0000 0.0000 42.3206 0.0000 -0.7713
# 5 8.1486 1.4706 5.1755 0.0000 39.0647 0.0000
# 6 0.0000 0.0000 0.0000 -0.7713 0.0000 23.7359
#
#
#
# Elastic Compliance Matrix: (Units=1/GPa)
#
#
# Indices 1 2 3 4 5 6 
#
# 1 0.029305 -0.000457 0.002351 0.000000 -0.006407 0.000000
# 2 -0.000457 0.010914 -0.001821 0.000000 -0.000074 0.000000
# 3 0.002351 -0.001821 0.009772 0.000000 -0.001716 0.000000
# 4 0.000000 0.000000 0.000000 0.023643 0.000000 0.000768
# 5 -0.006407 -0.000074 -0.001716 0.000000 0.027165 0.000000
# 6 0.000000 0.000000 0.000000 0.000768 0.000000 0.042155
#
#
# Mechanical properties :
#
#
# Convention : Reuss Voigt Hill
#
# Bulk Modulus (GPa) = 19.94566 29.02420 24.48493
# Shear Modulus (GPa) = 31.34392 36.26044 33.80218
#
# Velocity S-wave (km/s) = 3.59681 3.86864 3.73520
# Velocity P-wave (km/s) = 5.04796 5.65108 5.35801
#
# Compressibility (1/GPa) = 0.05013622
#
# Stress axis : x y z
#
# Youngs Moduli (GPa) = 34.12357 91.62817 102.33741
#
# Poissons Ratio (x) = 0.04191 -0.24061
# Poissons Ratio (y) = 0.01561 0.18635
# Poissons Ratio (z) = -0.08023 0.16685
#
# Static dielectric constant tensor:
#      x y z
#    x -0.713520 0.000000 -1.192780 
#    y 0.000000 2.027740 0.000000 
#    z -1.192780 0.000000 1.457540 
# 
# From -- ./inp_files/81205.got.cif
#   From: 2010.05.17/outbox.cif.g08.bks.cpg/sg13_41_cif.got.tgz:81205.got - 2010.06.03 16:44:36.
