data_PCOD9233356
_publ_section_title
;
Structure prediction by ZEFSAII (Michael W. Deem and Ramdas Pophale) SiO2 
 PCOD9233356
Probable space group: P 2/C
;
_chemical_formula_sum "Si O2"
_cell_formula_units_Z 24
_cell_length_a 7.850504
_cell_length_b 5.514954
_cell_length_c 25.633166
_cell_angle_alpha 90.000000
_cell_angle_beta 84.912995
_cell_angle_gamma 90.000000
_cell_volume 1105.420992
_symmetry_space_group_name_H-M "P 2/C"
_symmetry_group_IT_number 13
_symmetry_cell_setting 'monoclinic'
loop_
_space_group_symop_operation_xyz
x,y,z
-x,y,1/2-z
-x,-y,-z
x,-y,1/2+z
loop_
_atom_site_type_symbol
_atom_site_label
_atom_site_fract_x
_atom_site_fract_y
_atom_site_fract_z
Si Si1 0.004844 0.140783 0.310186
Si Si2 0.911059 0.467851 0.623270
Si Si3 0.861124 0.827956 0.531558
Si Si4 0.309934 0.931968 0.372255
Si Si5 0.350239 0.142521 0.118611
Si Si6 0.742651 0.344357 0.930033
O O1 0.817342 0.122040 0.340734
O O2 0.000000 0.080084 0.250000
O O3 0.056572 0.418805 0.321397
O O4 0.156281 0.002235 0.336808
O O5 0.933846 0.668834 0.577024
O O6 0.722105 0.356091 0.625469
O O7 0.072844 0.306987 0.602963
O O8 0.777880 0.654190 0.490762
O O9 0.729728 0.990839 0.567187
O O10 0.000000 0.000000 0.500000
O O11 0.479501 0.077263 0.353343
O O12 0.338791 0.406563 0.090571
O O13 0.348622 0.910765 0.079603
#
# Coordination Sequence:
#
# PCOD9233356 Si02
#       6
#     4   4   4   4   4   4
#     4  10  23  46  71  93 127 175 226 281 353 413
#     4  10  21  40  66  97 131 175 226 281 332 399
#     4  11  21  37  66  97 133 189 227 271 329 405
#     4  11  24  41  66  95 136 174 221 286 338 397
#     4  11  26  43  66 101 138 171 226 283 333 405
#     4  11  22  42  63  97 140 179 222 270 327 404
#
# _framework density 21.711183999999999
#
# number of rings (size 3 to 8) (size 9 to 14) (size 15 to 20)
#    0.000    1.333    3.333    2.500    7.000    2.667 
#    0.000    0.000    0.000    0.000    0.000    0.000 
#    0.000    0.000    0.000    0.000    0.000    0.000 
#
# Total GULP energy -133661.500760 kJ/mol
# GULP energy per Si atom -5569.229198 kJ/mol
# Density = 2.166177 g / cm^3
# Si number density = 21.711184 Si / 1000 Ang^3
#
#
#
# Elastic Constant Matrix: (Units=GPa)
#
#
# Indices 1 2 3 4 5 6 
#
# 1 129.9088 49.7196 33.1780 0.0000 10.1632 0.0000
# 2 49.7196 97.7397 34.5552 0.0000 4.1641 0.0000
# 3 33.1780 34.5552 90.4117 0.0000 14.4578 0.0000
# 4 0.0000 0.0000 0.0000 15.0210 0.0000 1.4925
# 5 10.1632 4.1641 14.4578 0.0000 16.2684 0.0000
# 6 0.0000 0.0000 0.0000 1.4925 0.0000 33.9302
#
#
#
# Elastic Compliance Matrix: (Units=1/GPa)
#
#
# Indices 1 2 3 4 5 6 
#
# 1 0.010063 -0.004473 -0.001354 0.000000 -0.003939 0.000000
# 2 -0.004473 0.013836 -0.004112 0.000000 0.002907 0.000000
# 3 -0.001354 -0.004112 0.014950 0.000000 -0.011388 0.000000
# 4 0.000000 0.000000 0.000000 0.066866 0.000000 -0.002941
# 5 -0.003939 0.002907 -0.011388 0.000000 0.073306 0.000000
# 6 0.000000 0.000000 0.000000 -0.002941 0.000000 0.029602
#
#
# Mechanical properties :
#
#
# Convention : Reuss Voigt Hill
#
# Bulk Modulus (GPa) = 52.70523 61.44064 57.07294
# Shear Modulus (GPa) = 21.29257 26.41775 23.85516
#
# Velocity S-wave (km/s) = 3.13504 3.49202 3.31834
# Velocity P-wave (km/s) = 6.11825 6.67978 6.40517
#
# Compressibility (1/GPa) = 0.01897345
#
# Stress axis : x y z
#
# Youngs Moduli (GPa) = 99.36948 72.27312 66.89080
#
# Poissons Ratio (x) = 0.32327 0.09054
# Poissons Ratio (y) = 0.44447 0.27503
# Poissons Ratio (z) = 0.13450 0.29716
#
# Static dielectric constant tensor:
#      x y z
#    x 1.934370 0.000000 0.051710 
#    y 0.000000 2.097570 0.000000 
#    z 0.051710 0.000000 1.735640 
# 
# From -- ./inp_files/84344.got.cif
#   From: 2010.05.17/outbox.cif.g08.bks.cpg/sg13_43_cif.got.tgz:84344.got - 2010.06.03 16:44:36.
