data_PCOD9233207
_publ_section_title
;
Structure prediction by ZEFSAII (Michael W. Deem and Ramdas Pophale) SiO2 
 PCOD9233207
Probable space group: P 2/C
;
_chemical_formula_sum "Si O2"
_cell_formula_units_Z 20
_cell_length_a 7.392497
_cell_length_b 7.447793
_cell_length_c 27.492592
_cell_angle_alpha 90.000000
_cell_angle_beta 142.953785
_cell_angle_gamma 90.000000
_cell_volume 911.930929
_symmetry_space_group_name_H-M "P 2/C"
_symmetry_group_IT_number 13
_symmetry_cell_setting 'monoclinic'
loop_
_space_group_symop_operation_xyz
x,y,z
-x,y,1/2-z
-x,-y,-z
x,-y,1/2+z
loop_
_atom_site_type_symbol
_atom_site_label
_atom_site_fract_x
_atom_site_fract_y
_atom_site_fract_z
Si Si1 0.970350 0.303226 0.930882
Si Si2 0.753244 0.774592 0.762328
Si Si3 0.395788 0.396232 0.098798
Si Si4 0.121779 0.565103 0.357871
Si Si5 0.360970 0.829049 0.273292
O O1 0.836597 0.497777 0.916999
O O2 0.674005 0.177196 0.869936
O O3 0.111678 0.333119 0.907556
O O4 0.220774 0.264406 0.024833
O O5 0.500000 0.770653 0.750000
O O6 0.625282 0.698814 0.684241
O O7 0.008211 0.641062 0.836149
O O8 0.813005 0.983535 0.765261
O O9 0.561991 0.543848 0.100696
O O10 0.875450 0.669291 0.272314
O O11 0.500000 0.794833 0.250000
#
# Coordination Sequence:
#
# PCOD9233207 Si02
#       5
#     4   4   4   4   4
#     4  10  21  40  60  85 119 156 191 241 294 347
#     4  11  20  38  62  86 118 156 196 245 289 346
#     4  11  22  36  62  88 116 156 192 238 302 341
#     4  11  20  41  61  86 116 154 199 243 287 344
#     4   9  20  37  64  84 116 159 197 239 292 343
#
# _framework density 21.931484999999999
#
# number of rings (size 3 to 8) (size 9 to 14) (size 15 to 20)
#    0.000    1.600    4.000    1.800    0.000    0.800 
#    7.200    0.000    0.000    4.800    0.000    0.000 
#    0.000    0.000    0.000    0.000    0.000    0.000 
#
# Total GULP energy -111535.365108 kJ/mol
# GULP energy per Si atom -5576.768255 kJ/mol
# Density = 2.188157 g / cm^3
# Si number density = 21.931485 Si / 1000 Ang^3
#
#
#
# Elastic Constant Matrix: (Units=GPa)
#
#
# Indices 1 2 3 4 5 6 
#
# 1 88.7582 5.8479 0.4359 0.0000 -7.7678 0.0000
# 2 5.8479 65.7689 -7.5491 0.0000 3.7602 0.0000
# 3 0.4359 -7.5491 50.1938 0.0000 -6.0737 0.0000
# 4 0.0000 0.0000 0.0000 11.3313 0.0000 -1.9157
# 5 -7.7678 3.7602 -6.0737 0.0000 23.3226 0.0000
# 6 0.0000 0.0000 0.0000 -1.9157 0.0000 10.1400
#
#
#
# Elastic Compliance Matrix: (Units=1/GPa)
#
#
# Indices 1 2 3 4 5 6 
#
# 1 0.011712 -0.001255 0.000213 0.000000 0.004159 0.000000
# 2 -0.001255 0.015693 0.002080 0.000000 -0.002406 0.000000
# 3 0.000213 0.002080 0.020859 0.000000 0.005168 0.000000
# 4 0.000000 0.000000 0.000000 0.091163 0.000000 0.017223
# 5 0.004159 -0.002406 0.005168 0.000000 0.045996 0.000000
# 6 0.000000 0.000000 0.000000 0.017223 0.000000 0.101873
#
#
# Mechanical properties :
#
#
# Convention : Reuss Voigt Hill
#
# Bulk Modulus (GPa) = 19.86505 22.46560 21.16533
# Shear Modulus (GPa) = 16.55631 22.69119 19.62375
#
# Velocity S-wave (km/s) = 2.75054 3.22007 2.99452
# Velocity P-wave (km/s) = 4.37776 4.90825 4.65057
#
# Compressibility (1/GPa) = 0.05033966
#
# Stress axis : x y z
#
# Youngs Moduli (GPa) = 85.38160 63.72419 47.94081
#
# Poissons Ratio (x) = 0.07996 -0.01020
# Poissons Ratio (y) = 0.10713 -0.09971
# Poissons Ratio (z) = -0.01817 -0.13254
#
# Static dielectric constant tensor:
#      x y z
#    x 1.821360 0.000000 0.002210 
#    y 0.000000 1.790770 0.000000 
#    z 0.002210 0.000000 1.913790 
# 
# From -- ./inp_files/95880.got.cif
#   From: 2010.05.17/outbox.cif.g08.bks.cpg/sg13_48_cif.got.tgz:95880.got - 2010.06.03 16:44:36.
