data_PCOD9233937
_publ_section_title
;
Structure prediction by ZEFSAII (Michael W. Deem and Ramdas Pophale) SiO2 
 PCOD9233937
Probable space group: P 2/C
;
_chemical_formula_sum "Si O2"
_cell_formula_units_Z 18
_cell_length_a 19.153010
_cell_length_b 4.649028
_cell_length_c 13.362495
_cell_angle_alpha 90.000000
_cell_angle_beta 30.278849
_cell_angle_gamma 90.000000
_cell_volume 599.925371
_symmetry_space_group_name_H-M "P 2/C"
_symmetry_group_IT_number 13
_symmetry_cell_setting 'monoclinic'
loop_
_space_group_symop_operation_xyz
x,y,z
-x,y,1/2-z
-x,-y,-z
x,-y,1/2+z
loop_
_atom_site_type_symbol
_atom_site_label
_atom_site_fract_x
_atom_site_fract_y
_atom_site_fract_z
Si Si1 0.500000 0.401770 0.750000
Si Si2 0.402386 0.214546 0.555918
Si Si3 0.773393 0.748401 0.673259
Si Si4 0.054271 0.506083 0.296417
Si Si5 0.765148 0.005069 0.960011
O O1 0.527554 0.618482 0.622968
O O2 0.626611 0.184659 0.618727
O O3 0.284531 0.978492 0.675963
O O4 0.500000 0.000000 0.500000
O O5 0.671351 0.525274 0.294013
O O6 0.773230 0.921885 0.569467
O O7 0.921362 0.619449 0.520190
O O8 0.100492 0.179046 0.237636
O O9 0.000000 0.554569 0.250000
O O10 0.196380 0.682780 0.132706
#
# Coordination Sequence:
#
# PCOD9233937 Si02
#       5
#     2   4   4   4   4
#     4  12  34  54  78 126 180 222 286 358 438 500
#     4  12  30  53  81 121 173 230 289 351 421 518
#     4  11  25  50  84 121 159 221 295 349 422 511
#     4  10  21  44  79 121 156 214 285 342 421 501
#     4  11  25  47  80 120 168 216 273 355 421 509
#
# _framework density 30.003730000000001
#
# number of rings (size 3 to 8) (size 9 to 14) (size 15 to 20)
#    0.000    0.889    0.000    6.667   12.444    3.556 
#    0.000    7.778    0.000    0.000    0.000    0.000 
#    0.000    0.000    0.000    0.000    0.000    0.000 
#
# Total GULP energy -101034.351927 kJ/mol
# GULP energy per Si atom -5613.019551 kJ/mol
# Density = 2.993544 g / cm^3
# Si number density = 30.003730 Si / 1000 Ang^3
#
#
#
# Elastic Constant Matrix: (Units=GPa)
#
#
# Indices 1 2 3 4 5 6 
#
# 1 147.9980 64.2833 64.6372 0.0000 -25.4563 0.0000
# 2 64.2833 227.1152 80.7273 0.0000 -6.9548 0.0000
# 3 64.6372 80.7273 155.9096 0.0000 -4.2332 0.0000
# 4 0.0000 0.0000 0.0000 92.2960 0.0000 -11.5590
# 5 -25.4563 -6.9548 -4.2332 0.0000 51.7581 0.0000
# 6 0.0000 0.0000 0.0000 -11.5590 0.0000 75.9825
#
#
#
# Elastic Compliance Matrix: (Units=1/GPa)
#
#
# Indices 1 2 3 4 5 6 
#
# 1 0.009444 -0.001462 -0.003044 0.000000 0.004199 0.000000
# 2 -0.001462 0.005635 -0.002316 0.000000 -0.000151 0.000000
# 3 -0.003044 -0.002316 0.008846 0.000000 -0.001085 0.000000
# 4 0.000000 0.000000 0.000000 0.011045 0.000000 0.001680
# 5 0.004199 -0.000151 -0.001085 0.000000 0.021277 0.000000
# 6 0.000000 0.000000 0.000000 0.001680 0.000000 0.013417
#
#
# Mechanical properties :
#
#
# Convention : Reuss Voigt Hill
#
# Bulk Modulus (GPa) = 97.27184 105.59094 101.43139
# Shear Modulus (GPa) = 57.64713 65.43233 61.53973
#
# Velocity S-wave (km/s) = 4.38806 4.67498 4.53379
# Velocity P-wave (km/s) = 7.62651 8.02556 7.82858
#
# Compressibility (1/GPa) = 0.01028047
#
# Stress axis : x y z
#
# Youngs Moduli (GPa) = 105.88966 177.44720 113.05104
#
# Poissons Ratio (x) = 0.25950 0.34413
# Poissons Ratio (y) = 0.15486 0.26180
# Poissons Ratio (z) = 0.32233 0.41093
#
# Static dielectric constant tensor:
#      x y z
#    x 2.472660 0.000000 0.007440 
#    y 0.000000 2.139610 0.000000 
#    z 0.007440 0.000000 2.502650 
# 
# From -- ./inp_files/56163.got.cif
#   From: 2010.05.17/outbox.cif.g08.bks.cpg/sg13_29_cif.got.tgz:56163.got - 2010.06.03 16:44:36.
