data_PCOD9233031
_publ_section_title
;
Structure prediction by ZEFSAII (Michael W. Deem and Ramdas Pophale) SiO2 
 PCOD9233031
Probable space group: P 2/C
;
_chemical_formula_sum "Si O2"
_cell_formula_units_Z 20
_cell_length_a 13.255521
_cell_length_b 5.223172
_cell_length_c 21.696834
_cell_angle_alpha 90.000000
_cell_angle_beta 136.759942
_cell_angle_gamma 90.000000
_cell_volume 1029.091393
_symmetry_space_group_name_H-M "P 2/C"
_symmetry_group_IT_number 13
_symmetry_cell_setting 'monoclinic'
loop_
_space_group_symop_operation_xyz
x,y,z
-x,y,1/2-z
-x,-y,-z
x,-y,1/2+z
loop_
_atom_site_type_symbol
_atom_site_label
_atom_site_fract_x
_atom_site_fract_y
_atom_site_fract_z
Si Si1 0.039003 0.339093 0.835806
Si Si2 0.724158 0.490543 0.738454
Si Si3 0.335514 0.131163 0.000333
Si Si4 0.439254 0.025255 0.291406
Si Si5 0.691582 0.626376 0.582221
O O1 0.136689 0.587310 0.861533
O O2 0.000000 0.226241 0.750000
O O3 0.895468 0.410447 0.810279
O O4 0.158146 0.168654 0.925695
O O5 0.674347 0.735098 0.756312
O O6 0.689655 0.580410 0.653544
O O7 0.635348 0.236736 0.718097
O O8 0.425593 0.091107 0.102437
O O9 0.382521 0.391542 0.987068
O O10 0.359871 0.894899 0.965784
O O11 0.500000 0.990956 0.250000
#
# Coordination Sequence:
#
# PCOD9233031 Si02
#       5
#     4   4   4   4   4
#     4   8  20  38  61  97 125 148 188 255 321 374
#     4  11  23  40  67  90 125 160 205 252 313 362
#     4  10  21  39  63  89 134 152 195 253 314 363
#     4  12  27  43  58  86 128 173 214 249 284 352
#     4   9  20  36  65  94 122 145 195 255 324 362
#
# _framework density 19.434618
#
# number of rings (size 3 to 8) (size 9 to 14) (size 15 to 20)
#    1.200    0.800    0.000    3.000    2.800    5.600 
#    0.000    2.000    0.000    0.000    0.000    0.000 
#    0.000    0.000    0.000    0.000    0.000    0.000 
#
# Total GULP energy -111518.440787 kJ/mol
# GULP energy per Si atom -5575.922039 kJ/mol
# Density = 1.939038 g / cm^3
# Si number density = 19.434618 Si / 1000 Ang^3
#
#
#
# Elastic Constant Matrix: (Units=GPa)
#
#
# Indices 1 2 3 4 5 6 
#
# 1 128.8984 48.6574 63.2250 0.0000 8.2397 0.0000
# 2 48.6574 116.3028 43.5696 0.0000 7.9320 0.0000
# 3 63.2250 43.5696 87.2516 0.0000 15.9693 0.0000
# 4 0.0000 0.0000 0.0000 15.4444 0.0000 6.1702
# 5 8.2397 7.9320 15.9693 0.0000 20.2609 0.0000
# 6 0.0000 0.0000 0.0000 6.1702 0.0000 21.1985
#
#
#
# Elastic Compliance Matrix: (Units=1/GPa)
#
#
# Indices 1 2 3 4 5 6 
#
# 1 0.012601 -0.002276 -0.008437 0.000000 0.002416 0.000000
# 2 -0.002276 0.010988 -0.003762 0.000000 -0.000411 0.000000
# 3 -0.008437 -0.003762 0.021684 0.000000 -0.012187 0.000000
# 4 0.000000 0.000000 0.000000 0.073268 0.000000 -0.021326
# 5 0.002416 -0.000411 -0.012187 0.000000 0.058140 0.000000
# 6 0.000000 0.000000 0.000000 -0.021326 0.000000 0.053380
#
#
# Mechanical properties :
#
#
# Convention : Reuss Voigt Hill
#
# Bulk Modulus (GPa) = 61.26539 71.48411 66.37475
# Shear Modulus (GPa) = 18.90695 23.18081 21.04388
#
# Velocity S-wave (km/s) = 3.12244 3.45738 3.29417
# Velocity P-wave (km/s) = 6.67771 7.26634 6.97823
#
# Compressibility (1/GPa) = 0.01632243
#
# Stress axis : x y z
#
# Youngs Moduli (GPa) = 79.35862 91.00848 46.11708
#
# Poissons Ratio (x) = 0.20714 0.38908
# Poissons Ratio (y) = 0.18063 0.17351
# Poissons Ratio (z) = 0.66953 0.34242
#
# Static dielectric constant tensor:
#      x y z
#    x 1.703590 0.000000 0.092360 
#    y 0.000000 1.681600 0.000000 
#    z 0.092360 0.000000 1.746410 
# 
# From -- ./inp_files/85654.got.cif
#   From: 2010.05.17/outbox.cif.g08.bks.cpg/sg13_43_cif.got.tgz:85654.got - 2010.06.03 16:44:36.
