data_PCOD9233602
_publ_section_title
;
Structure prediction by ZEFSAII (Michael W. Deem and Ramdas Pophale) SiO2 
 PCOD9233602
Probable space group: P 2/C
;
_chemical_formula_sum "Si O2"
_cell_formula_units_Z 28
_cell_length_a 8.281784
_cell_length_b 6.482099
_cell_length_c 27.606568
_cell_angle_alpha 90.000000
_cell_angle_beta 113.481071
_cell_angle_gamma 90.000000
_cell_volume 1359.290003
_symmetry_space_group_name_H-M "P 2/C"
_symmetry_group_IT_number 13
_symmetry_cell_setting 'monoclinic'
loop_
_space_group_symop_operation_xyz
x,y,z
-x,y,1/2-z
-x,-y,-z
x,-y,1/2+z
loop_
_atom_site_type_symbol
_atom_site_label
_atom_site_fract_x
_atom_site_fract_y
_atom_site_fract_z
Si Si1 0.000000 0.752331 0.750000
Si Si2 0.238856 0.365595 0.109406
Si Si3 0.921626 0.045524 0.059546
Si Si4 0.469587 0.003286 0.142032
Si Si5 0.500000 0.143265 0.750000
Si Si6 0.143522 0.088612 0.841374
Si Si7 0.168269 0.422109 0.704731
Si Si8 0.812447 0.244333 0.954864
O O1 0.067881 0.901106 0.800346
O O2 0.138261 0.603650 0.739673
O O3 0.422067 0.241686 0.125314
O O4 0.218487 0.490367 0.157448
O O5 0.204310 0.518202 0.060625
O O6 0.085193 0.195385 0.091142
O O7 0.847602 0.970650 0.101298
O O8 0.796810 0.172276 0.008361
O O9 0.000472 0.848357 0.040539
O O10 0.656682 0.903499 0.152408
O O11 0.446301 0.986109 0.196853
O O12 0.330931 0.868527 0.095569
O O13 0.330163 0.281813 0.740759
O O14 0.010090 0.282276 0.819369
#
# Coordination Sequence:
#
# PCOD9233602 Si02
#       8
#     2   4   4   4   2   4   4   4
#     4  12  26  40  64  94 132 172 212 276 334 396
#     4  11  21  42  66  97 121 168 224 268 314 396
#     4  10  21  41  70  96 128 172 214 272 331 388
#     4  11  26  39  63  94 133 169 219 269 332 385
#     4  12  24  44  66  92 132 174 218 276 322 408
#     4  12  25  44  62  96 137 171 211 274 336 397
#     4  12  25  43  68  96 129 174 224 266 334 396
#     4  10  21  43  68  95 128 169 222 269 323 394
#
# _framework density 20.598990000000001
#
# number of rings (size 3 to 8) (size 9 to 14) (size 15 to 20)
#    0.000    0.857    4.286    3.429    4.000    1.714 
#    0.000    0.714    0.000    0.000    0.000    0.000 
#    0.000    0.000    0.000    0.000    0.000    0.000 
#
# Total GULP energy -156406.168540 kJ/mol
# GULP energy per Si atom -5585.934591 kJ/mol
# Density = 2.055211 g / cm^3
# Si number density = 20.598990 Si / 1000 Ang^3
#
#
#
# Elastic Constant Matrix: (Units=GPa)
#
#
# Indices 1 2 3 4 5 6 
#
# 1 59.6788 12.0478 6.8976 0.0000 4.6200 0.0000
# 2 12.0478 61.9818 5.8912 0.0000 1.8271 0.0000
# 3 6.8976 5.8912 94.9703 0.0000 -14.5109 0.0000
# 4 0.0000 0.0000 0.0000 647.4793 0.0000 318.8641
# 5 4.6200 1.8271 -14.5109 0.0000 27.5286 0.0000
# 6 0.0000 0.0000 0.0000 318.8641 0.0000 198.2692
#
#
#
# Elastic Compliance Matrix: (Units=1/GPa)
#
#
# Indices 1 2 3 4 5 6 
#
# 1 0.017880 -0.003210 -0.001659 0.000000 -0.003662 0.000000
# 2 -0.003210 0.016883 -0.000982 0.000000 -0.001100 0.000000
# 3 -0.001659 -0.000982 0.011706 0.000000 0.006514 0.000000
# 4 0.000000 0.000000 0.000000 0.007426 0.000000 -0.011942
# 5 -0.003662 -0.001100 0.006514 0.000000 0.040447 0.000000
# 6 0.000000 0.000000 0.000000 -0.011942 0.000000 0.024249
#
#
# Mechanical properties :
#
#
# Convention : Reuss Voigt Hill
#
# Bulk Modulus (GPa) = 28.76254 29.58936 29.17595
# Shear Modulus (GPa) = 35.24039 187.44171 111.34105
#
# Velocity S-wave (km/s) = 4.14065 9.54951 7.35996
# Velocity P-wave (km/s) = 6.07070 11.66132 9.29623
#
# Compressibility (1/GPa) = 0.03476745
#
# Stress axis : x y z
#
# Youngs Moduli (GPa) = 55.92969 59.22968 85.42352
#
# Poissons Ratio (x) = 0.19011 0.14172
# Poissons Ratio (y) = 0.17952 0.08390
# Poissons Ratio (z) = 0.09279 0.05818
#
# Static dielectric constant tensor:
#      x y z
#    x 1.750160 0.000000 0.004100 
#    y 0.000000 1.760690 0.000000 
#    z 0.004100 0.000000 1.742270 
# 
# From -- ./inp_files/95443.got.cif
#   From: 2010.05.17/outbox.cif.g08.bks.cpg/sg13_48_cif.got.tgz:95443.got - 2010.06.03 16:44:36.
