data_PCOD9233608
_publ_section_title
;
Structure prediction by ZEFSAII (Michael W. Deem and Ramdas Pophale) SiO2 
 PCOD9233608
Probable space group: P 2/C
;
_chemical_formula_sum "Si O2"
_cell_formula_units_Z 32
_cell_length_a 13.883150
_cell_length_b 5.851585
_cell_length_c 19.667515
_cell_angle_alpha 90.000000
_cell_angle_beta 51.017643
_cell_angle_gamma 90.000000
_cell_volume 1242.000807
_symmetry_space_group_name_H-M "P 2/C"
_symmetry_group_IT_number 13
_symmetry_cell_setting 'monoclinic'
loop_
_space_group_symop_operation_xyz
x,y,z
-x,y,1/2-z
-x,-y,-z
x,-y,1/2+z
loop_
_atom_site_type_symbol
_atom_site_label
_atom_site_fract_x
_atom_site_fract_y
_atom_site_fract_z
Si Si1 0.890282 0.532370 0.602849
Si Si2 0.899924 0.495041 0.896102
Si Si3 0.317334 0.813969 0.760916
Si Si4 0.543008 0.271926 0.975429
Si Si5 0.732928 0.282472 0.370881
Si Si6 0.254087 0.892880 0.024001
Si Si7 0.273421 0.255389 0.912847
Si Si8 0.560609 0.310048 0.805732
O O1 0.803680 0.755289 0.639701
O O2 0.799560 0.322554 0.623209
O O3 0.000000 0.500000 0.500000
O O4 0.960775 0.541971 0.643553
O O5 0.807560 0.615758 0.992321
O O6 0.876620 0.230097 0.919662
O O7 0.843009 0.550945 0.847416
O O8 0.270512 0.806561 0.703580
O O9 0.391096 0.570017 0.731364
O O10 0.387729 0.055372 0.742092
O O11 0.594319 0.613571 0.948581
O O12 0.577209 0.279927 0.879932
O O13 0.500000 0.000000 0.000000
O O14 0.636445 0.269112 0.998914
O O15 0.752666 0.074621 0.412990
O O16 0.280707 0.003571 0.940421
O O17 0.415816 0.328383 0.850720
#
# Coordination Sequence:
#
# PCOD9233608 Si02
#       8
#     4   4   4   4   4   4   4   4
#     4  10  26  56  73  96 144 211 284 328 378 459
#     4  10  21  41  71 102 147 206 260 306 380 474
#     4  12  27  47  74 115 154 193 256 329 404 466
#     4  12  18  33  65 115 166 196 229 302 401 502
#     4  11  21  34  67 110 154 189 235 304 397 473
#     4  11  19  34  65 113 142 196 244 304 385 481
#     4  10  23  41  71 106 144 201 260 319 385 467
#     4  12  24  43  76 117 158 196 243 319 410 481
#
# _framework density 25.764880000000002
#
# number of rings (size 3 to 8) (size 9 to 14) (size 15 to 20)
#    0.000    1.000    6.250    1.125    1.750    1.500 
#   11.250    1.250    0.000    0.000    0.000    0.000 
#    0.000    0.000    0.000    0.000    0.000    0.000 
#
# Total GULP energy -178464.023087 kJ/mol
# GULP energy per Si atom -5577.000721 kJ/mol
# Density = 2.570624 g / cm^3
# Si number density = 25.764880 Si / 1000 Ang^3
#
#
#
# Elastic Constant Matrix: (Units=GPa)
#
#
# Indices 1 2 3 4 5 6 
#
# 1 191.8737 73.8141 38.2145 0.0000 -0.4197 0.0000
# 2 73.8141 122.6275 44.3773 0.0000 -5.6499 0.0000
# 3 38.2145 44.3773 83.4759 0.0000 1.8537 0.0000
# 4 0.0000 0.0000 0.0000 40.9829 0.0000 5.9494
# 5 -0.4197 -5.6499 1.8537 0.0000 33.2121 0.0000
# 6 0.0000 0.0000 0.0000 5.9494 0.0000 51.3399
#
#
#
# Elastic Compliance Matrix: (Units=1/GPa)
#
#
# Indices 1 2 3 4 5 6 
#
# 1 0.006882 -0.003750 -0.001146 0.000000 -0.000487 0.000000
# 2 -0.003750 0.012278 -0.004862 0.000000 0.002313 0.000000
# 3 -0.001146 -0.004862 0.015126 0.000000 -0.001686 0.000000
# 4 0.000000 0.000000 0.000000 0.024818 0.000000 -0.002876
# 5 -0.000487 0.002313 -0.001686 0.000000 0.030591 0.000000
# 6 0.000000 0.000000 0.000000 -0.002876 0.000000 0.019811
#
#
# Mechanical properties :
#
#
# Convention : Reuss Voigt Hill
#
# Bulk Modulus (GPa) = 67.70396 78.97656 73.34026
# Shear Modulus (GPa) = 37.32876 41.21172 39.27024
#
# Velocity S-wave (km/s) = 3.81047 4.00375 3.90831
# Velocity P-wave (km/s) = 6.75975 7.21753 6.99239
#
# Compressibility (1/GPa) = 0.01477019
#
# Stress axis : x y z
#
# Youngs Moduli (GPa) = 145.31582 81.44607 66.11049
#
# Poissons Ratio (x) = 0.30542 0.07576
# Poissons Ratio (y) = 0.54494 0.32142
# Poissons Ratio (z) = 0.16652 0.39598
#
# Static dielectric constant tensor:
#      x y z
#    x 2.073830 0.000000 -0.025920 
#    y 0.000000 2.482140 0.000000 
#    z -0.025920 0.000000 2.152070 
# 
# From -- ./inp_files/80673.got.cif
#   From: 2010.05.17/outbox.cif.g08.bks.cpg/sg13_41_cif.got.tgz:80673.got - 2010.06.03 16:44:36.
