data_PCOD9233389
_publ_section_title
;
Structure prediction by ZEFSAII (Michael W. Deem and Ramdas Pophale) SiO2 
 PCOD9233389
Probable space group: P 2/C
;
_chemical_formula_sum "Si O2"
_cell_formula_units_Z 24
_cell_length_a 11.910890
_cell_length_b 15.987530
_cell_length_c 17.709201
_cell_angle_alpha 90.000000
_cell_angle_beta 20.627578
_cell_angle_gamma 90.000000
_cell_volume 1188.030334
_symmetry_space_group_name_H-M "P 2/C"
_symmetry_group_IT_number 13
_symmetry_cell_setting 'monoclinic'
loop_
_space_group_symop_operation_xyz
x,y,z
-x,y,1/2-z
-x,-y,-z
x,-y,1/2+z
loop_
_atom_site_type_symbol
_atom_site_label
_atom_site_fract_x
_atom_site_fract_y
_atom_site_fract_z
Si Si1 0.500000 0.664317 0.250000
Si Si2 0.006688 0.953359 0.657197
Si Si3 0.500000 0.732150 0.750000
Si Si4 0.719953 0.950112 0.218535
Si Si5 0.004304 0.806215 0.541360
Si Si6 0.696853 0.473230 0.742030
Si Si7 0.869590 0.606043 0.411642
O O1 0.190290 0.723495 0.449384
O O2 0.462268 0.604689 0.201367
O O3 0.373255 0.978803 0.412245
O O4 0.942065 0.869313 0.649813
O O5 0.000000 0.937944 0.750000
O O6 0.783395 0.026753 0.765492
O O7 0.750746 0.674641 0.546625
O O8 0.689054 0.784964 0.693227
O O9 0.765983 0.855582 0.162296
O O10 0.000000 0.000000 0.000000
O O11 0.000000 0.500000 0.500000
O O12 0.848783 0.446143 0.725504
O O13 0.435851 0.546211 0.909815
O O14 0.000000 0.639558 0.250000
#
# Coordination Sequence:
#
# PCOD9233389 Si02
#       7
#     2   4   2   4   4   4   4
#     4  12  19  40  69  88 126 176 210 262 337 386
#     4  11  23  42  65  99 131 163 218 274 316 379
#     4  12  25  44  67  90 138 174 212 276 329 394
#     4  10  21  40  68  90 121 171 219 251 311 394
#     4  11  23  41  65  90 129 175 212 257 335 391
#     4  12  21  42  72  92 129 174 219 275 326 384
#     4  12  25  44  67  99 127 171 229 271 324 394
#
# _framework density 20.201505000000001
#
# number of rings (size 3 to 8) (size 9 to 14) (size 15 to 20)
#    0.000    0.667    6.667    2.500    4.667    0.000 
#    6.000    0.000    0.000    0.000    0.000    0.000 
#    0.000    0.000    0.000    0.000    0.000    0.000 
#
# Total GULP energy -134071.396165 kJ/mol
# GULP energy per Si atom -5586.308174 kJ/mol
# Density = 2.015553 g / cm^3
# Si number density = 20.201505 Si / 1000 Ang^3
#
#
#
# Elastic Constant Matrix: (Units=GPa)
#
#
# Indices 1 2 3 4 5 6 
#
# 1 147.7646 31.8832 40.8199 0.0000 -2.3360 0.0000
# 2 31.8832 53.5453 16.5141 0.0000 3.8204 0.0000
# 3 40.8199 16.5141 63.2081 0.0000 -6.9347 0.0000
# 4 0.0000 0.0000 0.0000 15.8667 0.0000 -16.8325
# 5 -2.3360 3.8204 -6.9347 0.0000 48.2927 0.0000
# 6 0.0000 0.0000 0.0000 -16.8325 0.0000 44.9231
#
#
#
# Elastic Compliance Matrix: (Units=1/GPa)
#
#
# Indices 1 2 3 4 5 6 
#
# 1 0.008908 -0.003846 -0.004742 0.000000 0.000054 0.000000
# 2 -0.003846 0.022252 -0.003600 0.000000 -0.002463 0.000000
# 3 -0.004742 -0.003600 0.020147 0.000000 0.002949 0.000000
# 4 0.000000 0.000000 0.000000 0.104607 0.000000 0.039196
# 5 0.000054 -0.002463 0.002949 0.000000 0.021328 0.000000
# 6 0.000000 0.000000 0.000000 0.039196 0.000000 0.036947
#
#
# Mechanical properties :
#
#
# Convention : Reuss Voigt Hill
#
# Bulk Modulus (GPa) = 37.13200 49.21693 43.17446
# Shear Modulus (GPa) = 20.19856 33.50320 26.85088
#
# Velocity S-wave (km/s) = 3.16548 4.07683 3.64971
# Velocity P-wave (km/s) = 5.63747 6.82470 6.25930
#
# Compressibility (1/GPa) = 0.02693095
#
# Stress axis : x y z
#
# Youngs Moduli (GPa) = 112.25623 44.94024 49.63410
#
# Poissons Ratio (x) = 0.17282 0.23538
# Poissons Ratio (y) = 0.43169 0.17870
# Poissons Ratio (z) = 0.53235 0.16180
#
# Static dielectric constant tensor:
#      x y z
#    x 1.782480 0.000000 0.004250 
#    y 0.000000 1.725790 0.000000 
#    z 0.004250 0.000000 1.766150 
# 
# From -- ./inp_files/12449.got.cif
#   From: 2010.05.17/outbox.cif.g08.bks.cpg/sg13_7_cif.got.tgz:12449.got - 2010.06.03 16:44:36.
