data_PCOD9233686
_publ_section_title
;
Structure prediction by ZEFSAII (Michael W. Deem and Ramdas Pophale) SiO2 
 PCOD9233686
Probable space group: P 2/C
;
_chemical_formula_sum "Si O2"
_cell_formula_units_Z 28
_cell_length_a 6.803965
_cell_length_b 10.806122
_cell_length_c 18.516078
_cell_angle_alpha 90.000000
_cell_angle_beta 74.410796
_cell_angle_gamma 90.000000
_cell_volume 1311.303964
_symmetry_space_group_name_H-M "P 2/C"
_symmetry_group_IT_number 13
_symmetry_cell_setting 'monoclinic'
loop_
_space_group_symop_operation_xyz
x,y,z
-x,y,1/2-z
-x,-y,-z
x,-y,1/2+z
loop_
_atom_site_type_symbol
_atom_site_label
_atom_site_fract_x
_atom_site_fract_y
_atom_site_fract_z
Si Si1 0.500000 0.244129 0.250000
Si Si2 0.997481 0.260072 0.396108
Si Si3 0.332462 0.595889 0.953725
Si Si4 0.000000 0.641844 0.250000
Si Si5 0.357050 0.689322 0.472031
Si Si6 0.733591 0.584000 0.813245
Si Si7 0.803394 0.945057 0.720160
Si Si8 0.305257 0.217831 0.815623
O O1 0.323141 0.348299 0.255879
O O2 0.368746 0.136496 0.220309
O O3 0.797598 0.231367 0.463881
O O4 0.901305 0.339769 0.340762
O O5 0.149560 0.336965 0.431914
O O6 0.122636 0.145285 0.351543
O O7 0.281540 0.454744 0.979525
O O8 0.525401 0.588652 0.879913
O O9 0.421295 0.673559 0.012666
O O10 0.821512 0.551471 0.294960
O O11 0.899381 0.720422 0.196125
O O12 0.348622 0.742568 0.392930
O O13 0.000000 0.968617 0.750000
O O14 0.721074 0.071955 0.695899
O O15 0.500000 0.260168 0.750000
#
# Coordination Sequence:
#
# PCOD9233686 Si02
#       8
#     2   4   4   2   4   4   4   4
#     4  12  22  40  68 100 136 170 230 282 334 398
#     4  11  22  41  69  97 133 175 227 284 336 400
#     4  10  21  42  66  95 140 175 217 285 341 408
#     4  12  26  40  66 106 140 178 226 278 352 412
#     4  10  24  41  64  99 135 175 225 275 352 405
#     4  11  23  36  67 104 131 172 221 285 341 404
#     4  12  24  45  68  97 133 183 232 281 334 397
#     4  12  27  46  67  95 140 186 226 277 339 414
#
# _framework density 21.352789999999999
#
# number of rings (size 3 to 8) (size 9 to 14) (size 15 to 20)
#    0.000    0.857    4.286    3.000    3.000    4.000 
#    0.000    0.714    0.000    0.000    0.000    0.000 
#    0.000    0.000    0.000    0.000    0.000    0.000 
#
# Total GULP energy -156104.650953 kJ/mol
# GULP energy per Si atom -5575.166105 kJ/mol
# Density = 2.130419 g / cm^3
# Si number density = 21.352790 Si / 1000 Ang^3
#
#
#
# Elastic Constant Matrix: (Units=GPa)
#
#
# Indices 1 2 3 4 5 6 
#
# 1 143.3860 48.4638 35.8983 0.0000 26.1596 0.0000
# 2 48.4638 89.3560 17.0299 0.0000 11.7062 0.0000
# 3 35.8983 17.0299 77.4003 0.0000 13.2384 0.0000
# 4 0.0000 0.0000 0.0000 21.8937 0.0000 -3.2753
# 5 26.1596 11.7062 13.2384 0.0000 40.2889 0.0000
# 6 0.0000 0.0000 0.0000 -3.2753 0.0000 33.4876
#
#
#
# Elastic Compliance Matrix: (Units=1/GPa)
#
#
# Indices 1 2 3 4 5 6 
#
# 1 0.009926 -0.004268 -0.002940 0.000000 -0.004239 0.000000
# 2 -0.004268 0.013800 -0.000895 0.000000 -0.000944 0.000000
# 3 -0.002940 -0.000895 0.014949 0.000000 -0.002743 0.000000
# 4 0.000000 0.000000 0.000000 0.046354 0.000000 0.004534
# 5 -0.004239 -0.000944 -0.002743 0.000000 0.028749 0.000000
# 6 0.000000 0.000000 0.000000 0.004534 0.000000 0.030305
#
#
# Mechanical properties :
#
#
# Convention : Reuss Voigt Hill
#
# Bulk Modulus (GPa) = 44.50400 56.99181 50.74791
# Shear Modulus (GPa) = 29.80099 33.05071 31.42585
#
# Velocity S-wave (km/s) = 3.73989 3.93853 3.84049
# Velocity P-wave (km/s) = 6.28781 6.88703 6.59423
#
# Compressibility (1/GPa) = 0.02246989
#
# Stress axis : x y z
#
# Youngs Moduli (GPa) = 100.74462 72.46177 66.89199
#
# Poissons Ratio (x) = 0.30927 0.19664
# Poissons Ratio (y) = 0.42998 0.05989
# Poissons Ratio (z) = 0.29615 0.06488
#
# Static dielectric constant tensor:
#      x y z
#    x 1.781290 0.000000 -0.058350 
#    y 0.000000 1.755290 0.000000 
#    z -0.058350 0.000000 1.899550 
# 
# From -- ./inp_files/73617.got.cif
#   From: 2010.05.17/outbox.cif.g08.bks.cpg/sg13_37_cif.got.tgz:73617.got - 2010.06.03 16:44:36.
