data_PCOD9233506
_publ_section_title
;
Structure prediction by ZEFSAII (Michael W. Deem and Ramdas Pophale) SiO2 
 PCOD9233506
Probable space group: P 2/C
;
_chemical_formula_sum "Si O2"
_cell_formula_units_Z 20
_cell_length_a 10.792736
_cell_length_b 10.700678
_cell_length_c 14.261073
_cell_angle_alpha 90.000000
_cell_angle_beta 37.605601
_cell_angle_gamma 90.000000
_cell_volume 1005.040005
_symmetry_space_group_name_H-M "P 2/C"
_symmetry_group_IT_number 13
_symmetry_cell_setting 'monoclinic'
loop_
_space_group_symop_operation_xyz
x,y,z
-x,y,1/2-z
-x,-y,-z
x,-y,1/2+z
loop_
_atom_site_type_symbol
_atom_site_label
_atom_site_fract_x
_atom_site_fract_y
_atom_site_fract_z
Si Si1 0.340468 0.676608 0.120858
Si Si2 0.731279 0.303586 0.622359
Si Si3 0.285269 0.956302 0.092695
Si Si4 0.227277 0.422985 0.086450
Si Si5 0.943167 0.942533 0.934454
O O1 0.245961 0.667681 0.282041
O O2 0.274157 0.808068 0.117004
O O3 0.267064 0.559921 0.103923
O O4 0.586287 0.662627 0.986424
O O5 0.500000 0.254680 0.750000
O O6 0.751175 0.418649 0.539029
O O7 0.881852 0.199082 0.492596
O O8 0.240912 0.992152 0.011912
O O9 0.127705 0.029945 0.253607
O O10 0.500000 0.000000 0.000000
O O11 0.000000 0.382414 0.250000
O O12 0.000000 0.000000 0.000000
#
# Coordination Sequence:
#
# PCOD9233506 Si02
#       5
#     4   4   4   4   4
#     4  10  22  43  63  90 128 174 215 275 333 388
#     4  10  21  41  65  90 134 171 213 274 333 394
#     4  11  24  41  68  96 135 169 218 276 330 404
#     4  10  23  38  67  89 124 172 225 269 328 395
#     4  11  24  39  67 101 125 176 218 262 344 398
#
# _framework density 19.899705999999998
#
# number of rings (size 3 to 8) (size 9 to 14) (size 15 to 20)
#    0.000    1.600    2.000    2.400    8.400    0.800 
#    0.000    0.000   13.200    0.000    0.000    0.000 
#    0.000    0.000    0.000    0.000    0.000    0.000 
#
# Total GULP energy -111633.878787 kJ/mol
# GULP energy per Si atom -5581.693939 kJ/mol
# Density = 1.985441 g / cm^3
# Si number density = 19.899706 Si / 1000 Ang^3
#
#
#
# Elastic Constant Matrix: (Units=GPa)
#
#
# Indices 1 2 3 4 5 6 
#
# 1 150.3258 57.2301 46.6136 0.0000 26.9472 0.0000
# 2 57.2301 114.4831 50.9377 0.0000 26.1255 0.0000
# 3 46.6136 50.9377 97.4562 0.0000 -3.9384 0.0000
# 4 0.0000 0.0000 0.0000 29.0075 0.0000 14.5396
# 5 26.9472 26.1255 -3.9384 0.0000 40.5869 0.0000
# 6 0.0000 0.0000 0.0000 14.5396 0.0000 10.5319
#
#
#
# Elastic Compliance Matrix: (Units=1/GPa)
#
#
# Indices 1 2 3 4 5 6 
#
# 1 0.009517 -0.001781 -0.003845 0.000000 -0.005545 0.000000
# 2 -0.001781 0.014994 -0.007356 0.000000 -0.009183 0.000000
# 3 -0.003845 -0.007356 0.016303 0.000000 0.008870 0.000000
# 4 0.000000 0.000000 0.000000 0.111918 0.000000 -0.154506
# 5 -0.005545 -0.009183 0.008870 0.000000 0.035091 0.000000
# 6 0.000000 0.000000 0.000000 -0.154506 0.000000 0.308250
#
#
# Mechanical properties :
#
#
# Convention : Reuss Voigt Hill
#
# Bulk Modulus (GPa) = 67.34256 74.64753 70.99505
# Shear Modulus (GPa) = 9.48789 29.85750 19.67270
#
# Velocity S-wave (km/s) = 2.18591 3.87770 3.14760
# Velocity P-wave (km/s) = 6.34708 7.59224 6.99741
#
# Compressibility (1/GPa) = 0.01484945
#
# Stress axis : x y z
#
# Youngs Moduli (GPa) = 105.08000 66.69432 61.33745
#
# Poissons Ratio (x) = 0.11880 0.23584
# Poissons Ratio (y) = 0.18717 0.45120
# Poissons Ratio (z) = 0.40402 0.49060
#
# Static dielectric constant tensor:
#      x y z
#    x 1.728100 0.000000 -0.032210 
#    y 0.000000 1.708170 0.000000 
#    z -0.032210 0.000000 1.714170 
# 
# From -- ./inp_files/51060.got.cif
#   From: 2010.05.17/outbox.cif.g08.bks.cpg/sg13_26_cif.got.tgz:51060.got - 2010.06.03 16:44:36.
