data_PCOD9233952
_publ_section_title
;
Structure prediction by ZEFSAII (Michael W. Deem and Ramdas Pophale) SiO2 
 PCOD9233952
Probable space group: P 2/C
;
_chemical_formula_sum "Si O2"
_cell_formula_units_Z 24
_cell_length_a 14.483790
_cell_length_b 13.177498
_cell_length_c 10.514548
_cell_angle_alpha 90.000000
_cell_angle_beta 148.542319
_cell_angle_gamma 90.000000
_cell_volume 1047.290106
_symmetry_space_group_name_H-M "P 2/C"
_symmetry_group_IT_number 13
_symmetry_cell_setting 'monoclinic'
loop_
_space_group_symop_operation_xyz
x,y,z
-x,y,1/2-z
-x,-y,-z
x,-y,1/2+z
loop_
_atom_site_type_symbol
_atom_site_label
_atom_site_fract_x
_atom_site_fract_y
_atom_site_fract_z
Si Si1 0.815118 0.939125 0.274902
Si Si2 0.000000 0.243699 0.250000
Si Si3 0.500000 0.607243 0.250000
Si Si4 0.451889 0.379681 0.423576
Si Si5 0.312929 0.088581 0.585126
Si Si6 0.182475 0.705257 0.217425
Si Si7 0.821658 0.453596 0.582717
O O1 0.712888 0.938184 0.293315
O O2 0.845595 0.821268 0.277821
O O3 0.000000 0.000000 0.500000
O O4 0.718123 0.992302 0.043215
O O5 0.155814 0.170513 0.379608
O O6 0.094602 0.301781 0.475790
O O7 0.540131 0.665259 0.426256
O O8 0.671654 0.534524 0.440437
O O9 0.500000 0.500000 0.500000
O O10 0.608998 0.321992 0.538159
O O11 0.273380 0.383033 0.134759
O O12 0.500000 0.127318 0.750000
O O13 0.114593 0.618627 0.229489
O O14 0.000000 0.505548 0.750000
#
# Coordination Sequence:
#
# PCOD9233952 Si02
#       7
#     4   2   2   4   4   4   4
#     4  11  22  44  72  98 148 192 242 307 376 433
#     4  10  24  46  66  98 152 184 248 298 370 426
#     4  10  22  48  70  94 150 180 234 304 378 420
#     4  10  21  45  70  95 144 183 228 306 359 425
#     4  11  22  43  69 102 136 195 244 300 376 448
#     4  11  22  44  69 100 143 187 244 304 351 445
#     4  11  23  41  68 103 136 187 241 294 359 443
#
# _framework density 22.916288000000002
#
# number of rings (size 3 to 8) (size 9 to 14) (size 15 to 20)
#    0.000    1.333    6.667    0.500    0.000    4.667 
#   18.000    0.000    0.000    0.000    0.000    0.000 
#    0.000    0.000    0.000    0.000    0.000    0.000 
#
# Total GULP energy -133984.793275 kJ/mol
# GULP energy per Si atom -5582.699720 kJ/mol
# Density = 2.286413 g / cm^3
# Si number density = 22.916288 Si / 1000 Ang^3
#
#
#
# Elastic Constant Matrix: (Units=GPa)
#
#
# Indices 1 2 3 4 5 6 
#
# 1 100.3433 18.9354 26.3362 0.0000 18.8423 0.0000
# 2 18.9354 94.0074 20.8086 0.0000 9.6968 0.0000
# 3 26.3362 20.8086 91.1679 0.0000 29.3489 0.0000
# 4 0.0000 0.0000 0.0000 15.5300 0.0000 -5.7638
# 5 18.8423 9.6968 29.3489 0.0000 60.3262 0.0000
# 6 0.0000 0.0000 0.0000 -5.7638 0.0000 -1.7270
#
#
#
# Elastic Compliance Matrix: (Units=1/GPa)
#
#
# Indices 1 2 3 4 5 6 
#
# 1 0.011246 -0.001554 -0.002186 0.000000 -0.002199 0.000000
# 2 -0.001554 0.011441 -0.002047 0.000000 -0.000357 0.000000
# 3 -0.002186 -0.002047 0.013922 0.000000 -0.005761 0.000000
# 4 0.000000 0.000000 0.000000 0.028763 0.000000 -0.095997
# 5 -0.002199 -0.000357 -0.005761 0.000000 0.020124 0.000000
# 6 0.000000 0.000000 0.000000 -0.095997 0.000000 -0.258654
#
#
# Mechanical properties :
#
#
# Convention : Reuss Voigt Hill
#
# Bulk Modulus (GPa) = 39.94626 46.40877 43.17751
# Shear Modulus (GPa) = -32.62870 29.45507 -1.58682
#
# Velocity S-wave (km/s) = -3.77745 3.58904 -0.83303
# Velocity P-wave (km/s) = 1.24751 6.12131 4.23758
#
# Compressibility (1/GPa) = 0.02503363
#
# Stress axis : x y z
#
# Youngs Moduli (GPa) = 88.92215 87.40814 71.82778
#
# Poissons Ratio (x) = 0.13588 0.15700
# Poissons Ratio (y) = 0.13823 0.14704
# Poissons Ratio (z) = 0.19437 0.17894
#
# Static dielectric constant tensor:
#      x y z
#    x 0.894410 0.000000 0.148480 
#    y 0.000000 1.883900 0.000000 
#    z 0.148480 0.000000 1.829910 
# 
# From -- ./inp_files/37603.got.cif
#   From: 2010.05.17/outbox.cif.g08.bks.cpg/sg13_19_cif.got.tgz:37603.got - 2010.06.03 16:44:36.
