data_PCOD9233905
_publ_section_title
;
Structure prediction by ZEFSAII (Michael W. Deem and Ramdas Pophale) SiO2 
 PCOD9233905
Probable space group: P 2/C
;
_chemical_formula_sum "Si O2"
_cell_formula_units_Z 28
_cell_length_a 11.714150
_cell_length_b 8.866858
_cell_length_c 13.813008
_cell_angle_alpha 90.000000
_cell_angle_beta 63.356683
_cell_angle_gamma 90.000000
_cell_volume 1282.379781
_symmetry_space_group_name_H-M "P 2/C"
_symmetry_group_IT_number 13
_symmetry_cell_setting 'monoclinic'
loop_
_space_group_symop_operation_xyz
x,y,z
-x,y,1/2-z
-x,-y,-z
x,-y,1/2+z
loop_
_atom_site_type_symbol
_atom_site_label
_atom_site_fract_x
_atom_site_fract_y
_atom_site_fract_z
Si Si1 0.778153 0.773950 0.782212
Si Si2 0.121827 0.654721 0.344143
Si Si3 0.700705 0.886516 0.322128
Si Si4 0.074647 0.154273 0.471547
Si Si5 0.500000 0.981951 0.250000
Si Si6 0.000000 0.412594 0.250000
Si Si7 0.643294 0.454525 0.196693
Si Si8 0.340510 0.192510 0.456159
O O1 0.864357 0.810527 0.655113
O O2 0.875327 0.690584 0.817629
O O3 0.671845 0.660155 0.777286
O O4 0.728102 0.936592 0.834267
O O5 0.174563 0.789344 0.254624
O O6 0.047855 0.524431 0.314936
O O7 0.247383 0.578020 0.340188
O O8 0.024212 0.720041 0.458174
O O9 0.607444 0.890061 0.265504
O O10 0.632253 0.814423 0.441044
O O11 0.193500 0.142047 0.499451
O O12 0.000000 0.000000 0.500000
O O13 0.429472 0.086046 0.356678
O O14 0.500000 0.514164 0.250000
O O15 0.655374 0.354658 0.095596
#
# Coordination Sequence:
#
# PCOD9233905 Si02
#       8
#     4   4   4   4   2   2   4   4
#     4  10  22  40  68  96 139 185 231 288 358 417
#     4  11  24  41  68 102 144 179 240 291 353 421
#     4  12  24  41  72 106 132 186 242 305 340 424
#     4  11  21  41  66 100 133 185 225 294 358 408
#     4  12  22  46  66 104 140 180 242 298 350 416
#     4  10  24  40  60 102 142 180 224 286 344 442
#     4  10  21  44  67  92 146 196 221 289 359 418
#     4  11  23  40  73  94 139 190 235 286 361 416
#
# _framework density 21.834402999999998
#
# number of rings (size 3 to 8) (size 9 to 14) (size 15 to 20)
#    0.000    1.143    5.000    1.286    3.000    6.857 
#    0.000    0.714    0.000    0.000    0.000    0.000 
#    0.000    0.000    0.000    0.000    0.000    0.000 
#
# Total GULP energy -156566.644096 kJ/mol
# GULP energy per Si atom -5591.665861 kJ/mol
# Density = 2.178471 g / cm^3
# Si number density = 21.834403 Si / 1000 Ang^3
#
#
#
# Elastic Constant Matrix: (Units=GPa)
#
#
# Indices 1 2 3 4 5 6 
#
# 1 110.2314 32.0215 10.1788 0.0000 -12.9209 0.0000
# 2 32.0215 76.4500 -2.0408 0.0000 -3.1377 0.0000
# 3 10.1788 -2.0408 60.4748 0.0000 2.0859 0.0000
# 4 0.0000 0.0000 0.0000 0.7323 0.0000 -2.0597
# 5 -12.9209 -3.1377 2.0859 0.0000 21.3230 0.0000
# 6 0.0000 0.0000 0.0000 -2.0597 0.0000 37.8143
#
#
#
# Elastic Compliance Matrix: (Units=1/GPa)
#
#
# Indices 1 2 3 4 5 6 
#
# 1 0.011361 -0.004555 -0.002288 0.000000 0.006438 0.000000
# 2 -0.004555 0.014995 0.001296 0.000000 -0.000681 0.000000
# 3 -0.002288 0.001296 0.017063 0.000000 -0.002865 0.000000
# 4 0.000000 0.000000 0.000000 1.612747 0.000000 0.087845
# 5 0.006438 -0.000681 -0.002865 0.000000 0.050979 0.000000
# 6 0.000000 0.000000 0.000000 0.087845 0.000000 0.031230
#
#
# Mechanical properties :
#
#
# Convention : Reuss Voigt Hill
#
# Bulk Modulus (GPa) = 30.93556 36.38612 33.66084
# Shear Modulus (GPa) = 2.84051 25.77369 14.30710
#
# Velocity S-wave (km/s) = 1.14182 3.43945 2.56257
# Velocity P-wave (km/s) = 3.99216 5.69858 4.91992
#
# Compressibility (1/GPa) = 0.03232526
#
# Stress axis : x y z
#
# Youngs Moduli (GPa) = 88.02005 66.68803 58.60468
#
# Poissons Ratio (x) = 0.30380 0.13409
# Poissons Ratio (y) = 0.40097 -0.07597
# Poissons Ratio (z) = 0.20139 -0.08644
#
# Static dielectric constant tensor:
#      x y z
#    x 1.845030 0.000000 0.025610 
#    y 0.000000 1.835090 0.000000 
#    z 0.025610 0.000000 1.796540 
# 
# From -- ./inp_files/50282.got.cif
#   From: 2010.05.17/outbox.cif.g08.bks.cpg/sg13_26_cif.got.tgz:50282.got - 2010.06.03 16:44:36.
