data_PCOD9233236
_publ_section_title
;
Structure prediction by ZEFSAII (Michael W. Deem and Ramdas Pophale) SiO2 
 PCOD9233236
Probable space group: P 2/C
;
_chemical_formula_sum "Si O2"
_cell_formula_units_Z 28
_cell_length_a 8.486251
_cell_length_b 15.943001
_cell_length_c 19.232208
_cell_angle_alpha 90.000000
_cell_angle_beta 29.477652
_cell_angle_gamma 90.000000
_cell_volume 1280.425682
_symmetry_space_group_name_H-M "P 2/C"
_symmetry_group_IT_number 13
_symmetry_cell_setting 'monoclinic'
loop_
_space_group_symop_operation_xyz
x,y,z
-x,y,1/2-z
-x,-y,-z
x,-y,1/2+z
loop_
_atom_site_type_symbol
_atom_site_label
_atom_site_fract_x
_atom_site_fract_y
_atom_site_fract_z
Si Si1 0.761505 0.481953 0.027790
Si Si2 0.918240 0.591598 0.701301
Si Si3 0.405590 0.773193 0.211982
Si Si4 0.218672 0.247719 0.067576
Si Si5 0.567517 0.968887 0.301067
Si Si6 0.213835 0.051350 0.074022
Si Si7 0.845952 0.341801 0.879047
O O1 0.838557 0.404482 0.946576
O O2 0.806830 0.559532 0.957179
O O3 0.406269 0.458993 0.190798
O O4 0.000000 0.500000 0.000000
O O5 0.000000 0.574180 0.750000
O O6 0.910796 0.692850 0.696277
O O7 0.500000 0.737380 0.250000
O O8 0.338545 0.871670 0.244503
O O9 0.092235 0.731297 0.302217
O O10 0.689075 0.757325 0.048906
O O11 0.217076 0.150460 0.090125
O O12 0.505314 0.298804 0.994977
O O13 0.500000 0.003737 0.250000
O O14 0.277417 0.964909 0.467018
O O15 0.862990 0.016139 0.222717
O O16 0.500000 0.000000 0.000000
O O17 0.000000 0.381959 0.750000
#
# Coordination Sequence:
#
# PCOD9233236 Si02
#       7
#     4   4   4   4   4   4   4
#     4  12  28  46  69 100 135 173 224 286 344 406
#     4  12  26  47  71  97 135 177 228 272 346 408
#     4   9  20  37  67  95 133 177 228 278 336 400
#     4  10  23  42  66  99 136 178 229 281 339 400
#     4  10  21  40  61  97 137 185 225 274 340 405
#     4  11  22  40  68 101 139 181 232 281 329 401
#     4  10  21  41  68  97 129 176 227 276 339 407
#
# _framework density 21.867726999999999
#
# number of rings (size 3 to 8) (size 9 to 14) (size 15 to 20)
#    0.000    1.429    1.429    3.000    6.000    3.429 
#    2.571    1.429    0.000    0.000    0.000    0.000 
#    0.000    0.000    0.000    0.000    0.000    0.000 
#
# Total GULP energy -156428.825266 kJ/mol
# GULP energy per Si atom -5586.743759 kJ/mol
# Density = 2.181796 g / cm^3
# Si number density = 21.867727 Si / 1000 Ang^3
#
#
#
# Elastic Constant Matrix: (Units=GPa)
#
#
# Indices 1 2 3 4 5 6 
#
# 1 121.9067 41.9383 29.7049 0.0000 6.5344 0.0000
# 2 41.9383 116.4307 44.1019 0.0000 -3.4087 0.0000
# 3 29.7049 44.1019 91.0859 0.0000 -6.1007 0.0000
# 4 0.0000 0.0000 0.0000 31.7247 0.0000 4.4725
# 5 6.5344 -3.4087 -6.1007 0.0000 32.1750 0.0000
# 6 0.0000 0.0000 0.0000 4.4725 0.0000 27.3093
#
#
#
# Elastic Compliance Matrix: (Units=1/GPa)
#
#
# Indices 1 2 3 4 5 6 
#
# 1 0.009816 -0.002858 -0.001997 0.000000 -0.002675 0.000000
# 2 -0.002858 0.011350 -0.004501 0.000000 0.000929 0.000000
# 3 -0.001997 -0.004501 0.013982 0.000000 0.002580 0.000000
# 4 0.000000 0.000000 0.000000 0.032266 0.000000 -0.005284
# 5 -0.002675 0.000929 0.002580 0.000000 0.032211 0.000000
# 6 0.000000 0.000000 0.000000 -0.005284 0.000000 0.037483
#
#
# Mechanical properties :
#
#
# Convention : Reuss Voigt Hill
#
# Bulk Modulus (GPa) = 60.83903 62.32373 61.58138
# Shear Modulus (GPa) = 30.99829 32.48700 31.74265
#
# Velocity S-wave (km/s) = 3.76910 3.85855 3.81409
# Velocity P-wave (km/s) = 6.84275 6.95797 6.90060
#
# Compressibility (1/GPa) = 0.01643682
#
# Stress axis : x y z
#
# Youngs Moduli (GPa) = 101.87434 88.10253 71.52008
#
# Poissons Ratio (x) = 0.25177 0.14280
# Poissons Ratio (y) = 0.29113 0.32194
# Poissons Ratio (z) = 0.20341 0.39659
#
# Static dielectric constant tensor:
#      x y z
#    x 1.874850 0.000000 -0.021490 
#    y 0.000000 1.796630 0.000000 
#    z -0.021490 0.000000 1.911360 
# 
# From -- ./inp_files/76688.got.cif
#   From: 2010.05.17/outbox.cif.g08.bks.cpg/sg13_39_cif.got.tgz:76688.got - 2010.06.03 16:44:36.
