data_PCOD9233421
_publ_section_title
;
Structure prediction by ZEFSAII (Michael W. Deem and Ramdas Pophale) SiO2 
 PCOD9233421
Probable space group: P 2/C
;
_chemical_formula_sum "Si O2"
_cell_formula_units_Z 28
_cell_length_a 9.214584
_cell_length_b 13.999570
_cell_length_c 22.944104
_cell_angle_alpha 90.000000
_cell_angle_beta 26.197247
_cell_angle_gamma 90.000000
_cell_volume 1306.638910
_symmetry_space_group_name_H-M "P 2/C"
_symmetry_group_IT_number 13
_symmetry_cell_setting 'monoclinic'
loop_
_space_group_symop_operation_xyz
x,y,z
-x,y,1/2-z
-x,-y,-z
x,-y,1/2+z
loop_
_atom_site_type_symbol
_atom_site_label
_atom_site_fract_x
_atom_site_fract_y
_atom_site_fract_z
Si Si1 0.210824 0.288240 0.808222
Si Si2 0.393075 0.705638 0.722285
Si Si3 0.207848 0.452960 0.477686
Si Si4 0.647835 0.389331 0.864396
Si Si5 0.340981 0.226876 0.036303
Si Si6 0.648992 0.154683 0.038559
Si Si7 0.395304 0.036386 0.601694
O O1 0.500000 0.269955 0.750000
O O2 0.337467 0.326948 0.700511
O O3 0.003868 0.376238 0.910499
O O4 0.986716 0.192180 0.887342
O O5 0.500000 0.699986 0.750000
O O6 0.485389 0.605130 0.659792
O O7 0.606834 0.785556 0.612149
O O8 0.019709 0.737385 0.848871
O O9 0.355890 0.535960 0.463801
O O10 0.000000 0.500000 0.500000
O O11 0.000000 0.435710 0.750000
O O12 0.580918 0.315818 0.940472
O O13 0.377832 0.189782 0.088954
O O14 0.459557 0.142625 0.950263
O O15 0.574795 0.043457 0.076214
O O16 0.000000 0.036194 0.750000
O O17 0.500000 0.000000 0.500000
#
# Coordination Sequence:
#
# PCOD9233421 Si02
#       7
#     4   4   4   4   4   4   4
#     4  11  24  42  65  92 132 173 217 266 340 396
#     4  11  25  43  65  95 132 174 223 271 335 397
#     4  11  25  42  66  87 127 183 224 266 330 410
#     4  12  25  40  65  97 130 165 222 281 325 385
#     4  11  23  41  69  98 132 171 218 275 330 397
#     4  10  22  44  67  97 131 170 216 273 325 396
#     4  10  21  40  72 101 131 176 222 267 336 409
#
# _framework density 21.429026
#
# number of rings (size 3 to 8) (size 9 to 14) (size 15 to 20)
#    0.000    1.143    2.857    3.429    8.000    2.857 
#    0.000    1.429    0.000    0.000    0.000    0.000 
#    0.000    0.000    0.000    0.000    0.000    0.000 
#
# Total GULP energy -156492.062962 kJ/mol
# GULP energy per Si atom -5589.002249 kJ/mol
# Density = 2.138025 g / cm^3
# Si number density = 21.429026 Si / 1000 Ang^3
#
#
#
# Elastic Constant Matrix: (Units=GPa)
#
#
# Indices 1 2 3 4 5 6 
#
# 1 45.0750 0.7965 -1.6898 0.0000 -9.5581 0.0000
# 2 0.7965 114.1104 22.8794 0.0000 -13.0635 0.0000
# 3 -1.6898 22.8794 79.9944 0.0000 -13.2356 0.0000
# 4 0.0000 0.0000 0.0000 32.7680 0.0000 -7.1057
# 5 -9.5581 -13.0635 -13.2356 0.0000 42.0209 0.0000
# 6 0.0000 0.0000 0.0000 -7.1057 0.0000 26.7357
#
#
#
# Elastic Compliance Matrix: (Units=1/GPa)
#
#
# Indices 1 2 3 4 5 6 
#
# 1 0.023474 0.000225 0.001399 0.000000 0.005850 0.000000
# 2 0.000225 0.009489 -0.002334 0.000000 0.002266 0.000000
# 3 0.001399 -0.002334 0.013853 0.000000 0.003956 0.000000
# 4 0.000000 0.000000 0.000000 0.032384 0.000000 0.008607
# 5 0.005850 0.002266 0.003956 0.000000 0.027079 0.000000
# 6 0.000000 0.000000 0.000000 0.008607 0.000000 0.039691
#
#
# Mechanical properties :
#
#
# Convention : Reuss Voigt Hill
#
# Bulk Modulus (GPa) = 22.02792 31.46134 26.74463
# Shear Modulus (GPa) = 30.76516 34.78447 32.77481
#
# Velocity S-wave (km/s) = 3.79314 4.03332 3.91507
# Velocity P-wave (km/s) = 5.43007 6.03355 5.73975
#
# Compressibility (1/GPa) = 0.04539694
#
# Stress axis : x y z
#
# Youngs Moduli (GPa) = 42.59978 105.38139 72.18845
#
# Poissons Ratio (x) = -0.02374 -0.10102
# Poissons Ratio (y) = -0.00960 0.16852
# Poissons Ratio (z) = -0.05961 0.24600
#
# Static dielectric constant tensor:
#      x y z
#    x 1.757290 0.000000 -0.033480 
#    y 0.000000 1.845920 0.000000 
#    z -0.033480 0.000000 1.474920 
# 
# From -- ./inp_files/76686.got.cif
#   From: 2010.05.17/outbox.cif.g08.bks.cpg/sg13_39_cif.got.tgz:76686.got - 2010.06.03 16:44:36.
