data_PCOD9233097
_publ_section_title
;
Structure prediction by ZEFSAII (Michael W. Deem and Ramdas Pophale) SiO2 
 PCOD9233097
Probable space group: P 2/C
;
_chemical_formula_sum "Si O2"
_cell_formula_units_Z 26
_cell_length_a 9.543746
_cell_length_b 14.745862
_cell_length_c 16.064709
_cell_angle_alpha 90.000000
_cell_angle_beta 34.167248
_cell_angle_gamma 90.000000
_cell_volume 1269.688309
_symmetry_space_group_name_H-M "P 2/C"
_symmetry_group_IT_number 13
_symmetry_cell_setting 'monoclinic'
loop_
_space_group_symop_operation_xyz
x,y,z
-x,y,1/2-z
-x,-y,-z
x,-y,1/2+z
loop_
_atom_site_type_symbol
_atom_site_label
_atom_site_fract_x
_atom_site_fract_y
_atom_site_fract_z
Si Si1 0.119272 0.377490 0.363095
Si Si2 0.000000 0.690210 0.750000
Si Si3 0.500000 0.228699 0.250000
Si Si4 0.374201 0.233830 0.721198
Si Si5 0.729101 0.424768 0.698536
Si Si6 0.590004 0.164833 0.458293
Si Si7 0.000000 0.015496 0.250000
Si Si8 0.851536 0.859852 0.443491
O O1 0.316179 0.298284 0.290399
O O2 0.229550 0.476081 0.285308
O O3 0.958434 0.355800 0.359889
O O4 0.957850 0.393759 0.526324
O O5 0.238485 0.751866 0.650863
O O6 0.339718 0.161842 0.387686
O O7 0.500000 0.235724 0.750000
O O8 0.338149 0.338813 0.711419
O O9 0.549875 0.174592 0.576101
O O10 0.100642 0.191301 0.848832
O O11 0.500000 0.438156 0.750000
O O12 0.318335 0.172393 0.551088
O O13 0.753695 0.076712 0.356199
O O14 0.057288 0.956048 0.139280
#
# Coordination Sequence:
#
# PCOD9233097 Si02
#       8
#     4   2   2   4   4   4   2   4
#     4  11  22  41  64  96 138 182 223 280 334 393
#     4  11  22  40  65  98 132 180 227 276 336 401
#     4  12  24  44  68 102 134 184 226 278 340 412
#     4  11  23  42  68 102 136 179 225 281 334 403
#     4  10  21  39  65  93 136 183 225 275 330 400
#     4  11  24  45  71  92 136 179 221 278 349 409
#     4  11  26  48  75  96 132 184 215 290 354 413
#     4  12  24  44  72  96 132 174 229 273 349 412
#
# _framework density 20.477464999999999
#
# number of rings (size 3 to 8) (size 9 to 14) (size 15 to 20)
#    0.000    0.923    5.385    2.308    0.000    0.000 
#    4.154    3.077    0.000    0.000    0.000    0.000 
#    0.000    0.000    0.000    0.000    0.000    0.000 
#
# Total GULP energy -144819.048135 kJ/mol
# GULP energy per Si atom -5569.963390 kJ/mol
# Density = 2.043086 g / cm^3
# Si number density = 20.477465 Si / 1000 Ang^3
#
#
#
# Elastic Constant Matrix: (Units=GPa)
#
#
# Indices 1 2 3 4 5 6 
#
# 1 87.3485 39.0094 12.2789 0.0000 -3.6135 0.0000
# 2 39.0094 97.0821 41.3128 0.0000 6.7028 0.0000
# 3 12.2789 41.3128 92.5806 0.0000 4.7450 0.0000
# 4 0.0000 0.0000 0.0000 18.9451 0.0000 -18.7349
# 5 -3.6135 6.7028 4.7450 0.0000 34.2342 0.0000
# 6 0.0000 0.0000 0.0000 -18.7349 0.0000 -69.1107
#
#
#
# Elastic Compliance Matrix: (Units=1/GPa)
#
#
# Indices 1 2 3 4 5 6 
#
# 1 0.014228 -0.006218 0.000754 0.000000 0.002615 0.000000
# 2 -0.006218 0.015534 -0.005960 0.000000 -0.002872 0.000000
# 3 0.000754 -0.005960 0.013392 0.000000 -0.000610 0.000000
# 4 0.000000 0.000000 0.000000 0.041625 0.000000 -0.011284
# 5 0.002615 -0.002872 -0.000610 0.000000 0.030133 0.000000
# 6 0.000000 0.000000 0.000000 -0.011284 0.000000 -0.011411
#
#
# Mechanical properties :
#
#
# Convention : Reuss Voigt Hill
#
# Bulk Modulus (GPa) = 49.24905 51.35705 50.30305
# Shear Modulus (GPa) = 37.56065 9.10773 23.33419
#
# Velocity S-wave (km/s) = 4.28745 2.11124 3.37932
# Velocity P-wave (km/s) = 6.97225 5.57471 6.31227
#
# Compressibility (1/GPa) = 0.02030496
#
# Stress axis : x y z
#
# Youngs Moduli (GPa) = 70.28578 64.37667 74.67067
#
# Poissons Ratio (x) = 0.40031 -0.05629
# Poissons Ratio (y) = 0.43705 0.44502
# Poissons Ratio (z) = -0.05298 0.38367
#
# Static dielectric constant tensor:
#      x y z
#    x 1.709920 0.000000 0.008760 
#    y 0.000000 1.775770 0.000000 
#    z 0.008760 0.000000 1.792560 
# 
# From -- ./inp_files/30240.got.cif
#   From: 2010.05.17/outbox.cif.g08.bks.cpg/sg13_16_cif.got.tgz:30240.got - 2010.06.03 16:44:36.
