data_PCOD9233126
_publ_section_title
;
Structure prediction by ZEFSAII (Michael W. Deem and Ramdas Pophale) SiO2 
 PCOD9233126
Probable space group: P 2/C
;
_chemical_formula_sum "Si O2"
_cell_formula_units_Z 22
_cell_length_a 5.369580
_cell_length_b 12.824981
_cell_length_c 14.094594
_cell_angle_alpha 90.000000
_cell_angle_beta 78.616508
_cell_angle_gamma 90.000000
_cell_volume 951.526881
_symmetry_space_group_name_H-M "P 2/C"
_symmetry_group_IT_number 13
_symmetry_cell_setting 'monoclinic'
loop_
_space_group_symop_operation_xyz
x,y,z
-x,y,1/2-z
-x,-y,-z
x,-y,1/2+z
loop_
_atom_site_type_symbol
_atom_site_label
_atom_site_fract_x
_atom_site_fract_y
_atom_site_fract_z
Si Si1 0.700291 0.574044 0.437181
Si Si2 0.500000 0.074883 0.250000
Si Si3 0.958330 0.258539 0.037103
Si Si4 0.000000 0.789802 0.750000
Si Si5 0.000000 0.579701 0.250000
Si Si6 0.354614 0.733496 0.348845
Si Si7 0.276391 0.041553 0.452912
O O1 0.500000 0.500000 0.500000
O O2 0.871567 0.629932 0.503324
O O3 0.843477 0.517229 0.339923
O O4 0.560491 0.668252 0.392822
O O5 0.737582 0.143177 0.270439
O O6 0.363474 0.010408 0.341735
O O7 0.009969 0.264514 0.145718
O O8 0.747042 0.167472 0.044074
O O9 0.178649 0.221330 0.946416
O O10 0.825669 0.653229 0.196372
O O11 0.500000 0.789939 0.250000
O O12 0.500000 0.000000 0.500000
O O13 0.000000 0.000000 0.500000
#
# Coordination Sequence:
#
# PCOD9233126 Si02
#       7
#     4   2   4   2   2   4   4
#     4  10  21  39  66  92 134 178 220 285 346 410
#     4  10  22  44  68  96 144 178 222 294 348 390
#     4  10  23  40  67 100 135 178 232 284 346 420
#     4  10  22  40  71  95 142 188 222 286 353 407
#     4   8  18  38  57  91 124 172 212 276 339 393
#     4   9  19  39  65  87 133 172 215 285 345 395
#     4  11  24  43  70  98 136 182 228 281 344 415
#
# _framework density 23.120733000000001
#
# number of rings (size 3 to 8) (size 9 to 14) (size 15 to 20)
#    0.000    2.182    0.000    2.182    7.636    2.909 
#    1.636   12.727    0.000    0.000    0.000    0.000 
#    0.000    0.000    0.000    0.000    0.000    0.000 
#
# Total GULP energy -122691.747234 kJ/mol
# GULP energy per Si atom -5576.897602 kJ/mol
# Density = 2.306811 g / cm^3
# Si number density = 23.120733 Si / 1000 Ang^3
#
#
#
# Elastic Constant Matrix: (Units=GPa)
#
#
# Indices 1 2 3 4 5 6 
#
# 1 120.5040 20.5872 85.1177 0.0000 -10.7042 0.0000
# 2 20.5872 56.4806 58.6408 0.0000 -9.6720 0.0000
# 3 85.1177 58.6408 280.0634 0.0000 -33.4389 0.0000
# 4 0.0000 0.0000 0.0000 25.4587 0.0000 -15.7622
# 5 -10.7042 -9.6720 -33.4389 0.0000 64.3261 0.0000
# 6 0.0000 0.0000 0.0000 -15.7622 0.0000 33.1374
#
#
#
# Elastic Compliance Matrix: (Units=1/GPa)
#
#
# Indices 1 2 3 4 5 6 
#
# 1 0.010587 -0.000658 -0.003072 0.000000 0.000066 0.000000
# 2 -0.000658 0.022725 -0.004439 0.000000 0.001000 0.000000
# 3 -0.003072 -0.004439 0.005643 0.000000 0.001755 0.000000
# 4 0.000000 0.000000 0.000000 0.055676 0.000000 0.026483
# 5 0.000066 0.001000 0.001755 0.000000 0.016619 0.000000
# 6 0.000000 0.000000 0.000000 0.026483 0.000000 0.042774
#
#
# Mechanical properties :
#
#
# Convention : Reuss Voigt Hill
#
# Bulk Modulus (GPa) = 44.21463 87.30440 65.75951
# Shear Modulus (GPa) = 28.10562 44.09793 36.10178
#
# Velocity S-wave (km/s) = 3.49033 4.37199 3.95580
# Velocity P-wave (km/s) = 5.95047 7.95788 7.02624
#
# Compressibility (1/GPa) = 0.02261695
#
# Stress axis : x y z
#
# Youngs Moduli (GPa) = 94.45952 44.00456 177.20573
#
# Poissons Ratio (x) = 0.02897 0.54434
# Poissons Ratio (y) = 0.06218 0.78658
# Poissons Ratio (z) = 0.29016 0.19533
#
# Static dielectric constant tensor:
#      x y z
#    x 1.884850 0.000000 -0.084150 
#    y 0.000000 1.891480 0.000000 
#    z -0.084150 0.000000 1.873900 
# 
# From -- ./inp_files/26230.got.cif
#   From: 2010.05.17/outbox.cif.g08.bks.cpg/sg13_14_cif.got.tgz:26230.got - 2010.06.03 16:44:36.
