data_PCOD9233411
_publ_section_title
;
Structure prediction by ZEFSAII (Michael W. Deem and Ramdas Pophale) SiO2 
 PCOD9233411
Probable space group: P 2/C
;
_chemical_formula_sum "Si O2"
_cell_formula_units_Z 28
_cell_length_a 9.783958
_cell_length_b 5.365548
_cell_length_c 22.189233
_cell_angle_alpha 90.000000
_cell_angle_beta 112.271929
_cell_angle_gamma 90.000000
_cell_volume 1077.949325
_symmetry_space_group_name_H-M "P 2/C"
_symmetry_group_IT_number 13
_symmetry_cell_setting 'monoclinic'
loop_
_space_group_symop_operation_xyz
x,y,z
-x,y,1/2-z
-x,-y,-z
x,-y,1/2+z
loop_
_atom_site_type_symbol
_atom_site_label
_atom_site_fract_x
_atom_site_fract_y
_atom_site_fract_z
Si Si1 0.000000 0.632077 0.750000
Si Si2 0.485016 0.467040 0.359136
Si Si3 0.222048 0.962064 0.711772
Si Si4 0.500000 0.691169 0.250000
Si Si5 0.965535 0.316135 0.634605
Si Si6 0.468859 0.055185 0.564326
Si Si7 0.801415 0.583866 0.898846
Si Si8 0.152175 0.076879 0.992584
O O1 0.083211 0.485327 0.818398
O O2 0.866952 0.789207 0.756653
O O3 0.418232 0.486185 0.282146
O O4 0.450756 0.694984 0.398387
O O5 0.649588 0.562929 0.361774
O O6 0.491970 0.196183 0.390721
O O7 0.376697 0.093099 0.746517
O O8 0.105359 0.184263 0.686560
O O9 0.219556 0.824584 0.646707
O O10 0.043320 0.473128 0.594405
O O11 0.866162 0.119772 0.581780
O O12 0.500000 0.000000 0.500000
O O13 0.290467 0.093672 0.533060
O O14 0.802270 0.664341 0.968014
O O15 0.000000 0.000000 0.000000
#
# Coordination Sequence:
#
# PCOD9233411 Si02
#       8
#     2   4   4   2   4   4   4   4
#     4  10  26  46  68  96 158 196 234 310 370 452
#     4  11  24  46  75 104 151 190 244 310 361 440
#     4  11  23  46  69 101 150 188 248 309 363 442
#     4  12  24  46  78 108 138 200 256 306 374 430
#     4  11  21  43  67 102 141 182 239 296 361 441
#     4  11  26  50  71 106 153 192 240 306 375 444
#     4  10  21  40  70 106 137 178 237 315 362 417
#     4  11  21  40  76 102 132 181 241 301 369 425
#
# _framework density 25.975248000000001
#
# number of rings (size 3 to 8) (size 9 to 14) (size 15 to 20)
#    0.000    1.143    2.857    3.857    0.000    3.429 
#    5.143    0.000    0.000    0.000    0.000    0.000 
#    0.000    0.000    0.000    0.000    0.000    0.000 
#
# Total GULP energy -156080.419810 kJ/mol
# GULP energy per Si atom -5574.300707 kJ/mol
# Density = 2.591613 g / cm^3
# Si number density = 25.975248 Si / 1000 Ang^3
#
#
#
# Elastic Constant Matrix: (Units=GPa)
#
#
# Indices 1 2 3 4 5 6 
#
# 1 18.0102 -37.1987 -92.2697 0.0000 -90.8681 0.0000
# 2 -37.1987 33.8540 -95.0783 0.0000 -82.5013 0.0000
# 3 -92.2697 -95.0783 -147.5761 0.0000 -182.8849 0.0000
# 4 0.0000 0.0000 0.0000 24.1305 0.0000 86.6269
# 5 -90.8681 -82.5013 -182.8849 0.0000 -84.5643 0.0000
# 6 0.0000 0.0000 0.0000 86.6269 0.0000-1016.7760
#
#
#
# Elastic Compliance Matrix: (Units=1/GPa)
#
#
# Indices 1 2 3 4 5 6 
#
# 1 0.014556 -0.002767 -0.005190 0.000000 -0.001717 0.000000
# 2 -0.002767 0.012110 -0.002907 0.000000 -0.002554 0.000000
# 3 -0.005190 -0.002907 0.007193 0.000000 -0.007142 0.000000
# 4 0.000000 0.000000 0.000000 0.031735 0.000000 0.002704
# 5 -0.001717 -0.002554 -0.007142 0.000000 0.007957 0.000000
# 6 0.000000 0.000000 0.000000 0.002704 0.000000 -0.000753
#
#
# Mechanical properties :
#
#
# Convention : Reuss Voigt Hill
#
# Bulk Modulus (GPa) = 82.44084 -60.53395 10.95345
# Shear Modulus (GPa) = 50.72596 -206.85299 -78.06351
#
# Velocity S-wave (km/s) = 4.42391 -8.93351 -5.48801
# Velocity P-wave (km/s) = 7.60932 11.39145 5.99430
#
# Compressibility (1/GPa) = 0.01212991
#
# Stress axis : x y z
#
# Youngs Moduli (GPa) = 68.70125 82.57717 139.03308
#
# Poissons Ratio (x) = 0.22849 0.72157
# Poissons Ratio (y) = 0.19009 0.40421
# Poissons Ratio (z) = 0.35655 0.24008
#
# Static dielectric constant tensor:
#      x y z
#    x 2.203840 0.000000 0.035330 
#    y 0.000000 2.078940 0.000000 
#    z 0.035330 0.000000 1.710440 
# 
# From -- ./inp_files/77291.got.cif
#   From: 2010.05.17/outbox.cif.g08.bks.cpg/sg13_39_cif.got.tgz:77291.got - 2010.06.03 16:44:36.
