data_PCOD9233215
_publ_section_title
;
Structure prediction by ZEFSAII (Michael W. Deem and Ramdas Pophale) SiO2 
 PCOD9233215
Probable space group: P 2/C
;
_chemical_formula_sum "Si O2"
_cell_formula_units_Z 24
_cell_length_a 22.234249
_cell_length_b 13.133758
_cell_length_c 13.035103
_cell_angle_alpha 90.000000
_cell_angle_beta 161.365439
_cell_angle_gamma 90.000000
_cell_volume 1216.294856
_symmetry_space_group_name_H-M "P 2/C"
_symmetry_group_IT_number 13
_symmetry_cell_setting 'monoclinic'
loop_
_space_group_symop_operation_xyz
x,y,z
-x,y,1/2-z
-x,-y,-z
x,-y,1/2+z
loop_
_atom_site_type_symbol
_atom_site_label
_atom_site_fract_x
_atom_site_fract_y
_atom_site_fract_z
Si Si1 0.000000 0.977297 0.250000
Si Si2 0.500000 0.304485 0.750000
Si Si3 0.678505 0.994700 0.860975
Si Si4 0.500000 0.351553 0.250000
Si Si5 0.000000 0.360998 0.750000
Si Si6 0.190325 0.864626 0.749916
Si Si7 0.817669 0.773375 0.140734
Si Si8 0.610369 0.528058 0.576278
O O1 0.149250 0.039079 0.426619
O O2 0.118858 0.913010 0.526892
O O3 0.324531 0.230795 0.450517
O O4 0.507894 0.380647 0.667350
O O5 0.500000 0.000000 0.500000
O O6 0.717139 0.875052 0.937376
O O7 0.697464 0.053799 0.999112
O O8 0.662048 0.287419 0.453752
O O9 0.603055 0.427746 0.494978
O O10 0.910731 0.292931 0.698479
O O11 0.822630 0.430200 0.429900
O O12 0.999222 0.820847 0.492409
O O13 0.500000 0.500000 0.500000
#
# Coordination Sequence:
#
# PCOD9233215 Si02
#       8
#     2   2   4   2   2   4   4   4
#     4  10  21  40  60  89 132 178 227 274 328 403
#     4  11  24  39  68  98 128 175 232 279 350 430
#     4  11  25  40  65  99 140 181 232 280 338 411
#     4  11  26  43  66 100 136 169 232 293 352 402
#     4  12  23  44  74  93 134 184 225 282 356 425
#     4  11  23  40  66  98 136 181 228 278 343 415
#     4  11  23  42  66  99 134 182 227 281 346 412
#     4  11  25  44  67  98 132 171 229 291 350 419
#
# _framework density 19.732057000000001
#
# number of rings (size 3 to 8) (size 9 to 14) (size 15 to 20)
#    0.000    1.000    3.333    5.000    2.333    5.333 
#    0.000    0.000    0.000    1.000    0.000    0.000 
#    0.000    0.000    0.000    0.000    0.000    0.000 
#
# Total GULP energy -133847.512511 kJ/mol
# GULP energy per Si atom -5576.979688 kJ/mol
# Density = 1.968715 g / cm^3
# Si number density = 19.732057 Si / 1000 Ang^3
#
#
#
# Elastic Constant Matrix: (Units=GPa)
#
#
# Indices 1 2 3 4 5 6 
#
# 1 136.1097 69.0507 59.7795 0.0000 1.3461 0.0000
# 2 69.0507 100.5736 67.7767 0.0000 -1.9190 0.0000
# 3 59.7795 67.7767 133.8067 0.0000 -12.7278 0.0000
# 4 0.0000 0.0000 0.0000 27.1046 0.0000 14.0919
# 5 1.3461 -1.9190 -12.7278 0.0000 33.9685 0.0000
# 6 0.0000 0.0000 0.0000 14.0919 0.0000 17.7482
#
#
#
# Elastic Compliance Matrix: (Units=1/GPa)
#
#
# Indices 1 2 3 4 5 6 
#
# 1 0.011612 -0.006689 -0.001949 0.000000 -0.001568 0.000000
# 2 -0.006689 0.019093 -0.006797 0.000000 -0.001203 0.000000
# 3 -0.001949 -0.006797 0.012192 0.000000 0.004262 0.000000
# 4 0.000000 0.000000 0.000000 0.062831 0.000000 -0.049887
# 5 -0.001568 -0.001203 0.004262 0.000000 0.031030 0.000000
# 6 0.000000 0.000000 0.000000 -0.049887 0.000000 0.095954
#
#
# Mechanical properties :
#
#
# Convention : Reuss Voigt Hill
#
# Bulk Modulus (GPa) = 83.14298 84.85596 83.99947
# Shear Modulus (GPa) = 18.68522 27.35648 23.02085
#
# Velocity S-wave (km/s) = 3.08059 3.72748 3.41936
# Velocity P-wave (km/s) = 7.40816 7.85003 7.63229
#
# Compressibility (1/GPa) = 0.01202747
#
# Stress axis : x y z
#
# Youngs Moduli (GPa) = 86.11895 52.37486 82.01802
#
# Poissons Ratio (x) = 0.35034 0.15983
# Poissons Ratio (y) = 0.57605 0.55750
# Poissons Ratio (z) = 0.16782 0.35600
#
# Static dielectric constant tensor:
#      x y z
#    x 1.765280 0.000000 -0.004100 
#    y 0.000000 1.696690 0.000000 
#    z -0.004100 0.000000 1.733540 
# 
# From -- ./inp_files/40979.got.cif
#   From: 2010.05.17/outbox.cif.g08.bks.cpg/sg13_21_cif.got.tgz:40979.got - 2010.06.03 16:44:36.
