data_PCOD9233895
_publ_section_title
;
Structure prediction by ZEFSAII (Michael W. Deem and Ramdas Pophale) SiO2 
 PCOD9233895
Probable space group: P 2/C
;
_chemical_formula_sum "Si O2"
_cell_formula_units_Z 30
_cell_length_a 12.828078
_cell_length_b 15.496311
_cell_length_c 9.396944
_cell_angle_alpha 90.000000
_cell_angle_beta 57.437184
_cell_angle_gamma 90.000000
_cell_volume 1574.352748
_symmetry_space_group_name_H-M "P 2/C"
_symmetry_group_IT_number 13
_symmetry_cell_setting 'monoclinic'
loop_
_space_group_symop_operation_xyz
x,y,z
-x,y,1/2-z
-x,-y,-z
x,-y,1/2+z
loop_
_atom_site_type_symbol
_atom_site_label
_atom_site_fract_x
_atom_site_fract_y
_atom_site_fract_z
Si Si1 0.758850 0.669205 0.219262
Si Si2 0.492646 0.100654 0.976396
Si Si3 0.407162 0.509605 0.203577
Si Si4 0.500000 0.798444 0.750000
Si Si5 0.693592 0.160258 0.605150
Si Si6 0.708997 0.668592 0.591946
Si Si7 0.974859 0.741577 0.434926
Si Si8 0.966205 0.912611 0.940367
O O1 0.706854 0.574452 0.228888
O O2 0.708229 0.739690 0.143035
O O3 0.714048 0.681267 0.416280
O O4 0.906337 0.684258 0.108595
O O5 0.593928 0.122945 0.785910
O O6 0.362919 0.137567 0.008264
O O7 0.532789 0.144752 0.092085
O O8 0.500000 0.000000 0.000000
O O9 0.500000 0.549182 0.250000
O O10 0.349974 0.421002 0.309307
O O11 0.500000 0.500000 0.000000
O O12 0.613672 0.739876 0.714150
O O13 0.821417 0.111970 0.543734
O O14 0.847892 0.688399 0.540671
O O15 0.000000 0.764413 0.250000
O O16 0.971125 0.829250 0.529816
O O17 0.000000 0.921131 0.750000
O O18 0.000000 0.000000 0.000000
#
# Coordination Sequence:
#
# PCOD9233895 Si02
#       8
#     4   4   4   2   4   4   4   4
#     4  10  21  44  64  94 130 165 219 264 322 391
#     4  11  25  41  62  96 128 170 215 271 328 388
#     4  12  24  40  67  99 130 168 218 266 322 394
#     4  12  22  38  68  90 132 168 214 274 322 394
#     4  10  24  44  65  91 131 175 214 266 334 382
#     4  11  22  41  66  97 127 168 217 262 330 380
#     4   9  22  43  69  91 126 177 215 266 327 384
#     4  11  25  43  66  96 129 170 223 270 321 388
#
# _framework density 19.055448999999999
#
# number of rings (size 3 to 8) (size 9 to 14) (size 15 to 20)
#    0.000    1.333    3.333    1.200    5.600    1.600 
#    2.400    0.000    0.000    0.000    0.000    0.000 
#    0.000    0.000    0.000    0.000    0.000    0.000 
#
# Total GULP energy -167255.922703 kJ/mol
# GULP energy per Si atom -5575.197423 kJ/mol
# Density = 1.901208 g / cm^3
# Si number density = 19.055449 Si / 1000 Ang^3
#
#
#
# Elastic Constant Matrix: (Units=GPa)
#
#
# Indices 1 2 3 4 5 6 
#
# 1 84.3549 51.0004 28.1155 0.0000 0.5815 0.0000
# 2 51.0004 127.8008 36.7435 0.0000 -1.0387 0.0000
# 3 28.1155 36.7435 71.2975 0.0000 2.7466 0.0000
# 4 0.0000 0.0000 0.0000 29.4276 0.0000 4.3637
# 5 0.5815 -1.0387 2.7466 0.0000 31.5411 0.0000
# 6 0.0000 0.0000 0.0000 4.3637 0.0000 31.9290
#
#
#
# Elastic Compliance Matrix: (Units=1/GPa)
#
#
# Indices 1 2 3 4 5 6 
#
# 1 0.016388 -0.005500 -0.003622 0.000000 -0.000168 0.000000
# 2 -0.005500 0.011048 -0.003554 0.000000 0.000775 0.000000
# 3 -0.003622 -0.003554 0.017346 0.000000 -0.001561 0.000000
# 4 0.000000 0.000000 0.000000 0.034685 0.000000 -0.004740
# 5 -0.000168 0.000775 -0.001561 0.000000 0.031869 0.000000
# 6 0.000000 0.000000 0.000000 -0.004740 0.000000 0.031967
#
#
# Mechanical properties :
#
#
# Convention : Reuss Voigt Hill
#
# Bulk Modulus (GPa) = 51.46796 57.24135 54.35465
# Shear Modulus (GPa) = 28.54994 29.75244 29.15119
#
# Velocity S-wave (km/s) = 3.87493 3.95569 3.91552
# Velocity P-wave (km/s) = 6.86209 7.13918 7.00201
#
# Compressibility (1/GPa) = 0.01942956
#
# Stress axis : x y z
#
# Youngs Moduli (GPa) = 61.01948 90.51605 57.65075
#
# Poissons Ratio (x) = 0.49784 0.20879
# Poissons Ratio (y) = 0.33561 0.20492
# Poissons Ratio (z) = 0.22099 0.32174
#
# Static dielectric constant tensor:
#      x y z
#    x 1.701260 0.000000 0.030710 
#    y 0.000000 1.596240 0.000000 
#    z 0.030710 0.000000 1.679180 
# 
# From -- ./inp_files/16723.got.cif
#   From: 2010.05.17/outbox.cif.g08.bks.cpg/sg13_9_cif.got.tgz:16723.got - 2010.06.03 16:44:36.
