data_PCOD9233815
_publ_section_title
;
Structure prediction by ZEFSAII (Michael W. Deem and Ramdas Pophale) SiO2 
 PCOD9233815
Probable space group: P 2/C
;
_chemical_formula_sum "Si O2"
_cell_formula_units_Z 26
_cell_length_a 10.988270
_cell_length_b 6.565391
_cell_length_c 21.851430
_cell_angle_alpha 90.000000
_cell_angle_beta 128.608117
_cell_angle_gamma 90.000000
_cell_volume 1231.859048
_symmetry_space_group_name_H-M "P 2/C"
_symmetry_group_IT_number 13
_symmetry_cell_setting 'monoclinic'
loop_
_space_group_symop_operation_xyz
x,y,z
-x,y,1/2-z
-x,-y,-z
x,-y,1/2+z
loop_
_atom_site_type_symbol
_atom_site_label
_atom_site_fract_x
_atom_site_fract_y
_atom_site_fract_z
Si Si1 0.890143 0.934102 0.822151
Si Si2 0.433952 0.223491 0.488673
Si Si3 0.337492 0.423097 0.233994
Si Si4 0.869581 0.349522 0.041770
Si Si5 0.690809 0.525723 0.137848
Si Si6 0.000000 0.765771 0.250000
Si Si7 0.921928 0.693138 0.416095
O O1 0.893110 0.086267 0.880119
O O2 0.926386 0.082471 0.777106
O O3 0.735357 0.798016 0.773234
O O4 0.026476 0.770623 0.876396
O O5 0.304322 0.277331 0.499203
O O6 0.348932 0.301283 0.400135
O O7 0.584154 0.344997 0.558899
O O8 0.500000 0.000000 0.500000
O O9 0.500000 0.409622 0.250000
O O10 0.351503 0.535529 0.303854
O O11 0.213536 0.544398 0.152628
O O12 0.917449 0.588582 0.057495
O O13 0.918156 0.295370 0.987870
O O14 0.863545 0.614156 0.185597
#
# Coordination Sequence:
#
# PCOD9233815 Si02
#       7
#     4   4   4   4   4   2   4
#     4  11  24  39  67 103 128 182 227 279 337 396
#     4  11  25  43  65 100 133 181 221 279 347 402
#     4  11  25  42  64  99 135 177 227 277 338 404
#     4  10  22  40  69  94 137 173 225 278 328 416
#     4  11  26  44  67  97 137 177 227 282 340 402
#     4  12  24  46  72  98 140 176 238 286 336 408
#     4  10  21  43  65  97 133 179 225 273 343 388
#
# _framework density 21.106311999999999
#
# number of rings (size 3 to 8) (size 9 to 14) (size 15 to 20)
#    0.000    1.231    1.538    3.231    6.462    3.077 
#    0.000    0.000    0.000    0.000    0.000    0.000 
#    0.000    0.000    0.000    0.000    0.000    0.000 
#
# Total GULP energy -145141.021288 kJ/mol
# GULP energy per Si atom -5582.346973 kJ/mol
# Density = 2.105827 g / cm^3
# Si number density = 21.106312 Si / 1000 Ang^3
#
#
#
# Elastic Constant Matrix: (Units=GPa)
#
#
# Indices 1 2 3 4 5 6 
#
# 1 111.5484 25.6838 38.6040 0.0000 11.6413 0.0000
# 2 25.6838 80.9912 33.5816 0.0000 13.4114 0.0000
# 3 38.6040 33.5816 74.1694 0.0000 -0.0827 0.0000
# 4 0.0000 0.0000 0.0000 37.6328 0.0000 0.8673
# 5 11.6413 13.4114 -0.0827 0.0000 42.4392 0.0000
# 6 0.0000 0.0000 0.0000 0.8673 0.0000 29.2766
#
#
#
# Elastic Compliance Matrix: (Units=1/GPa)
#
#
# Indices 1 2 3 4 5 6 
#
# 1 0.011375 -0.000832 -0.005547 0.000000 -0.002868 0.000000
# 2 -0.000832 0.016315 -0.006959 0.000000 -0.004941 0.000000
# 3 -0.005547 -0.006959 0.019525 0.000000 0.003759 0.000000
# 4 0.000000 0.000000 0.000000 0.026591 0.000000 -0.000788
# 5 -0.002868 -0.004941 0.003759 0.000000 0.025919 0.000000
# 6 0.000000 0.000000 0.000000 -0.000788 0.000000 0.034180
#
#
# Mechanical properties :
#
#
# Convention : Reuss Voigt Hill
#
# Bulk Modulus (GPa) = 48.69048 51.38309 50.03678
# Shear Modulus (GPa) = 29.86373 33.12569 31.49471
#
# Velocity S-wave (km/s) = 3.76562 3.96595 3.86708
# Velocity P-wave (km/s) = 6.48273 6.73568 6.61042
#
# Compressibility (1/GPa) = 0.02053790
#
# Stress axis : x y z
#
# Youngs Moduli (GPa) = 87.90912 61.29484 51.21694
#
# Poissons Ratio (x) = 0.05102 0.28410
# Poissons Ratio (y) = 0.07318 0.35642
# Poissons Ratio (z) = 0.48763 0.42655
#
# Static dielectric constant tensor:
#      x y z
#    x 1.742150 0.000000 -0.022290 
#    y 0.000000 1.792160 0.000000 
#    z -0.022290 0.000000 1.741790 
# 
# From -- ./inp_files/85888.got.cif
#   From: 2010.05.17/outbox.cif.g08.bks.cpg/sg13_43_cif.got.tgz:85888.got - 2010.06.03 16:44:36.
