data_PCOD9233740
_publ_section_title
;
Structure prediction by ZEFSAII (Michael W. Deem and Ramdas Pophale) SiO2 
 PCOD9233740
Probable space group: P 2/C
;
_chemical_formula_sum "Si O2"
_cell_formula_units_Z 16
_cell_length_a 9.315473
_cell_length_b 11.070036
_cell_length_c 8.283432
_cell_angle_alpha 90.000000
_cell_angle_beta 49.329148
_cell_angle_gamma 90.000000
_cell_volume 647.888634
_symmetry_space_group_name_H-M "P 2/C"
_symmetry_group_IT_number 13
_symmetry_cell_setting 'monoclinic'
loop_
_space_group_symop_operation_xyz
x,y,z
-x,y,1/2-z
-x,-y,-z
x,-y,1/2+z
loop_
_atom_site_type_symbol
_atom_site_label
_atom_site_fract_x
_atom_site_fract_y
_atom_site_fract_z
Si Si1 0.562119 0.362387 0.942960
Si Si2 0.198342 0.721561 0.537989
Si Si3 0.703060 0.957106 0.184914
Si Si4 0.216190 0.179587 0.550256
O O1 0.713531 0.343796 0.685635
O O2 0.664796 0.301503 0.020471
O O3 0.500000 0.500000 0.000000
O O4 0.370352 0.291784 0.037294
O O5 0.170320 0.859980 0.503750
O O6 0.000000 0.672906 0.750000
O O7 0.500000 0.944451 0.250000
O O8 0.704548 0.907933 0.365163
O O9 0.767848 0.094381 0.116404
O O10 0.000000 0.205482 0.750000
#
# Coordination Sequence:
#
# PCOD9233740 Si02
#       4
#     4   4   4   4
#     4  10  23  45  64  96 139 184 242 292 340 416
#     4  10  21  42  69  92 132 183 229 291 362 407
#     4  11  21  42  67  99 146 184 224 290 361 419
#     4  11  23  41  67 106 141 182 233 288 355 424
#
# _framework density 24.695601
#
# number of rings (size 3 to 8) (size 9 to 14) (size 15 to 20)
#    0.000    1.500    5.000    2.250    0.000    4.000 
#    4.500    0.000    0.000    0.000    0.000    0.000 
#    0.000    0.000    0.000    0.000    0.000    0.000 
#
# Total GULP energy -89580.717543 kJ/mol
# GULP energy per Si atom -5598.794846 kJ/mol
# Density = 2.463939 g / cm^3
# Si number density = 24.695601 Si / 1000 Ang^3
#
#
#
# Elastic Constant Matrix: (Units=GPa)
#
#
# Indices 1 2 3 4 5 6 
#
# 1 100.1351 26.5529 38.1052 0.0000 -26.2791 0.0000
# 2 26.5529 177.0322 50.6286 0.0000 -2.1871 0.0000
# 3 38.1052 50.6286 148.4897 0.0000 -36.5424 0.0000
# 4 0.0000 0.0000 0.0000 17.5889 0.0000 9.1035
# 5 -26.2791 -2.1871 -36.5424 0.0000 35.6858 0.0000
# 6 0.0000 0.0000 0.0000 9.1035 0.0000 9.7871
#
#
#
# Elastic Compliance Matrix: (Units=1/GPa)
#
#
# Indices 1 2 3 4 5 6 
#
# 1 0.012975 -0.001671 -0.000580 0.000000 0.008859 0.000000
# 2 -0.001671 0.006633 -0.002721 0.000000 -0.003611 0.000000
# 3 -0.000580 -0.002721 0.010247 0.000000 0.009900 0.000000
# 4 0.000000 0.000000 0.000000 0.109633 0.000000 -0.101975
# 5 0.008859 -0.003611 0.009900 0.000000 0.044462 0.000000
# 6 0.000000 0.000000 0.000000 -0.101975 0.000000 0.197027
#
#
# Mechanical properties :
#
#
# Convention : Reuss Voigt Hill
#
# Bulk Modulus (GPa) = 50.22276 72.91449 61.56863
# Shear Modulus (GPa) = 12.57675 33.30371 22.94023
#
# Velocity S-wave (km/s) = 2.25915 3.67627 3.05112
# Velocity P-wave (km/s) = 5.21401 6.89995 6.11536
#
# Compressibility (1/GPa) = 0.01991129
#
# Stress axis : x y z
#
# Youngs Moduli (GPa) = 77.07081 150.76263 97.58623
#
# Poissons Ratio (x) = 0.25190 0.05659
# Poissons Ratio (y) = 0.12877 0.26556
# Poissons Ratio (z) = 0.04469 0.41027
#
# Static dielectric constant tensor:
#      x y z
#    x 1.977670 0.000000 0.089310 
#    y 0.000000 1.962710 0.000000 
#    z 0.089310 0.000000 2.033160 
# 
# From -- ./inp_files/11504.got.cif
#   From: 2010.05.17/outbox.cif.g08.bks.cpg/sg13_6_cif.got.tgz:11504.got - 2010.06.03 16:44:36.
