data_PCOD9233582
_publ_section_title
;
Structure prediction by ZEFSAII (Michael W. Deem and Ramdas Pophale) SiO2 
 PCOD9233582
Probable space group: P 2/C
;
_chemical_formula_sum "Si O2"
_cell_formula_units_Z 20
_cell_length_a 9.931930
_cell_length_b 11.565230
_cell_length_c 9.682482
_cell_angle_alpha 90.000000
_cell_angle_beta 53.771490
_cell_angle_gamma 90.000000
_cell_volume 897.157212
_symmetry_space_group_name_H-M "P 2/C"
_symmetry_group_IT_number 13
_symmetry_cell_setting 'monoclinic'
loop_
_space_group_symop_operation_xyz
x,y,z
-x,y,1/2-z
-x,-y,-z
x,-y,1/2+z
loop_
_atom_site_type_symbol
_atom_site_label
_atom_site_fract_x
_atom_site_fract_y
_atom_site_fract_z
Si Si1 0.160885 0.200634 0.054910
Si Si2 0.631720 0.573324 0.509294
Si Si3 0.469724 0.815648 0.569810
Si Si4 0.659994 0.041465 0.741654
Si Si5 0.827103 0.435708 0.619629
O O1 0.327562 0.219981 0.045684
O O2 0.000000 0.190115 0.250000
O O3 0.187295 0.090089 0.938683
O O4 0.153601 0.311399 0.961835
O O5 0.500000 0.500000 0.500000
O O6 0.555735 0.700988 0.574346
O O7 0.692747 0.509643 0.610877
O O8 0.781271 0.579051 0.307373
O O9 0.618219 0.894230 0.411353
O O10 0.362149 0.904627 0.727968
O O11 0.500000 0.078127 0.750000
O O12 0.000000 0.500000 0.500000
#
# Coordination Sequence:
#
# PCOD9233582 Si02
#       5
#     4   4   4   4   4
#     4  11  22  41  67  97 142 189 230 297 369 421
#     4  12  24  42  73 104 139 184 242 289 353 427
#     4  10  21  41  68  98 129 185 237 294 348 419
#     4   9  20  40  69  94 131 175 241 298 344 420
#     4  12  26  45  67 107 148 192 229 294 366 434
#
# _framework density 22.292636000000002
#
# number of rings (size 3 to 8) (size 9 to 14) (size 15 to 20)
#    0.000    1.200    4.000    2.400    0.000    2.400 
#    0.000    0.000    4.400    0.000    0.000    0.000 
#    0.000    0.000    0.000    0.000    0.000    0.000 
#
# Total GULP energy -111715.563752 kJ/mol
# GULP energy per Si atom -5585.778188 kJ/mol
# Density = 2.224190 g / cm^3
# Si number density = 22.292636 Si / 1000 Ang^3
#
#
#
# Elastic Constant Matrix: (Units=GPa)
#
#
# Indices 1 2 3 4 5 6 
#
# 1 52.2027 7.0077 -0.5973 0.0000 3.9626 0.0000
# 2 7.0077 138.4038 38.0648 0.0000 9.4751 0.0000
# 3 -0.5973 38.0648 119.3796 0.0000 15.2696 0.0000
# 4 0.0000 0.0000 0.0000 32.5326 0.0000 0.8185
# 5 3.9626 9.4751 15.2696 0.0000 30.5251 0.0000
# 6 0.0000 0.0000 0.0000 0.8185 0.0000 36.6394
#
#
#
# Elastic Compliance Matrix: (Units=1/GPa)
#
#
# Indices 1 2 3 4 5 6 
#
# 1 0.019498 -0.001017 0.000753 0.000000 -0.002592 0.000000
# 2 -0.001017 0.008020 -0.002415 0.000000 -0.001149 0.000000
# 3 0.000753 -0.002415 0.009687 0.000000 -0.004194 0.000000
# 4 0.000000 0.000000 0.000000 0.030756 0.000000 -0.000687
# 5 -0.002592 -0.001149 -0.004194 0.000000 0.035551 0.000000
# 6 0.000000 0.000000 0.000000 -0.000687 0.000000 0.027308
#
#
# Mechanical properties :
#
#
# Convention : Reuss Voigt Hill
#
# Bulk Modulus (GPa) = 31.40009 44.32628 37.86319
# Shear Modulus (GPa) = 34.06161 37.64016 35.85088
#
# Velocity S-wave (km/s) = 3.91312 4.11354 4.01458
# Velocity P-wave (km/s) = 5.87645 6.51833 6.20569
#
# Compressibility (1/GPa) = 0.03184704
#
# Stress axis : x y z
#
# Youngs Moduli (GPa) = 51.28728 124.69380 103.23193
#
# Poissons Ratio (x) = 0.12681 -0.07778
# Poissons Ratio (y) = 0.05216 0.24933
# Poissons Ratio (z) = -0.03864 0.30116
#
# Static dielectric constant tensor:
#      x y z
#    x 1.944600 0.000000 0.151580 
#    y 0.000000 1.560170 0.000000 
#    z 0.151580 0.000000 2.012750 
# 
# From -- ./inp_files/33599.got.cif
#   From: 2010.05.17/outbox.cif.g08.bks.cpg/sg13_17_cif.got.tgz:33599.got - 2010.06.03 16:44:36.
