data_PCOD9233565
_publ_section_title
;
Structure prediction by ZEFSAII (Michael W. Deem and Ramdas Pophale) SiO2 
 PCOD9233565
Probable space group: P 2/C
;
_chemical_formula_sum "Si O2"
_cell_formula_units_Z 30
_cell_length_a 17.126379
_cell_length_b 6.334962
_cell_length_c 13.577790
_cell_angle_alpha 90.000000
_cell_angle_beta 75.056895
_cell_angle_gamma 90.000000
_cell_volume 1423.304281
_symmetry_space_group_name_H-M "P 2/C"
_symmetry_group_IT_number 13
_symmetry_cell_setting 'monoclinic'
loop_
_space_group_symop_operation_xyz
x,y,z
-x,y,1/2-z
-x,-y,-z
x,-y,1/2+z
loop_
_atom_site_type_symbol
_atom_site_label
_atom_site_fract_x
_atom_site_fract_y
_atom_site_fract_z
Si Si1 0.294080 0.088748 0.205140
Si Si2 0.824457 0.390244 0.013563
Si Si3 0.000000 0.055019 0.750000
Si Si4 0.592634 0.636419 0.690834
Si Si5 0.872573 0.262269 0.209022
Si Si6 0.714178 0.259602 0.642487
Si Si7 0.675597 0.112037 0.004841
Si Si8 0.012791 0.563978 0.109826
O O1 0.358365 0.209654 0.251723
O O2 0.218035 0.248181 0.217524
O O3 0.261334 0.881799 0.272755
O O4 0.336618 0.991973 0.096390
O O5 0.857886 0.245586 0.094132
O O6 0.784123 0.585849 0.083243
O O7 0.756005 0.256859 0.981087
O O8 0.891273 0.480366 0.917404
O O9 0.010613 0.198128 0.649576
O O10 0.077790 0.916927 0.750225
O O11 0.500000 0.623924 0.750000
O O12 0.637435 0.411579 0.684044
O O13 0.608160 0.740587 0.578072
O O14 0.938381 0.452444 0.189938
O O15 0.692159 0.088261 0.568283
O O16 0.000000 0.500000 0.000000
#
# Coordination Sequence:
#
# PCOD9233565 Si02
#       8
#     4   4   2   4   4   4   4   4
#     4  11  23  42  71  93 131 173 222 268 326 395
#     4  10  21  43  63  91 131 174 220 273 327 393
#     4  12  26  40  60  94 130 170 222 280 328 386
#     4  10  23  44  66 101 138 167 213 269 332 405
#     4  11  23  42  62  94 127 173 221 271 331 380
#     4  10  21  41  67  93 130 175 211 269 334 393
#     4  10  22  41  68 103 126 176 220 268 325 400
#     4  10  25  40  61  87 130 172 222 277 328 384
#
# _framework density 21.077711999999998
#
# number of rings (size 3 to 8) (size 9 to 14) (size 15 to 20)
#    0.000    1.600    4.000    1.200    3.733   10.133 
#    2.400    1.333    0.000    0.000    0.000    0.000 
#    0.000    0.000    0.000    0.000    0.000    0.000 
#
# Total GULP energy -167197.699936 kJ/mol
# GULP energy per Si atom -5573.256665 kJ/mol
# Density = 2.102974 g / cm^3
# Si number density = 21.077712 Si / 1000 Ang^3
#
#
#
# Elastic Constant Matrix: (Units=GPa)
#
#
# Indices 1 2 3 4 5 6 
#
# 1 94.9299 28.7191 20.3231 0.0000 -43.6133 0.0000
# 2 28.7191 85.7068 24.9355 0.0000 -9.4377 0.0000
# 3 20.3231 24.9355 69.7149 0.0000 -15.9247 0.0000
# 4 0.0000 0.0000 0.0000 10.0942 0.0000 1.0973
# 5 -43.6133 -9.4377 -15.9247 0.0000 38.2015 0.0000
# 6 0.0000 0.0000 0.0000 1.0973 0.0000 10.3397
#
#
#
# Elastic Compliance Matrix: (Units=1/GPa)
#
#
# Indices 1 2 3 4 5 6 
#
# 1 0.024285 -0.005478 0.000999 0.000000 0.026788 0.000000
# 2 -0.005478 0.014328 -0.004584 0.000000 -0.004626 0.000000
# 3 0.000999 -0.004584 0.017346 0.000000 0.007239 0.000000
# 4 0.000000 0.000000 0.000000 0.100223 0.000000 -0.010636
# 5 0.026788 -0.004626 0.007239 0.000000 0.058635 0.000000
# 6 0.000000 0.000000 0.000000 -0.010636 0.000000 0.097843
#
#
# Mechanical properties :
#
#
# Convention : Reuss Voigt Hill
#
# Bulk Modulus (GPa) = 26.43295 44.25634 35.34465
# Shear Modulus (GPa) = 14.56038 23.48533 19.02285
#
# Velocity S-wave (km/s) = 2.63115 3.34162 3.00744
# Velocity P-wave (km/s) = 4.66889 5.99424 5.37259
#
# Compressibility (1/GPa) = 0.03783156
#
# Stress axis : x y z
#
# Youngs Moduli (GPa) = 41.17833 69.79441 57.64951
#
# Poissons Ratio (x) = 0.38236 -0.05760
# Poissons Ratio (y) = 0.22559 0.26429
# Poissons Ratio (z) = -0.04114 0.31996
#
# Static dielectric constant tensor:
#      x y z
#    x 1.772410 0.000000 0.011580 
#    y 0.000000 1.787540 0.000000 
#    z 0.011580 0.000000 1.836860 
# 
# From -- ./inp_files/54636.got.cif
#   From: 2010.05.17/outbox.cif.g08.bks.cpg/sg13_28_cif.got.tgz:54636.got - 2010.06.03 16:44:36.
