data_PCOD9233840
_publ_section_title
;
Structure prediction by ZEFSAII (Michael W. Deem and Ramdas Pophale) SiO2 
 PCOD9233840
Probable space group: P 2/C
;
_chemical_formula_sum "Si O2"
_cell_formula_units_Z 28
_cell_length_a 11.818071
_cell_length_b 13.620357
_cell_length_c 8.500515
_cell_angle_alpha 90.000000
_cell_angle_beta 60.325773
_cell_angle_gamma 90.000000
_cell_volume 1188.850586
_symmetry_space_group_name_H-M "P 2/C"
_symmetry_group_IT_number 13
_symmetry_cell_setting 'monoclinic'
loop_
_space_group_symop_operation_xyz
x,y,z
-x,y,1/2-z
-x,-y,-z
x,-y,1/2+z
loop_
_atom_site_type_symbol
_atom_site_label
_atom_site_fract_x
_atom_site_fract_y
_atom_site_fract_z
Si Si1 0.087078 0.298662 0.434966
Si Si2 0.500000 0.407911 0.250000
Si Si3 0.497007 0.891900 0.063282
Si Si4 0.000000 0.426292 0.250000
Si Si5 0.229294 0.576973 0.098562
Si Si6 0.284304 0.246440 0.794311
Si Si7 0.648806 0.720655 0.908823
Si Si8 0.964301 0.891144 0.960676
O O1 0.143881 0.358949 0.537260
O O2 0.202584 0.294939 0.231446
O O3 0.976195 0.358061 0.418432
O O4 0.050132 0.188101 0.497264
O O5 0.368519 0.454639 0.422472
O O6 0.436947 0.346114 0.148374
O O7 0.500000 0.898298 0.250000
O O8 0.376439 0.818925 0.117397
O O9 0.614958 0.834024 0.902525
O O10 0.500000 0.000000 0.000000
O O11 0.871818 0.489838 0.296599
O O12 0.252957 0.654420 0.221135
O O13 0.360144 0.285023 0.897092
O O14 0.176397 0.163765 0.920120
O O15 0.000000 0.887929 0.750000
O O16 0.000000 0.000000 0.000000
#
# Coordination Sequence:
#
# PCOD9233840 Si02
#       8
#     4   2   4   2   4   4   4   4
#     4  11  24  46  72 102 148 189 245 309 362 451
#     4  10  22  44  72 110 148 190 242 320 370 450
#     4  10  23  36  62  96 136 189 247 291 365 440
#     4  12  24  48  78 106 142 198 256 308 378 464
#     4  11  25  43  78 109 142 196 255 306 385 440
#     4  11  23  44  69 105 148 195 250 306 372 453
#     4  10  21  43  67  98 147 191 229 308 375 431
#     4  12  27  45  69 107 151 195 243 302 376 437
#
# _framework density 23.552160000000001
#
# number of rings (size 3 to 8) (size 9 to 14) (size 15 to 20)
#    0.000    1.143    3.571    1.286    5.000    1.143 
#    0.000    2.857    7.857    0.000    0.000    0.000 
#    0.000    0.000    0.000    0.000    0.000    0.000 
#
# Total GULP energy -156209.986975 kJ/mol
# GULP energy per Si atom -5578.928106 kJ/mol
# Density = 2.349855 g / cm^3
# Si number density = 23.552160 Si / 1000 Ang^3
#
#
#
# Elastic Constant Matrix: (Units=GPa)
#
#
# Indices 1 2 3 4 5 6 
#
# 1 91.2071 39.1580 26.0758 0.0000 -2.6715 0.0000
# 2 39.1580 155.6380 40.7690 0.0000 -12.6256 0.0000
# 3 26.0758 40.7690 87.4168 0.0000 -17.1476 0.0000
# 4 0.0000 0.0000 0.0000 17.9127 0.0000 7.2381
# 5 -2.6715 -12.6256 -17.1476 0.0000 39.7289 0.0000
# 6 0.0000 0.0000 0.0000 7.2381 0.0000 34.5157
#
#
#
# Elastic Compliance Matrix: (Units=1/GPa)
#
#
# Indices 1 2 3 4 5 6 
#
# 1 0.012856 -0.002581 -0.002865 0.000000 -0.001192 0.000000
# 2 -0.002581 0.007869 -0.002670 0.000000 0.001175 0.000000
# 3 -0.002865 -0.002670 0.014568 0.000000 0.005247 0.000000
# 4 0.000000 0.000000 0.000000 0.060995 0.000000 -0.012791
# 5 -0.001192 0.001175 0.005247 0.000000 0.027728 0.000000
# 6 0.000000 0.000000 0.000000 -0.012791 0.000000 0.031655
#
#
# Mechanical properties :
#
#
# Convention : Reuss Voigt Hill
#
# Bulk Modulus (GPa) = 52.45899 60.69639 56.57769
# Shear Modulus (GPa) = 28.04938 33.64874 30.84906
#
# Velocity S-wave (km/s) = 3.45475 3.78390 3.62307
# Velocity P-wave (km/s) = 6.18350 6.70206 6.44799
#
# Compressibility (1/GPa) = 0.01906251
#
# Stress axis : x y z
#
# Youngs Moduli (GPa) = 77.78280 127.07920 68.64168
#
# Poissons Ratio (x) = 0.32797 0.19667
# Poissons Ratio (y) = 0.20074 0.18325
# Poissons Ratio (z) = 0.22287 0.33926
#
# Static dielectric constant tensor:
#      x y z
#    x 2.034990 0.000000 -0.064150 
#    y 0.000000 1.870170 0.000000 
#    z -0.064150 0.000000 1.964130 
# 
# From -- ./inp_files/16698.got.cif
#   From: 2010.05.17/outbox.cif.g08.bks.cpg/sg13_9_cif.got.tgz:16698.got - 2010.06.03 16:44:36.
