data_PCOD9233610
_publ_section_title
;
Structure prediction by ZEFSAII (Michael W. Deem and Ramdas Pophale) SiO2 
 PCOD9233610
Probable space group: P 2/C
;
_chemical_formula_sum "Si O2"
_cell_formula_units_Z 22
_cell_length_a 7.690902
_cell_length_b 25.847393
_cell_length_c 5.499281
_cell_angle_alpha 90.000000
_cell_angle_beta 118.177146
_cell_angle_gamma 90.000000
_cell_volume 963.647607
_symmetry_space_group_name_H-M "P 2/C"
_symmetry_group_IT_number 13
_symmetry_cell_setting 'monoclinic'
loop_
_space_group_symop_operation_xyz
x,y,z
-x,y,1/2-z
-x,-y,-z
x,-y,1/2+z
loop_
_atom_site_type_symbol
_atom_site_label
_atom_site_fract_x
_atom_site_fract_y
_atom_site_fract_z
Si Si1 0.218377 0.517334 0.943315
Si Si2 0.764676 0.972075 0.063892
Si Si3 0.500000 0.682991 0.750000
Si Si4 0.500000 0.813429 0.250000
Si Si5 0.721865 0.364753 0.004032
Si Si6 0.500000 0.878115 0.750000
Si Si7 0.808635 0.735460 0.288289
O O1 0.311281 0.508841 0.740379
O O2 0.000000 0.494349 0.750000
O O3 0.200174 0.578214 0.983845
O O4 0.000000 0.970392 0.250000
O O5 0.703976 0.991360 0.294180
O O6 0.680791 0.916777 0.928211
O O7 0.671808 0.647979 0.748857
O O8 0.381294 0.720228 0.496613
O O9 0.517439 0.845211 0.513706
O O10 0.707216 0.780798 0.376629
O O11 0.500000 0.364346 0.750000
O O12 0.839658 0.317455 0.962468
O O13 0.000000 0.747467 0.250000
#
# Coordination Sequence:
#
# PCOD9233610 Si02
#       7
#     4   4   2   2   4   2   4
#     4  10  24  41  60  93 133 166 212 271 345 434
#     4  10  21  41  71 108 144 188 249 293 336 416
#     4  10  21  44  64 101 129 158 238 295 334 422
#     4  12  26  49  66 107 149 185 250 296 348 440
#     4  10  23  41  67  94 126 169 227 290 337 426
#     4  12  25  43  72  98 156 197 226 301 366 406
#     4  11  25  45  71  96 133 186 236 298 356 410
#
# _framework density 22.829926
#
# number of rings (size 3 to 8) (size 9 to 14) (size 15 to 20)
#    0.000    1.455    2.727    2.182    7.636    2.182 
#    0.000    3.636    0.000    0.000    0.000    0.000 
#    0.000    0.000    0.000    0.000    0.000    0.000 
#
# Total GULP energy -122728.499683 kJ/mol
# GULP energy per Si atom -5578.568167 kJ/mol
# Density = 2.277796 g / cm^3
# Si number density = 22.829926 Si / 1000 Ang^3
#
#
#
# Elastic Constant Matrix: (Units=GPa)
#
#
# Indices 1 2 3 4 5 6 
#
# 1 140.3671 47.6003 39.5466 0.0000 -15.8576 0.0000
# 2 47.6003 129.9812 57.4248 0.0000 -24.0536 0.0000
# 3 39.5466 57.4248 158.5323 0.0000 -12.6285 0.0000
# 4 0.0000 0.0000 0.0000 44.7233 0.0000 -5.3521
# 5 -15.8576 -24.0536 -12.6285 0.0000 36.9890 0.0000
# 6 0.0000 0.0000 0.0000 -5.3521 0.0000 28.0850
#
#
#
# Elastic Compliance Matrix: (Units=1/GPa)
#
#
# Indices 1 2 3 4 5 6 
#
# 1 0.008407 -0.002250 -0.001143 0.000000 0.001751 0.000000
# 2 -0.002250 0.010740 -0.002929 0.000000 0.005020 0.000000
# 3 -0.001143 -0.002929 0.007672 0.000000 0.000224 0.000000
# 4 0.000000 0.000000 0.000000 0.022882 0.000000 0.004361
# 5 0.001751 0.005020 0.000224 0.000000 0.031127 0.000000
# 6 0.000000 0.000000 0.000000 0.004361 0.000000 0.036437
#
#
# Mechanical properties :
#
#
# Convention : Reuss Voigt Hill
#
# Bulk Modulus (GPa) = 70.54482 79.78046 75.16264
# Shear Modulus (GPa) = 37.13783 40.91337 39.02560
#
# Velocity S-wave (km/s) = 4.03763 4.23791 4.13898
# Velocity P-wave (km/s) = 7.25974 7.67905 7.47234
#
# Compressibility (1/GPa) = 0.01417539
#
# Stress axis : x y z
#
# Youngs Moduli (GPa) = 118.95036 93.10607 130.34576
#
# Poissons Ratio (x) = 0.20947 0.14895
# Poissons Ratio (y) = 0.26762 0.38183
# Poissons Ratio (z) = 0.13593 0.27274
#
# Static dielectric constant tensor:
#      x y z
#    x 1.956520 0.000000 -0.105310 
#    y 0.000000 1.870990 0.000000 
#    z -0.105310 0.000000 2.103990 
# 
# From -- ./inp_files/2463.got.cif
#   From: 2010.05.17/outbox.cif.g08.bks.cpg/sg13_2_cif.got.tgz:2463.got - 2010.06.03 16:44:36.
