data_PCOD9233286
_publ_section_title
;
Structure prediction by ZEFSAII (Michael W. Deem and Ramdas Pophale) SiO2 
 PCOD9233286
Probable space group: P 2/C
;
_chemical_formula_sum "Si O2"
_cell_formula_units_Z 30
_cell_length_a 14.447927
_cell_length_b 8.764168
_cell_length_c 12.731139
_cell_angle_alpha 90.000000
_cell_angle_beta 79.405053
_cell_angle_gamma 90.000000
_cell_volume 1584.585262
_symmetry_space_group_name_H-M "P 2/C"
_symmetry_group_IT_number 13
_symmetry_cell_setting 'monoclinic'
loop_
_space_group_symop_operation_xyz
x,y,z
-x,y,1/2-z
-x,-y,-z
x,-y,1/2+z
loop_
_atom_site_type_symbol
_atom_site_label
_atom_site_fract_x
_atom_site_fract_y
_atom_site_fract_z
Si Si1 0.500000 0.409503 0.250000
Si Si2 0.014647 0.749362 0.538691
Si Si3 0.554994 0.854306 0.127539
Si Si4 0.063683 0.048473 0.636433
Si Si5 0.146308 0.470230 0.454165
Si Si6 0.318169 0.387704 0.800824
Si Si7 0.767303 0.736180 0.395337
Si Si8 0.426739 0.198701 0.453378
O O1 0.590508 0.515263 0.252460
O O2 0.471618 0.306807 0.355648
O O3 0.980476 0.855053 0.449871
O O4 0.923503 0.648645 0.589772
O O5 0.090781 0.627192 0.484075
O O6 0.056042 0.869024 0.612918
O O7 0.500000 0.855288 0.250000
O O8 0.643182 0.743104 0.128689
O O9 0.577875 0.027523 0.091528
O O10 0.490464 0.796013 0.045164
O O11 0.168953 0.112606 0.627204
O O12 0.000000 0.082357 0.750000
O O13 0.241440 0.506331 0.372763
O O14 0.170270 0.393603 0.561298
O O15 0.269949 0.312553 0.710044
O O16 0.677860 0.758374 0.489259
#
# Coordination Sequence:
#
# PCOD9233286 Si02
#       8
#     2   4   4   4   4   4   4   4
#     4  12  24  40  68  92 136 172 214 272 322 374
#     4   9  21  42  62  88 125 162 207 258 325 375
#     4  11  23  43  64  86 131 172 212 260 325 369
#     4  10  21  40  64  90 121 165 204 263 315 382
#     4  10  22  40  62  90 125 164 206 264 317 387
#     4  12  24  39  63  97 125 173 208 267 320 383
#     4  11  23  40  61  94 127 159 217 259 318 385
#     4  11  24  43  62  93 127 170 218 268 312 387
#
# _framework density 18.932397999999999
#
# number of rings (size 3 to 8) (size 9 to 14) (size 15 to 20)
#    0.000    1.333    4.000    0.800    3.733    2.133 
#    2.400    5.333    0.000    0.000    0.000    0.000 
#    0.000    0.000    0.000    0.000    0.000    0.000 
#
# Total GULP energy -167511.051076 kJ/mol
# GULP energy per Si atom -5583.701703 kJ/mol
# Density = 1.888931 g / cm^3
# Si number density = 18.932398 Si / 1000 Ang^3
#
#
#
# Elastic Constant Matrix: (Units=GPa)
#
#
# Indices 1 2 3 4 5 6 
#
# 1 116.9809 72.3123 43.7551 0.0000 -5.3314 0.0000
# 2 72.3123 125.0688 43.5510 0.0000 4.2925 0.0000
# 3 43.7551 43.5510 88.1150 0.0000 -1.1639 0.0000
# 4 0.0000 0.0000 0.0000 13.2275 0.0000 -12.9742
# 5 -5.3314 4.2925 -1.1639 0.0000 26.9820 0.0000
# 6 0.0000 0.0000 0.0000 -12.9742 0.0000 -0.3735
#
#
#
# Elastic Compliance Matrix: (Units=1/GPa)
#
#
# Indices 1 2 3 4 5 6 
#
# 1 0.014591 -0.007325 -0.003573 0.000000 0.003894 0.000000
# 2 -0.007325 0.013418 -0.003043 0.000000 -0.003713 0.000000
# 3 -0.003573 -0.003043 0.014633 0.000000 0.000409 0.000000
# 4 0.000000 0.000000 0.000000 0.002156 0.000000 -0.074879
# 5 0.003894 -0.003713 0.000409 0.000000 0.038440 0.000000
# 6 0.000000 0.000000 0.000000 -0.074879 0.000000 -0.076341
#
#
# Mechanical properties :
#
#
# Convention : Reuss Voigt Hill
#
# Bulk Modulus (GPa) = 67.76227 72.15575 69.95901
# Shear Modulus (GPa) = 125.94607 19.33695 72.64151
#
# Velocity S-wave (km/s) = 8.16508 3.19935 6.20098
# Velocity P-wave (km/s) = 11.16964 7.20020 9.39690
#
# Compressibility (1/GPa) = 0.01475748
#
# Stress axis : x y z
#
# Youngs Moduli (GPa) = 68.53711 74.52535 68.33966
#
# Poissons Ratio (x) = 0.54593 0.24419
# Poissons Ratio (y) = 0.50206 0.20799
# Poissons Ratio (z) = 0.24490 0.22682
#
# Static dielectric constant tensor:
#      x y z
#    x 1.659730 0.000000 0.001670 
#    y 0.000000 1.657860 0.000000 
#    z 0.001670 0.000000 1.628690 
# 
# From -- ./inp_files/36401.got.cif
#   From: 2010.05.17/outbox.cif.g08.bks.cpg/sg13_19_cif.got.tgz:36401.got - 2010.06.03 16:44:36.
