data_PCOD9233519
_publ_section_title
;
Structure prediction by ZEFSAII (Michael W. Deem and Ramdas Pophale) SiO2 
 PCOD9233519
Probable space group: P 2/C
;
_chemical_formula_sum "Si O2"
_cell_formula_units_Z 18
_cell_length_a 24.011367
_cell_length_b 5.385255
_cell_length_c 12.084796
_cell_angle_alpha 90.000000
_cell_angle_beta 27.953178
_cell_angle_gamma 90.000000
_cell_volume 732.493265
_symmetry_space_group_name_H-M "P 2/C"
_symmetry_group_IT_number 13
_symmetry_cell_setting 'monoclinic'
loop_
_space_group_symop_operation_xyz
x,y,z
-x,y,1/2-z
-x,-y,-z
x,-y,1/2+z
loop_
_atom_site_type_symbol
_atom_site_label
_atom_site_fract_x
_atom_site_fract_y
_atom_site_fract_z
Si Si1 0.430260 0.743593 0.657418
Si Si2 0.272076 0.213329 0.249532
Si Si3 0.910449 0.108953 0.325701
Si Si4 0.500000 0.035572 0.250000
Si Si5 0.084580 0.694828 0.912355
O O1 0.500000 0.500000 0.500000
O O2 0.305096 0.704073 0.815538
O O3 0.432030 0.784476 0.784314
O O4 0.500000 0.000000 0.500000
O O5 0.196438 0.967412 0.407687
O O6 0.188693 0.371665 0.315324
O O7 0.397087 0.142015 0.977345
O O8 0.000000 0.262959 0.250000
O O9 0.857850 0.192045 0.300338
O O10 0.996079 0.882367 0.133151
O O11 0.000000 0.500000 0.000000
#
# Coordination Sequence:
#
# PCOD9233519 Si02
#       5
#     4   4   4   2   4
#     4  10  23  45  68 101 140 184 237 287 353 427
#     4  10  21  43  68  99 141 184 235 294 359 435
#     4   9  20  40  64  92 135 174 228 288 346 418
#     4  10  22  44  74 100 146 190 234 298 370 436
#     4  10  21  41  65  98 130 180 235 289 358 414
#
# _framework density 24.573606000000002
#
# number of rings (size 3 to 8) (size 9 to 14) (size 15 to 20)
#    0.000    2.222    0.000    1.333    0.000    6.222 
#   44.000    0.000    0.000    0.000    0.000    0.000 
#    0.000    0.000    0.000    0.000    0.000    0.000 
#
# Total GULP energy -100285.079113 kJ/mol
# GULP energy per Si atom -5571.393284 kJ/mol
# Density = 2.451767 g / cm^3
# Si number density = 24.573606 Si / 1000 Ang^3
#
#
#
# Elastic Constant Matrix: (Units=GPa)
#
#
# Indices 1 2 3 4 5 6 
#
# 1 255.7042 23.3933 8.7354 0.0000 -30.9513 0.0000
# 2 23.3933 64.8502 7.1994 0.0000 -3.6907 0.0000
# 3 8.7354 7.1994 105.0634 0.0000 -5.3645 0.0000
# 4 0.0000 0.0000 0.0000 26.5321 0.0000 -4.9932
# 5 -30.9513 -3.6907 -5.3645 0.0000 41.5191 0.0000
# 6 0.0000 0.0000 0.0000 -4.9932 0.0000 0.9944
#
#
#
# Elastic Compliance Matrix: (Units=1/GPa)
#
#
# Indices 1 2 3 4 5 6 
#
# 1 0.004426 -0.001404 -0.000110 0.000000 0.003160 0.000000
# 2 -0.001404 0.016049 -0.000970 0.000000 0.000254 0.000000
# 3 -0.000110 -0.000970 0.009649 0.000000 0.001078 0.000000
# 4 0.000000 0.000000 0.000000 0.685115 0.000000 3.440217
# 5 0.003160 0.000254 0.001078 0.000000 0.026603 0.000000
# 6 0.000000 0.000000 0.000000 3.440217 0.000000 18.280256
#
#
# Mechanical properties :
#
#
# Convention : Reuss Voigt Hill
#
# Bulk Modulus (GPa) = 39.75542 56.03044 47.89293
# Shear Modulus (GPa) = 0.26267 39.56176 19.91221
#
# Velocity S-wave (km/s) = 0.32730 4.01674 2.84968
# Velocity P-wave (km/s) = 4.04426 6.66055 5.50994
#
# Compressibility (1/GPa) = 0.02515381
#
# Stress axis : x y z
#
# Youngs Moduli (GPa) = 225.96267 62.30956 103.64027
#
# Poissons Ratio (x) = 0.08750 0.01144
# Poissons Ratio (y) = 0.31732 0.10053
# Poissons Ratio (z) = 0.02494 0.06044
#
# Static dielectric constant tensor:
#      x y z
#    x 2.089710 0.000000 0.186210 
#    y 0.000000 2.159240 0.000000 
#    z 0.186210 0.000000 1.844900 
# 
# From -- ./inp_files/31498.got.cif
#   From: 2010.05.17/outbox.cif.g08.bks.cpg/sg13_16_cif.got.tgz:31498.got - 2010.06.03 16:44:36.
