data_PCOD9233308
_publ_section_title
;
Structure prediction by ZEFSAII (Michael W. Deem and Ramdas Pophale) SiO2 
 PCOD9233308
Probable space group: P 2/C
;
_chemical_formula_sum "Si O2"
_cell_formula_units_Z 26
_cell_length_a 9.524779
_cell_length_b 20.467980
_cell_length_c 9.225556
_cell_angle_alpha 90.000000
_cell_angle_beta 44.840369
_cell_angle_gamma 90.000000
_cell_volume 1268.218499
_symmetry_space_group_name_H-M "P 2/C"
_symmetry_group_IT_number 13
_symmetry_cell_setting 'monoclinic'
loop_
_space_group_symop_operation_xyz
x,y,z
-x,y,1/2-z
-x,-y,-z
x,-y,1/2+z
loop_
_atom_site_type_symbol
_atom_site_label
_atom_site_fract_x
_atom_site_fract_y
_atom_site_fract_z
Si Si1 0.500000 0.382853 0.750000
Si Si2 0.062781 0.567116 0.531861
Si Si3 0.160530 0.672045 0.013005
Si Si4 0.510403 0.303434 0.452368
Si Si5 0.163140 0.058441 0.753429
Si Si6 0.124817 0.911976 0.802487
Si Si7 0.488789 0.838974 0.930447
O O1 0.698539 0.423212 0.642577
O O2 0.553130 0.338450 0.571709
O O3 0.000000 0.570010 0.750000
O O4 0.000000 0.500000 0.500000
O O5 0.958292 0.620872 0.502151
O O6 0.293600 0.708512 0.791749
O O7 0.345934 0.653917 0.984642
O O8 0.000000 0.698883 0.250000
O O9 0.422178 0.230909 0.539849
O O10 0.346753 0.100557 0.569120
O O11 0.000000 0.048656 0.750000
O O12 0.212069 0.985080 0.771903
O O13 0.041262 0.100699 0.956998
O O14 0.296520 0.859678 0.669503
O O15 0.000000 0.914092 0.750000
O O16 0.500000 0.833268 0.750000
#
# Coordination Sequence:
#
# PCOD9233308 Si02
#       7
#     2   4   4   4   4   4   4
#     4  12  26  50  72 102 146 180 222 280 334 404
#     4  12  27  46  75 109 138 184 229 276 339 392
#     4  11  22  45  70  99 143 180 224 275 340 389
#     4  11  26  43  68 103 137 183 230 276 335 414
#     4  10  21  40  65  89 127 170 217 278 345 398
#     4  10  23  41  60  93 128 166 219 284 340 393
#     4  12  23  41  65  98 126 173 232 268 334 406
#
# _framework density 20.501199
#
# number of rings (size 3 to 8) (size 9 to 14) (size 15 to 20)
#    0.000    0.923    6.154    0.923    0.000    5.538 
#    2.769    0.000    0.000    0.000    0.000    0.000 
#    0.000    0.000    0.000    0.000    0.000    0.000 
#
# Total GULP energy -144785.565595 kJ/mol
# GULP energy per Si atom -5568.675600 kJ/mol
# Density = 2.045454 g / cm^3
# Si number density = 20.501199 Si / 1000 Ang^3
#
#
#
# Elastic Constant Matrix: (Units=GPa)
#
#
# Indices 1 2 3 4 5 6 
#
# 1 119.5474 49.0620 37.9436 0.0000 -8.3268 0.0000
# 2 49.0620 64.0153 26.7701 0.0000 -12.9641 0.0000
# 3 37.9436 26.7701 110.2812 0.0000 0.1726 0.0000
# 4 0.0000 0.0000 0.0000 16.9154 0.0000 0.1286
# 5 -8.3268 -12.9641 0.1726 0.0000 33.7757 0.0000
# 6 0.0000 0.0000 0.0000 0.1286 0.0000 35.9177
#
#
#
# Elastic Compliance Matrix: (Units=1/GPa)
#
#
# Indices 1 2 3 4 5 6 
#
# 1 0.012679 -0.008843 -0.002215 0.000000 -0.000257 0.000000
# 2 -0.008843 0.025212 -0.003089 0.000000 0.007513 0.000000
# 3 -0.002215 -0.003089 0.010583 0.000000 -0.001786 0.000000
# 4 0.000000 0.000000 0.000000 0.059119 0.000000 -0.000212
# 5 -0.000257 0.007513 -0.001786 0.000000 0.032436 0.000000
# 6 0.000000 0.000000 0.000000 -0.000212 0.000000 0.027842
#
#
# Mechanical properties :
#
#
# Convention : Reuss Voigt Hill
#
# Bulk Modulus (GPa) = 49.55800 57.93281 53.74541
# Shear Modulus (GPa) = 24.64341 29.32631 26.98486
#
# Velocity S-wave (km/s) = 3.47082 3.78626 3.63196
# Velocity P-wave (km/s) = 6.34727 6.88723 6.62275
#
# Compressibility (1/GPa) = 0.02017838
#
# Stress axis : x y z
#
# Youngs Moduli (GPa) = 78.86809 39.66345 94.49411
#
# Poissons Ratio (x) = 0.35075 0.20935
# Poissons Ratio (y) = 0.69745 0.29191
# Poissons Ratio (z) = 0.17473 0.12253
#
# Static dielectric constant tensor:
#      x y z
#    x 1.704720 0.000000 -0.009970 
#    y 0.000000 1.659120 0.000000 
#    z -0.009970 0.000000 1.731620 
# 
# From -- ./inp_files/13643.got.cif
#   From: 2010.05.17/outbox.cif.g08.bks.cpg/sg13_7_cif.got.tgz:13643.got - 2010.06.03 16:44:36.
