data_PCOD9233917
_publ_section_title
;
Structure prediction by ZEFSAII (Michael W. Deem and Ramdas Pophale) SiO2 
 PCOD9233917
Probable space group: P 2/C
;
_chemical_formula_sum "Si O2"
_cell_formula_units_Z 14
_cell_length_a 5.810192
_cell_length_b 8.455944
_cell_length_c 11.706064
_cell_angle_alpha 90.000000
_cell_angle_beta 85.992175
_cell_angle_gamma 90.000000
_cell_volume 573.720165
_symmetry_space_group_name_H-M "P 2/C"
_symmetry_group_IT_number 13
_symmetry_cell_setting 'monoclinic'
loop_
_space_group_symop_operation_xyz
x,y,z
-x,y,1/2-z
-x,-y,-z
x,-y,1/2+z
loop_
_atom_site_type_symbol
_atom_site_label
_atom_site_fract_x
_atom_site_fract_y
_atom_site_fract_z
Si Si1 0.674328 0.370861 0.449714
Si Si2 0.000000 0.656207 0.750000
Si Si3 0.712355 0.871681 0.583475
Si Si4 0.062376 0.189816 0.876628
O O1 0.500000 0.500000 0.500000
O O2 0.814908 0.430596 0.335207
O O3 0.535378 0.211739 0.417590
O O4 0.836607 0.329757 0.550406
O O5 0.138315 0.765207 0.834761
O O6 0.837689 0.867003 0.455612
O O7 0.746947 0.049162 0.626605
O O8 0.000000 0.225735 0.750000
#
# Coordination Sequence:
#
# PCOD9233917 Si02
#       4
#     4   2   4   4
#     4  11  25  46  70 104 142 186 232 284 358 426
#     4  10  22  44  74  96 138 188 230 292 350 408
#     4  10  21  44  70 102 135 182 234 288 351 409
#     4  10  22  43  72 105 139 180 234 293 341 417
#
# _framework density 24.402142000000001
#
# number of rings (size 3 to 8) (size 9 to 14) (size 15 to 20)
#    0.000    1.714    1.429    1.714    0.000    5.714 
#   20.571    0.000    0.000    1.714    0.000    0.000 
#    0.000    0.000    0.000    0.000    0.000    0.000 
#
# Total GULP energy -78440.363669 kJ/mol
# GULP energy per Si atom -5602.883119 kJ/mol
# Density = 2.434660 g / cm^3
# Si number density = 24.402142 Si / 1000 Ang^3
#
#
#
# Elastic Constant Matrix: (Units=GPa)
#
#
# Indices 1 2 3 4 5 6 
#
# 1 88.2361 30.5398 72.0027 0.0000 -3.3628 0.0000
# 2 30.5398 79.6004 49.7019 0.0000 -17.5542 0.0000
# 3 72.0027 49.7019 223.1976 0.0000 -5.2053 0.0000
# 4 0.0000 0.0000 0.0000 15.9143 0.0000 -5.7341
# 5 -3.3628 -17.5542 -5.2053 0.0000 48.5304 0.0000
# 6 0.0000 0.0000 0.0000 -5.7341 0.0000 45.6602
#
#
#
# Elastic Compliance Matrix: (Units=1/GPa)
#
#
# Indices 1 2 3 4 5 6 
#
# 1 0.016164 -0.003577 -0.004433 0.000000 -0.000649 0.000000
# 2 -0.003577 0.016669 -0.002429 0.000000 0.005521 0.000000
# 3 -0.004433 -0.002429 0.006440 0.000000 -0.000495 0.000000
# 4 0.000000 0.000000 0.000000 0.065814 0.000000 0.008265
# 5 -0.000649 0.005521 -0.000495 0.000000 0.022505 0.000000
# 6 0.000000 0.000000 0.000000 0.008265 0.000000 0.022939
#
#
# Mechanical properties :
#
#
# Convention : Reuss Voigt Hill
#
# Bulk Modulus (GPa) = 54.36283 77.28031 65.82157
# Shear Modulus (GPa) = 28.16249 37.94032 33.05140
#
# Velocity S-wave (km/s) = 3.40089 3.94737 3.68427
# Velocity P-wave (km/s) = 6.14391 7.24664 6.71794
#
# Compressibility (1/GPa) = 0.01839492
#
# Stress axis : x y z
#
# Youngs Moduli (GPa) = 61.86608 59.99001 155.28268
#
# Poissons Ratio (x) = 0.21456 0.68839
# Poissons Ratio (y) = 0.22127 0.37724
# Poissons Ratio (z) = 0.27426 0.14574
#
# Static dielectric constant tensor:
#      x y z
#    x 1.946950 0.000000 -0.027840 
#    y 0.000000 1.993150 0.000000 
#    z -0.027840 0.000000 1.872960 
# 
# From -- ./inp_files/25227.got.cif
#   From: 2010.05.17/outbox.cif.g08.bks.cpg/sg13_13_cif.got.tgz:25227.got - 2010.06.03 16:44:36.
