data_PCOD9233897
_publ_section_title
;
Structure prediction by ZEFSAII (Michael W. Deem and Ramdas Pophale) SiO2 
 PCOD9233897
Probable space group: P 2/C
;
_chemical_formula_sum "Si O2"
_cell_formula_units_Z 32
_cell_length_a 14.149416
_cell_length_b 9.144430
_cell_length_c 21.448049
_cell_angle_alpha 90.000000
_cell_angle_beta 146.306803
_cell_angle_gamma 90.000000
_cell_volume 1539.489911
_symmetry_space_group_name_H-M "P 2/C"
_symmetry_group_IT_number 13
_symmetry_cell_setting 'monoclinic'
loop_
_space_group_symop_operation_xyz
x,y,z
-x,y,1/2-z
-x,-y,-z
x,-y,1/2+z
loop_
_atom_site_type_symbol
_atom_site_label
_atom_site_fract_x
_atom_site_fract_y
_atom_site_fract_z
Si Si1 0.592521 0.809582 0.951930
Si Si2 0.980611 0.672936 0.497503
Si Si3 0.359065 0.163377 0.722551
Si Si4 0.925144 0.277173 0.112698
Si Si5 0.185561 0.443017 0.867479
Si Si6 0.315039 0.841897 0.637308
Si Si7 0.406774 0.869791 0.029076
Si Si8 0.299081 0.694443 0.852941
O O1 0.674005 0.855992 0.931129
O O2 0.402252 0.739907 0.848101
O O3 0.584511 0.961375 0.984124
O O4 0.701879 0.682512 0.042440
O O5 0.150009 0.752339 0.565862
O O6 0.000000 0.500000 0.500000
O O7 0.811670 0.740708 0.372730
O O8 0.959662 0.702576 0.559267
O O9 0.500000 0.220080 0.750000
O O10 0.448807 0.158772 0.839467
O O11 0.317702 0.998120 0.674965
O O12 0.852782 0.426036 0.104392
O O13 0.107052 0.243858 0.244288
O O14 0.777813 0.160392 0.041595
O O15 0.271545 0.524541 0.855366
O O16 0.000000 0.382534 0.750000
O O17 0.500000 0.768300 0.750000
O O18 0.403344 0.763993 0.967619
#
# Coordination Sequence:
#
# PCOD9233897 Si02
#       8
#     4   4   4   4   4   4   4   4
#     4  12  21  40  62  96 126 159 225 263 311 383
#     4  12  25  42  67 102 128 172 227 267 327 398
#     4  11  22  46  67  94 134 172 210 271 340 384
#     4  10  21  44  66  88 133 172 214 263 327 392
#     4   9  21  40  61  87 129 171 205 264 332 375
#     4  11  23  43  65  93 131 175 211 268 329 383
#     4  11  22  42  68  95 127 169 215 269 325 393
#     4  10  23  42  65  92 128 175 214 262 330 384
#
# _framework density 20.786104999999999
#
# number of rings (size 3 to 8) (size 9 to 14) (size 15 to 20)
#    0.000    1.250    3.750    3.750    0.000    1.500 
#   15.750    0.000    0.000    0.000    0.000    0.000 
#    0.000    0.000    0.000    0.000    0.000    0.000 
#
# Total GULP energy -178664.228755 kJ/mol
# GULP energy per Si atom -5583.257149 kJ/mol
# Density = 2.073879 g / cm^3
# Si number density = 20.786105 Si / 1000 Ang^3
#
#
#
# Elastic Constant Matrix: (Units=GPa)
#
#
# Indices 1 2 3 4 5 6 
#
# 1 94.6291 25.9631 43.8251 0.0000 10.4924 0.0000
# 2 25.9631 75.8366 80.0702 0.0000 17.3240 0.0000
# 3 43.8251 80.0702 153.0203 0.0000 26.2064 0.0000
# 4 0.0000 0.0000 0.0000 14.1205 0.0000 3.0026
# 5 10.4924 17.3240 26.2064 0.0000 33.9480 0.0000
# 6 0.0000 0.0000 0.0000 3.0026 0.0000 13.2409
#
#
#
# Elastic Compliance Matrix: (Units=1/GPa)
#
#
# Indices 1 2 3 4 5 6 
#
# 1 0.012261 -0.000975 -0.002809 0.000000 -0.001124 0.000000
# 2 -0.000975 0.029932 -0.014772 0.000000 -0.003570 0.000000
# 3 -0.002809 -0.014772 0.015706 0.000000 -0.003718 0.000000
# 4 0.000000 0.000000 0.000000 0.074407 0.000000 -0.016873
# 5 -0.001124 -0.003570 -0.003718 0.000000 0.034496 0.000000
# 6 0.000000 0.000000 0.000000 -0.016873 0.000000 0.079350
#
#
# Mechanical properties :
#
#
# Convention : Reuss Voigt Hill
#
# Bulk Modulus (GPa) = 48.10717 69.24475 58.67596
# Shear Modulus (GPa) = 17.23001 23.83704 20.53352
#
# Velocity S-wave (km/s) = 2.88222 3.39008 3.14642
# Velocity P-wave (km/s) = 5.85409 6.97917 6.44125
#
# Compressibility (1/GPa) = 0.02078692
#
# Stress axis : x y z
#
# Youngs Moduli (GPa) = 81.56271 33.40920 63.67138
#
# Poissons Ratio (x) = 0.03259 0.17883
# Poissons Ratio (y) = 0.07956 0.94052
# Poissons Ratio (z) = 0.22908 0.49351
#
# Static dielectric constant tensor:
#      x y z
#    x 1.944260 0.000000 0.045940 
#    y 0.000000 1.714140 0.000000 
#    z 0.045940 0.000000 1.794510 
# 
# From -- ./inp_files/87417.got.cif
#   From: 2010.05.17/outbox.cif.g08.bks.cpg/sg13_44_cif.got.tgz:87417.got - 2010.06.03 16:44:36.
