data_PCOD9233074
_publ_section_title
;
Structure prediction by ZEFSAII (Michael W. Deem and Ramdas Pophale) SiO2 
 PCOD9233074
Probable space group: P 2/C
;
_chemical_formula_sum "Si O2"
_cell_formula_units_Z 20
_cell_length_a 8.599238
_cell_length_b 21.302390
_cell_length_c 8.657415
_cell_angle_alpha 90.000000
_cell_angle_beta 147.426968
_cell_angle_gamma 90.000000
_cell_volume 853.809093
_symmetry_space_group_name_H-M "P 2/C"
_symmetry_group_IT_number 13
_symmetry_cell_setting 'monoclinic'
loop_
_space_group_symop_operation_xyz
x,y,z
-x,y,1/2-z
-x,-y,-z
x,-y,1/2+z
loop_
_atom_site_type_symbol
_atom_site_label
_atom_site_fract_x
_atom_site_fract_y
_atom_site_fract_z
Si Si1 0.172660 0.168080 0.744301
Si Si2 0.915845 0.566570 0.000815
Si Si3 0.333206 0.256613 0.263244
Si Si4 0.527357 0.372976 0.594896
Si Si5 0.808041 0.046399 0.943487
O O1 0.226172 0.111397 0.675133
O O2 0.000000 0.144365 0.750000
O O3 0.983530 0.228633 0.530809
O O4 0.480464 0.195000 0.047728
O O5 0.000000 0.558682 0.250000
O O6 0.129884 0.624024 0.139263
O O7 0.619386 0.584184 0.663064
O O8 0.000000 0.500000 0.000000
O O9 0.500000 0.284649 0.250000
O O10 0.383374 0.305818 0.442558
O O11 0.500000 0.395033 0.750000
O O12 0.500000 0.021536 0.750000
O O13 0.000000 0.061193 0.250000
O O14 0.000000 0.000000 0.000000
#
# Coordination Sequence:
#
# PCOD9233074 Si02
#       5
#     4   4   4   4   4
#     4  10  22  41  65  93 128 169 218 270 329 396
#     4  12  25  44  67  93 128 171 219 273 336 405
#     4  10  21  39  64  93 127 170 214 265 328 397
#     4  12  25  42  65  97 132 170 219 275 331 396
#     4  12  26  44  68  98 134 176 224 279 339 406
#
# _framework density 23.424440000000001
#
# number of rings (size 3 to 8) (size 9 to 14) (size 15 to 20)
#    0.000    0.800    0.000    7.800    0.000    6.400 
#    0.000    0.000    0.000    0.000    0.000    0.000 
#    0.000    0.000    0.000    0.000    0.000    0.000 
#
# Total GULP energy -111670.231202 kJ/mol
# GULP energy per Si atom -5583.511560 kJ/mol
# Density = 2.337112 g / cm^3
# Si number density = 23.424440 Si / 1000 Ang^3
#
#
#
# Elastic Constant Matrix: (Units=GPa)
#
#
# Indices 1 2 3 4 5 6 
#
# 1 89.7982 29.8782 39.2416 0.0000 -19.1757 0.0000
# 2 29.8782 68.2511 10.6672 0.0000 -9.3681 0.0000
# 3 39.2416 10.6672 127.4856 0.0000 -9.3542 0.0000
# 4 0.0000 0.0000 0.0000 40.9611 0.0000 -23.0652
# 5 -19.1757 -9.3681 -9.3542 0.0000 48.2967 0.0000
# 6 0.0000 0.0000 0.0000 -23.0652 0.0000 23.1500
#
#
#
# Elastic Compliance Matrix: (Units=1/GPa)
#
#
# Indices 1 2 3 4 5 6 
#
# 1 0.015714 -0.005649 -0.004044 0.000000 0.004360 0.000000
# 2 -0.005649 0.017226 0.000383 0.000000 0.001173 0.000000
# 3 -0.004044 0.000383 0.009073 0.000000 0.000226 0.000000
# 4 0.000000 0.000000 0.000000 0.055616 0.000000 0.055413
# 5 0.004360 0.001173 0.000226 0.000000 0.022708 0.000000
# 6 0.000000 0.000000 0.000000 0.055413 0.000000 0.098406
#
#
# Mechanical properties :
#
#
# Convention : Reuss Voigt Hill
#
# Bulk Modulus (GPa) = 42.74604 49.45654 46.10129
# Shear Modulus (GPa) = 20.39485 36.19810 28.29647
#
# Velocity S-wave (km/s) = 2.95390 3.93531 3.47938
# Velocity P-wave (km/s) = 5.47012 6.46591 5.98874
#
# Compressibility (1/GPa) = 0.02339398
#
# Stress axis : x y z
#
# Youngs Moduli (GPa) = 63.63778 58.05321 110.21189
#
# Poissons Ratio (x) = 0.32791 0.44574
# Poissons Ratio (y) = 0.35946 -0.04226
# Poissons Ratio (z) = 0.25738 -0.02226
#
# Static dielectric constant tensor:
#      x y z
#    x 1.854110 0.000000 -0.032560 
#    y 0.000000 1.833180 0.000000 
#    z -0.032560 0.000000 1.826170 
# 
# From -- ./inp_files/13866.got.cif
#   From: 2010.05.17/outbox.cif.g08.bks.cpg/sg13_7_cif.got.tgz:13866.got - 2010.06.03 16:44:36.
