data_PCOD9233919
_publ_section_title
;
Structure prediction by ZEFSAII (Michael W. Deem and Ramdas Pophale) SiO2 
 PCOD9233919
Probable space group: P 2/C
;
_chemical_formula_sum "Si O2"
_cell_formula_units_Z 28
_cell_length_a 12.060752
_cell_length_b 9.433976
_cell_length_c 11.202409
_cell_angle_alpha 90.000000
_cell_angle_beta 108.089449
_cell_angle_gamma 90.000000
_cell_volume 1211.618846
_symmetry_space_group_name_H-M "P 2/C"
_symmetry_group_IT_number 13
_symmetry_cell_setting 'monoclinic'
loop_
_space_group_symop_operation_xyz
x,y,z
-x,y,1/2-z
-x,-y,-z
x,-y,1/2+z
loop_
_atom_site_type_symbol
_atom_site_label
_atom_site_fract_x
_atom_site_fract_y
_atom_site_fract_z
Si Si1 0.315957 0.813221 0.670520
Si Si2 0.837935 0.642195 0.497211
Si Si3 0.238708 0.874841 0.218604
Si Si4 0.500000 0.611540 0.750000
Si Si5 0.078478 0.663616 0.531894
Si Si6 0.553735 0.844162 0.034882
Si Si7 0.000000 0.206738 0.750000
Si Si8 0.401451 0.589415 0.035690
O O1 0.404259 0.718235 0.780048
O O2 0.189133 0.750896 0.609598
O O3 0.386691 0.804358 0.570491
O O4 0.291459 0.974500 0.696823
O O5 0.782533 0.762177 0.394141
O O6 0.879250 0.498651 0.445337
O O7 0.733310 0.594623 0.548266
O O8 0.965527 0.696974 0.576092
O O9 0.338005 0.823075 0.340511
O O10 0.113038 0.881333 0.243290
O O11 0.590563 0.500260 0.839918
O O12 0.042807 0.704269 0.381919
O O13 0.453241 0.745451 0.054490
O O14 0.500000 0.000000 0.000000
O O15 0.500000 0.500000 0.000000
#
# Coordination Sequence:
#
# PCOD9233919 Si02
#       8
#     4   4   4   2   4   4   2   4
#     4  12  24  45  69 102 144 182 230 294 347 420
#     4  10  22  43  70 102 132 182 227 285 359 413
#     4  11  25  44  72 100 143 184 232 287 355 423
#     4  12  24  44  72 106 140 182 238 286 364 406
#     4  10  21  44  71 100 140 176 234 294 347 427
#     4  12  25  44  68 103 140 185 235 286 353 423
#     4  10  22  44  74 104 134 192 234 290 368 422
#     4  12  24  43  69 101 138 181 231 286 346 426
#
# _framework density 23.109579
#
# number of rings (size 3 to 8) (size 9 to 14) (size 15 to 20)
#    0.000    0.857    4.286    2.571    0.000    3.429 
#    2.571    0.000    0.000    0.857    0.000    0.000 
#    0.000    0.000    0.000    0.000    0.000    0.000 
#
# Total GULP energy -156097.229374 kJ/mol
# GULP energy per Si atom -5574.901049 kJ/mol
# Density = 2.305698 g / cm^3
# Si number density = 23.109579 Si / 1000 Ang^3
#
#
#
# Elastic Constant Matrix: (Units=GPa)
#
#
# Indices 1 2 3 4 5 6 
#
# 1 202.9976 43.6506 44.7803 0.0000 48.5363 0.0000
# 2 43.6506 119.2177 16.3982 0.0000 3.9325 0.0000
# 3 44.7803 16.3982 41.0079 0.0000 22.1242 0.0000
# 4 0.0000 0.0000 0.0000 18.3186 0.0000 9.6820
# 5 48.5363 3.9325 22.1242 0.0000 30.7277 0.0000
# 6 0.0000 0.0000 0.0000 9.6820 0.0000 49.8409
#
#
#
# Elastic Compliance Matrix: (Units=1/GPa)
#
#
# Indices 1 2 3 4 5 6 
#
# 1 0.008833 -0.002547 -0.002086 0.000000 -0.012125 0.000000
# 2 -0.002547 0.009713 -0.004256 0.000000 0.005845 0.000000
# 3 -0.002086 -0.004256 0.042995 0.000000 -0.027118 0.000000
# 4 0.000000 0.000000 0.000000 0.060835 0.000000 -0.011818
# 5 -0.012125 0.005845 -0.027118 0.000000 0.070473 0.000000
# 6 0.000000 0.000000 0.000000 -0.011818 0.000000 0.022360
#
#
# Mechanical properties :
#
#
# Convention : Reuss Voigt Hill
#
# Bulk Modulus (GPa) = 22.84977 63.65348 43.25162
# Shear Modulus (GPa) = 20.19596 37.00372 28.59984
#
# Velocity S-wave (km/s) = 2.95942 4.00588 3.52174
# Velocity P-wave (km/s) = 4.64614 7.00000 5.94082
#
# Compressibility (1/GPa) = 0.04376412
#
# Stress axis : x y z
#
# Youngs Moduli (GPa) = 113.21258 102.95189 23.25842
#
# Poissons Ratio (x) = 0.26225 0.04851
# Poissons Ratio (y) = 0.28839 0.09898
# Poissons Ratio (z) = 0.23611 0.43814
#
# Static dielectric constant tensor:
#      x y z
#    x 1.953360 0.000000 -0.177990 
#    y 0.000000 1.979070 0.000000 
#    z -0.177990 0.000000 2.292580 
# 
# From -- ./inp_files/50496.got.cif
#   From: 2010.05.17/outbox.cif.g08.bks.cpg/sg13_26_cif.got.tgz:50496.got - 2010.06.03 16:44:36.
