data_PCOD9233981
_publ_section_title
;
Structure prediction by ZEFSAII (Michael W. Deem and Ramdas Pophale) SiO2 
 PCOD9233981
Probable space group: P 2/C
;
_chemical_formula_sum "Si O2"
_cell_formula_units_Z 24
_cell_length_a 11.568802
_cell_length_b 7.889434
_cell_length_c 10.856233
_cell_angle_alpha 90.000000
_cell_angle_beta 73.439784
_cell_angle_gamma 90.000000
_cell_volume 949.762229
_symmetry_space_group_name_H-M "P 2/C"
_symmetry_group_IT_number 13
_symmetry_cell_setting 'monoclinic'
loop_
_space_group_symop_operation_xyz
x,y,z
-x,y,1/2-z
-x,-y,-z
x,-y,1/2+z
loop_
_atom_site_type_symbol
_atom_site_label
_atom_site_fract_x
_atom_site_fract_y
_atom_site_fract_z
Si Si1 0.934274 0.040361 0.148258
Si Si2 0.250172 0.551778 0.720305
Si Si3 0.406103 0.330451 0.375621
Si Si4 0.061508 0.625646 0.576858
Si Si5 0.263668 0.800483 0.342233
Si Si6 0.559055 0.296656 0.531822
O O1 0.000000 0.967019 0.250000
O O2 0.958958 0.239529 0.145557
O O3 0.799573 0.968030 0.190384
O O4 0.000000 0.000000 0.000000
O O5 0.279132 0.641597 0.845230
O O6 0.131295 0.541014 0.670121
O O7 0.278778 0.355006 0.743153
O O8 0.341763 0.653439 0.602708
O O9 0.500000 0.255621 0.250000
O O10 0.438292 0.244156 0.495990
O O11 0.448922 0.524426 0.393220
O O12 0.163947 0.725815 0.468425
O O13 0.000000 0.500000 0.500000
O O14 0.382838 0.829055 0.386884
#
# Coordination Sequence:
#
# PCOD9233981 Si02
#       6
#     4   4   4   4   4   4
#     4  10  23  40  56  80 114 161 203 249 307 369
#     4   9  17  28  49  78 108 147 195 245 291 354
#     4   8  13  24  45  74 117 142 178 243 291 342
#     4  10  22  34  52  77 111 150 202 254 297 349
#     4   9  19  33  51  75 111 150 191 240 302 359
#     4   8  14  27  45  78 113 144 187 240 291 352
#
# _framework density 25.269483999999999
#
# number of rings (size 3 to 8) (size 9 to 14) (size 15 to 20)
#    0.000    3.000    0.000    0.000    7.000    0.000 
#    0.000    0.000    0.000    0.000    0.000    1.167 
#    0.000    0.000    0.000    0.000    0.000    0.167 
#
# Total GULP energy -133669.436898 kJ/mol
# GULP energy per Si atom -5569.559871 kJ/mol
# Density = 2.521197 g / cm^3
# Si number density = 25.269484 Si / 1000 Ang^3
#
#
#
# Elastic Constant Matrix: (Units=GPa)
#
#
# Indices 1 2 3 4 5 6 
#
# 1 163.6210 34.7304 74.9229 0.0000 76.7613 0.0000
# 2 34.7304 60.4856 34.5839 0.0000 32.9125 0.0000
# 3 74.9229 34.5839 125.6828 0.0000 55.1708 0.0000
# 4 0.0000 0.0000 0.0000 21.1358 0.0000 -2.2444
# 5 76.7613 32.9125 55.1708 0.0000 62.8718 0.0000
# 6 0.0000 0.0000 0.0000 -2.2444 0.0000 24.8231
#
#
#
# Elastic Compliance Matrix: (Units=1/GPa)
#
#
# Indices 1 2 3 4 5 6 
#
# 1 0.014638 0.002054 -0.001584 0.000000 -0.017556 0.000000
# 2 0.002054 0.023633 -0.001945 0.000000 -0.013173 0.000000
# 3 -0.001584 -0.001945 0.013240 0.000000 -0.008666 0.000000
# 4 0.000000 0.000000 0.000000 0.047772 0.000000 0.004319
# 5 -0.017556 -0.013173 -0.008666 0.000000 0.051840 0.000000
# 6 0.000000 0.000000 0.000000 0.004319 0.000000 0.040676
#
#
# Mechanical properties :
#
#
# Convention : Reuss Voigt Hill
#
# Bulk Modulus (GPa) = 20.59308 70.91820 45.75564
# Shear Modulus (GPa) = 23.70382 35.46962 29.58672
#
# Velocity S-wave (km/s) = 3.06607 3.75060 3.42548
# Velocity P-wave (km/s) = 4.54988 6.84702 5.81305
#
# Compressibility (1/GPa) = 0.04856001
#
# Stress axis : x y z
#
# Youngs Moduli (GPa) = 68.31766 42.31307 75.52665
#
# Poissons Ratio (x) = -0.08692 0.11967
# Poissons Ratio (y) = -0.14033 0.14692
# Poissons Ratio (z) = 0.10824 0.08231
#
# Static dielectric constant tensor:
#      x y z
#    x 2.176340 0.000000 -0.015570 
#    y 0.000000 2.004520 0.000000 
#    z -0.015570 0.000000 2.056670 
# 
# From -- ./inp_files/32607.got.cif
#   From: 2010.05.17/outbox.cif.g08.bks.cpg/sg13_17_cif.got.tgz:32607.got - 2010.06.03 16:44:36.
