data_PCOD9233713
_publ_section_title
;
Structure prediction by ZEFSAII (Michael W. Deem and Ramdas Pophale) SiO2 
 PCOD9233713
Probable space group: P 2/C
;
_chemical_formula_sum "Si O2"
_cell_formula_units_Z 26
_cell_length_a 24.322577
_cell_length_b 8.944780
_cell_length_c 11.701663
_cell_angle_alpha 90.000000
_cell_angle_beta 29.821330
_cell_angle_gamma 90.000000
_cell_volume 1266.026092
_symmetry_space_group_name_H-M "P 2/C"
_symmetry_group_IT_number 13
_symmetry_cell_setting 'monoclinic'
loop_
_space_group_symop_operation_xyz
x,y,z
-x,y,1/2-z
-x,-y,-z
x,-y,1/2+z
loop_
_atom_site_type_symbol
_atom_site_label
_atom_site_fract_x
_atom_site_fract_y
_atom_site_fract_z
Si Si1 0.715837 0.777216 0.723002
Si Si2 0.000000 0.614504 0.750000
Si Si3 0.169297 0.034725 0.112751
Si Si4 0.507347 0.405265 0.867808
Si Si5 0.120278 0.586224 0.219053
Si Si6 0.240029 0.680437 0.607296
Si Si7 0.067224 0.155882 0.968966
O O1 0.776450 0.663756 0.527958
O O2 0.769392 0.748035 0.749732
O O3 0.752523 0.940761 0.611887
O O4 0.588046 0.723546 0.957216
O O5 0.945748 0.510468 0.753438
O O6 0.087007 0.731750 0.537506
O O7 0.204405 0.201439 0.076397
O O8 0.039292 0.052339 0.314636
O O9 0.163765 0.944849 0.243652
O O10 0.500000 0.475900 0.750000
O O11 0.631154 0.345747 0.645358
O O12 0.500000 0.500000 0.000000
O O13 0.170795 0.471474 0.219485
O O14 0.048637 0.721771 0.400713
#
# Coordination Sequence:
#
# PCOD9233713 Si02
#       7
#     4   2   4   4   4   4   4
#     4  10  23  41  63  89 127 165 205 265 321 379
#     4  12  22  34  62  90 118 160 208 260 304 368
#     4  10  23  41  55  85 127 168 205 249 314 378
#     4  10  21  42  68 100 126 163 214 272 329 386
#     4  11  22  38  60  92 122 160 213 261 312 373
#     4  11  22  39  67  91 125 164 211 264 321 380
#     4  10  23  39  54  83 125 165 208 251 303 380
#
# _framework density 20.536701000000001
#
# number of rings (size 3 to 8) (size 9 to 14) (size 15 to 20)
#    0.000    1.538    3.077    1.385    4.308    0.615 
#    0.000    1.538    0.000    0.000    0.000    0.000 
#    0.000    0.000    0.000    0.000    0.000    0.000 
#
# Total GULP energy -144893.005697 kJ/mol
# GULP energy per Si atom -5572.807911 kJ/mol
# Density = 2.048996 g / cm^3
# Si number density = 20.536701 Si / 1000 Ang^3
#
#
#
# Elastic Constant Matrix: (Units=GPa)
#
#
# Indices 1 2 3 4 5 6 
#
# 1 73.9779 29.5974 22.8174 0.0000 10.3496 0.0000
# 2 29.5974 100.9758 29.3631 0.0000 9.4912 0.0000
# 3 22.8174 29.3631 79.5540 0.0000 3.7044 0.0000
# 4 0.0000 0.0000 0.0000 39.4660 0.0000 10.7867
# 5 10.3496 9.4912 3.7044 0.0000 30.7802 0.0000
# 6 0.0000 0.0000 0.0000 10.7867 0.0000 21.7438
#
#
#
# Elastic Compliance Matrix: (Units=1/GPa)
#
#
# Indices 1 2 3 4 5 6 
#
# 1 0.016492 -0.003507 -0.003246 0.000000 -0.004073 0.000000
# 2 -0.003507 0.012112 -0.003364 0.000000 -0.002151 0.000000
# 3 -0.003246 -0.003364 0.014726 0.000000 0.000357 0.000000
# 4 0.000000 0.000000 0.000000 0.029313 0.000000 -0.014542
# 5 -0.004073 -0.002151 0.000357 0.000000 0.034478 0.000000
# 6 0.000000 0.000000 0.000000 -0.014542 0.000000 0.053204
#
#
# Mechanical properties :
#
#
# Convention : Reuss Voigt Hill
#
# Bulk Modulus (GPa) = 43.29984 46.45151 44.87567
# Shear Modulus (GPa) = 26.55930 29.91331 28.23631
#
# Velocity S-wave (km/s) = 3.60009 3.82066 3.71201
# Velocity P-wave (km/s) = 6.19764 6.49085 6.34594
#
# Compressibility (1/GPa) = 0.02309477
#
# Stress axis : x y z
#
# Youngs Moduli (GPa) = 60.63646 82.56373 67.90599
#
# Poissons Ratio (x) = 0.28957 0.22042
# Poissons Ratio (y) = 0.21266 0.22846
# Poissons Ratio (z) = 0.19682 0.27778
#
# Static dielectric constant tensor:
#      x y z
#    x 1.795100 0.000000 0.055300 
#    y 0.000000 1.735430 0.000000 
#    z 0.055300 0.000000 1.779990 
# 
# From -- ./inp_files/40482.got.cif
#   From: 2010.05.17/outbox.cif.g08.bks.cpg/sg13_21_cif.got.tgz:40482.got - 2010.06.03 16:44:36.
