data_PCOD9233786
_publ_section_title
;
Structure prediction by ZEFSAII (Michael W. Deem and Ramdas Pophale) SiO2 
 PCOD9233786
Probable space group: P 2/C
;
_chemical_formula_sum "Si O2"
_cell_formula_units_Z 32
_cell_length_a 10.356840
_cell_length_b 15.844504
_cell_length_c 13.802912
_cell_angle_alpha 90.000000
_cell_angle_beta 137.240773
_cell_angle_gamma 90.000000
_cell_volume 1537.781363
_symmetry_space_group_name_H-M "P 2/C"
_symmetry_group_IT_number 13
_symmetry_cell_setting 'monoclinic'
loop_
_space_group_symop_operation_xyz
x,y,z
-x,y,1/2-z
-x,-y,-z
x,-y,1/2+z
loop_
_atom_site_type_symbol
_atom_site_label
_atom_site_fract_x
_atom_site_fract_y
_atom_site_fract_z
Si Si1 0.898550 0.891984 0.404499
Si Si2 0.224590 0.213659 0.025879
Si Si3 0.835782 0.397871 0.581690
Si Si4 0.108819 0.953821 0.710261
Si Si5 0.302091 0.714031 0.197659
Si Si6 0.517933 0.644387 0.492145
Si Si7 0.358711 0.206563 0.319478
Si Si8 0.299174 0.552560 0.086157
O O1 0.800894 0.802282 0.365632
O O2 0.084943 0.865498 0.445895
O O3 0.960874 0.927053 0.543416
O O4 0.794913 0.963073 0.283997
O O5 0.274499 0.225225 0.166782
O O6 0.416896 0.194037 0.074490
O O7 0.139833 0.302024 0.942000
O O8 0.620282 0.400648 0.507309
O O9 0.829440 0.470746 0.497702
O O10 0.000000 0.415910 0.750000
O O11 0.253842 0.875998 0.800918
O O12 0.000000 0.969122 0.750000
O O13 0.500000 0.723163 0.250000
O O14 0.362679 0.692370 0.339699
O O15 0.211051 0.631174 0.097704
O O16 0.652259 0.712315 0.617919
O O17 0.640087 0.587869 0.486308
O O18 0.500000 0.531951 0.250000
#
# Coordination Sequence:
#
# PCOD9233786 Si02
#       8
#     4   4   4   4   4   4   4   4
#     4  10  21  43  58  85 123 160 190 259 313 351
#     4   9  20  38  62  83 125 162 197 243 308 364
#     4  11  21  35  57  91 120 153 208 253 294 354
#     4  10  23  38  62  91 121 148 203 255 305 369
#     4   9  20  39  59  82 115 166 198 239 306 371
#     4   9  19  36  59  82 115 159 199 243 295 360
#     4   9  19  38  61  92 112 159 205 241 302 367
#     4   9  21  38  57  81 120 161 199 248 303 360
#
# _framework density 20.809200000000001
#
# number of rings (size 3 to 8) (size 9 to 14) (size 15 to 20)
#    0.000    2.750    0.000    1.125    7.000    2.500 
#   11.250    4.375    0.000    0.000    0.000    0.000 
#    0.000    0.000    0.000    0.000    0.000    0.000 
#
# Total GULP energy -178539.727732 kJ/mol
# GULP energy per Si atom -5579.366492 kJ/mol
# Density = 2.076184 g / cm^3
# Si number density = 20.809200 Si / 1000 Ang^3
#
#
#
# Elastic Constant Matrix: (Units=GPa)
#
#
# Indices 1 2 3 4 5 6 
#
# 1 50.7921 26.3620 15.7112 0.0000 -14.2790 0.0000
# 2 26.3620 122.7887 51.2069 0.0000 -8.4557 0.0000
# 3 15.7112 51.2069 31.5219 0.0000 -0.9086 0.0000
# 4 0.0000 0.0000 0.0000 24.2241 0.0000 3.0834
# 5 -14.2790 -8.4557 -0.9086 0.0000 19.0132 0.0000
# 6 0.0000 0.0000 0.0000 3.0834 0.0000 27.8757
#
#
#
# Elastic Compliance Matrix: (Units=1/GPa)
#
#
# Indices 1 2 3 4 5 6 
#
# 1 0.030857 0.003535 -0.020437 0.000000 0.023770 0.000000
# 2 0.003535 0.027404 -0.045915 0.000000 0.012648 0.000000
# 3 -0.020437 -0.045915 0.115627 0.000000 -0.030243 0.000000
# 4 0.000000 0.000000 0.000000 0.041871 0.000000 -0.004631
# 5 0.023770 0.012648 -0.030243 0.000000 0.074626 0.000000
# 6 0.000000 0.000000 0.000000 -0.004631 0.000000 0.036386
#
#
# Mechanical properties :
#
#
# Convention : Reuss Voigt Hill
#
# Bulk Modulus (GPa) = 20.72379 43.51810 32.12094
# Shear Modulus (GPa) = 10.67258 21.67744 16.17501
#
# Velocity S-wave (km/s) = 2.26714 3.23108 2.79104
# Velocity P-wave (km/s) = 4.10290 5.90577 5.08488
#
# Compressibility (1/GPa) = 0.04825373
#
# Stress axis : x y z
#
# Youngs Moduli (GPa) = 32.40722 36.49075 8.64849
#
# Poissons Ratio (x) = -0.12900 0.17675
# Poissons Ratio (y) = -0.11456 0.39710
# Poissons Ratio (z) = 0.66232 1.67548
#
# Static dielectric constant tensor:
#      x y z
#    x 1.800700 0.000000 0.000100 
#    y 0.000000 1.759910 0.000000 
#    z 0.000100 0.000000 1.745960 
# 
# From -- ./inp_files/51489.got.cif
#   From: 2010.05.17/outbox.cif.g08.bks.cpg/sg13_26_cif.got.tgz:51489.got - 2010.06.03 16:44:36.
