data_PCOD9233654
_publ_section_title
;
Structure prediction by ZEFSAII (Michael W. Deem and Ramdas Pophale) SiO2 
 PCOD9233654
Probable space group: P 2/C
;
_chemical_formula_sum "Si O2"
_cell_formula_units_Z 28
_cell_length_a 9.080032
_cell_length_b 18.540578
_cell_length_c 16.196987
_cell_angle_alpha 90.000000
_cell_angle_beta 31.583752
_cell_angle_gamma 90.000000
_cell_volume 1428.118463
_symmetry_space_group_name_H-M "P 2/C"
_symmetry_group_IT_number 13
_symmetry_cell_setting 'monoclinic'
loop_
_space_group_symop_operation_xyz
x,y,z
-x,y,1/2-z
-x,-y,-z
x,-y,1/2+z
loop_
_atom_site_type_symbol
_atom_site_label
_atom_site_fract_x
_atom_site_fract_y
_atom_site_fract_z
Si Si1 0.280397 0.674161 0.072631
Si Si2 0.227337 0.597379 0.421452
Si Si3 0.164643 0.925181 0.922025
Si Si4 0.856586 0.851998 0.741206
Si Si5 0.188944 0.165291 0.576837
Si Si6 0.843839 0.303744 0.398991
Si Si7 0.689206 0.561734 0.579851
O O1 0.185028 0.747411 0.070818
O O2 0.000000 0.645613 0.250000
O O3 0.518790 0.697283 0.025137
O O4 0.386740 0.612992 0.959420
O O5 0.500000 0.630453 0.250000
O O6 0.105434 0.653751 0.542537
O O7 0.322905 0.524740 0.424171
O O8 0.007841 0.577002 0.455794
O O9 0.500000 0.937034 0.750000
O O10 0.087166 0.884520 0.874777
O O11 0.103684 0.878652 0.034588
O O12 0.000000 0.000000 0.000000
O O13 0.000000 0.891852 0.750000
O O14 0.003406 0.773326 0.667165
O O15 0.525282 0.849653 0.921164
O O16 0.000000 0.148747 0.750000
O O17 0.000000 0.343685 0.250000
O O18 0.500000 0.578433 0.750000
#
# Coordination Sequence:
#
# PCOD9233654 Si02
#       7
#     4   4   4   4   4   4   4
#     4  11  22  37  59  88 117 154 205 249 306 360
#     4  10  22  39  55  84 120 155 204 252 307 359
#     4  10  24  44  67  97 127 165 206 239 301 370
#     4  10  21  42  63  93 129 161 202 255 301 360
#     4  10  22  41  65  93 128 161 203 255 302 359
#     4  11  21  38  59  86 117 155 203 249 302 359
#     4  10  22  37  58  83 116 161 201 249 307 367
#
# _framework density 19.606216
#
# number of rings (size 3 to 8) (size 9 to 14) (size 15 to 20)
#    0.000    1.714    2.857    1.714    2.000    3.429 
#    0.000    2.857    0.000    0.000    0.000    0.000 
#    0.000    0.000    0.000    0.000    0.000    0.000 
#
# Total GULP energy -156042.117147 kJ/mol
# GULP energy per Si atom -5572.932755 kJ/mol
# Density = 1.956159 g / cm^3
# Si number density = 19.606216 Si / 1000 Ang^3
#
#
#
# Elastic Constant Matrix: (Units=GPa)
#
#
# Indices 1 2 3 4 5 6 
#
# 1 90.9884 40.9928 28.2660 0.0000 12.6921 0.0000
# 2 40.9928 66.4343 21.7550 0.0000 21.9665 0.0000
# 3 28.2660 21.7550 96.3811 0.0000 7.8641 0.0000
# 4 0.0000 0.0000 0.0000 13.4097 0.0000 -8.5467
# 5 12.6921 21.9665 7.8641 0.0000 27.2996 0.0000
# 6 0.0000 0.0000 0.0000 -8.5467 0.0000 14.4711
#
#
#
# Elastic Compliance Matrix: (Units=1/GPa)
#
#
# Indices 1 2 3 4 5 6 
#
# 1 0.015828 -0.009157 -0.002638 0.000000 0.000769 0.000000
# 2 -0.009157 0.026929 -0.002020 0.000000 -0.016829 0.000000
# 3 -0.002638 -0.002020 0.011646 0.000000 -0.000503 0.000000
# 4 0.000000 0.000000 0.000000 0.119589 0.000000 0.070631
# 5 0.000769 -0.016829 -0.000503 0.000000 0.049959 0.000000
# 6 0.000000 0.000000 0.000000 0.070631 0.000000 0.110818
#
#
# Mechanical properties :
#
#
# Convention : Reuss Voigt Hill
#
# Bulk Modulus (GPa) = 37.35019 48.42571 42.88795
# Shear Modulus (GPa) = 13.46534 21.88875 17.67704
#
# Velocity S-wave (km/s) = 2.62351 3.34491 3.00593
# Velocity P-wave (km/s) = 5.31682 6.29847 5.82835
#
# Compressibility (1/GPa) = 0.02677363
#
# Stress axis : x y z
#
# Youngs Moduli (GPa) = 63.17871 37.13505 85.86634
#
# Poissons Ratio (x) = 0.34005 0.22650
# Poissons Ratio (y) = 0.57854 0.17341
# Poissons Ratio (z) = 0.16665 0.07500
#
# Static dielectric constant tensor:
#      x y z
#    x 1.701470 0.000000 -0.019670 
#    y 0.000000 1.687530 0.000000 
#    z -0.019670 0.000000 1.711650 
# 
# From -- ./inp_files/48215.got.cif
#   From: 2010.05.17/outbox.cif.g08.bks.cpg/sg13_25_cif.got.tgz:48215.got - 2010.06.03 16:44:36.
