data_PCOD9233223
_publ_section_title
;
Structure prediction by ZEFSAII (Michael W. Deem and Ramdas Pophale) SiO2 
 PCOD9233223
Probable space group: P 2/C
;
_chemical_formula_sum "Si O2"
_cell_formula_units_Z 28
_cell_length_a 24.903580
_cell_length_b 11.241257
_cell_length_c 25.062252
_cell_angle_alpha 90.000000
_cell_angle_beta 11.352158
_cell_angle_gamma 90.000000
_cell_volume 1381.043441
_symmetry_space_group_name_H-M "P 2/C"
_symmetry_group_IT_number 13
_symmetry_cell_setting 'monoclinic'
loop_
_space_group_symop_operation_xyz
x,y,z
-x,y,1/2-z
-x,-y,-z
x,-y,1/2+z
loop_
_atom_site_type_symbol
_atom_site_label
_atom_site_fract_x
_atom_site_fract_y
_atom_site_fract_z
Si Si1 0.253228 0.431678 0.284265
Si Si2 0.459357 0.885947 0.726062
Si Si3 0.043771 0.263635 0.073553
Si Si4 0.985723 0.513203 0.704447
Si Si5 0.962846 0.036208 0.222732
Si Si6 0.501828 0.319642 0.949110
Si Si7 0.423013 0.375344 0.231436
O O1 0.468374 0.537912 0.083956
O O2 0.225320 0.388776 0.371995
O O3 0.000000 0.500000 0.500000
O O4 0.387733 0.321847 0.120715
O O5 0.500000 0.873361 0.750000
O O6 0.518429 0.759887 0.642149
O O7 0.654341 0.991927 0.515864
O O8 0.149740 0.927080 0.021626
O O9 0.086889 0.385062 0.064872
O O10 0.733098 0.268596 0.358122
O O11 0.064400 0.150659 0.091508
O O12 0.225261 0.266603 0.842781
O O13 0.000000 0.565775 0.750000
O O14 0.213078 0.409712 0.482774
O O15 0.689022 0.460848 0.977687
O O16 0.000000 0.056550 0.250000
#
# Coordination Sequence:
#
# PCOD9233223 Si02
#       7
#     4   4   4   4   4   4   4
#     4  11  22  40  62  91 125 163 205 250 308 376
#     4  10  21  40  61  86 117 162 210 246 287 359
#     4  12  21  39  59  91 122 158 196 252 304 365
#     4  12  23  36  56  92 129 156 185 245 320 375
#     4  10  22  40  63  86 118 165 212 245 291 362
#     4  11  22  36  60  88 121 154 201 247 302 362
#     4  12  24  39  62  90 125 160 203 249 310 366
#
# _framework density 20.274526000000002
#
# number of rings (size 3 to 8) (size 9 to 14) (size 15 to 20)
#    0.000    0.857    4.286    3.429    2.000    1.143 
#    0.000    4.286    0.000    5.143    0.000    0.000 
#    0.000    0.000    0.000    0.000    0.000    0.000 
#
# Total GULP energy -155939.946909 kJ/mol
# GULP energy per Si atom -5569.283818 kJ/mol
# Density = 2.022838 g / cm^3
# Si number density = 20.274526 Si / 1000 Ang^3
#
#
#
# Elastic Constant Matrix: (Units=GPa)
#
#
# Indices 1 2 3 4 5 6 
#
# 1 55.5421 16.5757 14.8544 0.0000 3.3998 0.0000
# 2 16.5757 62.5379 9.2459 0.0000 -1.4714 0.0000
# 3 14.8544 9.2459 96.3396 0.0000 -6.1033 0.0000
# 4 0.0000 0.0000 0.0000 17.5108 0.0000 -1.7713
# 5 3.3998 -1.4714 -6.1033 0.0000 25.3587 0.0000
# 6 0.0000 0.0000 0.0000 -1.7713 0.0000 14.5716
#
#
#
# Elastic Compliance Matrix: (Units=1/GPa)
#
#
# Indices 1 2 3 4 5 6 
#
# 1 0.020535 -0.005100 -0.002914 0.000000 -0.003751 0.000000
# 2 -0.005100 0.017495 -0.000797 0.000000 0.001507 0.000000
# 3 -0.002914 -0.000797 0.011097 0.000000 0.003015 0.000000
# 4 0.000000 0.000000 0.000000 0.057818 0.000000 0.007028
# 5 -0.003751 0.001507 0.003015 0.000000 0.040750 0.000000
# 6 0.000000 0.000000 0.000000 0.007028 0.000000 0.069481
#
#
# Mechanical properties :
#
#
# Convention : Reuss Voigt Hill
#
# Bulk Modulus (GPa) = 31.74206 32.86350 32.30278
# Shear Modulus (GPa) = 20.38299 23.07114 21.72707
#
# Velocity S-wave (km/s) = 3.17417 3.37699 3.27715
# Velocity P-wave (km/s) = 5.39666 5.60802 5.50335
#
# Compressibility (1/GPa) = 0.03150394
#
# Stress axis : x y z
#
# Youngs Moduli (GPa) = 48.69617 57.15767 90.11568
#
# Poissons Ratio (x) = 0.29152 0.26264
# Poissons Ratio (y) = 0.24837 0.07184
# Poissons Ratio (z) = 0.14192 0.04557
#
# Static dielectric constant tensor:
#      x y z
#    x 1.815070 0.000000 0.053160 
#    y 0.000000 1.702090 0.000000 
#    z 0.053160 0.000000 1.756080 
# 
# From -- ./inp_files/94118.got.cif
#   From: 2010.05.17/outbox.cif.g08.bks.cpg/sg13_48_cif.got.tgz:94118.got - 2010.06.03 16:44:36.
