data_PCOD9233811
_publ_section_title
;
Structure prediction by ZEFSAII (Michael W. Deem and Ramdas Pophale) SiO2 
 PCOD9233811
Probable space group: P 2/C
;
_chemical_formula_sum "Si O2"
_cell_formula_units_Z 30
_cell_length_a 16.759243
_cell_length_b 5.498737
_cell_length_c 13.948714
_cell_angle_alpha 90.000000
_cell_angle_beta 79.652693
_cell_angle_gamma 90.000000
_cell_volume 1264.534126
_symmetry_space_group_name_H-M "P 2/C"
_symmetry_group_IT_number 13
_symmetry_cell_setting 'monoclinic'
loop_
_space_group_symop_operation_xyz
x,y,z
-x,y,1/2-z
-x,-y,-z
x,-y,1/2+z
loop_
_atom_site_type_symbol
_atom_site_label
_atom_site_fract_x
_atom_site_fract_y
_atom_site_fract_z
Si Si1 0.759765 0.818123 0.686306
Si Si2 0.096802 0.160651 0.622057
Si Si3 0.905895 0.132185 0.657379
Si Si4 0.676710 0.888336 0.042667
Si Si5 0.164070 0.340370 0.021490
Si Si6 0.500000 0.818248 0.750000
Si Si7 0.635280 0.555085 0.212091
Si Si8 0.374622 0.931191 0.146159
O O1 0.726315 0.546828 0.695860
O O2 0.854062 0.880732 0.671981
O O3 0.731394 0.921839 0.589717
O O4 0.704859 0.959082 0.779132
O O5 0.105707 0.226445 0.732296
O O6 0.131332 0.397677 0.560743
O O7 0.001737 0.118060 0.620599
O O8 0.136336 0.898804 0.588617
O O9 0.868624 0.284837 0.578374
O O10 0.738579 0.678367 0.994551
O O11 0.634465 0.009032 0.962151
O O12 0.624013 0.767770 0.137789
O O13 0.427140 0.650874 0.803359
O O14 0.544542 0.957198 0.825487
O O15 0.620150 0.652516 0.322021
#
# Coordination Sequence:
#
# PCOD9233811 Si02
#       8
#     4   4   4   4   4   2   4   4
#     4   9  21  42  62 100 133 176 234 287 347 416
#     4  11  25  45  67 105 142 193 247 293 372 428
#     4  10  23  44  69 100 142 188 239 305 356 426
#     4  10  23  41  66 100 135 179 237 290 346 425
#     4  11  25  45  68 103 145 189 244 305 357 427
#     4  10  22  42  68  96 142 170 228 282 358 434
#     4  10  22  43  69  98 133 183 223 286 361 426
#     4  10  21  43  64  99 135 176 227 289 350 428
#
# _framework density 23.724152
#
# number of rings (size 3 to 8) (size 9 to 14) (size 15 to 20)
#    0.000    1.867    0.000    2.000    3.733    5.867 
#   26.400    9.333    0.000    0.000    0.000    0.000 
#    0.000    0.000    0.000    0.000    0.000    0.000 
#
# Total GULP energy -167673.024663 kJ/mol
# GULP energy per Si atom -5589.100822 kJ/mol
# Density = 2.367015 g / cm^3
# Si number density = 23.724152 Si / 1000 Ang^3
#
#
#
# Elastic Constant Matrix: (Units=GPa)
#
#
# Indices 1 2 3 4 5 6 
#
# 1 71.0432 15.7498 15.7293 0.0000 12.8421 0.0000
# 2 15.7498 87.2599 21.5422 0.0000 0.4235 0.0000
# 3 15.7293 21.5422 97.4569 0.0000 28.0543 0.0000
# 4 0.0000 0.0000 0.0000 19.0410 0.0000 -9.7388
# 5 12.8421 0.4235 28.0543 0.0000 33.8105 0.0000
# 6 0.0000 0.0000 0.0000 -9.7388 0.0000 35.7699
#
#
#
# Elastic Compliance Matrix: (Units=1/GPa)
#
#
# Indices 1 2 3 4 5 6 
#
# 1 0.015784 -0.002748 -0.000294 0.000000 -0.005716 0.000000
# 2 -0.002748 0.012794 -0.003467 0.000000 0.003760 0.000000
# 3 -0.000294 -0.003467 0.014491 0.000000 -0.011869 0.000000
# 4 0.000000 0.000000 0.000000 0.061015 0.000000 0.016612
# 5 -0.005716 0.003760 -0.011869 0.000000 0.041549 0.000000
# 6 0.000000 0.000000 0.000000 0.016612 0.000000 0.032479
#
#
# Mechanical properties :
#
#
# Convention : Reuss Voigt Hill
#
# Bulk Modulus (GPa) = 33.27833 40.20029 36.73931
# Shear Modulus (GPa) = 24.85733 31.24020 28.04876
#
# Velocity S-wave (km/s) = 3.24043 3.63272 3.44217
# Velocity P-wave (km/s) = 5.29700 5.88024 5.59622
#
# Compressibility (1/GPa) = 0.03004959
#
# Stress axis : x y z
#
# Youngs Moduli (GPa) = 63.35631 78.16345 69.00624
#
# Poissons Ratio (x) = 0.21483 0.02032
# Poissons Ratio (y) = 0.17413 0.23923
# Poissons Ratio (z) = 0.01865 0.27098
#
# Static dielectric constant tensor:
#      x y z
#    x 1.922360 0.000000 -0.054630 
#    y 0.000000 1.948600 0.000000 
#    z -0.054630 0.000000 1.908090 
# 
# From -- ./inp_files/54476.got.cif
#   From: 2010.05.17/outbox.cif.g08.bks.cpg/sg13_28_cif.got.tgz:54476.got - 2010.06.03 16:44:36.
