data_PCOD9233431
_publ_section_title
;
Structure prediction by ZEFSAII (Michael W. Deem and Ramdas Pophale) SiO2 
 PCOD9233431
Probable space group: P 2/C
;
_chemical_formula_sum "Si O2"
_cell_formula_units_Z 26
_cell_length_a 16.303852
_cell_length_b 11.678443
_cell_length_c 22.639061
_cell_angle_alpha 90.000000
_cell_angle_beta 161.338829
_cell_angle_gamma 90.000000
_cell_volume 1379.253821
_symmetry_space_group_name_H-M "P 2/C"
_symmetry_group_IT_number 13
_symmetry_cell_setting 'monoclinic'
loop_
_space_group_symop_operation_xyz
x,y,z
-x,y,1/2-z
-x,-y,-z
x,-y,1/2+z
loop_
_atom_site_type_symbol
_atom_site_label
_atom_site_fract_x
_atom_site_fract_y
_atom_site_fract_z
Si Si1 0.688475 0.965154 0.984615
Si Si2 0.236362 0.450552 0.243647
Si Si3 0.581443 0.804126 0.153976
Si Si4 0.942123 0.330869 0.494349
Si Si5 0.259505 0.079021 0.852039
Si Si6 0.500000 0.813420 0.750000
Si Si7 0.254671 0.594788 0.890825
O O1 0.552261 0.895101 0.840966
O O2 0.541071 0.081778 0.901433
O O3 0.698831 0.888317 0.051369
O O4 0.983484 0.983527 0.165270
O O5 0.192582 0.365989 0.158965
O O6 0.519536 0.504865 0.441220
O O7 0.197502 0.397994 0.281965
O O8 0.044969 0.556178 0.098424
O O9 0.723788 0.828621 0.188299
O O10 0.804527 0.745794 0.344763
O O11 0.357552 0.714904 0.986492
O O12 0.741423 0.264483 0.398049
O O13 0.500000 0.000000 0.000000
O O14 0.000000 0.558810 0.750000
#
# Coordination Sequence:
#
# PCOD9233431 Si02
#       7
#     4   4   4   4   4   2   4
#     4  10  22  39  58  91 121 163 209 252 298 372
#     4   9  22  45  63  92 126 157 206 270 312 371
#     4  10  21  41  59  89 126 161 207 256 305 374
#     4  10  22  42  63  90 127 163 204 256 326 372
#     4   9  19  38  60  78 120 164 200 252 295 350
#     4  12  24  38  62  94 122 172 208 246 320 380
#     4  10  22  39  67  96 118 160 211 257 319 372
#
# _framework density 18.850771000000002
#
# number of rings (size 3 to 8) (size 9 to 14) (size 15 to 20)
#    0.000    2.154    1.538    0.000    8.615    0.615 
#    2.769    0.000    0.000    0.000    0.000    0.000 
#    0.000    0.000    0.000    0.000    0.000    0.000 
#
# Total GULP energy -144950.829585 kJ/mol
# GULP energy per Si atom -5575.031907 kJ/mol
# Density = 1.880787 g / cm^3
# Si number density = 18.850771 Si / 1000 Ang^3
#
#
#
# Elastic Constant Matrix: (Units=GPa)
#
#
# Indices 1 2 3 4 5 6 
#
# 1 83.8829 24.2479 40.2677 0.0000 -9.8886 0.0000
# 2 24.2479 44.6602 19.0920 0.0000 -10.0699 0.0000
# 3 40.2677 19.0920 80.9675 0.0000 -9.3557 0.0000
# 4 0.0000 0.0000 0.0000 7.0418 0.0000 -0.3325
# 5 -9.8886 -10.0699 -9.3557 0.0000 35.3345 0.0000
# 6 0.0000 0.0000 0.0000 -0.3325 0.0000 27.4559
#
#
#
# Elastic Compliance Matrix: (Units=1/GPa)
#
#
# Indices 1 2 3 4 5 6 
#
# 1 0.017162 -0.006064 -0.006963 0.000000 0.001231 0.000000
# 2 -0.006064 0.028216 -0.002996 0.000000 0.005551 0.000000
# 3 -0.006963 -0.002996 0.016707 0.000000 0.001621 0.000000
# 4 0.000000 0.000000 0.000000 0.142090 0.000000 0.001721
# 5 0.001231 0.005551 0.001621 0.000000 0.030657 0.000000
# 6 0.000000 0.000000 0.000000 0.001721 0.000000 0.036443
#
#
# Mechanical properties :
#
#
# Convention : Reuss Voigt Hill
#
# Bulk Modulus (GPa) = 33.28966 41.85844 37.57405
# Shear Modulus (GPa) = 15.95739 22.35997 19.15868
#
# Velocity S-wave (km/s) = 2.91264 3.44780 3.19146
# Velocity P-wave (km/s) = 5.38602 6.17277 5.79277
#
# Compressibility (1/GPa) = 0.03003936
#
# Stress axis : x y z
#
# Youngs Moduli (GPa) = 58.26839 35.44085 59.85350
#
# Poissons Ratio (x) = 0.21490 0.41677
# Poissons Ratio (y) = 0.35332 0.17934
# Poissons Ratio (z) = 0.40573 0.10619
#
# Static dielectric constant tensor:
#      x y z
#    x 1.653940 0.000000 -0.010480 
#    y 0.000000 1.664160 0.000000 
#    z -0.010480 0.000000 1.665210 
# 
# From -- ./inp_files/80237.got.cif
#   From: 2010.05.17/outbox.cif.g08.bks.cpg/sg13_41_cif.got.tgz:80237.got - 2010.06.03 16:44:36.
