data_PCOD9233601
_publ_section_title
;
Structure prediction by ZEFSAII (Michael W. Deem and Ramdas Pophale) SiO2 
 PCOD9233601
Probable space group: P 2/C
;
_chemical_formula_sum "Si O2"
_cell_formula_units_Z 20
_cell_length_a 9.212009
_cell_length_b 6.812161
_cell_length_c 17.070182
_cell_angle_alpha 90.000000
_cell_angle_beta 138.929086
_cell_angle_gamma 90.000000
_cell_volume 703.781584
_symmetry_space_group_name_H-M "P 2/C"
_symmetry_group_IT_number 13
_symmetry_cell_setting 'monoclinic'
loop_
_space_group_symop_operation_xyz
x,y,z
-x,y,1/2-z
-x,-y,-z
x,-y,1/2+z
loop_
_atom_site_type_symbol
_atom_site_label
_atom_site_fract_x
_atom_site_fract_y
_atom_site_fract_z
Si Si1 0.664441 0.787286 0.249535
Si Si2 0.044378 0.762657 0.508406
Si Si3 0.445892 0.727018 0.995531
Si Si4 0.011610 0.411047 0.165347
Si Si5 0.466393 0.209060 0.339869
O O1 0.500000 0.712779 0.250000
O O2 0.911145 0.716490 0.371682
O O3 0.562313 0.755529 0.124415
O O4 0.649399 0.023066 0.246023
O O5 0.957055 0.636971 0.546609
O O6 0.304321 0.728344 0.604126
O O7 0.000000 0.000000 0.500000
O O8 0.500000 0.500000 0.000000
O O9 0.181170 0.746737 0.888752
O O10 0.535585 0.841995 0.957165
O O11 0.000000 0.524530 0.250000
O O12 0.272074 0.366009 0.265696
#
# Coordination Sequence:
#
# PCOD9233601 Si02
#       5
#     4   4   4   4   4
#     4  12  22  41  75 105 142 184 239 302 360 424
#     4  12  21  39  69 109 142 172 238 299 362 421
#     4  11  26  49  69 100 145 195 240 290 358 440
#     4  10  21  41  70  94 138 187 223 287 356 420
#     4  11  23  43  72 104 144 184 234 300 361 423
#
# _framework density 28.417909999999999
#
# number of rings (size 3 to 8) (size 9 to 14) (size 15 to 20)
#    0.000    0.800    6.000    1.200    0.000    2.400 
#   10.800    6.000    0.000    0.000    0.000    0.000 
#    0.000    0.000    0.000    0.000    0.000    0.000 
#
# Total GULP energy -111461.345873 kJ/mol
# GULP energy per Si atom -5573.067294 kJ/mol
# Density = 2.835323 g / cm^3
# Si number density = 28.417910 Si / 1000 Ang^3
#
#
#
# Elastic Constant Matrix: (Units=GPa)
#
#
# Indices 1 2 3 4 5 6 
#
# 1 126.9931 -28.9114 43.5574 0.0000 -4.6779 0.0000
# 2 -28.9114 45.0408 24.8655 0.0000 15.2520 0.0000
# 3 43.5574 24.8655 237.2605 0.0000 -19.2034 0.0000
# 4 0.0000 0.0000 0.0000 43.4845 0.0000 33.7681
# 5 -4.6779 15.2520 -19.2034 0.0000 92.2547 0.0000
# 6 0.0000 0.0000 0.0000 33.7681 0.0000 -69.1443
#
#
#
# Elastic Compliance Matrix: (Units=1/GPa)
#
#
# Indices 1 2 3 4 5 6 
#
# 1 0.011022 0.009363 -0.003138 0.000000 -0.001642 0.000000
# 2 0.009363 0.033498 -0.005736 0.000000 -0.006257 0.000000
# 3 -0.003138 -0.005736 0.005549 0.000000 0.001944 0.000000
# 4 0.000000 0.000000 0.000000 0.016673 0.000000 0.008143
# 5 -0.001642 -0.006257 0.001944 0.000000 0.012195 0.000000
# 6 0.000000 0.000000 0.000000 0.008143 0.000000 -0.010486
#
#
# Mechanical properties :
#
#
# Convention : Reuss Voigt Hill
#
# Bulk Modulus (GPa) = 19.58963 54.25750 36.92356
# Shear Modulus (GPa) = 59.17956 37.97115 48.57535
#
# Velocity S-wave (km/s) = 4.56836 3.65933 4.13888
# Velocity P-wave (km/s) = 5.89364 6.08181 5.98846
#
# Compressibility (1/GPa) = 0.05104743
#
# Stress axis : x y z
#
# Youngs Moduli (GPa) = 90.73008 29.85290 180.20275
#
# Poissons Ratio (x) = -0.27951 0.56540
# Poissons Ratio (y) = -0.84950 1.03364
# Poissons Ratio (z) = 0.28467 0.17124
#
# Static dielectric constant tensor:
#      x y z
#    x 0.655350 0.000000 0.881290 
#    y 0.000000 2.026950 0.000000 
#    z 0.881290 0.000000 1.639410 
# 
# From -- ./inp_files/66152.got.cif
#   From: 2010.05.17/outbox.cif.g08.bks.cpg/sg13_34_cif.got.tgz:66152.got - 2010.06.03 16:44:36.
