data_PCOD9233005
_publ_section_title
;
Structure prediction by ZEFSAII (Michael W. Deem and Ramdas Pophale) SiO2 
 PCOD9233005
Probable space group: P 2/C
;
_chemical_formula_sum "Si O2"
_cell_formula_units_Z 22
_cell_length_a 15.539686
_cell_length_b 8.563069
_cell_length_c 26.285015
_cell_angle_alpha 90.000000
_cell_angle_beta 16.818681
_cell_angle_gamma 90.000000
_cell_volume 1012.032032
_symmetry_space_group_name_H-M "P 2/C"
_symmetry_group_IT_number 13
_symmetry_cell_setting 'monoclinic'
loop_
_space_group_symop_operation_xyz
x,y,z
-x,y,1/2-z
-x,-y,-z
x,-y,1/2+z
loop_
_atom_site_type_symbol
_atom_site_label
_atom_site_fract_x
_atom_site_fract_y
_atom_site_fract_z
Si Si1 0.057932 0.187697 0.364026
Si Si2 0.500000 0.617729 0.750000
Si Si3 0.637758 0.621905 0.562940
Si Si4 0.206883 0.172519 0.767642
Si Si5 0.221276 0.670233 0.577885
Si Si6 0.919535 0.818239 0.051011
O O1 0.856096 0.222933 0.528393
O O2 0.953990 0.275161 0.372947
O O3 0.084456 0.003887 0.336243
O O4 0.383003 0.251232 0.195990
O O5 0.557297 0.540602 0.662850
O O6 0.212885 0.724431 0.902063
O O7 0.646864 0.497513 0.512735
O O8 0.949907 0.710250 0.394369
O O9 0.506480 0.209964 0.567839
O O10 0.282588 0.199925 0.784874
O O11 0.000000 0.660994 0.750000
O O12 0.000000 0.000000 0.000000
#
# Coordination Sequence:
#
# PCOD9233005 Si02
#       6
#     4   2   4   4   4   4
#     4  10  21  40  65  92 120 152 193 241 296 358
#     4   8  16  32  54  86 118 148 188 232 290 362
#     4  10  21  39  62  88 122 156 190 241 301 358
#     4  10  21  40  65  92 120 152 193 241 296 358
#     4  12  27  42  57  83 119 161 207 250 291 334
#     4   8  16  31  58  91 120 146 178 232 300 360
#
# _framework density 21.738443
#
# number of rings (size 3 to 8) (size 9 to 14) (size 15 to 20)
#    0.000    2.182    0.000    2.182    0.000   10.182 
#    0.000    7.273    0.000    0.000    0.000    0.000 
#    0.000    0.000    0.000    0.000    0.000    0.000 
#
# Total GULP energy -122809.188704 kJ/mol
# GULP energy per Si atom -5582.235850 kJ/mol
# Density = 2.168897 g / cm^3
# Si number density = 21.738443 Si / 1000 Ang^3
#
#
#
# Elastic Constant Matrix: (Units=GPa)
#
#
# Indices 1 2 3 4 5 6 
#
# 1 39.8654 -7.9080 -4.9635 0.0000 5.1221 0.0000
# 2 -7.9080 59.5463 -0.4221 0.0000 7.8760 0.0000
# 3 -4.9635 -0.4221 75.0578 0.0000 25.6025 0.0000
# 4 0.0000 0.0000 0.0000 17.5960 0.0000 23.1338
# 5 5.1221 7.8760 25.6025 0.0000 38.3350 0.0000
# 6 0.0000 0.0000 0.0000 23.1338 0.0000 -27.2677
#
#
#
# Elastic Compliance Matrix: (Units=1/GPa)
#
#
# Indices 1 2 3 4 5 6 
#
# 1 0.027548 0.004697 0.004446 0.000000 -0.007615 0.000000
# 2 0.004697 0.018231 0.002467 0.000000 -0.006021 0.000000
# 3 0.004446 0.002467 0.018139 0.000000 -0.013215 0.000000
# 4 0.000000 0.000000 0.000000 0.026865 0.000000 0.022792
# 5 -0.007615 -0.006021 -0.013215 0.000000 0.037166 0.000000
# 6 0.000000 0.000000 0.000000 0.022792 0.000000 -0.017336
#
#
# Mechanical properties :
#
#
# Convention : Reuss Voigt Hill
#
# Bulk Modulus (GPa) = 11.47611 16.43136 13.95373
# Shear Modulus (GPa) = 42.94080 18.25020 30.59550
#
# Velocity S-wave (km/s) = 4.44930 2.90062 3.75565
# Velocity P-wave (km/s) = 5.62900 4.33511 5.02389
#
# Compressibility (1/GPa) = 0.08713755
#
# Stress axis : x y z
#
# Youngs Moduli (GPa) = 36.30015 54.85068 55.13101
#
# Poissons Ratio (x) = -0.25765 -0.24509
# Poissons Ratio (y) = -0.17051 -0.13600
# Poissons Ratio (z) = -0.16138 -0.13531
#
# Static dielectric constant tensor:
#      x y z
#    x 1.792320 0.000000 0.008460 
#    y 0.000000 1.886440 0.000000 
#    z 0.008460 0.000000 1.798480 
# 
# From -- ./inp_files/87247.got.cif
#   From: 2010.05.17/outbox.cif.g08.bks.cpg/sg13_44_cif.got.tgz:87247.got - 2010.06.03 16:44:36.
