data_PCOD9233806
_publ_section_title
;
Structure prediction by ZEFSAII (Michael W. Deem and Ramdas Pophale) SiO2 
 PCOD9233806
Probable space group: P 2/C
;
_chemical_formula_sum "Si O2"
_cell_formula_units_Z 28
_cell_length_a 20.184519
_cell_length_b 8.943459
_cell_length_c 14.345262
_cell_angle_alpha 90.000000
_cell_angle_beta 28.149723
_cell_angle_gamma 90.000000
_cell_volume 1221.713562
_symmetry_space_group_name_H-M "P 2/C"
_symmetry_group_IT_number 13
_symmetry_cell_setting 'monoclinic'
loop_
_space_group_symop_operation_xyz
x,y,z
-x,y,1/2-z
-x,-y,-z
x,-y,1/2+z
loop_
_atom_site_type_symbol
_atom_site_label
_atom_site_fract_x
_atom_site_fract_y
_atom_site_fract_z
Si Si1 0.401815 0.888396 0.070765
Si Si2 0.816261 0.297099 0.564945
Si Si3 0.152795 0.545965 0.103693
Si Si4 0.996031 0.003832 0.151393
Si Si5 0.531419 0.617141 0.817667
Si Si6 0.815784 0.870101 0.733871
Si Si7 0.241252 0.482013 0.203621
O O1 0.335392 0.772240 0.226714
O O2 0.289883 0.001394 0.167200
O O3 0.482417 0.785377 0.898020
O O4 0.500000 0.000000 0.000000
O O5 0.838676 0.373162 0.438534
O O6 0.838334 0.426255 0.615801
O O7 0.912168 0.154120 0.459695
O O8 0.181364 0.550925 0.179718
O O9 0.000000 0.596316 0.250000
O O10 0.300351 0.606682 0.874956
O O11 0.852095 0.070431 0.291801
O O12 0.000000 0.939351 0.250000
O O13 0.054853 0.891815 0.999909
O O14 0.500000 0.579557 0.750000
O O15 0.407750 0.515021 0.016301
O O16 0.776303 0.696510 0.777807
#
# Coordination Sequence:
#
# PCOD9233806 Si02
#       7
#     4   4   4   4   4   4   4
#     4  10  23  42  64  92 129 177 221 272 331 388
#     4  10  22  40  69  92 134 172 211 280 328 389
#     4  11  23  40  69 102 132 173 217 274 337 395
#     4  10  21  43  64  94 142 175 216 279 335 402
#     4   9  22  45  65  93 135 169 218 282 327 389
#     4  10  22  39  66  97 129 179 224 273 336 398
#     4  10  22  42  67  99 131 171 227 276 331 392
#
# _framework density 22.918628999999999
#
# number of rings (size 3 to 8) (size 9 to 14) (size 15 to 20)
#    0.000    2.000    0.000    2.143    4.000    3.429 
#    7.714    7.143    0.000    0.000    0.000    0.000 
#    0.000    0.000    0.000    0.000    0.000    0.000 
#
# Total GULP energy -156066.977002 kJ/mol
# GULP energy per Si atom -5573.820607 kJ/mol
# Density = 2.286647 g / cm^3
# Si number density = 22.918629 Si / 1000 Ang^3
#
#
#
# Elastic Constant Matrix: (Units=GPa)
#
#
# Indices 1 2 3 4 5 6 
#
# 1 90.9389 6.7617 22.1927 0.0000 -6.0612 0.0000
# 2 6.7617 112.9146 20.5699 0.0000 -9.3893 0.0000
# 3 22.1927 20.5699 65.4881 0.0000 -19.7900 0.0000
# 4 0.0000 0.0000 0.0000 91.3863 0.0000 -21.4497
# 5 -6.0612 -9.3893 -19.7900 0.0000 36.4308 0.0000
# 6 0.0000 0.0000 0.0000 -21.4497 0.0000 37.8600
#
#
#
# Elastic Compliance Matrix: (Units=1/GPa)
#
#
# Indices 1 2 3 4 5 6 
#
# 1 0.011990 0.000016 -0.004144 0.000000 -0.000252 0.000000
# 2 0.000016 0.009423 -0.002669 0.000000 0.000982 0.000000
# 3 -0.004144 -0.002669 0.020454 0.000000 0.009734 0.000000
# 4 0.000000 0.000000 0.000000 0.012621 0.000000 0.007150
# 5 -0.000252 0.000982 0.009734 0.000000 0.032948 0.000000
# 6 0.000000 0.000000 0.000000 0.007150 0.000000 0.030464
#
#
# Mechanical properties :
#
#
# Convention : Reuss Voigt Hill
#
# Bulk Modulus (GPa) = 35.36942 40.93222 38.15082
# Shear Modulus (GPa) = 35.48160 47.78993 41.63576
#
# Velocity S-wave (km/s) = 3.93893 4.57135 4.26687
# Velocity P-wave (km/s) = 6.01274 6.76473 6.39979
#
# Compressibility (1/GPa) = 0.02827301
#
# Stress axis : x y z
#
# Youngs Moduli (GPa) = 83.40439 106.12266 48.88994
#
# Poissons Ratio (x) = -0.00170 0.20262
# Poissons Ratio (y) = -0.00134 0.13047
# Poissons Ratio (z) = 0.34566 0.28320
#
# Static dielectric constant tensor:
#      x y z
#    x 1.899750 0.000000 -0.036040 
#    y 0.000000 1.800050 0.000000 
#    z -0.036040 0.000000 1.996870 
# 
# From -- ./inp_files/57446.got.cif
#   From: 2010.05.17/outbox.cif.g08.bks.cpg/sg13_29_cif.got.tgz:57446.got - 2010.06.03 16:44:36.
