data_PCOD9233454
_publ_section_title
;
Structure prediction by ZEFSAII (Michael W. Deem and Ramdas Pophale) SiO2 
 PCOD9233454
Probable space group: P 2/C
;
_chemical_formula_sum "Si O2"
_cell_formula_units_Z 22
_cell_length_a 5.263956
_cell_length_b 13.334331
_cell_length_c 14.763730
_cell_angle_alpha 90.000000
_cell_angle_beta 71.832741
_cell_angle_gamma 90.000000
_cell_volume 984.627409
_symmetry_space_group_name_H-M "P 2/C"
_symmetry_group_IT_number 13
_symmetry_cell_setting 'monoclinic'
loop_
_space_group_symop_operation_xyz
x,y,z
-x,y,1/2-z
-x,-y,-z
x,-y,1/2+z
loop_
_atom_site_type_symbol
_atom_site_label
_atom_site_fract_x
_atom_site_fract_y
_atom_site_fract_z
Si Si1 0.855207 0.206208 0.355763
Si Si2 0.270761 0.288535 0.449177
Si Si3 0.459165 0.297455 0.625813
Si Si4 0.000000 0.990729 0.750000
Si Si5 0.500000 0.124905 0.750000
Si Si6 0.707325 0.501431 0.141523
Si Si7 0.000000 0.412958 0.750000
O O1 0.545288 0.234800 0.386492
O O2 0.000000 0.251315 0.250000
O O3 0.012818 0.244750 0.426350
O O4 0.900034 0.087257 0.338253
O O5 0.289476 0.277613 0.554691
O O6 0.292389 0.404939 0.419953
O O7 0.567868 0.195984 0.656384
O O8 0.646771 0.395262 0.594794
O O9 0.248779 0.339899 0.722268
O O10 0.754563 0.057766 0.745443
O O11 0.500000 0.485210 0.250000
O O12 0.986737 0.519106 0.162731
#
# Coordination Sequence:
#
# PCOD9233454 Si02
#       7
#     4   4   4   2   2   4   2
#     4  10  24  46  67  97 131 167 228 271 341 411
#     4  12  25  40  71 103 137 175 211 285 329 381
#     4  11  25  40  65 102 138 173 232 262 320 411
#     4  10  25  45  76  88 126 182 223 281 348 404
#     4  12  22  46  70  92 126 190 218 276 346 386
#     4  10  22  39  63  98 138 182 219 258 323 400
#     4  10  21  41  62  88 146 184 229 253 306 402
#
# _framework density 22.343475999999999
#
# number of rings (size 3 to 8) (size 9 to 14) (size 15 to 20)
#    0.545    0.727    2.727    3.818    8.909    0.727 
#    0.000    5.455    0.000    0.000    0.000    0.000 
#    0.000    0.000    0.000    0.000    0.000    0.000 
#
# Total GULP energy -122890.385854 kJ/mol
# GULP energy per Si atom -5585.926630 kJ/mol
# Density = 2.229262 g / cm^3
# Si number density = 22.343476 Si / 1000 Ang^3
#
#
#
# Elastic Constant Matrix: (Units=GPa)
#
#
# Indices 1 2 3 4 5 6 
#
# 1 88.7272 52.6493 3.1473 0.0000 25.0219 0.0000
# 2 52.6493 163.8366 41.7288 0.0000 27.0676 0.0000
# 3 3.1473 41.7288 85.6167 0.0000 29.6911 0.0000
# 4 0.0000 0.0000 0.0000 11.4151 0.0000 20.3584
# 5 25.0219 27.0676 29.6911 0.0000 42.4668 0.0000
# 6 0.0000 0.0000 0.0000 20.3584 0.0000 39.8999
#
#
#
# Elastic Compliance Matrix: (Units=1/GPa)
#
#
# Indices 1 2 3 4 5 6 
#
# 1 0.017172 -0.005173 0.005618 0.000000 -0.010748 0.000000
# 2 -0.005173 0.008775 -0.004230 0.000000 0.000412 0.000000
# 3 0.005618 -0.004230 0.018148 0.000000 -0.013302 0.000000
# 4 0.000000 0.000000 0.000000 0.973240 0.000000 -0.496583
# 5 -0.010748 0.000412 -0.013302 0.000000 0.038918 0.000000
# 6 0.000000 0.000000 0.000000 -0.496583 0.000000 0.278437
#
#
# Mechanical properties :
#
#
# Convention : Reuss Voigt Hill
#
# Bulk Modulus (GPa) = 27.37905 59.24793 43.31349
# Shear Modulus (GPa) = 3.69157 34.80005 19.24581
#
# Velocity S-wave (km/s) = 1.28677 3.95080 2.93808
# Velocity P-wave (km/s) = 3.80631 6.88377 5.56212
#
# Compressibility (1/GPa) = 0.03652428
#
# Stress axis : x y z
#
# Youngs Moduli (GPa) = 58.23408 113.95597 55.10206
#
# Poissons Ratio (x) = 0.58953 -0.30954
# Poissons Ratio (y) = 0.30127 0.23307
# Poissons Ratio (z) = -0.32713 0.48201
#
# Static dielectric constant tensor:
#      x y z
#    x 1.904460 0.000000 -0.009390 
#    y 0.000000 1.811200 0.000000 
#    z -0.009390 0.000000 1.727840 
# 
# From -- ./inp_files/43790.got.cif
#   From: 2010.05.17/outbox.cif.g08.bks.cpg/sg13_22_cif.got.tgz:43790.got - 2010.06.03 16:44:36.
