data_PCOD9233071
_publ_section_title
;
Structure prediction by ZEFSAII (Michael W. Deem and Ramdas Pophale) SiO2 
 PCOD9233071
Probable space group: P 2/C
;
_chemical_formula_sum "Si O2"
_cell_formula_units_Z 32
_cell_length_a 25.183906
_cell_length_b 11.239503
_cell_length_c 12.807866
_cell_angle_alpha 90.000000
_cell_angle_beta 25.686468
_cell_angle_gamma 90.000000
_cell_volume 1571.383651
_symmetry_space_group_name_H-M "P 2/C"
_symmetry_group_IT_number 13
_symmetry_cell_setting 'monoclinic'
loop_
_space_group_symop_operation_xyz
x,y,z
-x,y,1/2-z
-x,-y,-z
x,-y,1/2+z
loop_
_atom_site_type_symbol
_atom_site_label
_atom_site_fract_x
_atom_site_fract_y
_atom_site_fract_z
Si Si1 0.516210 0.612071 0.044765
Si Si2 0.206697 0.879777 0.249296
Si Si3 0.975567 0.558897 0.408282
Si Si4 0.344091 0.948845 0.212566
Si Si5 0.997696 0.698523 0.942166
Si Si6 0.786808 0.863186 0.854824
Si Si7 0.299112 0.640396 0.595028
Si Si8 0.402260 0.163012 0.229896
O O1 0.393481 0.622520 0.332189
O O2 0.500000 0.500000 0.000000
O O3 0.628422 0.607051 0.928552
O O4 0.544517 0.719929 0.916444
O O5 0.256786 0.906800 0.275347
O O6 0.100156 0.783166 0.438156
O O7 0.171143 0.008099 0.261827
O O8 0.311556 0.826175 0.987734
O O9 0.021463 0.422943 0.336650
O O10 0.828901 0.568933 0.688644
O O11 0.000000 0.604969 0.250000
O O12 0.041875 0.641172 0.376258
O O13 0.312177 0.887356 0.379522
O O14 0.336606 0.087400 0.254770
O O15 0.482231 0.915784 0.937829
O O16 0.110327 0.783466 0.771654
O O17 0.735383 0.780229 0.853555
#
# Coordination Sequence:
#
# PCOD9233071 Si02
#       8
#     4   4   4   4   4   4   4   4
#     4  11  24  40  64  94 129 167 211 264 315 382
#     4  11  23  37  65  97 128 161 208 273 316 381
#     4  10  24  43  66  89 122 174 213 263 316 384
#     4  10  21  39  64  92 126 170 207 254 325 381
#     4  10  24  42  63  92 126 160 219 261 318 378
#     4  10  21  43  63  91 126 166 211 261 323 384
#     4  10  23  43  65  91 126 170 211 260 325 379
#     4  10  22  40  61  93 128 167 209 256 312 389
#
# _framework density 20.364218999999999
#
# number of rings (size 3 to 8) (size 9 to 14) (size 15 to 20)
#    0.000    1.750    1.250    1.500    5.250    3.000 
#    4.500    0.000    0.000    0.000    0.000    0.000 
#    0.000    0.000    0.000    0.000    0.000    0.000 
#
# Total GULP energy -178585.655644 kJ/mol
# GULP energy per Si atom -5580.801739 kJ/mol
# Density = 2.031787 g / cm^3
# Si number density = 20.364219 Si / 1000 Ang^3
#
#
#
# Elastic Constant Matrix: (Units=GPa)
#
#
# Indices 1 2 3 4 5 6 
#
# 1 85.9444 34.7952 9.8915 0.0000 -2.6259 0.0000
# 2 34.7952 104.8031 16.5503 0.0000 -1.5942 0.0000
# 3 9.8915 16.5503 15.1382 0.0000 -6.5975 0.0000
# 4 0.0000 0.0000 0.0000 11.3107 0.0000 -4.4260
# 5 -2.6259 -1.5942 -6.5975 0.0000 25.9131 0.0000
# 6 0.0000 0.0000 0.0000 -4.4260 0.0000 33.8139
#
#
#
# Elastic Compliance Matrix: (Units=1/GPa)
#
#
# Indices 1 2 3 4 5 6 
#
# 1 0.013727 -0.003791 -0.004859 0.000000 -0.000079 0.000000
# 2 -0.003791 0.012765 -0.012715 0.000000 -0.002836 0.000000
# 3 -0.004859 -0.012715 0.092885 0.000000 0.022374 0.000000
# 4 0.000000 0.000000 0.000000 0.093184 0.000000 0.012197
# 5 -0.000079 -0.002836 0.022374 0.000000 0.044104 0.000000
# 6 0.000000 0.000000 0.000000 0.012197 0.000000 0.031170
#
#
# Mechanical properties :
#
#
# Convention : Reuss Voigt Hill
#
# Bulk Modulus (GPa) = 13.04685 36.48443 24.76564
# Shear Modulus (GPa) = 14.04041 23.85079 18.94560
#
# Velocity S-wave (km/s) = 2.62861 3.42601 3.05345
# Velocity P-wave (km/s) = 3.95392 5.79697 4.96177
#
# Compressibility (1/GPa) = 0.07664686
#
# Stress axis : x y z
#
# Youngs Moduli (GPa) = 72.84798 78.33810 10.76605
#
# Poissons Ratio (x) = 0.29701 0.05231
# Poissons Ratio (y) = 0.27619 0.13689
# Poissons Ratio (z) = 0.35398 0.99604
#
# Static dielectric constant tensor:
#      x y z
#    x 1.727340 0.000000 -0.008940 
#    y 0.000000 1.730880 0.000000 
#    z -0.008940 0.000000 1.719270 
# 
# From -- ./inp_files/41843.got.cif
#   From: 2010.05.17/outbox.cif.g08.bks.cpg/sg13_21_cif.got.tgz:41843.got - 2010.06.03 16:44:36.
