data_PCOD9233590
_publ_section_title
;
Structure prediction by ZEFSAII (Michael W. Deem and Ramdas Pophale) SiO2 
 PCOD9233590
Probable space group: P 2/C
;
_chemical_formula_sum "Si O2"
_cell_formula_units_Z 20
_cell_length_a 13.829178
_cell_length_b 7.478334
_cell_length_c 18.424595
_cell_angle_alpha 90.000000
_cell_angle_beta 28.940629
_cell_angle_gamma 90.000000
_cell_volume 922.056524
_symmetry_space_group_name_H-M "P 2/C"
_symmetry_group_IT_number 13
_symmetry_cell_setting 'monoclinic'
loop_
_space_group_symop_operation_xyz
x,y,z
-x,y,1/2-z
-x,-y,-z
x,-y,1/2+z
loop_
_atom_site_type_symbol
_atom_site_label
_atom_site_fract_x
_atom_site_fract_y
_atom_site_fract_z
Si Si1 0.211838 0.439104 0.216285
Si Si2 0.234811 0.375766 0.981202
Si Si3 0.569088 0.081543 0.379091
Si Si4 0.669582 0.269073 0.743673
Si Si5 0.221273 0.696127 0.076385
O O1 0.328242 0.268928 0.170001
O O2 0.230446 0.591576 0.266156
O O3 0.281595 0.547984 0.098772
O O4 0.992865 0.356594 0.342919
O O5 0.427855 0.296283 0.895571
O O6 0.249114 0.310232 0.889578
O O7 0.246353 0.590142 0.984760
O O8 0.362395 0.135249 0.477034
O O9 0.500000 0.000000 0.500000
O O10 0.695786 0.933736 0.253583
O O11 0.000000 0.744864 0.250000
#
# Coordination Sequence:
#
# PCOD9233590 Si02
#       5
#     4   4   4   4   4
#     4  11  22  43  69  90 127 174 211 263 324 382
#     4  10  23  43  64  93 131 169 213 264 320 387
#     4  12  23  38  68  94 127 167 214 273 320 384
#     4  11  23  43  63  95 133 165 214 266 320 392
#     4  10  21  41  69  92 126 176 217 264 327 384
#
# _framework density 21.690643999999999
#
# number of rings (size 3 to 8) (size 9 to 14) (size 15 to 20)
#    0.000    1.200    4.000    2.400    0.000    2.400 
#    7.200    0.000    0.000    0.000    0.000    0.000 
#    0.000    0.000    0.000    0.000    0.000    0.000 
#
# Total GULP energy -111480.439156 kJ/mol
# GULP energy per Si atom -5574.021958 kJ/mol
# Density = 2.164128 g / cm^3
# Si number density = 21.690644 Si / 1000 Ang^3
#
#
#
# Elastic Constant Matrix: (Units=GPa)
#
#
# Indices 1 2 3 4 5 6 
#
# 1 59.0749 12.5587 13.0811 0.0000 11.5770 0.0000
# 2 12.5587 100.8937 34.2142 0.0000 0.1633 0.0000
# 3 13.0811 34.2142 53.0365 0.0000 -4.7221 0.0000
# 4 0.0000 0.0000 0.0000 8.0380 0.0000 2.9084
# 5 11.5770 0.1633 -4.7221 0.0000 39.0384 0.0000
# 6 0.0000 0.0000 0.0000 2.9084 0.0000 29.5879
#
#
#
# Elastic Compliance Matrix: (Units=1/GPa)
#
#
# Indices 1 2 3 4 5 6 
#
# 1 0.019408 -0.000756 -0.004864 0.000000 -0.006341 0.000000
# 2 -0.000756 0.012759 -0.008117 0.000000 -0.000811 0.000000
# 3 -0.004864 -0.008117 0.025699 0.000000 0.004585 0.000000
# 4 0.000000 0.000000 0.000000 0.128997 0.000000 -0.012680
# 5 -0.006341 -0.000811 0.004585 0.000000 0.028054 0.000000
# 6 0.000000 0.000000 0.000000 -0.012680 0.000000 0.035044
#
#
# Mechanical properties :
#
#
# Convention : Reuss Voigt Hill
#
# Bulk Modulus (GPa) = 32.90227 36.96813 34.93520
# Shear Modulus (GPa) = 17.38735 25.54293 21.46514
#
# Velocity S-wave (km/s) = 2.83434 3.43534 3.14921
# Velocity P-wave (km/s) = 5.09049 5.72851 5.41890
#
# Compressibility (1/GPa) = 0.03039304
#
# Stress axis : x y z
#
# Youngs Moduli (GPa) = 51.52515 78.37363 38.91207
#
# Poissons Ratio (x) = 0.05927 0.18925
# Poissons Ratio (y) = 0.03897 0.31584
# Poissons Ratio (z) = 0.25059 0.63615
#
# Static dielectric constant tensor:
#      x y z
#    x 1.871330 0.000000 -0.062490 
#    y 0.000000 1.764980 0.000000 
#    z -0.062490 0.000000 1.813850 
# 
# From -- ./inp_files/79194.got.cif
#   From: 2010.05.17/outbox.cif.g08.bks.cpg/sg13_40_cif.got.tgz:79194.got - 2010.06.03 16:44:36.
