data_PCOD9233231
_publ_section_title
;
Structure prediction by ZEFSAII (Michael W. Deem and Ramdas Pophale) SiO2 
 PCOD9233231
Probable space group: P 2/C
;
_chemical_formula_sum "Si O2"
_cell_formula_units_Z 24
_cell_length_a 18.056072
_cell_length_b 5.169197
_cell_length_c 22.033870
_cell_angle_alpha 90.000000
_cell_angle_beta 149.398413
_cell_angle_gamma 90.000000
_cell_volume 1046.913023
_symmetry_space_group_name_H-M "P 2/C"
_symmetry_group_IT_number 13
_symmetry_cell_setting 'monoclinic'
loop_
_space_group_symop_operation_xyz
x,y,z
-x,y,1/2-z
-x,-y,-z
x,-y,1/2+z
loop_
_atom_site_type_symbol
_atom_site_label
_atom_site_fract_x
_atom_site_fract_y
_atom_site_fract_z
Si Si1 0.181829 0.687945 0.139206
Si Si2 0.459487 0.027745 0.866255
Si Si3 0.269896 0.861257 0.499724
Si Si4 0.628334 0.291161 0.092387
Si Si5 0.898067 0.190067 0.493452
Si Si6 0.164963 0.626391 0.858222
O O1 0.159723 0.411234 0.092960
O O2 0.348553 0.746500 0.272233
O O3 0.131535 0.907739 0.055472
O O4 0.070546 0.744607 0.116288
O O5 0.363773 0.818891 0.834788
O O6 0.559677 0.941810 0.881113
O O7 0.573401 0.096796 0.000381
O O8 0.189666 0.803553 0.505939
O O9 0.263318 0.596550 0.457108
O O10 0.186857 0.101106 0.408585
O O11 0.784140 0.365430 0.175595
O O12 0.500000 0.500000 0.000000
O O13 0.000000 0.544734 0.750000
#
# Coordination Sequence:
#
# PCOD9233231 Si02
#       6
#     4   4   4   4   4   4
#     4  10  23  42  66  93 122 170 214 261 328 379
#     4  10  23  39  64  93 126 171 209 263 321 384
#     4  11  23  42  62  92 132 164 212 274 316 381
#     4  10  21  40  61  91 131 164 213 258 315 391
#     4  10  23  43  63  94 128 161 218 268 314 388
#     4  11  24  39  62  96 127 169 214 257 326 387
#
# _framework density 22.924541000000001
#
# number of rings (size 3 to 8) (size 9 to 14) (size 15 to 20)
#    0.000    1.667    1.667    1.500    4.667    2.000 
#    0.000    1.667    0.000    0.000    0.000    0.000 
#    0.000    0.000    0.000    0.000    0.000    0.000 
#
# Total GULP energy -134025.753881 kJ/mol
# GULP energy per Si atom -5584.406412 kJ/mol
# Density = 2.287236 g / cm^3
# Si number density = 22.924541 Si / 1000 Ang^3
#
#
#
# Elastic Constant Matrix: (Units=GPa)
#
#
# Indices 1 2 3 4 5 6 
#
# 1 151.8574 17.2519 32.4742 0.0000 47.1140 0.0000
# 2 17.2519 86.2745 -6.2447 0.0000 -6.2063 0.0000
# 3 32.4742 -6.2447 60.3631 0.0000 26.7302 0.0000
# 4 0.0000 0.0000 0.0000 7.8029 0.0000 -6.3758
# 5 47.1140 -6.2063 26.7302 0.0000 37.5117 0.0000
# 6 0.0000 0.0000 0.0000 -6.3758 0.0000 18.1088
#
#
#
# Elastic Compliance Matrix: (Units=1/GPa)
#
#
# Indices 1 2 3 4 5 6 
#
# 1 0.011721 -0.003440 0.000160 0.000000 -0.015405 0.000000
# 2 -0.003440 0.012751 0.000471 0.000000 0.006095 0.000000
# 3 0.000160 0.000471 0.024229 0.000000 -0.017388 0.000000
# 4 0.000000 0.000000 0.000000 0.179919 0.000000 0.063347
# 5 -0.015405 0.006095 -0.017388 0.000000 0.059405 0.000000
# 6 0.000000 0.000000 0.000000 0.063347 0.000000 0.077525
#
#
# Mechanical properties :
#
#
# Convention : Reuss Voigt Hill
#
# Bulk Modulus (GPa) = 23.21140 42.82867 33.02003
# Shear Modulus (GPa) = 12.96913 29.68558 21.32736
#
# Velocity S-wave (km/s) = 2.38109 3.60241 3.05344
# Velocity P-wave (km/s) = 4.20792 6.00218 5.18328
#
# Compressibility (1/GPa) = 0.04308228
#
# Stress axis : x y z
#
# Youngs Moduli (GPa) = 85.31624 78.42266 41.27299
#
# Poissons Ratio (x) = 0.26980 -0.00660
# Poissons Ratio (y) = 0.29352 -0.01944
# Poissons Ratio (z) = -0.01364 -0.03693
#
# Static dielectric constant tensor:
#      x y z
#    x 1.899370 0.000000 0.052430 
#    y 0.000000 1.898920 0.000000 
#    z 0.052430 0.000000 1.937800 
# 
# From -- ./inp_files/87755.got.cif
#   From: 2010.05.17/outbox.cif.g08.bks.cpg/sg13_44_cif.got.tgz:87755.got - 2010.06.03 16:44:36.
