data_PCOD9233892
_publ_section_title
;
Structure prediction by ZEFSAII (Michael W. Deem and Ramdas Pophale) SiO2 
 PCOD9233892
Probable space group: P 2/C
;
_chemical_formula_sum "Si O2"
_cell_formula_units_Z 28
_cell_length_a 8.006622
_cell_length_b 4.799168
_cell_length_c 28.100245
_cell_angle_alpha 90.000000
_cell_angle_beta 71.657658
_cell_angle_gamma 90.000000
_cell_volume 1024.896458
_symmetry_space_group_name_H-M "P 2/C"
_symmetry_group_IT_number 13
_symmetry_cell_setting 'monoclinic'
loop_
_space_group_symop_operation_xyz
x,y,z
-x,y,1/2-z
-x,-y,-z
x,-y,1/2+z
loop_
_atom_site_type_symbol
_atom_site_label
_atom_site_fract_x
_atom_site_fract_y
_atom_site_fract_z
Si Si1 0.632349 0.220047 0.380976
Si Si2 0.068310 0.903375 0.910470
Si Si3 0.257127 0.500598 0.042921
Si Si4 0.505568 0.054834 0.802866
Si Si5 0.144162 0.399341 0.842668
Si Si6 0.881911 0.871416 0.300723
Si Si7 0.330804 0.985021 0.473009
O O1 0.681693 0.491275 0.407122
O O2 0.524513 0.182960 0.341762
O O3 0.813791 0.075022 0.348684
O O4 0.510491 0.069943 0.430682
O O5 0.155488 0.709619 0.861514
O O6 0.189849 0.981170 0.944009
O O7 0.915386 0.698451 0.941779
O O8 0.042093 0.205219 0.890004
O O9 0.261848 0.800226 0.018943
O O10 0.360848 0.315103 0.993634
O O11 0.500000 0.938438 0.750000
O O12 0.692850 0.216691 0.795218
O O13 0.336465 0.255369 0.822243
O O14 0.018020 0.357574 0.808407
O O15 0.000000 0.020674 0.250000
#
# Coordination Sequence:
#
# PCOD9233892 Si02
#       7
#     4   4   4   4   4   4   4
#     4  10  23  42  70 106 148 196 233 311 366 426
#     4  12  24  45  72 100 144 192 235 307 349 430
#     4  12  25  44  69 109 144 193 249 294 359 439
#     4  10  21  43  79 107 145 189 245 301 369 434
#     4  12  23  47  72 106 146 188 240 290 373 425
#     4  10  21  43  79 107 145 189 245 301 369 434
#     4  12  25  44  69 109 144 193 249 294 359 439
#
# _framework density 27.319831000000001
#
# number of rings (size 3 to 8) (size 9 to 14) (size 15 to 20)
#    0.857    0.000    4.286    3.429    0.000    0.000 
#    2.571    1.429    0.000    0.000    0.000    0.000 
#    0.000    0.000    0.000    0.000    0.000    0.000 
#
# Total GULP energy -156502.557074 kJ/mol
# GULP energy per Si atom -5589.377038 kJ/mol
# Density = 2.725765 g / cm^3
# Si number density = 27.319831 Si / 1000 Ang^3
#
#
#
# Elastic Constant Matrix: (Units=GPa)
#
#
# Indices 1 2 3 4 5 6 
#
# 1 181.0029 32.9170 40.7381 0.0000 24.4415 0.0000
# 2 32.9170 152.6254 37.0344 0.0000 13.5967 0.0000
# 3 40.7381 37.0344 123.2666 0.0000 3.0589 0.0000
# 4 0.0000 0.0000 0.0000 24.3783 0.0000 -6.9877
# 5 24.4415 13.5967 3.0589 0.0000 77.5235 0.0000
# 6 0.0000 0.0000 0.0000 -6.9877 0.0000 25.2693
#
#
#
# Elastic Compliance Matrix: (Units=1/GPa)
#
#
# Indices 1 2 3 4 5 6 
#
# 1 0.006312 -0.000763 -0.001813 0.000000 -0.001785 0.000000
# 2 -0.000763 0.007265 -0.001907 0.000000 -0.000958 0.000000
# 3 -0.001813 -0.001907 0.009271 0.000000 0.000540 0.000000
# 4 0.000000 0.000000 0.000000 0.044551 0.000000 0.012320
# 5 -0.001785 -0.000958 0.000540 0.000000 0.013609 0.000000
# 6 0.000000 0.000000 0.000000 0.012320 0.000000 0.042980
#
#
# Mechanical properties :
#
#
# Convention : Reuss Voigt Hill
#
# Bulk Modulus (GPa) = 72.02618 75.36377 73.69497
# Shear Modulus (GPa) = 36.34223 48.51458 42.42840
#
# Velocity S-wave (km/s) = 3.65122 4.21860 3.94512
# Velocity P-wave (km/s) = 6.64804 7.16759 6.91270
#
# Compressibility (1/GPa) = 0.01388384
#
# Stress axis : x y z
#
# Youngs Moduli (GPa) = 158.41638 137.65559 107.86236
#
# Poissons Ratio (x) = 0.10497 0.19553
# Poissons Ratio (y) = 0.12080 0.20567
# Poissons Ratio (z) = 0.28718 0.26248
#
# Static dielectric constant tensor:
#      x y z
#    x 2.235870 0.000000 -0.080790 
#    y 0.000000 2.062400 0.000000 
#    z -0.080790 0.000000 2.214630 
# 
# From -- ./inp_files/95594.got.cif
#   From: 2010.05.17/outbox.cif.g08.bks.cpg/sg13_48_cif.got.tgz:95594.got - 2010.06.03 16:44:36.
