data_PCOD9233533
_publ_section_title
;
Structure prediction by ZEFSAII (Michael W. Deem and Ramdas Pophale) SiO2 
 PCOD9233533
Probable space group: P 2/C
;
_chemical_formula_sum "Si O2"
_cell_formula_units_Z 12
_cell_length_a 9.195414
_cell_length_b 7.154513
_cell_length_c 13.090272
_cell_angle_alpha 90.000000
_cell_angle_beta 29.371735
_cell_angle_gamma 90.000000
_cell_volume 422.392253
_symmetry_space_group_name_H-M "P 2/C"
_symmetry_group_IT_number 13
_symmetry_cell_setting 'monoclinic'
loop_
_space_group_symop_operation_xyz
x,y,z
-x,y,1/2-z
-x,-y,-z
x,-y,1/2+z
loop_
_atom_site_type_symbol
_atom_site_label
_atom_site_fract_x
_atom_site_fract_y
_atom_site_fract_z
Si Si1 0.701352 0.765396 0.811057
Si Si2 0.124053 0.106162 0.568905
Si Si3 0.654072 0.344631 0.766779
O O1 0.730670 0.555618 0.752748
O O2 0.470782 0.873162 0.876813
O O3 0.553430 0.737045 0.014708
O O4 0.978226 0.902958 0.652716
O O5 0.000000 0.196198 0.750000
O O6 0.958699 0.227461 0.585272
O O7 0.500000 0.341875 0.750000
#
# Coordination Sequence:
#
# PCOD9233533 Si02
#       3
#     4   4   4
#     4  10  23  43  66  94 130 170 212 265 325 382
#     4  10  21  41  66  91 126 171 211 263 323 378
#     4  10  22  40  64  96 128 167 217 266 317 379
#
# _framework density 28.409611999999999
#
# number of rings (size 3 to 8) (size 9 to 14) (size 15 to 20)
#    0.000    2.000    0.000    4.000    0.000   12.000 
#    0.000   16.667    0.000    0.000    0.000    0.000 
#    0.000    0.000    0.000    0.000    0.000    0.000 
#
# Total GULP energy -67342.507839 kJ/mol
# GULP energy per Si atom -5611.875653 kJ/mol
# Density = 2.834495 g / cm^3
# Si number density = 28.409612 Si / 1000 Ang^3
#
#
#
# Elastic Constant Matrix: (Units=GPa)
#
#
# Indices 1 2 3 4 5 6 
#
# 1 267.9228 114.2202 71.7753 0.0000 -22.9917 0.0000
# 2 114.2202 247.0084 101.6562 0.0000 -46.2706 0.0000
# 3 71.7753 101.6562 112.7903 0.0000 -35.9282 0.0000
# 4 0.0000 0.0000 0.0000 13.0861 0.0000 -9.7667
# 5 -22.9917 -46.2706 -35.9282 0.0000 80.3250 0.0000
# 6 0.0000 0.0000 0.0000 -9.7667 0.0000 48.1288
#
#
#
# Elastic Compliance Matrix: (Units=1/GPa)
#
#
# Indices 1 2 3 4 5 6 
#
# 1 0.004850 -0.001573 -0.001766 0.000000 -0.000308 0.000000
# 2 -0.001573 0.007064 -0.004913 0.000000 0.001421 0.000000
# 3 -0.001766 -0.004913 0.015574 0.000000 0.003631 0.000000
# 4 0.000000 0.000000 0.000000 0.090056 0.000000 0.018275
# 5 -0.000308 0.001421 0.003631 0.000000 0.014804 0.000000
# 6 0.000000 0.000000 0.000000 0.018275 0.000000 0.024486
#
#
# Mechanical properties :
#
#
# Convention : Reuss Voigt Hill
#
# Bulk Modulus (GPa) = 91.04711 133.66943 112.35827
# Shear Modulus (GPa) = 28.24842 50.97931 39.61387
#
# Velocity S-wave (km/s) = 3.15671 4.24068 3.73819
# Velocity P-wave (km/s) = 6.73825 8.43390 7.63331
#
# Compressibility (1/GPa) = 0.01098333
#
# Stress axis : x y z
#
# Youngs Moduli (GPa) = 206.18669 141.55986 64.20835
#
# Poissons Ratio (x) = 0.22274 0.11341
# Poissons Ratio (y) = 0.32443 0.31544
# Poissons Ratio (z) = 0.36420 0.69544
#
# Static dielectric constant tensor:
#      x y z
#    x 2.255440 0.000000 0.083090 
#    y 0.000000 2.117980 0.000000 
#    z 0.083090 0.000000 2.303190 
# 
# From -- ./inp_files/10531.got.cif
#   From: 2010.05.17/outbox.cif.g08.bks.cpg/sg13_6_cif.got.tgz:10531.got - 2010.06.03 16:44:36.
