data_PCOD9233139
_publ_section_title
;
Structure prediction by ZEFSAII (Michael W. Deem and Ramdas Pophale) SiO2 
 PCOD9233139
Probable space group: P 2/C
;
_chemical_formula_sum "Si O2"
_cell_formula_units_Z 18
_cell_length_a 7.779290
_cell_length_b 5.684992
_cell_length_c 18.529859
_cell_angle_alpha 90.000000
_cell_angle_beta 114.112321
_cell_angle_gamma 90.000000
_cell_volume 747.983535
_symmetry_space_group_name_H-M "P 2/C"
_symmetry_group_IT_number 13
_symmetry_cell_setting 'monoclinic'
loop_
_space_group_symop_operation_xyz
x,y,z
-x,y,1/2-z
-x,-y,-z
x,-y,1/2+z
loop_
_atom_site_type_symbol
_atom_site_label
_atom_site_fract_x
_atom_site_fract_y
_atom_site_fract_z
Si Si1 0.030435 0.798262 0.944984
Si Si2 0.391051 0.246138 0.306834
Si Si3 0.000000 0.498997 0.750000
Si Si4 0.698545 0.438860 0.920317
Si Si5 0.186278 0.127589 0.689634
O O1 0.878906 0.596254 0.931965
O O2 0.238335 0.693498 0.995118
O O3 0.953715 0.920683 0.860060
O O4 0.000000 0.000000 0.000000
O O5 0.500000 0.311744 0.250000
O O6 0.193191 0.364359 0.290733
O O7 0.531986 0.369645 0.388108
O O8 0.321424 0.980228 0.274873
O O9 0.952501 0.327897 0.807590
O O10 0.696158 0.237516 0.857225
#
# Coordination Sequence:
#
# PCOD9233139 Si02
#       5
#     4   4   2   4   4
#     4   9  19  36  64  98 128 172 220 268 329 395
#     4  12  24  41  65  97 130 173 221 268 334 390
#     4  12  26  40  62 100 136 166 224 286 324 390
#     4  10  21  39  66  95 131 173 222 269 327 395
#     4  11  22  39  65  96 132 172 221 277 329 393
#
# _framework density 24.064699999999998
#
# number of rings (size 3 to 8) (size 9 to 14) (size 15 to 20)
#    0.000    1.333    4.444    0.667    3.111    0.000 
#    0.000    1.111    0.000   22.667    0.000    0.000 
#    0.000    0.000    0.000    0.000    0.000    0.000 
#
# Total GULP energy -100249.161891 kJ/mol
# GULP energy per Si atom -5569.397883 kJ/mol
# Density = 2.400993 g / cm^3
# Si number density = 24.064700 Si / 1000 Ang^3
#
#
#
# Elastic Constant Matrix: (Units=GPa)
#
#
# Indices 1 2 3 4 5 6 
#
# 1 125.1811 30.8742 40.8068 0.0000 27.6222 0.0000
# 2 30.8742 90.6929 39.4668 0.0000 19.6429 0.0000
# 3 40.8068 39.4668 69.7790 0.0000 30.0741 0.0000
# 4 0.0000 0.0000 0.0000 48.4409 0.0000 0.8772
# 5 27.6222 19.6429 30.0741 0.0000 28.3463 0.0000
# 6 0.0000 0.0000 0.0000 0.8772 0.0000 43.6703
#
#
#
# Elastic Compliance Matrix: (Units=1/GPa)
#
#
# Indices 1 2 3 4 5 6 
#
# 1 0.010613 -0.000949 -0.002756 0.000000 -0.006760 0.000000
# 2 -0.000949 0.014808 -0.006995 0.000000 -0.001915 0.000000
# 3 -0.002756 -0.006995 0.030682 0.000000 -0.025020 0.000000
# 4 0.000000 0.000000 0.000000 0.020651 0.000000 -0.000415
# 5 -0.006760 -0.001915 -0.025020 0.000000 0.069737 0.000000
# 6 0.000000 0.000000 0.000000 -0.000415 0.000000 0.022907
#
#
# Mechanical properties :
#
#
# Convention : Reuss Voigt Hill
#
# Bulk Modulus (GPa) = 28.81633 56.43875 42.62754
# Shear Modulus (GPa) = 24.70772 35.72517 30.21645
#
# Velocity S-wave (km/s) = 3.20772 3.85716 3.54734
# Velocity P-wave (km/s) = 5.07147 6.58337 5.87625
#
# Compressibility (1/GPa) = 0.03470254
#
# Stress axis : x y z
#
# Youngs Moduli (GPa) = 94.22816 67.53036 32.59227
#
# Poissons Ratio (x) = 0.06412 0.08982
# Poissons Ratio (y) = 0.08947 0.22798
# Poissons Ratio (z) = 0.25968 0.47236
#
# Static dielectric constant tensor:
#      x y z
#    x 1.878420 0.000000 -0.016820 
#    y 0.000000 1.980850 0.000000 
#    z -0.016820 0.000000 2.046170 
# 
# From -- ./inp_files/74138.got.cif
#   From: 2010.05.17/outbox.cif.g08.bks.cpg/sg13_38_cif.got.tgz:74138.got - 2010.06.03 16:44:36.
