data_PCOD9233685
_publ_section_title
;
Structure prediction by ZEFSAII (Michael W. Deem and Ramdas Pophale) SiO2 
 PCOD9233685
Probable space group: P 2/C
;
_chemical_formula_sum "Si O2"
_cell_formula_units_Z 26
_cell_length_a 8.571002
_cell_length_b 22.616345
_cell_length_c 8.449889
_cell_angle_alpha 90.000000
_cell_angle_beta 50.448883
_cell_angle_gamma 90.000000
_cell_volume 1262.965213
_symmetry_space_group_name_H-M "P 2/C"
_symmetry_group_IT_number 13
_symmetry_cell_setting 'monoclinic'
loop_
_space_group_symop_operation_xyz
x,y,z
-x,y,1/2-z
-x,-y,-z
x,-y,1/2+z
loop_
_atom_site_type_symbol
_atom_site_label
_atom_site_fract_x
_atom_site_fract_y
_atom_site_fract_z
Si Si1 0.500000 0.516407 0.750000
Si Si2 0.723749 0.828702 0.807204
Si Si3 0.783655 0.440330 0.798302
Si Si4 0.500000 0.730253 0.750000
Si Si5 0.368729 0.914111 0.063959
Si Si6 0.821626 0.184550 0.603031
Si Si7 0.208124 0.692834 0.205334
Si Si8 0.500000 0.998445 0.750000
O O1 0.679394 0.479642 0.725988
O O2 0.616650 0.554159 0.543858
O O3 0.636300 0.773208 0.768885
O O4 0.949643 0.831928 0.594282
O O5 0.580594 0.884529 0.874418
O O6 0.711904 0.821825 0.004763
O O7 0.799769 0.373430 0.722403
O O8 0.000000 0.454589 0.750000
O O9 0.624932 0.694561 0.540052
O O10 0.240364 0.859208 0.213631
O O11 0.399195 0.958191 0.189531
O O12 0.327739 0.958872 0.947309
O O13 0.778588 0.251667 0.685952
O O14 0.000000 0.703493 0.250000
#
# Coordination Sequence:
#
# PCOD9233685 Si02
#       8
#     2   4   4   2   4   4   4   2
#     4  10  21  42  66  94 126 185 224 264 320 382
#     4  11  23  39  61  88 114 164 197 244 313 382
#     4  10  22  40  66  93 135 169 224 271 322 374
#     4  12  22  36  62  88 124 158 198 242 310 376
#     4  11  21  43  60  86 120 160 196 264 308 374
#     4  11  23  40  62  87 126 155 201 248 321 377
#     4  11  23  39  61  99 129 161 202 263 311 382
#     4  10  23  38  64  86 114 157 214 248 316 368
#
# _framework density 20.586473999999999
#
# number of rings (size 3 to 8) (size 9 to 14) (size 15 to 20)
#    0.000    1.231    4.615    1.385    0.000    1.231 
#    0.000    4.615    3.385    0.000    0.000    0.000 
#    0.000    0.000    0.000    0.000    0.000    0.000 
#
# Total GULP energy -144850.352842 kJ/mol
# GULP energy per Si atom -5571.167417 kJ/mol
# Density = 2.053962 g / cm^3
# Si number density = 20.586474 Si / 1000 Ang^3
#
#
#
# Elastic Constant Matrix: (Units=GPa)
#
#
# Indices 1 2 3 4 5 6 
#
# 1 54.9358 28.3776 8.3809 0.0000 -8.7594 0.0000
# 2 28.3776 97.6932 25.2704 0.0000 7.3518 0.0000
# 3 8.3809 25.2704 78.9220 0.0000 1.9057 0.0000
# 4 0.0000 0.0000 0.0000 13.5482 0.0000 13.3524
# 5 -8.7594 7.3518 1.9057 0.0000 18.5027 0.0000
# 6 0.0000 0.0000 0.0000 13.3524 0.0000 21.5848
#
#
#
# Elastic Compliance Matrix: (Units=1/GPa)
#
#
# Indices 1 2 3 4 5 6 
#
# 1 0.024960 -0.008297 -0.000360 0.000000 0.015150 0.000000
# 2 -0.008297 0.014234 -0.003454 0.000000 -0.009228 0.000000
# 3 -0.000360 -0.003454 0.013820 0.000000 -0.000221 0.000000
# 4 0.000000 0.000000 0.000000 0.189097 0.000000 -0.116976
# 5 0.015150 -0.009228 -0.000221 0.000000 0.064908 0.000000
# 6 0.000000 0.000000 0.000000 -0.116976 0.000000 0.118691
#
#
# Mechanical properties :
#
#
# Convention : Reuss Voigt Hill
#
# Bulk Modulus (GPa) = 34.73112 39.51209 37.12160
# Shear Modulus (GPa) = 10.88073 22.02861 16.45467
#
# Velocity S-wave (km/s) = 2.30149 3.27471 2.83025
# Velocity P-wave (km/s) = 4.89591 5.79079 5.36205
#
# Compressibility (1/GPa) = 0.02879262
#
# Stress axis : x y z
#
# Youngs Moduli (GPa) = 40.06479 70.25378 72.35811
#
# Poissons Ratio (x) = 0.58291 0.02602
# Poissons Ratio (y) = 0.33243 0.24991
# Poissons Ratio (z) = 0.01441 0.24264
#
# Static dielectric constant tensor:
#      x y z
#    x 1.784240 0.000000 -0.003530 
#    y 0.000000 1.747910 0.000000 
#    z -0.003530 0.000000 1.657520 
# 
# From -- ./inp_files/13649.got.cif
#   From: 2010.05.17/outbox.cif.g08.bks.cpg/sg13_7_cif.got.tgz:13649.got - 2010.06.03 16:44:36.
