data_PCOD9233980
_publ_section_title
;
Structure prediction by ZEFSAII (Michael W. Deem and Ramdas Pophale) SiO2 
 PCOD9233980
Probable space group: P 2/C
;
_chemical_formula_sum "Si O2"
_cell_formula_units_Z 26
_cell_length_a 13.679476
_cell_length_b 5.701919
_cell_length_c 19.703700
_cell_angle_alpha 90.000000
_cell_angle_beta 45.438159
_cell_angle_gamma 90.000000
_cell_volume 1095.012841
_symmetry_space_group_name_H-M "P 2/C"
_symmetry_group_IT_number 13
_symmetry_cell_setting 'monoclinic'
loop_
_space_group_symop_operation_xyz
x,y,z
-x,y,1/2-z
-x,-y,-z
x,-y,1/2+z
loop_
_atom_site_type_symbol
_atom_site_label
_atom_site_fract_x
_atom_site_fract_y
_atom_site_fract_z
Si Si1 0.136620 0.066005 0.229069
Si Si2 0.845936 0.564629 0.257422
Si Si3 0.139254 0.442245 0.558689
Si Si4 0.321992 0.618468 0.290206
Si Si5 0.588972 0.396500 0.116200
Si Si6 0.500000 0.988985 0.750000
Si Si7 0.044164 0.943343 0.553778
O O1 0.207287 0.318581 0.186596
O O2 0.000000 0.068156 0.250000
O O3 0.084424 0.065405 0.332149
O O4 0.202648 0.810609 0.186667
O O5 0.803443 0.582088 0.198299
O O6 0.012948 0.554006 0.173063
O O7 0.301245 0.444655 0.494913
O O8 0.112356 0.685890 0.529942
O O9 0.126437 0.177310 0.535318
O O10 0.457583 0.563270 0.179198
O O11 0.331614 0.449251 0.350487
O O12 0.360888 0.866383 0.303532
O O13 0.526763 0.147087 0.166454
O O14 0.000000 0.000000 0.500000
#
# Coordination Sequence:
#
# PCOD9233980 Si02
#       7
#     4   4   4   4   4   2   4
#     4  10  22  39  57  84 118 154 189 240 294 340
#     4  10  22  36  59  84 109 148 200 241 275 350
#     4  10  22  33  51  83 113 155 178 232 289 343
#     4   9  20  33  47  78 111 156 195 230 284 342
#     4   9  20  31  50  72 120 158 185 230 291 350
#     4   8  18  34  46  70 116 158 190 228 286 356
#     4  10  22  34  53  86 116 143 186 241 287 339
#
# _framework density 23.744014
#
# number of rings (size 3 to 8) (size 9 to 14) (size 15 to 20)
#    0.000    2.769    0.000    0.923   17.231    0.000 
#    0.000    0.000    0.000    0.000    0.000   25.846 
#    0.000    0.000    0.000    0.000    0.000    0.000 
#
# Total GULP energy -144796.769470 kJ/mol
# GULP energy per Si atom -5569.106518 kJ/mol
# Density = 2.368997 g / cm^3
# Si number density = 23.744014 Si / 1000 Ang^3
#
#
#
# Elastic Constant Matrix: (Units=GPa)
#
#
# Indices 1 2 3 4 5 6 
#
# 1 36.8920 11.1357 15.4825 0.0000 16.7840 0.0000
# 2 11.1357 194.8797 7.3454 0.0000 -0.3533 0.0000
# 3 15.4825 7.3454 87.9712 0.0000 -9.5685 0.0000
# 4 0.0000 0.0000 0.0000 25.3457 0.0000 -1.5454
# 5 16.7840 -0.3533 -9.5685 0.0000 27.5777 0.0000
# 6 0.0000 0.0000 0.0000 -1.5454 0.0000 16.2651
#
#
#
# Elastic Compliance Matrix: (Units=1/GPa)
#
#
# Indices 1 2 3 4 5 6 
#
# 1 0.047969 -0.002354 -0.011872 0.000000 -0.033344 0.000000
# 2 -0.002354 0.005263 0.000143 0.000000 0.001550 0.000000
# 3 -0.011872 0.000143 0.014789 0.000000 0.012359 0.000000
# 4 0.000000 0.000000 0.000000 0.039684 0.000000 0.003770
# 5 -0.033344 0.001550 0.012359 0.000000 0.060862 0.000000
# 6 0.000000 0.000000 0.000000 0.003770 0.000000 0.061839
#
#
# Mechanical properties :
#
#
# Convention : Reuss Voigt Hill
#
# Bulk Modulus (GPa) = 25.09076 43.07442 34.08259
# Shear Modulus (GPa) = 18.39191 32.88968 25.64080
#
# Velocity S-wave (km/s) = 2.78617 3.72584 3.28972
# Velocity P-wave (km/s) = 4.57607 6.05720 5.36797
#
# Compressibility (1/GPa) = 0.03985530
#
# Stress axis : x y z
#
# Youngs Moduli (GPa) = 20.84679 189.99539 67.61728
#
# Poissons Ratio (x) = 0.44724 0.80278
# Poissons Ratio (y) = 0.04907 -0.00970
# Poissons Ratio (z) = 0.24750 -0.02724
#
# Static dielectric constant tensor:
#      x y z
#    x 1.932470 0.000000 0.040520 
#    y 0.000000 2.048560 0.000000 
#    z 0.040520 0.000000 2.000880 
# 
# From -- ./inp_files/86835.got.cif
#   From: 2010.05.17/outbox.cif.g08.bks.cpg/sg13_44_cif.got.tgz:86835.got - 2010.06.03 16:44:36.
