data_PCOD9233896
_publ_section_title
;
Structure prediction by ZEFSAII (Michael W. Deem and Ramdas Pophale) SiO2 
 PCOD9233896
Probable space group: P 2/C
;
_chemical_formula_sum "Si O2"
_cell_formula_units_Z 26
_cell_length_a 8.005729
_cell_length_b 15.580998
_cell_length_c 13.993591
_cell_angle_alpha 90.000000
_cell_angle_beta 139.762541
_cell_angle_gamma 90.000000
_cell_volume 1127.532007
_symmetry_space_group_name_H-M "P 2/C"
_symmetry_group_IT_number 13
_symmetry_cell_setting 'monoclinic'
loop_
_space_group_symop_operation_xyz
x,y,z
-x,y,1/2-z
-x,-y,-z
x,-y,1/2+z
loop_
_atom_site_type_symbol
_atom_site_label
_atom_site_fract_x
_atom_site_fract_y
_atom_site_fract_z
Si Si1 0.789166 0.854355 0.523332
Si Si2 0.500000 0.609937 0.750000
Si Si3 0.732561 0.684020 0.415122
Si Si4 0.195468 0.739507 0.489320
Si Si5 0.362164 0.119158 0.329876
Si Si6 0.500000 0.030644 0.750000
Si Si7 0.000000 0.627887 0.250000
Si Si8 0.047290 0.470894 0.127142
O O1 0.655025 0.763026 0.448023
O O2 0.688567 0.893107 0.579566
O O3 0.711226 0.913191 0.399403
O O4 0.097802 0.838551 0.672320
O O5 0.316095 0.671384 0.613333
O O6 0.656863 0.558157 0.739649
O O7 0.500000 0.645709 0.250000
O O8 0.908474 0.734681 0.410959
O O9 0.863473 0.613663 0.544236
O O10 0.378464 0.823358 0.570974
O O11 0.193667 0.695402 0.384444
O O12 0.384940 0.031515 0.280977
O O13 0.971047 0.556513 0.320034
O O14 0.000000 0.500000 0.000000
#
# Coordination Sequence:
#
# PCOD9233896 Si02
#       8
#     4   2   4   4   4   2   2   4
#     4  11  25  45  75 112 144 190 245 289 359 441
#     4  10  21  44  65  90 140 186 232 299 368 425
#     4  11  24  45  72 100 146 192 238 305 369 426
#     4  11  25  45  69 102 142 190 240 299 368 432
#     4  11  25  45  73 110 147 189 238 297 365 430
#     4  12  23  48  77 108 150 190 234 303 356 439
#     4  12  26  44  68 108 134 192 252 294 364 432
#     4  11  24  43  65 100 139 188 239 303 358 423
#
# _framework density 23.059211999999999
#
# number of rings (size 3 to 8) (size 9 to 14) (size 15 to 20)
#    0.000    0.923    3.846    4.154    3.231    3.077 
#    0.000    1.538    0.000    0.000    0.000    0.000 
#    0.000    0.000    0.000    0.000    0.000    0.000 
#
# Total GULP energy -144838.410652 kJ/mol
# GULP energy per Si atom -5570.708102 kJ/mol
# Density = 2.300673 g / cm^3
# Si number density = 23.059212 Si / 1000 Ang^3
#
#
#
# Elastic Constant Matrix: (Units=GPa)
#
#
# Indices 1 2 3 4 5 6 
#
# 1 78.7145 32.4025 39.3154 0.0000 -8.5935 0.0000
# 2 32.4025 101.5521 29.8501 0.0000 -14.3435 0.0000
# 3 39.3154 29.8501 98.3291 0.0000 -12.6537 0.0000
# 4 0.0000 0.0000 0.0000 50.3675 0.0000 -17.6676
# 5 -8.5935 -14.3435 -12.6537 0.0000 38.5783 0.0000
# 6 0.0000 0.0000 0.0000 -17.6676 0.0000 25.8403
#
#
#
# Elastic Compliance Matrix: (Units=1/GPa)
#
#
# Indices 1 2 3 4 5 6 
#
# 1 0.017116 -0.003722 -0.005639 0.000000 0.000579 0.000000
# 2 -0.003722 0.011982 -0.001757 0.000000 0.003050 0.000000
# 3 -0.005639 -0.001757 0.013273 0.000000 0.002444 0.000000
# 4 0.000000 0.000000 0.000000 0.026118 0.000000 0.017857
# 5 0.000579 0.003050 0.002444 0.000000 0.027986 0.000000
# 6 0.000000 0.000000 0.000000 0.017857 0.000000 0.050909
#
#
# Mechanical properties :
#
#
# Convention : Reuss Voigt Hill
#
# Bulk Modulus (GPa) = 49.66555 53.52575 51.59565
# Shear Modulus (GPa) = 28.35589 34.75906 31.55748
#
# Velocity S-wave (km/s) = 3.51051 3.88672 3.70339
# Velocity P-wave (km/s) = 6.16576 6.58823 6.38049
#
# Compressibility (1/GPa) = 0.02013468
#
# Stress axis : x y z
#
# Youngs Moduli (GPa) = 58.42456 83.45960 75.34373
#
# Poissons Ratio (x) = 0.31063 0.42488
# Poissons Ratio (y) = 0.21745 0.13236
# Poissons Ratio (z) = 0.32947 0.14662
#
# Static dielectric constant tensor:
#      x y z
#    x 2.054060 0.000000 0.068810 
#    y 0.000000 1.865400 0.000000 
#    z 0.068810 0.000000 1.858660 
# 
# From -- ./inp_files/47995.got.cif
#   From: 2010.05.17/outbox.cif.g08.bks.cpg/sg13_24_cif.got.tgz:47995.got - 2010.06.03 16:44:36.
