data_PCOD9233550
_publ_section_title
;
Structure prediction by ZEFSAII (Michael W. Deem and Ramdas Pophale) SiO2 
 PCOD9233550
Probable space group: P 2/C
;
_chemical_formula_sum "Si O2"
_cell_formula_units_Z 32
_cell_length_a 9.511219
_cell_length_b 11.037203
_cell_length_c 30.911810
_cell_angle_alpha 90.000000
_cell_angle_beta 152.509456
_cell_angle_gamma 90.000000
_cell_volume 1497.916251
_symmetry_space_group_name_H-M "P 2/C"
_symmetry_group_IT_number 13
_symmetry_cell_setting 'monoclinic'
loop_
_space_group_symop_operation_xyz
x,y,z
-x,y,1/2-z
-x,-y,-z
x,-y,1/2+z
loop_
_atom_site_type_symbol
_atom_site_label
_atom_site_fract_x
_atom_site_fract_y
_atom_site_fract_z
Si Si1 0.252434 0.156617 0.284097
Si Si2 0.289226 0.130472 0.800511
Si Si3 0.637624 0.227504 0.970038
Si Si4 0.557159 0.673930 0.316470
Si Si5 0.280148 0.113864 0.947169
Si Si6 0.148065 0.896134 0.663931
Si Si7 0.274016 0.269396 0.029493
Si Si8 0.341754 0.525838 0.076335
O O1 0.131999 0.182344 0.203593
O O2 0.583083 0.204004 0.389247
O O3 0.000000 0.195397 0.250000
O O4 0.256432 0.010689 0.283732
O O5 0.570394 0.147336 0.909623
O O6 0.353270 0.213947 0.776958
O O7 0.000000 0.172581 0.750000
O O8 0.367502 0.201039 0.931059
O O9 0.649188 0.363167 0.954803
O O10 0.945247 0.178008 0.074831
O O11 0.500000 0.647807 0.250000
O O12 0.488436 0.567569 0.333066
O O13 0.910665 0.710348 0.422946
O O14 0.356994 0.185492 0.011567
O O15 0.972272 0.035439 0.866918
O O16 0.500000 0.000000 0.000000
O O17 0.500000 0.901821 0.750000
O O18 0.426002 0.402179 0.075009
O O19 0.000000 0.500000 0.000000
#
# Coordination Sequence:
#
# PCOD9233550 Si02
#       8
#     4   4   4   4   4   4   4   4
#     4  11  23  41  61  96 140 178 218 278 349 416
#     4  10  22  40  67  96 138 175 224 280 353 415
#     4  10  21  44  68  94 138 186 221 286 347 398
#     4  10  24  43  69 100 130 178 234 288 337 402
#     4  10  21  41  66  98 138 178 222 280 350 413
#     4  11  25  37  66 107 139 176 231 273 348 422
#     4  11  24  42  69  96 140 180 230 286 338 410
#     4   9  22  46  68  96 133 177 242 278 340 400
#
# _framework density 21.363009999999999
#
# number of rings (size 3 to 8) (size 9 to 14) (size 15 to 20)
#    0.000    1.750    0.000    4.500   10.500    1.000 
#    4.500    2.500    0.000    0.000    0.000    0.000 
#    0.000    0.000    0.000    0.000    0.000    0.000 
#
# Total GULP energy -178412.763147 kJ/mol
# GULP energy per Si atom -5575.398848 kJ/mol
# Density = 2.131439 g / cm^3
# Si number density = 21.363010 Si / 1000 Ang^3
#
#
#
# Elastic Constant Matrix: (Units=GPa)
#
#
# Indices 1 2 3 4 5 6 
#
# 1 90.3170 57.8345 58.9295 0.0000 -22.7415 0.0000
# 2 57.8345 98.1656 36.7151 0.0000 -17.8574 0.0000
# 3 58.9295 36.7151 125.7229 0.0000 -25.2574 0.0000
# 4 0.0000 0.0000 0.0000 20.9004 0.0000 -2.0411
# 5 -22.7415 -17.8574 -25.2574 0.0000 41.4353 0.0000
# 6 0.0000 0.0000 0.0000 -2.0411 0.0000 25.7350
#
#
#
# Elastic Compliance Matrix: (Units=1/GPa)
#
#
# Indices 1 2 3 4 5 6 
#
# 1 0.023373 -0.010377 -0.007118 0.000000 0.004017 0.000000
# 2 -0.010377 0.016453 0.000387 0.000000 0.001631 0.000000
# 3 -0.007118 0.000387 0.011881 0.000000 0.003502 0.000000
# 4 0.000000 0.000000 0.000000 0.048219 0.000000 0.003824
# 5 0.004017 0.001631 0.003502 0.000000 0.029176 0.000000
# 6 0.000000 0.000000 0.000000 0.003824 0.000000 0.039161
#
#
# Mechanical properties :
#
#
# Convention : Reuss Voigt Hill
#
# Bulk Modulus (GPa) = 57.17522 69.01818 63.09670
# Shear Modulus (GPa) = 24.00269 28.32924 26.16596
#
# Velocity S-wave (km/s) = 3.35560 3.64550 3.50355
# Velocity P-wave (km/s) = 6.46801 7.07793 6.77983
#
# Compressibility (1/GPa) = 0.01749009
#
# Stress axis : x y z
#
# Youngs Moduli (GPa) = 42.78443 60.78065 84.16831
#
# Poissons Ratio (x) = 0.63074 0.59911
# Poissons Ratio (y) = 0.44399 -0.03258
# Poissons Ratio (z) = 0.30454 -0.02353
#
# Static dielectric constant tensor:
#      x y z
#    x 1.880140 0.000000 0.025830 
#    y 0.000000 1.782610 0.000000 
#    z 0.025830 0.000000 1.839940 
# 
# From -- ./inp_files/96171.got.cif
#   From: 2010.05.17/outbox.cif.g08.bks.cpg/sg13_49_cif.got.tgz:96171.got - 2010.06.03 16:44:36.
