data_PCOD9233008
_publ_section_title
;
Structure prediction by ZEFSAII (Michael W. Deem and Ramdas Pophale) SiO2 
 PCOD9233008
Probable space group: P 2/C
;
_chemical_formula_sum "Si O2"
_cell_formula_units_Z 28
_cell_length_a 9.769773
_cell_length_b 15.617943
_cell_length_c 10.530038
_cell_angle_alpha 90.000000
_cell_angle_beta 117.147494
_cell_angle_gamma 90.000000
_cell_volume 1429.709072
_symmetry_space_group_name_H-M "P 2/C"
_symmetry_group_IT_number 13
_symmetry_cell_setting 'monoclinic'
loop_
_space_group_symop_operation_xyz
x,y,z
-x,y,1/2-z
-x,-y,-z
x,-y,1/2+z
loop_
_atom_site_type_symbol
_atom_site_label
_atom_site_fract_x
_atom_site_fract_y
_atom_site_fract_z
Si Si1 0.771994 0.934222 0.862964
Si Si2 0.753826 0.280711 0.809829
Si Si3 0.654176 0.552216 0.596437
Si Si4 0.518679 0.090616 0.075304
Si Si5 0.165730 0.537543 0.095133
Si Si6 0.453035 0.273603 0.531469
Si Si7 0.933466 0.892986 0.359996
O O1 0.626009 0.915522 0.890428
O O2 0.695362 0.906374 0.699041
O O3 0.820133 0.033547 0.865939
O O4 0.922166 0.888558 0.982457
O O5 0.854039 0.365316 0.864703
O O6 0.612466 0.306060 0.659113
O O7 0.671995 0.262838 0.910098
O O8 0.846063 0.196594 0.809196
O O9 0.500000 0.500000 0.500000
O O10 0.750135 0.542390 0.506010
O O11 0.739446 0.515138 0.757175
O O12 0.610575 0.653330 0.589449
O O13 0.503929 0.179754 0.998035
O O14 0.500000 0.000000 0.000000
O O15 0.000000 0.500000 0.000000
O O16 0.000000 0.919557 0.250000
#
# Coordination Sequence:
#
# PCOD9233008 Si02
#       7
#     4   4   4   4   4   4   4
#     4  10  23  38  55  88 122 153 207 249 308 370
#     4  10  21  39  62  89 122 158 216 256 307 388
#     4  11  22  44  67  93 128 172 220 268 325 400
#     4  11  21  39  61  86 120 157 205 257 301 365
#     4  11  24  42  65  98 131 170 213 279 338 386
#     4  10  21  39  65  90 118 165 211 255 317 371
#     4  11  22  38  60  85 122 167 201 252 319 375
#
# _framework density 19.584403999999999
#
# number of rings (size 3 to 8) (size 9 to 14) (size 15 to 20)
#    0.000    1.429    1.429    4.286    0.000    5.714 
#    7.714    1.429    0.000    0.000    0.000    0.000 
#    0.000    0.000    0.000    0.000    0.000    0.000 
#
# Total GULP energy -156113.372247 kJ/mol
# GULP energy per Si atom -5575.477580 kJ/mol
# Density = 1.953983 g / cm^3
# Si number density = 19.584404 Si / 1000 Ang^3
#
#
#
# Elastic Constant Matrix: (Units=GPa)
#
#
# Indices 1 2 3 4 5 6 
#
# 1 55.7998 39.8869 27.7761 0.0000 11.9301 0.0000
# 2 39.8869 120.6331 29.1207 0.0000 -6.1753 0.0000
# 3 27.7761 29.1207 79.4296 0.0000 10.3499 0.0000
# 4 0.0000 0.0000 0.0000 29.9165 0.0000 2.5311
# 5 11.9301 -6.1753 10.3499 0.0000 18.5227 0.0000
# 6 0.0000 0.0000 0.0000 2.5311 0.0000 34.4169
#
#
#
# Elastic Compliance Matrix: (Units=1/GPa)
#
#
# Indices 1 2 3 4 5 6 
#
# 1 0.032658 -0.010825 -0.004574 0.000000 -0.022088 0.000000
# 2 -0.010825 0.013188 -0.002730 0.000000 0.012894 0.000000
# 3 -0.004574 -0.002730 0.016097 0.000000 -0.006959 0.000000
# 4 0.000000 0.000000 0.000000 0.033636 0.000000 -0.002474
# 5 -0.022088 0.012894 -0.006959 0.000000 0.076401 0.000000
# 6 0.000000 0.000000 0.000000 -0.002474 0.000000 0.029237
#
#
# Mechanical properties :
#
#
# Convention : Reuss Voigt Hill
#
# Bulk Modulus (GPa) = 38.93150 49.93666 44.43408
# Shear Modulus (GPa) = 20.32231 27.17648 23.74940
#
# Velocity S-wave (km/s) = 3.22480 3.72917 3.48612
# Velocity P-wave (km/s) = 5.81272 6.64047 6.24033
#
# Compressibility (1/GPa) = 0.02568614
#
# Stress axis : x y z
#
# Youngs Moduli (GPa) = 30.62021 75.82753 62.12483
#
# Poissons Ratio (x) = 0.82083 0.28414
# Poissons Ratio (y) = 0.33146 0.16958
# Poissons Ratio (z) = 0.14005 0.20698
#
# Static dielectric constant tensor:
#      x y z
#    x 1.697170 0.000000 -0.035830 
#    y 0.000000 1.479740 0.000000 
#    z -0.035830 0.000000 1.764770 
# 
# From -- ./inp_files/30315.got.cif
#   From: 2010.05.17/outbox.cif.g08.bks.cpg/sg13_16_cif.got.tgz:30315.got - 2010.06.03 16:44:36.
