data_PCOD9233522
_publ_section_title
;
Structure prediction by ZEFSAII (Michael W. Deem and Ramdas Pophale) SiO2 
 PCOD9233522
Probable space group: P 2/C
;
_chemical_formula_sum "Si O2"
_cell_formula_units_Z 28
_cell_length_a 7.507942
_cell_length_b 5.488617
_cell_length_c 29.554024
_cell_angle_alpha 90.000000
_cell_angle_beta 116.508099
_cell_angle_gamma 90.000000
_cell_volume 1089.835693
_symmetry_space_group_name_H-M "P 2/C"
_symmetry_group_IT_number 13
_symmetry_cell_setting 'monoclinic'
loop_
_space_group_symop_operation_xyz
x,y,z
-x,y,1/2-z
-x,-y,-z
x,-y,1/2+z
loop_
_atom_site_type_symbol
_atom_site_label
_atom_site_fract_x
_atom_site_fract_y
_atom_site_fract_z
Si Si1 0.840893 0.017146 0.298044
Si Si2 0.008344 0.527321 0.349617
Si Si3 0.548230 0.883910 0.685014
Si Si4 0.287371 0.424307 0.955549
Si Si5 0.165369 0.798735 0.523643
Si Si6 0.678052 0.504790 0.382271
Si Si7 0.529710 0.086252 0.584119
O O1 0.982745 0.776537 0.317190
O O2 0.944824 0.279677 0.317640
O O3 0.654401 0.018934 0.313421
O O4 0.727620 0.043220 0.237453
O O5 0.848709 0.602768 0.369928
O O6 0.198838 0.441359 0.401624
O O7 0.496918 0.598881 0.669808
O O8 0.585764 0.975842 0.638569
O O9 0.301969 0.163986 0.931573
O O10 0.500000 0.500000 0.000000
O O11 0.146053 0.406026 0.983021
O O12 0.208367 0.712898 0.579035
O O13 0.376924 0.926915 0.538541
O O14 0.000000 0.000000 0.500000
O O15 0.590693 0.674802 0.411399
#
# Coordination Sequence:
#
# PCOD9233522 Si02
#       7
#     4   4   4   4   4   4   4
#     4  10  22  42  71 103 134 178 233 297 346 412
#     4  11  25  42  68 103 137 179 237 288 343 419
#     4   9  21  38  70 101 134 174 228 290 356 407
#     4  12  27  44  65  98 144 188 228 287 358 422
#     4  11  25  41  70 100 131 185 237 291 343 419
#     4  10  21  41  66 102 132 177 229 290 340 422
#     4  11  22  42  65  95 139 177 230 279 353 420
#
# _framework density 25.691943999999999
#
# number of rings (size 3 to 8) (size 9 to 14) (size 15 to 20)
#    0.000    1.429    2.857    1.286    8.000    3.429 
#    0.000    0.714    0.000    0.000    0.000    0.000 
#    0.000    0.000    0.000    0.000    0.000    0.000 
#
# Total GULP energy -156258.692381 kJ/mol
# GULP energy per Si atom -5580.667585 kJ/mol
# Density = 2.563347 g / cm^3
# Si number density = 25.691944 Si / 1000 Ang^3
#
#
#
# Elastic Constant Matrix: (Units=GPa)
#
#
# Indices 1 2 3 4 5 6 
#
# 1 48.2353 14.3240 32.3398 0.0000 -2.7402 0.0000
# 2 14.3240 81.9412 52.9152 0.0000 22.4153 0.0000
# 3 32.3398 52.9152 185.2038 0.0000 17.0307 0.0000
# 4 0.0000 0.0000 0.0000 31.2387 0.0000 4.0738
# 5 -2.7402 22.4153 17.0307 0.0000 44.2295 0.0000
# 6 0.0000 0.0000 0.0000 4.0738 0.0000 38.0860
#
#
#
# Elastic Compliance Matrix: (Units=1/GPa)
#
#
# Indices 1 2 3 4 5 6 
#
# 1 0.024453 -0.003050 -0.003815 0.000000 0.004530 0.000000
# 2 -0.003050 0.017158 -0.003683 0.000000 -0.007466 0.000000
# 3 -0.003815 -0.003683 0.007224 0.000000 -0.001151 0.000000
# 4 0.000000 0.000000 0.000000 0.032464 0.000000 -0.003472
# 5 0.004530 -0.007466 -0.001151 0.000000 0.027117 0.000000
# 6 0.000000 0.000000 0.000000 -0.003472 0.000000 0.026628
#
#
# Mechanical properties :
#
#
# Convention : Reuss Voigt Hill
#
# Bulk Modulus (GPa) = 36.05145 57.17093 46.61119
# Shear Modulus (GPa) = 30.23233 37.09757 33.66495
#
# Velocity S-wave (km/s) = 3.43406 3.80404 3.62378
# Velocity P-wave (km/s) = 5.45769 6.44942 5.97417
#
# Compressibility (1/GPa) = 0.02773813
#
# Stress axis : x y z
#
# Youngs Moduli (GPa) = 40.89558 58.28210 138.43154
#
# Poissons Ratio (x) = 0.17776 0.52811
# Poissons Ratio (y) = 0.12473 0.50985
# Poissons Ratio (z) = 0.15601 0.21466
#
# Static dielectric constant tensor:
#      x y z
#    x 2.095420 0.000000 0.060790 
#    y 0.000000 2.159540 0.000000 
#    z 0.060790 0.000000 1.978040 
# 
# From -- ./inp_files/95722.got.cif
#   From: 2010.05.17/outbox.cif.g08.bks.cpg/sg13_48_cif.got.tgz:95722.got - 2010.06.03 16:44:36.
