data_PCOD9233323
_publ_section_title
;
Structure prediction by ZEFSAII (Michael W. Deem and Ramdas Pophale) SiO2 
 PCOD9233323
Probable space group: P 2/C
;
_chemical_formula_sum "Si O2"
_cell_formula_units_Z 22
_cell_length_a 5.679753
_cell_length_b 10.430074
_cell_length_c 17.642242
_cell_angle_alpha 90.000000
_cell_angle_beta 75.558040
_cell_angle_gamma 90.000000
_cell_volume 1012.105402
_symmetry_space_group_name_H-M "P 2/C"
_symmetry_group_IT_number 13
_symmetry_cell_setting 'monoclinic'
loop_
_space_group_symop_operation_xyz
x,y,z
-x,y,1/2-z
-x,-y,-z
x,-y,1/2+z
loop_
_atom_site_type_symbol
_atom_site_label
_atom_site_fract_x
_atom_site_fract_y
_atom_site_fract_z
Si Si1 0.145364 0.771260 0.810450
Si Si2 0.227527 0.502350 0.334699
Si Si3 0.500000 0.998099 0.750000
Si Si4 0.162187 0.089357 0.041030
Si Si5 0.568015 0.863292 0.395377
Si Si6 0.717963 0.406709 0.843980
O O1 0.295289 0.648130 0.825062
O O2 0.279137 0.897252 0.768224
O O3 0.000000 0.719385 0.750000
O O4 0.989900 0.816624 0.894310
O O5 0.251766 0.566869 0.248915
O O6 0.429513 0.560012 0.375176
O O7 0.936019 0.520126 0.370720
O O8 0.537074 0.089414 0.675770
O O9 0.294542 0.988105 0.084813
O O10 0.358736 0.161429 0.973549
O O11 0.000000 0.000000 0.000000
O O12 0.736200 0.741704 0.366164
#
# Coordination Sequence:
#
# PCOD9233323 Si02
#       6
#     4   4   2   4   4   4
#     4  12  23  41  70  95 133 176 231 280 340 413
#     4  10  22  40  66  99 132 174 225 292 331 400
#     4  12  22  38  70 102 122 174 238 280 346 406
#     4  11  25  45  62  98 142 178 220 285 349 407
#     4  11  25  41  67 100 134 178 225 286 348 405
#     4  10  21  40  65  94 135 170 224 277 341 395
#
# _framework density 21.736867
#
# number of rings (size 3 to 8) (size 9 to 14) (size 15 to 20)
#    0.000    1.091    5.455    2.182    2.545    2.909 
#    0.000    1.818    0.000    0.000    0.000    0.000 
#    0.000    0.000    0.000    0.000    0.000    0.000 
#
# Total GULP energy -122707.443862 kJ/mol
# GULP energy per Si atom -5577.611085 kJ/mol
# Density = 2.168739 g / cm^3
# Si number density = 21.736867 Si / 1000 Ang^3
#
#
#
# Elastic Constant Matrix: (Units=GPa)
#
#
# Indices 1 2 3 4 5 6 
#
# 1 88.8473 -3.7439 2.4561 0.0000 -3.5793 0.0000
# 2 -3.7439 78.1201 40.8681 0.0000 -19.8953 0.0000
# 3 2.4561 40.8681 86.2264 0.0000 -12.5476 0.0000
# 4 0.0000 0.0000 0.0000 74.9001 0.0000 -26.3425
# 5 -3.5793 -19.8953 -12.5476 0.0000 24.3247 0.0000
# 6 0.0000 0.0000 0.0000 -26.3425 0.0000 38.7746
#
#
#
# Elastic Compliance Matrix: (Units=1/GPa)
#
#
# Indices 1 2 3 4 5 6 
#
# 1 0.011446 0.001578 -0.000693 0.000000 0.002617 0.000000
# 2 0.001578 0.020176 -0.007755 0.000000 0.012734 0.000000
# 3 -0.000693 -0.007755 0.015520 0.000000 0.001561 0.000000
# 4 0.000000 0.000000 0.000000 0.017543 0.000000 0.011918
# 5 0.002617 0.012734 0.001561 0.000000 0.052716 0.000000
# 6 0.000000 0.000000 0.000000 0.011918 0.000000 0.033887
#
#
# Mechanical properties :
#
#
# Convention : Reuss Voigt Hill
#
# Bulk Modulus (GPa) = 29.93799 36.92829 33.43314
# Shear Modulus (GPa) = 28.38286 41.84078 35.11182
#
# Velocity S-wave (km/s) = 3.61743 4.39210 4.02345
# Velocity P-wave (km/s) = 5.59022 6.53807 6.08264
#
# Compressibility (1/GPa) = 0.03340238
#
# Stress axis : x y z
#
# Youngs Moduli (GPa) = 87.36426 49.56292 64.43419
#
# Poissons Ratio (x) = -0.07819 0.04465
# Poissons Ratio (y) = -0.13782 0.49967
# Poissons Ratio (z) = 0.06054 0.38435
#
# Static dielectric constant tensor:
#      x y z
#    x 1.902980 0.000000 -0.069790 
#    y 0.000000 1.747880 0.000000 
#    z -0.069790 0.000000 1.731220 
# 
# From -- ./inp_files/60923.got.cif
#   From: 2010.05.17/outbox.cif.g08.bks.cpg/sg13_31_cif.got.tgz:60923.got - 2010.06.03 16:44:36.
