data_PCOD9233162
_publ_section_title
;
Structure prediction by ZEFSAII (Michael W. Deem and Ramdas Pophale) SiO2 
 PCOD9233162
Probable space group: P 2/C
;
_chemical_formula_sum "Si O2"
_cell_formula_units_Z 26
_cell_length_a 12.917868
_cell_length_b 17.233260
_cell_length_c 10.396277
_cell_angle_alpha 90.000000
_cell_angle_beta 145.498000
_cell_angle_gamma 90.000000
_cell_volume 1310.950244
_symmetry_space_group_name_H-M "P 2/C"
_symmetry_group_IT_number 13
_symmetry_cell_setting 'monoclinic'
loop_
_space_group_symop_operation_xyz
x,y,z
-x,y,1/2-z
-x,-y,-z
x,-y,1/2+z
loop_
_atom_site_type_symbol
_atom_site_label
_atom_site_fract_x
_atom_site_fract_y
_atom_site_fract_z
Si Si1 0.500000 0.077367 0.750000
Si Si2 0.002588 0.257840 0.102330
Si Si3 0.998542 0.588562 0.040464
Si Si4 0.717599 0.355752 0.463936
Si Si5 0.342406 0.832446 0.845655
Si Si6 0.713225 0.799634 0.101338
Si Si7 0.790931 0.054555 0.509335
O O1 0.437123 0.127944 0.565155
O O2 0.334365 0.020639 0.618019
O O3 0.191720 0.227359 0.238005
O O4 0.000000 0.239526 0.250000
O O5 0.985855 0.349555 0.058596
O O6 0.844100 0.216549 0.856330
O O7 0.820185 0.614466 0.941188
O O8 0.174304 0.601195 0.311275
O O9 0.000000 0.500000 0.000000
O O10 0.757828 0.265096 0.539127
O O11 0.500000 0.368283 0.250000
O O12 0.245323 0.897800 0.658581
O O13 0.504448 0.792399 0.931607
O O14 0.735574 0.884783 0.064933
O O15 0.000000 0.034463 0.750000
#
# Coordination Sequence:
#
# PCOD9233162 Si02
#       7
#     2   4   4   4   4   4   4
#     4  12  28  42  62  98 138 174 214 284 350 386
#     4  11  24  41  67  96 131 177 217 267 334 403
#     4  10  23  40  67  98 136 171 211 270 332 394
#     4  10  21  39  67  99 127 171 224 268 319 393
#     4  12  24  45  66  92 135 171 228 277 333 397
#     4  11  22  41  70  97 124 172 229 274 324 392
#     4  12  24  40  67  95 127 174 223 282 333 392
#
# _framework density 19.832941000000002
#
# number of rings (size 3 to 8) (size 9 to 14) (size 15 to 20)
#    0.000    0.923    3.077    4.154    4.308    3.077 
#    0.000    0.000    1.692    0.000    0.000    0.000 
#    0.000    0.000    0.000    0.000    0.000    0.000 
#
# Total GULP energy -145433.589051 kJ/mol
# GULP energy per Si atom -5593.599579 kJ/mol
# Density = 1.978780 g / cm^3
# Si number density = 19.832941 Si / 1000 Ang^3
#
#
#
# Elastic Constant Matrix: (Units=GPa)
#
#
# Indices 1 2 3 4 5 6 
#
# 1 60.3306 4.6584 38.6030 0.0000 -0.1356 0.0000
# 2 4.6584 77.4853 30.1343 0.0000 -9.2564 0.0000
# 3 38.6030 30.1343 144.5358 0.0000 3.4649 0.0000
# 4 0.0000 0.0000 0.0000 25.9253 0.0000 1.7216
# 5 -0.1356 -9.2564 3.4649 0.0000 46.3117 0.0000
# 6 0.0000 0.0000 0.0000 1.7216 0.0000 16.9474
#
#
#
# Elastic Compliance Matrix: (Units=1/GPa)
#
#
# Indices 1 2 3 4 5 6 
#
# 1 0.020078 0.001052 -0.005598 0.000000 0.000688 0.000000
# 2 0.001052 0.014538 -0.003388 0.000000 0.003162 0.000000
# 3 -0.005598 -0.003388 0.009153 0.000000 -0.001378 0.000000
# 4 0.000000 0.000000 0.000000 0.038834 0.000000 -0.003945
# 5 0.000688 0.003162 -0.001378 0.000000 0.022330 0.000000
# 6 0.000000 0.000000 0.000000 -0.003945 0.000000 0.059407
#
#
# Mechanical properties :
#
#
# Convention : Reuss Voigt Hill
#
# Bulk Modulus (GPa) = 35.84087 47.68257 41.76172
# Shear Modulus (GPa) = 26.38408 31.76725 29.07567
#
# Velocity S-wave (km/s) = 3.65131 4.00652 3.83303
# Velocity P-wave (km/s) = 5.99055 6.74516 6.37902
#
# Compressibility (1/GPa) = 0.02790111
#
# Stress axis : x y z
#
# Youngs Moduli (GPa) = 49.80632 68.78662 109.25032
#
# Poissons Ratio (x) = -0.07239 0.61162
# Poissons Ratio (y) = -0.05241 0.37012
# Poissons Ratio (z) = 0.27883 0.23304
#
# Static dielectric constant tensor:
#      x y z
#    x 1.710300 0.000000 -0.005380 
#    y 0.000000 1.680340 0.000000 
#    z -0.005380 0.000000 1.695280 
# 
# From -- ./inp_files/37599.got.cif
#   From: 2010.05.17/outbox.cif.g08.bks.cpg/sg13_19_cif.got.tgz:37599.got - 2010.06.03 16:44:36.
