data_PCOD9233812
_publ_section_title
;
Structure prediction by ZEFSAII (Michael W. Deem and Ramdas Pophale) SiO2 
 PCOD9233812
Probable space group: P 2/C
;
_chemical_formula_sum "Si O2"
_cell_formula_units_Z 22
_cell_length_a 11.537371
_cell_length_b 13.573736
_cell_length_c 13.912042
_cell_angle_alpha 90.000000
_cell_angle_beta 148.921825
_cell_angle_gamma 90.000000
_cell_volume 1124.659692
_symmetry_space_group_name_H-M "P 2/C"
_symmetry_group_IT_number 13
_symmetry_cell_setting 'monoclinic'
loop_
_space_group_symop_operation_xyz
x,y,z
-x,y,1/2-z
-x,-y,-z
x,-y,1/2+z
loop_
_atom_site_type_symbol
_atom_site_label
_atom_site_fract_x
_atom_site_fract_y
_atom_site_fract_z
Si Si1 0.176078 0.697050 0.730627
Si Si2 0.248111 0.972529 0.089290
Si Si3 0.608425 0.608871 0.931545
Si Si4 0.000000 0.245484 0.750000
Si Si5 0.999034 0.841203 0.056883
Si Si6 0.000000 0.455334 0.250000
Si Si7 0.000000 0.851599 0.750000
O O1 0.409997 0.647881 0.861265
O O2 0.062249 0.751970 0.558360
O O3 0.026403 0.611547 0.673427
O O4 0.172089 0.780413 0.812671
O O5 0.500000 0.947494 0.250000
O O6 0.215001 0.089305 0.075169
O O7 0.166754 0.916874 0.126020
O O8 0.108609 0.923166 0.904906
O O9 0.500000 0.589524 0.750000
O O10 0.796922 0.693384 0.059705
O O11 0.769067 0.518636 0.079506
O O12 0.096612 0.188373 0.728366
#
# Coordination Sequence:
#
# PCOD9233812 Si02
#       7
#     4   4   4   2   4   2   2
#     4  10  21  43  65  89 127 163 204 257 306 367
#     4  10  22  39  62  91 127 166 204 254 307 351
#     4  11  23  41  64  91 121 162 202 257 314 366
#     4  11  23  39  61  90 122 160 211 245 305 375
#     4  10  22  41  61  92 127 161 212 254 293 376
#     4  10  24  44  64  92 122 156 208 262 314 372
#     4   9  21  41  61  94 130 162 209 249 295 369
#
# _framework density 19.561471999999998
#
# number of rings (size 3 to 8) (size 9 to 14) (size 15 to 20)
#    0.000    1.818    1.818    1.091    5.091    0.727 
#    3.273    5.455    0.000    0.000    0.000    0.000 
#    0.000    0.000    0.000    0.000    0.000    0.000 
#
# Total GULP energy -122550.932432 kJ/mol
# GULP energy per Si atom -5570.496929 kJ/mol
# Density = 1.951695 g / cm^3
# Si number density = 19.561472 Si / 1000 Ang^3
#
#
#
# Elastic Constant Matrix: (Units=GPa)
#
#
# Indices 1 2 3 4 5 6 
#
# 1 95.3667 40.1296 24.8867 0.0000 -10.8951 0.0000
# 2 40.1296 92.4599 35.1582 0.0000 -14.0166 0.0000
# 3 24.8867 35.1582 57.2100 0.0000 -4.7739 0.0000
# 4 0.0000 0.0000 0.0000 2.0138 0.0000 -7.5291
# 5 -10.8951 -14.0166 -4.7739 0.0000 41.5203 0.0000
# 6 0.0000 0.0000 0.0000 -7.5291 0.0000 12.4039
#
#
#
# Elastic Compliance Matrix: (Units=1/GPa)
#
#
# Indices 1 2 3 4 5 6 
#
# 1 0.013295 -0.004400 -0.002941 0.000000 0.001665 0.000000
# 2 -0.004400 0.016191 -0.007751 0.000000 0.003420 0.000000
# 3 -0.002941 -0.007751 0.023464 0.000000 -0.000690 0.000000
# 4 0.000000 0.000000 0.000000 -0.391187 0.000000 -0.237447
# 5 0.001665 0.003420 -0.000690 0.000000 0.025597 0.000000
# 6 0.000000 0.000000 0.000000 -0.237447 0.000000 -0.063508
#
#
# Mechanical properties :
#
#
# Convention : Reuss Voigt Hill
#
# Bulk Modulus (GPa) = 43.92146 49.48729 46.70437
# Shear Modulus (GPa) = -14.77639 20.84506 3.03433
#
# Velocity S-wave (km/s) = -2.75140 3.26792 1.24681
# Velocity P-wave (km/s) = 3.52252 6.29225 5.09904
#
# Compressibility (1/GPa) = 0.02276792
#
# Stress axis : x y z
#
# Youngs Moduli (GPa) = 75.21750 61.76379 42.61809
#
# Poissons Ratio (x) = 0.27174 0.12532
# Poissons Ratio (y) = 0.33093 0.33032
# Poissons Ratio (z) = 0.22118 0.47871
#
# Static dielectric constant tensor:
#      x y z
#    x 1.700000 0.000000 0.002790 
#    y 0.000000 1.723820 0.000000 
#    z 0.002790 0.000000 1.701690 
# 
# From -- ./inp_files/51362.got.cif
#   From: 2010.05.17/outbox.cif.g08.bks.cpg/sg13_26_cif.got.tgz:51362.got - 2010.06.03 16:44:36.
