data_PCOD9233318
_publ_section_title
;
Structure prediction by ZEFSAII (Michael W. Deem and Ramdas Pophale) SiO2 
 PCOD9233318
Probable space group: P 2/C
;
_chemical_formula_sum "Si O2"
_cell_formula_units_Z 20
_cell_length_a 24.244918
_cell_length_b 5.190352
_cell_length_c 14.060100
_cell_angle_alpha 90.000000
_cell_angle_beta 151.633785
_cell_angle_gamma 90.000000
_cell_volume 840.612683
_symmetry_space_group_name_H-M "P 2/C"
_symmetry_group_IT_number 13
_symmetry_cell_setting 'monoclinic'
loop_
_space_group_symop_operation_xyz
x,y,z
-x,y,1/2-z
-x,-y,-z
x,-y,1/2+z
loop_
_atom_site_type_symbol
_atom_site_label
_atom_site_fract_x
_atom_site_fract_y
_atom_site_fract_z
Si Si1 0.327603 0.327935 0.729701
Si Si2 0.063471 0.751491 0.053753
Si Si3 0.266424 0.963934 0.798558
Si Si4 0.475772 0.375862 0.616021
Si Si5 0.110687 0.429495 0.960512
O O1 0.406996 0.291617 0.759056
O O2 0.209829 0.489464 0.536495
O O3 0.289588 0.073798 0.727710
O O4 0.404235 0.470034 0.927411
O O5 0.201386 0.829838 0.267255
O O6 0.059517 0.682323 0.935597
O O7 0.000000 0.500000 0.000000
O O8 0.000000 0.000000 0.000000
O O9 0.176730 0.732240 0.641905
O O10 0.389291 0.852600 0.016546
O O11 0.500000 0.527037 0.750000
O O12 0.000000 0.288421 0.750000
#
# Coordination Sequence:
#
# PCOD9233318 Si02
#       5
#     4   4   4   4   4
#     4   9  21  41  62  92 141 179 228 297 354 415
#     4  11  22  42  65  95 137 179 220 281 340 409
#     4  10  21  40  65  92 139 182 232 290 355 410
#     4  10  21  40  65  97 131 181 239 293 355 420
#     4  10  22  41  65  99 137 185 229 282 355 419
#
# _framework density 23.792169999999999
#
# number of rings (size 3 to 8) (size 9 to 14) (size 15 to 20)
#    0.000    2.000    2.000    0.600    0.000    5.600 
#    3.600    0.000    0.000    0.000    0.000    0.000 
#    0.000    0.000    0.000    0.000    0.000    0.000 
#
# Total GULP energy -111442.681077 kJ/mol
# GULP energy per Si atom -5572.134054 kJ/mol
# Density = 2.373802 g / cm^3
# Si number density = 23.792170 Si / 1000 Ang^3
#
#
#
# Elastic Constant Matrix: (Units=GPa)
#
#
# Indices 1 2 3 4 5 6 
#
# 1 173.4249 48.6153 68.9334 0.0000 40.8288 0.0000
# 2 48.6153 108.7281 26.3907 0.0000 23.6228 0.0000
# 3 68.9334 26.3907 105.0427 0.0000 36.9098 0.0000
# 4 0.0000 0.0000 0.0000 17.7077 0.0000 9.2479
# 5 40.8288 23.6228 36.9098 0.0000 33.2104 0.0000
# 6 0.0000 0.0000 0.0000 9.2479 0.0000 28.1996
#
#
#
# Elastic Compliance Matrix: (Units=1/GPa)
#
#
# Indices 1 2 3 4 5 6 
#
# 1 0.009057 -0.001923 -0.003328 0.000000 -0.006067 0.000000
# 2 -0.001923 0.011287 0.000684 0.000000 -0.006424 0.000000
# 3 -0.003328 0.000684 0.016843 0.000000 -0.015114 0.000000
# 4 0.000000 0.000000 0.000000 0.068144 0.000000 -0.022347
# 5 -0.006067 -0.006424 -0.015114 0.000000 0.058936 0.000000
# 6 0.000000 0.000000 0.000000 -0.022347 0.000000 0.042790
#
#
# Mechanical properties :
#
#
# Convention : Reuss Voigt Hill
#
# Bulk Modulus (GPa) = 35.65013 75.00826 55.32920
# Shear Modulus (GPa) = 22.16873 32.04063 27.10468
#
# Velocity S-wave (km/s) = 3.05580 3.67371 3.37891
# Velocity P-wave (km/s) = 5.24090 7.04200 6.20712
#
# Compressibility (1/GPa) = 0.02805039
#
# Stress axis : x y z
#
# Youngs Moduli (GPa) = 110.41611 88.59764 59.37206
#
# Poissons Ratio (x) = 0.17042 0.19761
# Poissons Ratio (y) = 0.21238 -0.04059
# Poissons Ratio (z) = 0.36750 -0.06057
#
# Static dielectric constant tensor:
#      x y z
#    x 1.946030 0.000000 -0.017800 
#    y 0.000000 2.044670 0.000000 
#    z -0.017800 0.000000 2.046230 
# 
# From -- ./inp_files/58092.got.cif
#   From: 2010.05.17/outbox.cif.g08.bks.cpg/sg13_30_cif.got.tgz:58092.got - 2010.06.03 16:44:36.
