data_PCOD9233563
_publ_section_title
;
Structure prediction by ZEFSAII (Michael W. Deem and Ramdas Pophale) SiO2 
 PCOD9233563
Probable space group: P 2/C
;
_chemical_formula_sum "Si O2"
_cell_formula_units_Z 20
_cell_length_a 20.579511
_cell_length_b 6.690354
_cell_length_c 13.423204
_cell_angle_alpha 90.000000
_cell_angle_beta 148.468340
_cell_angle_gamma 90.000000
_cell_volume 966.533270
_symmetry_space_group_name_H-M "P 2/C"
_symmetry_group_IT_number 13
_symmetry_cell_setting 'monoclinic'
loop_
_space_group_symop_operation_xyz
x,y,z
-x,y,1/2-z
-x,-y,-z
x,-y,1/2+z
loop_
_atom_site_type_symbol
_atom_site_label
_atom_site_fract_x
_atom_site_fract_y
_atom_site_fract_z
Si Si1 0.086249 0.185702 0.142735
Si Si2 0.673982 0.536175 0.318213
Si Si3 0.935715 0.487309 0.570218
Si Si4 0.364293 0.805542 0.043643
Si Si5 0.541869 0.226233 0.050225
O O1 0.223295 0.108236 0.356278
O O2 0.019845 0.331371 0.137060
O O3 0.093882 0.331354 0.056122
O O4 0.000000 0.000000 0.000000
O O5 0.809373 0.567464 0.452676
O O6 0.650190 0.628019 0.395134
O O7 0.628777 0.307216 0.251444
O O8 0.584399 0.650462 0.124223
O O9 0.000000 0.385887 0.750000
O O10 0.500000 0.905116 0.250000
O O11 0.386591 0.739965 0.959780
O O12 0.500000 0.000000 0.000000
#
# Coordination Sequence:
#
# PCOD9233563 Si02
#       5
#     4   4   4   4   4
#     4  11  25  43  66  99 137 176 226 284 333 410
#     4  10  21  41  67  92 134 171 217 284 338 399
#     4  11  23  43  67  93 131 178 226 273 348 399
#     4  10  21  43  65  97 134 168 223 278 338 399
#     4  10  22  41  67  97 131 177 224 276 338 406
#
# _framework density 20.692512000000001
#
# number of rings (size 3 to 8) (size 9 to 14) (size 15 to 20)
#    0.000    1.600    4.000    0.000    2.800    0.800 
#    7.200   15.000    0.000    0.000    0.000    0.000 
#    0.000    0.000    0.000    0.000    0.000    0.000 
#
# Total GULP energy -111364.178416 kJ/mol
# GULP energy per Si atom -5568.208921 kJ/mol
# Density = 2.064541 g / cm^3
# Si number density = 20.692512 Si / 1000 Ang^3
#
#
#
# Elastic Constant Matrix: (Units=GPa)
#
#
# Indices 1 2 3 4 5 6 
#
# 1 114.9493 20.2785 37.5332 0.0000 6.7403 0.0000
# 2 20.2785 57.5307 32.3439 0.0000 0.4874 0.0000
# 3 37.5332 32.3439 152.0363 0.0000 24.6273 0.0000
# 4 0.0000 0.0000 0.0000 34.4273 0.0000 -0.1633
# 5 6.7403 0.4874 24.6273 0.0000 40.1037 0.0000
# 6 0.0000 0.0000 0.0000 -0.1633 0.0000 5.0413
#
#
#
# Elastic Compliance Matrix: (Units=1/GPa)
#
#
# Indices 1 2 3 4 5 6 
#
# 1 0.009746 -0.002412 -0.001813 0.000000 -0.000496 0.000000
# 2 -0.002412 0.020587 -0.004230 0.000000 0.002753 0.000000
# 3 -0.001813 -0.004230 0.008736 0.000000 -0.005009 0.000000
# 4 0.000000 0.000000 0.000000 0.029051 0.000000 0.000941
# 5 -0.000496 0.002753 -0.005009 0.000000 0.028061 0.000000
# 6 0.000000 0.000000 0.000000 0.000941 0.000000 0.198393
#
#
# Mechanical properties :
#
#
# Convention : Reuss Voigt Hill
#
# Bulk Modulus (GPa) = 45.12705 56.09193 50.60949
# Shear Modulus (GPa) = 15.68036 31.53849 23.60943
#
# Velocity S-wave (km/s) = 2.75577 3.90827 3.38148
# Velocity P-wave (km/s) = 5.65521 6.89437 6.30530
#
# Compressibility (1/GPa) = 0.02215966
#
# Stress axis : x y z
#
# Youngs Moduli (GPa) = 102.60728 48.57422 114.46796
#
# Poissons Ratio (x) = 0.11716 0.20748
# Poissons Ratio (y) = 0.24749 0.48421
# Poissons Ratio (z) = 0.18598 0.20547
#
# Static dielectric constant tensor:
#      x y z
#    x 1.719930 0.000000 0.002410 
#    y 0.000000 2.572260 0.000000 
#    z 0.002410 0.000000 1.846180 
# 
# From -- ./inp_files/56681.got.cif
#   From: 2010.05.17/outbox.cif.g08.bks.cpg/sg13_29_cif.got.tgz:56681.got - 2010.06.03 16:44:36.
