data_PCOD9233968
_publ_section_title
;
Structure prediction by ZEFSAII (Michael W. Deem and Ramdas Pophale) SiO2 
 PCOD9233968
Probable space group: P 2/C
;
_chemical_formula_sum "Si O2"
_cell_formula_units_Z 16
_cell_length_a 6.996647
_cell_length_b 12.664633
_cell_length_c 9.336528
_cell_angle_alpha 90.000000
_cell_angle_beta 122.567652
_cell_angle_gamma 90.000000
_cell_volume 697.220354
_symmetry_space_group_name_H-M "P 2/C"
_symmetry_group_IT_number 13
_symmetry_cell_setting 'monoclinic'
loop_
_space_group_symop_operation_xyz
x,y,z
-x,y,1/2-z
-x,-y,-z
x,-y,1/2+z
loop_
_atom_site_type_symbol
_atom_site_label
_atom_site_fract_x
_atom_site_fract_y
_atom_site_fract_z
Si Si1 0.320613 0.215525 0.541936
Si Si2 0.108284 0.771076 0.439159
Si Si3 0.271909 0.988978 0.565242
Si Si4 0.531180 0.609483 0.932065
O O1 0.500000 0.225151 0.750000
O O2 0.376411 0.301142 0.444575
O O3 0.078425 0.239079 0.515006
O O4 0.301071 0.093976 0.478338
O O5 0.283005 0.864759 0.539463
O O6 0.221124 0.660054 0.451404
O O7 0.000000 0.812506 0.250000
O O8 0.500000 0.006318 0.750000
O O9 0.000000 0.000000 0.500000
O O10 0.500000 0.598402 0.750000
O O11 0.500000 0.500000 0.000000
#
# Coordination Sequence:
#
# PCOD9233968 Si02
#       4
#     4   4   4   4
#     4  10  21  46  72 106 149 189 238 304 370 444
#     4  11  23  44  75 109 146 194 242 306 377 453
#     4   9  20  41  72 112 154 197 245 302 376 453
#     4  12  28  49  73 102 138 191 253 315 376 447
#
# _framework density 22.948267999999999
#
# number of rings (size 3 to 8) (size 9 to 14) (size 15 to 20)
#    0.000    1.500    2.500    1.500    0.000    3.000 
#   13.500    0.000    0.000    0.000    0.000    0.000 
#    0.000    0.000    0.000    0.000    0.000    0.000 
#
# Total GULP energy -89147.246349 kJ/mol
# GULP energy per Si atom -5571.702897 kJ/mol
# Density = 2.289604 g / cm^3
# Si number density = 22.948268 Si / 1000 Ang^3
#
#
#
# Elastic Constant Matrix: (Units=GPa)
#
#
# Indices 1 2 3 4 5 6 
#
# 1 158.9073 79.5883 41.0810 0.0000 -7.9130 0.0000
# 2 79.5883 206.2916 47.4618 0.0000 -15.8742 0.0000
# 3 41.0810 47.4618 79.4464 0.0000 -12.3727 0.0000
# 4 0.0000 0.0000 0.0000 27.6852 0.0000 -6.7284
# 5 -7.9130 -15.8742 -12.3727 0.0000 39.6704 0.0000
# 6 0.0000 0.0000 0.0000 -6.7284 0.0000 48.3623
#
#
#
# Elastic Compliance Matrix: (Units=1/GPa)
#
#
# Indices 1 2 3 4 5 6 
#
# 1 0.008292 -0.002577 -0.002786 0.000000 -0.000246 0.000000
# 2 -0.002577 0.006482 -0.002329 0.000000 0.001353 0.000000
# 3 -0.002786 -0.002329 0.015963 0.000000 0.003491 0.000000
# 4 0.000000 0.000000 0.000000 0.037384 0.000000 0.005201
# 5 -0.000246 0.001353 0.003491 0.000000 0.026789 0.000000
# 6 0.000000 0.000000 0.000000 0.005201 0.000000 0.021401
#
#
# Mechanical properties :
#
#
# Convention : Reuss Voigt Hill
#
# Bulk Modulus (GPa) = 65.13927 86.76749 75.95338
# Shear Modulus (GPa) = 36.54644 41.57786 39.06215
#
# Velocity S-wave (km/s) = 3.99502 4.26115 4.13023
# Velocity P-wave (km/s) = 7.05174 7.88048 7.47760
#
# Compressibility (1/GPa) = 0.01535172
#
# Stress axis : x y z
#
# Youngs Moduli (GPa) = 120.60278 154.28242 62.64498
#
# Poissons Ratio (x) = 0.39756 0.17456
# Poissons Ratio (y) = 0.31077 0.14590
# Poissons Ratio (z) = 0.33606 0.35932
#
# Static dielectric constant tensor:
#      x y z
#    x 1.943210 0.000000 0.012370 
#    y 0.000000 1.823070 0.000000 
#    z 0.012370 0.000000 1.959310 
# 
# From -- ./inp_files/8980.got.cif
#   From: 2010.05.17/outbox.cif.g08.bks.cpg/sg13_5_cif.got.tgz:8980.got - 2010.06.03 16:44:36.
