data_PCOD9233851
_publ_section_title
;
Structure prediction by ZEFSAII (Michael W. Deem and Ramdas Pophale) SiO2 
 PCOD9233851
Probable space group: P 2/C
;
_chemical_formula_sum "Si O2"
_cell_formula_units_Z 32
_cell_length_a 11.654601
_cell_length_b 17.344822
_cell_length_c 14.792993
_cell_angle_alpha 90.000000
_cell_angle_beta 151.176909
_cell_angle_gamma 90.000000
_cell_volume 1441.672336
_symmetry_space_group_name_H-M "P 2/C"
_symmetry_group_IT_number 13
_symmetry_cell_setting 'monoclinic'
loop_
_space_group_symop_operation_xyz
x,y,z
-x,y,1/2-z
-x,-y,-z
x,-y,1/2+z
loop_
_atom_site_type_symbol
_atom_site_label
_atom_site_fract_x
_atom_site_fract_y
_atom_site_fract_z
Si Si1 0.152465 0.429312 0.276496
Si Si2 0.164159 0.216849 0.613990
Si Si3 0.276473 0.056978 0.345705
Si Si4 0.318950 0.408492 0.882801
Si Si5 0.372837 0.177566 0.253335
Si Si6 0.774343 0.240616 0.644955
Si Si7 0.258961 0.605897 0.136045
Si Si8 0.746882 0.074050 0.960282
O O1 0.399342 0.392413 0.415101
O O2 0.234696 0.513064 0.371033
O O3 0.000000 0.387877 0.250000
O O4 0.967026 0.430248 0.067977
O O5 0.277505 0.205162 0.791927
O O6 0.232679 0.300932 0.624340
O O7 0.220650 0.150463 0.579847
O O8 0.882674 0.214806 0.440560
O O9 0.330264 0.114118 0.300722
O O10 0.275793 0.090554 0.447856
O O11 0.500000 0.000000 0.500000
O O12 0.002841 0.028923 0.134969
O O13 0.180234 0.330740 0.806660
O O14 0.281391 0.425163 0.751715
O O15 0.500000 0.149292 0.250000
O O16 0.555602 0.235325 0.426379
O O17 0.000000 0.203874 0.750000
O O18 0.500000 0.588030 0.250000
O O19 0.500000 0.038570 0.750000
#
# Coordination Sequence:
#
# PCOD9233851 Si02
#       8
#     4   4   4   4   4   4   4   4
#     4  11  21  39  57  83 114 161 211 258 320 380
#     4  10  22  39  64  95 130 166 209 267 321 379
#     4  10  24  44  65  99 134 172 214 256 312 382
#     4  10  23  38  59  80 120 160 207 264 316 382
#     4  11  22  41  65  95 131 165 212 258 313 378
#     4  11  21  39  62  92 125 164 209 262 325 383
#     4  11  21  37  59  89 120 156 208 263 322 380
#     4  10  21  43  68  97 132 170 216 261 317 374
#
# _framework density 22.196445000000001
#
# number of rings (size 3 to 8) (size 9 to 14) (size 15 to 20)
#    0.000    1.500    2.500    2.625    0.000    2.000 
#    6.750    0.000    0.000    0.000    0.000    0.000 
#    0.000    0.000    0.000    0.000    0.000    0.000 
#
# Total GULP energy -178556.621539 kJ/mol
# GULP energy per Si atom -5579.894423 kJ/mol
# Density = 2.214592 g / cm^3
# Si number density = 22.196445 Si / 1000 Ang^3
#
#
#
# Elastic Constant Matrix: (Units=GPa)
#
#
# Indices 1 2 3 4 5 6 
#
# 1 133.9888 16.4705 43.8648 0.0000 1.7783 0.0000
# 2 16.4705 32.2922 6.1431 0.0000 -0.3611 0.0000
# 3 43.8648 6.1431 148.4298 0.0000 5.2242 0.0000
# 4 0.0000 0.0000 0.0000 22.2469 0.0000 3.1822
# 5 1.7783 -0.3611 5.2242 0.0000 36.3106 0.0000
# 6 0.0000 0.0000 0.0000 3.1822 0.0000 4.6565
#
#
#
# Elastic Compliance Matrix: (Units=1/GPa)
#
#
# Indices 1 2 3 4 5 6 
#
# 1 0.008748 -0.004004 -0.002415 0.000000 -0.000121 0.000000
# 2 -0.004004 0.033054 -0.000204 0.000000 0.000554 0.000000
# 3 -0.002415 -0.000204 0.007493 0.000000 -0.000962 0.000000
# 4 0.000000 0.000000 0.000000 0.049820 0.000000 -0.034047
# 5 -0.000121 0.000554 -0.000962 0.000000 0.027690 0.000000
# 6 0.000000 0.000000 0.000000 -0.034047 0.000000 0.238021
#
#
# Mechanical properties :
#
#
# Convention : Reuss Voigt Hill
#
# Bulk Modulus (GPa) = 27.74012 49.74085 38.74048
# Shear Modulus (GPa) = 12.81759 29.19164 21.00461
#
# Velocity S-wave (km/s) = 2.40565 3.63043 3.07954
# Velocity P-wave (km/s) = 4.49899 6.32704 5.48964
#
# Compressibility (1/GPa) = 0.03604888
#
# Stress axis : x y z
#
# Youngs Moduli (GPa) = 114.31507 30.25323 133.45313
#
# Poissons Ratio (x) = 0.12112 0.32232
# Poissons Ratio (y) = 0.45768 0.02727
# Poissons Ratio (z) = 0.27610 0.00618
#
# Static dielectric constant tensor:
#      x y z
#    x 1.950510 0.000000 0.091910 
#    y 0.000000 1.812230 0.000000 
#    z 0.091910 0.000000 1.872630 
# 
# From -- ./inp_files/51656.got.cif
#   From: 2010.05.17/outbox.cif.g08.bks.cpg/sg13_26_cif.got.tgz:51656.got - 2010.06.03 16:44:36.
