data_PCOD9233320
_publ_section_title
;
Structure prediction by ZEFSAII (Michael W. Deem and Ramdas Pophale) SiO2 
 PCOD9233320
Probable space group: P 2/C
;
_chemical_formula_sum "Si O2"
_cell_formula_units_Z 24
_cell_length_a 20.461326
_cell_length_b 7.255184
_cell_length_c 15.524047
_cell_angle_alpha 90.000000
_cell_angle_beta 150.819112
_cell_angle_gamma 90.000000
_cell_volume 1123.628518
_symmetry_space_group_name_H-M "P 2/C"
_symmetry_group_IT_number 13
_symmetry_cell_setting 'monoclinic'
loop_
_space_group_symop_operation_xyz
x,y,z
-x,y,1/2-z
-x,-y,-z
x,-y,1/2+z
loop_
_atom_site_type_symbol
_atom_site_label
_atom_site_fract_x
_atom_site_fract_y
_atom_site_fract_z
Si Si1 0.459957 0.293611 0.972389
Si Si2 0.738046 0.018854 0.535641
Si Si3 0.841579 0.593197 0.084718
Si Si4 0.115567 0.307795 0.216208
Si Si5 0.185871 0.450588 0.636945
Si Si6 0.462480 0.990176 0.324712
O O1 0.300093 0.310005 0.800538
O O2 0.489884 0.162559 0.927087
O O3 0.500000 0.500000 0.000000
O O4 0.540577 0.196473 0.141134
O O5 0.783890 0.222933 0.562839
O O6 0.845251 0.898428 0.710774
O O7 0.597943 0.003590 0.425226
O O8 0.681287 0.938015 0.380421
O O9 0.828544 0.433861 0.141374
O O10 0.000000 0.625011 0.250000
O O11 0.787433 0.527710 0.928875
O O12 0.174691 0.383404 0.193924
O O13 0.957015 0.347203 0.029460
#
# Coordination Sequence:
#
# PCOD9233320 Si02
#       6
#     4   4   4   4   4   4
#     4  11  21  39  61  84 119 158 201 262 316 365
#     4  11  22  40  59  84 125 162 199 258 312 364
#     4  10  22  39  61  91 122 161 212 256 312 385
#     4  10  22  41  63  91 128 166 208 263 323 380
#     4  10  21  40  65  94 126 164 214 264 317 383
#     4  10  24  37  57  90 115 155 214 248 303 391
#
# _framework density 21.359370999999999
#
# number of rings (size 3 to 8) (size 9 to 14) (size 15 to 20)
#    0.000    1.667    0.000    4.000    0.000    4.667 
#    0.000   18.333    0.000    0.000    0.000    0.000 
#    0.000    0.000    0.000    0.000    0.000    0.000 
#
# Total GULP energy -133845.823495 kJ/mol
# GULP energy per Si atom -5576.909312 kJ/mol
# Density = 2.131076 g / cm^3
# Si number density = 21.359371 Si / 1000 Ang^3
#
#
#
# Elastic Constant Matrix: (Units=GPa)
#
#
# Indices 1 2 3 4 5 6 
#
# 1 39.9055 8.5331 3.1586 0.0000 -9.5276 0.0000
# 2 8.5331 84.4406 17.4513 0.0000 0.2669 0.0000
# 3 3.1586 17.4513 76.5064 0.0000 -9.7359 0.0000
# 4 0.0000 0.0000 0.0000 42.8473 0.0000 1.7006
# 5 -9.5276 0.2669 -9.7359 0.0000 22.9264 0.0000
# 6 0.0000 0.0000 0.0000 1.7006 0.0000 34.9928
#
#
#
# Elastic Compliance Matrix: (Units=1/GPa)
#
#
# Indices 1 2 3 4 5 6 
#
# 1 0.028607 -0.003161 0.001118 0.000000 0.012400 0.000000
# 2 -0.003161 0.012822 -0.003151 0.000000 -0.002801 0.000000
# 3 0.001118 -0.003151 0.014596 0.000000 0.006700 0.000000
# 4 0.000000 0.000000 0.000000 0.023384 0.000000 -0.001136
# 5 0.012400 -0.002801 0.006700 0.000000 0.051648 0.000000
# 6 0.000000 0.000000 0.000000 -0.001136 0.000000 0.028632
#
#
# Mechanical properties :
#
#
# Convention : Reuss Voigt Hill
#
# Bulk Modulus (GPa) = 21.91181 28.79317 25.35249
# Shear Modulus (GPa) = 26.98470 31.60061 29.29266
#
# Velocity S-wave (km/s) = 3.55824 3.85056 3.70729
# Velocity P-wave (km/s) = 5.21175 5.76877 5.49732
#
# Compressibility (1/GPa) = 0.04563750
#
# Stress axis : x y z
#
# Youngs Moduli (GPa) = 34.95621 77.99040 68.51246
#
# Poissons Ratio (x) = 0.24654 -0.07659
# Poissons Ratio (y) = 0.11050 0.21586
# Poissons Ratio (z) = -0.03908 0.24572
#
# Static dielectric constant tensor:
#      x y z
#    x 1.861900 0.000000 -0.059630 
#    y 0.000000 1.731370 0.000000 
#    z -0.059630 0.000000 1.839150 
# 
# From -- ./inp_files/70964.got.cif
#   From: 2010.05.17/outbox.cif.g08.bks.cpg/sg13_36_cif.got.tgz:70964.got - 2010.06.03 16:44:36.
