data_PCOD9233556
_publ_section_title
;
Structure prediction by ZEFSAII (Michael W. Deem and Ramdas Pophale) SiO2 
 PCOD9233556
Probable space group: P 2/C
;
_chemical_formula_sum "Si O2"
_cell_formula_units_Z 20
_cell_length_a 5.346493
_cell_length_b 23.139922
_cell_length_c 7.966920
_cell_angle_alpha 90.000000
_cell_angle_beta 117.038954
_cell_angle_gamma 90.000000
_cell_volume 877.913367
_symmetry_space_group_name_H-M "P 2/C"
_symmetry_group_IT_number 13
_symmetry_cell_setting 'monoclinic'
loop_
_space_group_symop_operation_xyz
x,y,z
-x,y,1/2-z
-x,-y,-z
x,-y,1/2+z
loop_
_atom_site_type_symbol
_atom_site_label
_atom_site_fract_x
_atom_site_fract_y
_atom_site_fract_z
Si Si1 0.775859 0.448954 0.935023
Si Si2 0.734960 0.084027 0.547448
Si Si3 0.000000 0.355683 0.750000
Si Si4 0.500000 0.182270 0.250000
Si Si5 0.566776 0.653267 0.573356
Si Si6 0.500000 0.002061 0.750000
Si Si7 0.000000 0.257015 0.250000
O O1 0.500000 0.468390 0.750000
O O2 0.923199 0.398217 0.877486
O O3 0.659504 0.412914 0.059750
O O4 0.000000 0.500000 0.000000
O O5 0.595181 0.141783 0.434065
O O6 0.542405 0.046073 0.610632
O O7 0.000000 0.094583 0.750000
O O8 0.748614 0.042123 0.385238
O O9 0.711535 0.326860 0.609580
O O10 0.226393 0.218966 0.219359
O O11 0.500000 0.657583 0.750000
O O12 0.807905 0.697547 0.590634
#
# Coordination Sequence:
#
# PCOD9233556 Si02
#       7
#     4   4   2   2   4   2   2
#     4  10  24  43  68 104 144 179 228 289 366 438
#     4  10  21  41  67 106 148 195 240 305 360 430
#     4  10  24  43  68 108 132 179 232 298 342 452
#     4  11  28  46  70 108 148 184 255 302 368 422
#     4  11  24  48  77 101 139 190 246 296 364 439
#     4   9  20  38  70 106 142 198 249 286 366 438
#     4  12  26  51  76 104 138 203 242 312 362 432
#
# _framework density 22.781291
#
# number of rings (size 3 to 8) (size 9 to 14) (size 15 to 20)
#    0.000    1.600    1.000    1.800    2.800    8.000 
#    5.400    5.000    0.000    0.000    0.000    0.000 
#    0.000    0.000    0.000    0.000    0.000    0.000 
#
# Total GULP energy -111549.698453 kJ/mol
# GULP energy per Si atom -5577.484923 kJ/mol
# Density = 2.272944 g / cm^3
# Si number density = 22.781291 Si / 1000 Ang^3
#
#
#
# Elastic Constant Matrix: (Units=GPa)
#
#
# Indices 1 2 3 4 5 6 
#
# 1 126.8565 77.5716 57.0440 0.0000 28.8566 0.0000
# 2 77.5716 137.3351 86.2431 0.0000 17.3117 0.0000
# 3 57.0440 86.2431 125.9795 0.0000 33.0700 0.0000
# 4 0.0000 0.0000 0.0000 11.4226 0.0000 8.5315
# 5 28.8566 17.3117 33.0700 0.0000 60.2584 0.0000
# 6 0.0000 0.0000 0.0000 8.5315 0.0000 40.7105
#
#
#
# Elastic Compliance Matrix: (Units=1/GPa)
#
#
# Indices 1 2 3 4 5 6 
#
# 1 0.013028 -0.006695 -0.000214 0.000000 -0.004198 0.000000
# 2 -0.006695 0.016304 -0.009044 0.000000 0.003486 0.000000
# 3 -0.000214 -0.009044 0.015792 0.000000 -0.005966 0.000000
# 4 0.000000 0.000000 0.000000 0.103791 0.000000 -0.021751
# 5 -0.004198 0.003486 -0.005966 0.000000 0.020878 0.000000
# 6 0.000000 0.000000 0.000000 -0.021751 0.000000 0.029122
#
#
# Mechanical properties :
#
#
# Convention : Reuss Voigt Hill
#
# Bulk Modulus (GPa) = 75.66009 92.43204 84.04607
# Shear Modulus (GPa) = 21.25597 33.76581 27.51089
#
# Velocity S-wave (km/s) = 3.05789 3.85408 3.47884
# Velocity P-wave (km/s) = 6.76396 7.77605 7.28760
#
# Compressibility (1/GPa) = 0.01321701
#
# Stress axis : x y z
#
# Youngs Moduli (GPa) = 76.75701 61.33645 63.32184
#
# Poissons Ratio (x) = 0.41067 0.01353
# Poissons Ratio (y) = 0.51392 0.57271
# Poissons Ratio (z) = 0.01640 0.55476
#
# Static dielectric constant tensor:
#      x y z
#    x 1.958020 0.000000 0.054480 
#    y 0.000000 1.842690 0.000000 
#    z 0.054480 0.000000 1.971480 
# 
# From -- ./inp_files/10188.got.cif
#   From: 2010.05.17/outbox.cif.g08.bks.cpg/sg13_6_cif.got.tgz:10188.got - 2010.06.03 16:44:36.
