data_PCOD9233805
_publ_section_title
;
Structure prediction by ZEFSAII (Michael W. Deem and Ramdas Pophale) SiO2 
 PCOD9233805
Probable space group: P 2/C
;
_chemical_formula_sum "Si O2"
_cell_formula_units_Z 30
_cell_length_a 21.478934
_cell_length_b 5.631463
_cell_length_c 19.332803
_cell_angle_alpha 90.000000
_cell_angle_beta 143.771956
_cell_angle_gamma 90.000000
_cell_volume 1382.027501
_symmetry_space_group_name_H-M "P 2/C"
_symmetry_group_IT_number 13
_symmetry_cell_setting 'monoclinic'
loop_
_space_group_symop_operation_xyz
x,y,z
-x,y,1/2-z
-x,-y,-z
x,-y,1/2+z
loop_
_atom_site_type_symbol
_atom_site_label
_atom_site_fract_x
_atom_site_fract_y
_atom_site_fract_z
Si Si1 0.183696 0.873592 0.821489
Si Si2 0.657726 0.731327 0.280085
Si Si3 0.701778 0.255266 0.668641
Si Si4 0.111042 0.239604 0.858609
Si Si5 0.678223 0.483524 0.507536
Si Si6 0.783713 0.778765 0.903497
Si Si7 0.500000 0.578658 0.250000
Si Si8 0.892307 0.597422 0.871851
O O1 0.277736 0.750016 0.949119
O O2 0.110675 0.709102 0.707284
O O3 0.251561 0.025332 0.827065
O O4 0.109100 0.006151 0.808839
O O5 0.632507 0.757695 0.175612
O O6 0.717743 0.473745 0.345526
O O7 0.559994 0.724127 0.244501
O O8 0.720549 0.974235 0.352389
O O9 0.649822 0.403984 0.559633
O O10 0.806755 0.389306 0.788490
O O11 0.215050 0.355307 0.919599
O O12 0.000000 0.368295 0.750000
O O13 0.135420 0.217911 0.960769
O O14 0.587748 0.437090 0.371593
O O15 0.845444 0.777239 0.886462
O O16 0.000000 0.500000 0.000000
#
# Coordination Sequence:
#
# PCOD9233805 Si02
#       8
#     4   4   4   4   4   4   2   4
#     4  10  21  43  64  93 141 186 237 293 352 429
#     4  11  24  46  70 104 140 185 236 298 360 422
#     4   9  21  42  65  95 141 176 230 297 354 423
#     4  11  25  40  64  99 145 188 231 293 361 431
#     4  10  23  45  67 100 134 182 239 294 362 428
#     4  11  24  45  67 106 147 183 240 293 353 429
#     4  12  24  46  76 100 138 190 238 308 362 434
#     4  10  22  38  69 101 138 190 242 290 349 424
#
# _framework density 21.707238
#
# number of rings (size 3 to 8) (size 9 to 14) (size 15 to 20)
#    0.000    1.600    2.667    0.800    5.600    4.267 
#    4.800    0.667    0.000    0.000    0.000    0.000 
#    0.000    0.000    0.000    0.000    0.000    0.000 
#
# Total GULP energy -167226.817299 kJ/mol
# GULP energy per Si atom -5574.227243 kJ/mol
# Density = 2.165783 g / cm^3
# Si number density = 21.707238 Si / 1000 Ang^3
#
#
#
# Elastic Constant Matrix: (Units=GPa)
#
#
# Indices 1 2 3 4 5 6 
#
# 1 71.7640 20.1859 65.0699 0.0000 4.3201 0.0000
# 2 20.1859 65.8060 19.0626 0.0000 4.8000 0.0000
# 3 65.0699 19.0626 110.2038 0.0000 -10.1695 0.0000
# 4 0.0000 0.0000 0.0000 9.8544 0.0000 1.9931
# 5 4.3201 4.8000 -10.1695 0.0000 18.1440 0.0000
# 6 0.0000 0.0000 0.0000 1.9931 0.0000 10.9561
#
#
#
# Elastic Compliance Matrix: (Units=1/GPa)
#
#
# Indices 1 2 3 4 5 6 
#
# 1 0.037408 -0.003113 -0.023511 0.000000 -0.021261 0.000000
# 2 -0.003113 0.016924 -0.001512 0.000000 -0.004583 0.000000
# 3 -0.023511 -0.001512 0.025068 0.000000 0.020048 0.000000
# 4 0.000000 0.000000 0.000000 0.105354 0.000000 -0.019166
# 5 -0.021261 -0.004583 0.020048 0.000000 0.072626 0.000000
# 6 0.000000 0.000000 0.000000 -0.019166 0.000000 0.094760
#
#
# Mechanical properties :
#
#
# Convention : Reuss Voigt Hill
#
# Bulk Modulus (GPa) = 43.24036 50.71228 46.97632
# Shear Modulus (GPa) = 12.01572 17.35461 14.68517
#
# Velocity S-wave (km/s) = 2.35529 2.83058 2.60380
# Velocity P-wave (km/s) = 5.23063 5.83914 5.54324
#
# Compressibility (1/GPa) = 0.02312654
#
# Stress axis : x y z
#
# Youngs Moduli (GPa) = 26.73208 59.08939 39.89176
#
# Poissons Ratio (x) = 0.18397 0.93790
# Poissons Ratio (y) = 0.08323 0.06032
# Poissons Ratio (z) = 0.62850 0.08934
#
# Static dielectric constant tensor:
#      x y z
#    x 1.833330 0.000000 -0.031930 
#    y 0.000000 1.905490 0.000000 
#    z -0.031930 0.000000 1.805060 
# 
# From -- ./inp_files/70936.got.cif
#   From: 2010.05.17/outbox.cif.g08.bks.cpg/sg13_36_cif.got.tgz:70936.got - 2010.06.03 16:44:36.
