data_PCOD9233734
_publ_section_title
;
Structure prediction by ZEFSAII (Michael W. Deem and Ramdas Pophale) SiO2 
 PCOD9233734
Probable space group: P 2/C
;
_chemical_formula_sum "Si O2"
_cell_formula_units_Z 22
_cell_length_a 21.093547
_cell_length_b 9.269260
_cell_length_c 8.781256
_cell_angle_alpha 90.000000
_cell_angle_beta 142.942703
_cell_angle_gamma 90.000000
_cell_volume 1034.641952
_symmetry_space_group_name_H-M "P 2/C"
_symmetry_group_IT_number 13
_symmetry_cell_setting 'monoclinic'
loop_
_space_group_symop_operation_xyz
x,y,z
-x,y,1/2-z
-x,-y,-z
x,-y,1/2+z
loop_
_atom_site_type_symbol
_atom_site_label
_atom_site_fract_x
_atom_site_fract_y
_atom_site_fract_z
Si Si1 0.171758 0.661552 0.048337
Si Si2 0.158472 0.115930 0.041761
Si Si3 0.000000 0.123894 0.250000
Si Si4 0.094672 0.608452 0.235740
Si Si5 0.608892 0.807394 0.014505
Si Si6 0.694580 0.966176 0.433900
O O1 0.145673 0.659195 0.176944
O O2 0.290156 0.710491 0.258723
O O3 0.161231 0.504590 0.959904
O O4 0.078418 0.769044 0.807788
O O5 0.240729 0.146605 0.335475
O O6 0.226084 0.040510 0.036022
O O7 0.095239 0.248588 0.844259
O O8 0.083882 0.992022 0.973601
O O9 0.000000 0.500000 0.000000
O O10 0.602178 0.894806 0.158940
O O11 0.500000 0.740438 0.750000
O O12 0.647421 0.915820 0.956521
#
# Coordination Sequence:
#
# PCOD9233734 Si02
#       6
#     4   4   2   4   4   4
#     4  12  26  44  64  99 136 173 227 268 329 399
#     4  11  24  39  68  99 138 172 220 273 328 395
#     4  12  22  40  68 102 134 168 220 274 330 380
#     4  12  26  43  63  95 140 184 212 262 333 408
#     4  11  23  45  69  95 134 172 220 282 334 389
#     4  10  21  42  69 101 128 167 226 282 328 390
#
# _framework density 21.263393000000001
#
# number of rings (size 3 to 8) (size 9 to 14) (size 15 to 20)
#    0.000    0.727    7.273    0.545    5.091    2.909 
#    0.000    0.909    0.000    0.000    0.000    0.000 
#    0.000    0.000    0.000    0.000    0.000    0.000 
#
# Total GULP energy -122552.169942 kJ/mol
# GULP energy per Si atom -5570.553179 kJ/mol
# Density = 2.121500 g / cm^3
# Si number density = 21.263393 Si / 1000 Ang^3
#
#
#
# Elastic Constant Matrix: (Units=GPa)
#
#
# Indices 1 2 3 4 5 6 
#
# 1 50.0922 10.0249 36.7275 0.0000 -12.0004 0.0000
# 2 10.0249 96.9925 29.4661 0.0000 -3.1467 0.0000
# 3 36.7275 29.4661 103.5460 0.0000 -10.6302 0.0000
# 4 0.0000 0.0000 0.0000 26.2802 0.0000 -19.1419
# 5 -12.0004 -3.1467 -10.6302 0.0000 30.6099 0.0000
# 6 0.0000 0.0000 0.0000 -19.1419 0.0000 0.5286
#
#
#
# Elastic Compliance Matrix: (Units=1/GPa)
#
#
# Indices 1 2 3 4 5 6 
#
# 1 0.028762 0.000150 -0.009421 0.000000 0.008020 0.000000
# 2 0.000150 0.011287 -0.003256 0.000000 0.000088 0.000000
# 3 -0.009421 -0.003256 0.014012 0.000000 0.000838 0.000000
# 4 0.000000 0.000000 0.000000 -0.001500 0.000000 -0.054300
# 5 0.008020 0.000088 0.000838 0.000000 0.036113 0.000000
# 6 0.000000 0.000000 0.000000 -0.054300 0.000000 -0.074550
#
#
# Mechanical properties :
#
#
# Convention : Reuss Voigt Hill
#
# Bulk Modulus (GPa) = 34.47615 44.78532 39.63074
# Shear Modulus (GPa) = 102.35963 23.11123 62.73543
#
# Velocity S-wave (km/s) = 6.94575 3.30040 5.43765
# Velocity P-wave (km/s) = 8.97628 5.96920 7.62250
#
# Compressibility (1/GPa) = 0.02900556
#
# Stress axis : x y z
#
# Youngs Moduli (GPa) = 34.76813 88.60074 71.36899
#
# Poissons Ratio (x) = -0.01325 0.67237
# Poissons Ratio (y) = -0.00520 0.23236
# Poissons Ratio (z) = 0.32755 0.28847
#
# Static dielectric constant tensor:
#      x y z
#    x 1.802670 0.000000 -0.011600 
#    y 0.000000 1.806090 0.000000 
#    z -0.011600 0.000000 1.821390 
# 
# From -- ./inp_files/22906.got.cif
#   From: 2010.05.17/outbox.cif.g08.bks.cpg/sg13_12_cif.got.tgz:22906.got - 2010.06.03 16:44:36.
