data_PCOD9233709
_publ_section_title
;
Structure prediction by ZEFSAII (Michael W. Deem and Ramdas Pophale) SiO2 
 PCOD9233709
Probable space group: P 2/C
;
_chemical_formula_sum "Si O2"
_cell_formula_units_Z 28
_cell_length_a 27.618321
_cell_length_b 8.377562
_cell_length_c 29.186924
_cell_angle_alpha 90.000000
_cell_angle_beta 170.151361
_cell_angle_gamma 90.000000
_cell_volume 1155.090666
_symmetry_space_group_name_H-M "P 2/C"
_symmetry_group_IT_number 13
_symmetry_cell_setting 'monoclinic'
loop_
_space_group_symop_operation_xyz
x,y,z
-x,y,1/2-z
-x,-y,-z
x,-y,1/2+z
loop_
_atom_site_type_symbol
_atom_site_label
_atom_site_fract_x
_atom_site_fract_y
_atom_site_fract_z
Si Si1 0.740259 0.236406 0.543575
Si Si2 0.143325 0.815187 0.249286
Si Si3 0.500000 0.967215 0.750000
Si Si4 0.817119 0.063508 0.287950
Si Si5 0.299029 0.407193 0.453519
Si Si6 0.000000 0.187948 0.250000
Si Si7 0.665056 0.378754 0.187032
Si Si8 0.094100 0.489899 0.495656
O O1 0.798215 0.141961 0.644127
O O2 0.709526 0.417230 0.531500
O O3 0.000000 0.234317 0.750000
O O4 0.485449 0.152068 0.279448
O O5 0.424510 0.726505 0.489718
O O6 0.078454 0.973288 0.159883
O O7 0.913841 0.673626 0.031036
O O8 0.237297 0.080065 0.494818
O O9 0.819398 0.253293 0.297032
O O10 0.000000 0.000000 0.500000
O O11 0.500000 0.000000 0.000000
O O12 0.632683 0.380650 0.759148
O O13 0.144479 0.292573 0.344893
O O14 0.151810 0.415908 0.266260
O O15 0.858078 0.461207 0.406040
O O16 0.500000 0.500000 0.000000
#
# Coordination Sequence:
#
# PCOD9233709 Si02
#       8
#     4   4   2   4   4   2   4   4
#     4  11  24  45  75 107 135 194 247 295 349 447
#     4  10  23  45  70 103 145 183 245 300 359 437
#     4  12  28  46  70 106 152 180 246 316 372 408
#     4  10  21  42  67  95 132 189 229 285 360 424
#     4  11  25  43  77 100 137 197 244 282 365 442
#     4  12  26  52  68 106 154 192 232 318 370 442
#     4  11  23  43  71 104 143 184 243 306 364 428
#     4  11  21  42  67 104 136 180 240 298 345 433
#
# _framework density 24.240521000000001
#
# number of rings (size 3 to 8) (size 9 to 14) (size 15 to 20)
#    0.000    1.143    5.714    0.857    4.000    1.143 
#    5.143    0.000    0.000    0.000    0.000    0.000 
#    0.000    0.000    0.000    0.000    0.000    0.000 
#
# Total GULP energy -156538.922694 kJ/mol
# GULP energy per Si atom -5590.675811 kJ/mol
# Density = 2.418535 g / cm^3
# Si number density = 24.240521 Si / 1000 Ang^3
#
#
#
# Elastic Constant Matrix: (Units=GPa)
#
#
# Indices 1 2 3 4 5 6 
#
# 1 155.4605 30.8645 51.0766 0.0000 -42.9254 0.0000
# 2 30.8645 88.1552 48.8255 0.0000 -29.4759 0.0000
# 3 51.0766 48.8255 173.4615 0.0000 -42.3432 0.0000
# 4 0.0000 0.0000 0.0000 43.3697 0.0000 -1.3626
# 5 -42.9254 -29.4759 -42.3432 0.0000 53.6604 0.0000
# 6 0.0000 0.0000 0.0000 -1.3626 0.0000 44.8866
#
#
#
# Elastic Compliance Matrix: (Units=1/GPa)
#
#
# Indices 1 2 3 4 5 6 
#
# 1 0.008421 -0.000519 -0.000940 0.000000 0.005710 0.000000
# 2 -0.000519 0.014891 -0.002655 0.000000 0.005670 0.000000
# 3 -0.000940 -0.002655 0.007740 0.000000 0.003898 0.000000
# 4 0.000000 0.000000 0.000000 0.023080 0.000000 0.000701
# 5 0.005710 0.005670 0.003898 0.000000 0.029394 0.000000
# 6 0.000000 0.000000 0.000000 0.000701 0.000000 0.022300
#
#
# Mechanical properties :
#
#
# Convention : Reuss Voigt Hill
#
# Bulk Modulus (GPa) = 43.80891 75.40115 59.60503
# Shear Modulus (GPa) = 41.09788 47.47071 44.28430
#
# Velocity S-wave (km/s) = 4.12202 4.43009 4.27883
# Velocity P-wave (km/s) = 6.38487 7.57236 7.00382
#
# Compressibility (1/GPa) = 0.02282640
#
# Stress axis : x y z
#
# Youngs Moduli (GPa) = 118.75385 67.15244 129.19136
#
# Poissons Ratio (x) = 0.03483 0.12141
# Poissons Ratio (y) = 0.06159 0.34297
# Poissons Ratio (z) = 0.11160 0.17827
#
# Static dielectric constant tensor:
#      x y z
#    x 1.944630 0.000000 -0.046680 
#    y 0.000000 1.944870 0.000000 
#    z -0.046680 0.000000 1.344630 
# 
# From -- ./inp_files/98017.got.cif
#   From: 2010.05.17/outbox.cif.g08.bks.cpg/sg13_50_cif.got.tgz:98017.got - 2010.06.03 16:44:36.
