data_PCOD9233647
_publ_section_title
;
Structure prediction by ZEFSAII (Michael W. Deem and Ramdas Pophale) SiO2 
 PCOD9233647
Probable space group: P 2/C
;
_chemical_formula_sum "Si O2"
_cell_formula_units_Z 20
_cell_length_a 11.091777
_cell_length_b 5.934971
_cell_length_c 16.764784
_cell_angle_alpha 90.000000
_cell_angle_beta 130.110717
_cell_angle_gamma 90.000000
_cell_volume 844.045943
_symmetry_space_group_name_H-M "P 2/C"
_symmetry_group_IT_number 13
_symmetry_cell_setting 'monoclinic'
loop_
_space_group_symop_operation_xyz
x,y,z
-x,y,1/2-z
-x,-y,-z
x,-y,1/2+z
loop_
_atom_site_type_symbol
_atom_site_label
_atom_site_fract_x
_atom_site_fract_y
_atom_site_fract_z
Si Si1 0.150746 0.242022 0.354109
Si Si2 0.010225 0.392310 0.917449
Si Si3 0.500000 0.218750 0.250000
Si Si4 0.312671 0.539977 0.284929
Si Si5 0.315192 0.118327 0.023685
Si Si6 0.500000 0.500000 0.500000
O O1 0.075653 0.418324 0.384128
O O2 0.249332 0.379981 0.330626
O O3 0.000000 0.122437 0.250000
O O4 0.274694 0.081568 0.447416
O O5 0.837276 0.323957 0.811335
O O6 0.139734 0.199543 0.973732
O O7 0.000000 0.500000 0.000000
O O8 0.376206 0.383781 0.241292
O O9 0.412617 0.075590 0.145474
O O10 0.449842 0.648935 0.395127
O O11 0.403663 0.319812 0.015605
#
# Coordination Sequence:
#
# PCOD9233647 Si02
#       6
#     4   4   2   4   4   2
#     4  10  24  41  67  97 125 167 219 266 314 383
#     4  11  22  43  68  90 129 169 215 270 312 382
#     4  10  22  40  64  92 132 162 208 272 314 382
#     4  10  21  42  62  97 128 161 214 266 311 386
#     4  11  23  43  66  93 129 172 211 263 325 386
#     4  10  22  36  68  90 126 170 208 252 334 374
#
# _framework density 23.695391999999998
#
# number of rings (size 3 to 8) (size 9 to 14) (size 15 to 20)
#    0.000    1.600    4.000    0.000    2.800    4.000 
#    0.000    3.000    0.000    0.000    0.000    0.000 
#    0.000    0.000    0.000    0.000    0.000    0.000 
#
# Total GULP energy -111364.968339 kJ/mol
# GULP energy per Si atom -5568.248417 kJ/mol
# Density = 2.364146 g / cm^3
# Si number density = 23.695392 Si / 1000 Ang^3
#
#
#
# Elastic Constant Matrix: (Units=GPa)
#
#
# Indices 1 2 3 4 5 6 
#
# 1 106.8239 20.2943 23.0049 0.0000 -13.3909 0.0000
# 2 20.2943 5.3915 48.4625 0.0000 19.0196 0.0000
# 3 23.0049 48.4625 172.6213 0.0000 7.6859 0.0000
# 4 0.0000 0.0000 0.0000 24.3416 0.0000 6.4811
# 5 -13.3909 19.0196 7.6859 0.0000 42.9257 0.0000
# 6 0.0000 0.0000 0.0000 6.4811 0.0000 7.2429
#
#
#
# Elastic Compliance Matrix: (Units=1/GPa)
#
#
# Indices 1 2 3 4 5 6 
#
# 1 0.008030 0.010539 -0.003964 0.000000 -0.001455 0.000000
# 2 0.010539 -0.053323 0.012467 0.000000 0.024682 0.000000
# 3 -0.003964 0.012467 0.003148 0.000000 -0.007324 0.000000
# 4 0.000000 0.000000 0.000000 0.053931 0.000000 -0.048259
# 5 -0.001455 0.024682 -0.007324 0.000000 0.013217 0.000000
# 6 0.000000 0.000000 0.000000 -0.048259 0.000000 0.181250
#
#
# Mechanical properties :
#
#
# Convention : Reuss Voigt Hill
#
# Bulk Modulus (GPa) = -246.21422 52.04001 -97.08711
# Shear Modulus (GPa) = 29.97314 27.77370 28.87342
#
# Velocity S-wave (km/s) = 3.56045 3.42733 3.49452
# Velocity P-wave (km/s) = 9.33977 6.13774 4.97792
#
# Compressibility (1/GPa) = -0.00406150
#
# Stress axis : x y z
#
# Youngs Moduli (GPa) = 124.52889 -18.75374 317.70856
#
# Poissons Ratio (x) = 0.19765 1.25949
# Poissons Ratio (y) = -1.31247 -3.96072
# Poissons Ratio (z) = 0.49367 0.23379
#
# Static dielectric constant tensor:
#      x y z
#    x 1.638650 0.000000 -0.365470 
#    y 0.000000 1.329640 0.000000 
#    z -0.365470 0.000000 1.333520 
# 
# From -- ./inp_files/49432.got.cif
#   From: 2010.05.17/outbox.cif.g08.bks.cpg/sg13_25_cif.got.tgz:49432.got - 2010.06.03 16:44:36.
