data_PCOD9233093
_publ_section_title
;
Structure prediction by ZEFSAII (Michael W. Deem and Ramdas Pophale) SiO2 
 PCOD9233093
Probable space group: P 2/C
;
_chemical_formula_sum "Si O2"
_cell_formula_units_Z 20
_cell_length_a 8.177858
_cell_length_b 14.317061
_cell_length_c 10.247511
_cell_angle_alpha 90.000000
_cell_angle_beta 132.523152
_cell_angle_gamma 90.000000
_cell_volume 884.263801
_symmetry_space_group_name_H-M "P 2/C"
_symmetry_group_IT_number 13
_symmetry_cell_setting 'monoclinic'
loop_
_space_group_symop_operation_xyz
x,y,z
-x,y,1/2-z
-x,-y,-z
x,-y,1/2+z
loop_
_atom_site_type_symbol
_atom_site_label
_atom_site_fract_x
_atom_site_fract_y
_atom_site_fract_z
Si Si1 0.192991 0.782872 0.455924
Si Si2 0.265613 0.421901 0.054097
Si Si3 0.185682 0.185685 0.564687
Si Si4 0.508277 0.107447 0.966303
Si Si5 0.114963 0.380282 0.441824
O O1 0.239420 0.672816 0.458728
O O2 0.417951 0.835316 0.541710
O O3 0.000000 0.808758 0.250000
O O4 0.070857 0.808527 0.526230
O O5 0.500000 0.419438 0.250000
O O6 0.075377 0.409271 0.059684
O O7 0.239131 0.523156 0.974161
O O8 0.333460 0.136569 0.756906
O O9 0.255922 0.135283 0.469008
O O10 0.247226 0.295212 0.577768
O O11 0.500000 0.000000 0.000000
O O12 0.000000 0.342763 0.250000
#
# Coordination Sequence:
#
# PCOD9233093 Si02
#       5
#     4   4   4   4   4
#     4   9  19  40  64  87 130 165 200 257 316 365
#     4  10  22  37  60  96 127 167 208 251 303 385
#     4   9  21  41  62  90 123 159 206 257 308 384
#     4  10  21  39  65  93 116 162 214 261 321 370
#     4  10  22  40  60  93 131 165 206 254 312 376
#
# _framework density 22.617681999999999
#
# number of rings (size 3 to 8) (size 9 to 14) (size 15 to 20)
#    0.000    2.400    0.000    0.600    5.600    3.200 
#    3.600    3.000    0.000    0.000    0.000    0.000 
#    0.000    0.000    0.000    0.000    0.000    0.000 
#
# Total GULP energy -111517.514143 kJ/mol
# GULP energy per Si atom -5575.875707 kJ/mol
# Density = 2.256620 g / cm^3
# Si number density = 22.617682 Si / 1000 Ang^3
#
#
#
# Elastic Constant Matrix: (Units=GPa)
#
#
# Indices 1 2 3 4 5 6 
#
# 1 112.8708 85.4004 17.2006 0.0000 -6.6361 0.0000
# 2 85.4004 171.5074 24.1109 0.0000 -3.3106 0.0000
# 3 17.2006 24.1109 54.5283 0.0000 8.2015 0.0000
# 4 0.0000 0.0000 0.0000 29.2807 0.0000 -2.9930
# 5 -6.6361 -3.3106 8.2015 0.0000 17.7455 0.0000
# 6 0.0000 0.0000 0.0000 -2.9930 0.0000 12.3167
#
#
#
# Elastic Compliance Matrix: (Units=1/GPa)
#
#
# Indices 1 2 3 4 5 6 
#
# 1 0.014772 -0.006914 -0.002407 0.000000 0.005347 0.000000
# 2 -0.006914 0.009568 -0.002073 0.000000 0.000158 0.000000
# 3 -0.002407 -0.002073 0.021718 0.000000 -0.011324 0.000000
# 4 0.000000 0.000000 0.000000 0.035022 0.000000 0.008511
# 5 0.005347 0.000158 -0.011324 0.000000 0.063615 0.000000
# 6 0.000000 0.000000 0.000000 0.008511 0.000000 0.083258
#
#
# Mechanical properties :
#
#
# Convention : Reuss Voigt Hill
#
# Bulk Modulus (GPa) = 42.97370 65.81447 54.39408
# Shear Modulus (GPa) = 19.34243 26.01490 22.67867
#
# Velocity S-wave (km/s) = 2.92754 3.39514 3.16997
# Velocity P-wave (km/s) = 5.51984 6.67317 6.12371
#
# Compressibility (1/GPa) = 0.02327005
#
# Stress axis : x y z
#
# Youngs Moduli (GPa) = 67.69503 104.51531 46.04397
#
# Poissons Ratio (x) = 0.72263 0.11082
# Poissons Ratio (y) = 0.46805 0.09547
# Poissons Ratio (z) = 0.16292 0.21670
#
# Static dielectric constant tensor:
#      x y z
#    x 1.909550 0.000000 -0.022160 
#    y 0.000000 1.858250 0.000000 
#    z -0.022160 0.000000 1.841400 
# 
# From -- ./inp_files/29259.got.cif
#   From: 2010.05.17/outbox.cif.g08.bks.cpg/sg13_15_cif.got.tgz:29259.got - 2010.06.03 16:44:36.
