data_PCOD9233012
_publ_section_title
;
Structure prediction by ZEFSAII (Michael W. Deem and Ramdas Pophale) SiO2 
 PCOD9233012
Probable space group: P 2/C
;
_chemical_formula_sum "Si O2"
_cell_formula_units_Z 24
_cell_length_a 26.965627
_cell_length_b 5.372149
_cell_length_c 14.575092
_cell_angle_alpha 90.000000
_cell_angle_beta 149.290665
_cell_angle_gamma 90.000000
_cell_volume 1078.254505
_symmetry_space_group_name_H-M "P 2/C"
_symmetry_group_IT_number 13
_symmetry_cell_setting 'monoclinic'
loop_
_space_group_symop_operation_xyz
x,y,z
-x,y,1/2-z
-x,-y,-z
x,-y,1/2+z
loop_
_atom_site_type_symbol
_atom_site_label
_atom_site_fract_x
_atom_site_fract_y
_atom_site_fract_z
Si Si1 0.799720 0.160148 0.751606
Si Si2 0.911986 0.459542 0.789338
Si Si3 0.941499 0.884130 0.080113
Si Si4 0.192984 0.463159 0.546882
Si Si5 0.406541 0.018928 0.536773
Si Si6 0.408108 0.482231 0.919135
O O1 0.824308 0.350985 0.710680
O O2 0.805420 0.279250 0.863155
O O3 0.697468 0.023048 0.578808
O O4 0.894067 0.988620 0.911978
O O5 0.860784 0.631940 0.630716
O O6 0.969193 0.278274 0.812247
O O7 0.000000 0.500000 0.000000
O O8 0.000000 0.046273 0.250000
O O9 0.856530 0.711314 0.988435
O O10 0.305717 0.505711 0.703736
O O11 0.500000 0.004344 0.750000
O O12 0.412056 0.784729 0.476011
O O13 0.407492 0.286510 0.488913
O O14 0.500000 0.500000 0.000000
#
# Coordination Sequence:
#
# PCOD9233012 Si02
#       6
#     4   4   4   4   4   4
#     4  11  23  42  66  93 137 181 227 288 353 416
#     4  11  23  39  66  98 132 179 236 279 347 426
#     4  10  21  39  62  90 133 171 221 276 344 413
#     4  10  23  43  62  93 136 175 222 291 343 416
#     4  11  25  46  73 103 140 182 233 300 358 418
#     4  11  24  47  72 101 138 184 235 289 363 423
#
# _framework density 22.258196000000002
#
# number of rings (size 3 to 8) (size 9 to 14) (size 15 to 20)
#    0.000    1.333    3.333    1.500    4.667    0.000 
#    3.000    0.000    0.000    0.000    0.000    0.000 
#    0.000    0.000    0.000    0.000    0.000    0.000 
#
# Total GULP energy -133675.729678 kJ/mol
# GULP energy per Si atom -5569.822070 kJ/mol
# Density = 2.220754 g / cm^3
# Si number density = 22.258196 Si / 1000 Ang^3
#
#
#
# Elastic Constant Matrix: (Units=GPa)
#
#
# Indices 1 2 3 4 5 6 
#
# 1 78.7008 -10.2165 20.6038 0.0000 7.8193 0.0000
# 2 -10.2165 27.1513 -7.7127 0.0000 -8.1363 0.0000
# 3 20.6038 -7.7127 160.7006 0.0000 5.2525 0.0000
# 4 0.0000 0.0000 0.0000 23.1441 0.0000 0.4743
# 5 7.8193 -8.1363 5.2525 0.0000 56.4248 0.0000
# 6 0.0000 0.0000 0.0000 0.4743 0.0000 47.9523
#
#
#
# Elastic Compliance Matrix: (Units=1/GPa)
#
#
# Indices 1 2 3 4 5 6 
#
# 1 0.013790 0.004418 -0.001519 0.000000 -0.001133 0.000000
# 2 0.004418 0.040362 0.001204 0.000000 0.005096 0.000000
# 3 -0.001519 0.001204 0.006482 0.000000 -0.000219 0.000000
# 4 0.000000 0.000000 0.000000 0.043216 0.000000 -0.000427
# 5 -0.001133 0.005096 -0.000219 0.000000 0.018635 0.000000
# 6 0.000000 0.000000 0.000000 -0.000427 0.000000 0.020858
#
#
# Mechanical properties :
#
#
# Convention : Reuss Voigt Hill
#
# Bulk Modulus (GPa) = 14.52624 30.21133 22.36878
# Shear Modulus (GPa) = 31.62860 43.09610 37.36235
#
# Velocity S-wave (km/s) = 3.77369 4.40499 4.10150
# Velocity P-wave (km/s) = 5.05253 6.28287 5.70099
#
# Compressibility (1/GPa) = 0.06884096
#
# Stress axis : x y z
#
# Youngs Moduli (GPa) = 72.51598 24.77574 154.26226
#
# Poissons Ratio (x) = -0.10946 0.23432
# Poissons Ratio (y) = -0.32038 -0.18576
# Poissons Ratio (z) = 0.11015 -0.02983
#
# Static dielectric constant tensor:
#      x y z
#    x 1.998750 0.000000 -0.000840 
#    y 0.000000 2.078560 0.000000 
#    z -0.000840 0.000000 1.789310 
# 
# From -- ./inp_files/59229.got.cif
#   From: 2010.05.17/outbox.cif.g08.bks.cpg/sg13_30_cif.got.tgz:59229.got - 2010.06.03 16:44:36.
