data_PCOD9233050
_publ_section_title
;
Structure prediction by ZEFSAII (Michael W. Deem and Ramdas Pophale) SiO2 
 PCOD9233050
Probable space group: P 2/C
;
_chemical_formula_sum "Si O2"
_cell_formula_units_Z 16
_cell_length_a 15.325185
_cell_length_b 5.652353
_cell_length_c 23.795294
_cell_angle_alpha 90.000000
_cell_angle_beta 160.461933
_cell_angle_gamma 90.000000
_cell_volume 689.342881
_symmetry_space_group_name_H-M "P 2/C"
_symmetry_group_IT_number 13
_symmetry_cell_setting 'monoclinic'
loop_
_space_group_symop_operation_xyz
x,y,z
-x,y,1/2-z
-x,-y,-z
x,-y,1/2+z
loop_
_atom_site_type_symbol
_atom_site_label
_atom_site_fract_x
_atom_site_fract_y
_atom_site_fract_z
Si Si1 0.059567 0.808729 0.989413
Si Si2 0.189268 0.273260 0.450237
Si Si3 0.567241 0.599070 0.732499
Si Si4 0.382817 0.248342 0.449171
O O1 0.768035 0.697972 0.808379
O O2 0.163695 0.879970 0.991464
O O3 0.265153 0.624807 0.141423
O O4 0.000000 0.000000 0.000000
O O5 0.298023 0.520447 0.540753
O O6 0.384568 0.221309 0.518026
O O7 0.909591 0.267914 0.252148
O O8 0.500000 0.735172 0.750000
O O9 0.500000 0.500000 0.500000
O O10 0.500000 0.000000 0.500000
#
# Coordination Sequence:
#
# PCOD9233050 Si02
#       4
#     4   4   4   4
#     4  10  21  39  63  99 134 178 223 282 344 418
#     4  10  23  43  69  98 137 187 230 293 353 423
#     4   9  20  40  60  95 136 175 223 275 343 413
#     4  11  26  49  71 104 138 184 240 294 352 414
#
# _framework density 23.210508999999998
#
# number of rings (size 3 to 8) (size 9 to 14) (size 15 to 20)
#    0.000    2.000    0.000    1.500    3.500    7.000 
#   18.000    0.000    0.000    0.000    0.000    0.000 
#    0.000    0.000    0.000    0.000    0.000    0.000 
#
# Total GULP energy -89143.723021 kJ/mol
# GULP energy per Si atom -5571.482689 kJ/mol
# Density = 2.315768 g / cm^3
# Si number density = 23.210509 Si / 1000 Ang^3
#
#
#
# Elastic Constant Matrix: (Units=GPa)
#
#
# Indices 1 2 3 4 5 6 
#
# 1 235.9971 71.6133 7.1173 0.0000 1.3228 0.0000
# 2 71.6133 94.5855 30.6059 0.0000 10.0559 0.0000
# 3 7.1173 30.6059 84.7260 0.0000 3.6670 0.0000
# 4 0.0000 0.0000 0.0000 20.6847 0.0000 -17.5815
# 5 1.3228 10.0559 3.6670 0.0000 35.2998 0.0000
# 6 0.0000 0.0000 0.0000 -17.5815 0.0000 -1.8749
#
#
#
# Elastic Compliance Matrix: (Units=1/GPa)
#
#
# Indices 1 2 3 4 5 6 
#
# 1 0.005643 -0.004771 0.001205 0.000000 0.001023 0.000000
# 2 -0.004771 0.016325 -0.005327 0.000000 -0.003918 0.000000
# 3 0.001205 -0.005327 0.013623 0.000000 0.000057 0.000000
# 4 0.000000 0.000000 0.000000 0.005389 0.000000 -0.050538
# 5 0.001023 -0.003918 0.000057 0.000000 0.029401 0.000000
# 6 0.000000 0.000000 0.000000 -0.050538 0.000000 -0.059458
#
#
# Mechanical properties :
#
#
# Convention : Reuss Voigt Hill
#
# Bulk Modulus (GPa) = 56.16124 70.44239 63.30182
# Shear Modulus (GPa) = 144.32211 31.22006 87.77109
#
# Velocity S-wave (km/s) = 7.89396 3.67152 6.15608
# Velocity P-wave (km/s) = 10.36027 6.95619 8.82394
#
# Compressibility (1/GPa) = 0.01780587
#
# Stress axis : x y z
#
# Youngs Moduli (GPa) = 177.20770 61.25538 73.40391
#
# Poissons Ratio (x) = 0.29226 -0.08847
# Poissons Ratio (y) = 0.84550 0.39101
# Poissons Ratio (z) = -0.21358 0.32629
#
# Static dielectric constant tensor:
#      x y z
#    x 2.004920 0.000000 0.002750 
#    y 0.000000 2.738440 0.000000 
#    z 0.002750 0.000000 1.938950 
# 
# From -- ./inp_files/31266.got.cif
#   From: 2010.05.17/outbox.cif.g08.bks.cpg/sg13_16_cif.got.tgz:31266.got - 2010.06.03 16:44:36.
