data_PCOD9233246
_publ_section_title
;
Structure prediction by ZEFSAII (Michael W. Deem and Ramdas Pophale) SiO2 
 PCOD9233246
Probable space group: P 2/C
;
_chemical_formula_sum "Si O2"
_cell_formula_units_Z 24
_cell_length_a 12.852774
_cell_length_b 7.992869
_cell_length_c 11.479793
_cell_angle_alpha 90.000000
_cell_angle_beta 107.494572
_cell_angle_gamma 90.000000
_cell_volume 1124.776140
_symmetry_space_group_name_H-M "P 2/C"
_symmetry_group_IT_number 13
_symmetry_cell_setting 'monoclinic'
loop_
_space_group_symop_operation_xyz
x,y,z
-x,y,1/2-z
-x,-y,-z
x,-y,1/2+z
loop_
_atom_site_type_symbol
_atom_site_label
_atom_site_fract_x
_atom_site_fract_y
_atom_site_fract_z
Si Si1 0.743830 0.239744 0.207453
Si Si2 0.281256 0.599373 0.342999
Si Si3 0.624071 0.089781 0.755015
Si Si4 0.057133 0.273327 0.654988
Si Si5 0.838736 0.708729 0.988492
Si Si6 0.185419 0.093033 0.500876
O O1 0.679278 0.412899 0.169328
O O2 0.817659 0.271211 0.345662
O O3 0.670563 0.076811 0.208185
O O4 0.813423 0.201061 0.115520
O O5 0.355211 0.749206 0.319889
O O6 0.163454 0.628857 0.237912
O O7 0.254863 0.614637 0.471220
O O8 0.500000 0.071487 0.750000
O O9 0.698312 0.111815 0.895300
O O10 0.099892 0.149753 0.570148
O O11 0.000000 0.194795 0.750000
O O12 0.954852 0.367677 0.562735
O O13 0.832616 0.899400 0.033089
#
# Coordination Sequence:
#
# PCOD9233246 Si02
#       6
#     4   4   4   4   4   4
#     4  11  24  40  65  96 127 169 214 261 321 379
#     4  10  22  42  63  90 134 164 212 267 314 371
#     4  10  23  45  69  91 125 167 212 271 327 378
#     4   9  20  38  63  90 130 172 211 257 303 374
#     4  10  21  40  62  91 133 170 210 259 310 377
#     4  10  21  41  64  92 130 166 214 267 315 372
#
# _framework density 21.337579999999999
#
# number of rings (size 3 to 8) (size 9 to 14) (size 15 to 20)
#    0.000    2.000    1.667    0.500    7.000    2.667 
#    6.000    0.833    0.000    0.000    0.000    0.000 
#    0.000    0.000    0.000    0.000    0.000    0.000 
#
# Total GULP energy -133953.723896 kJ/mol
# GULP energy per Si atom -5581.405162 kJ/mol
# Density = 2.128901 g / cm^3
# Si number density = 21.337580 Si / 1000 Ang^3
#
#
#
# Elastic Constant Matrix: (Units=GPa)
#
#
# Indices 1 2 3 4 5 6 
#
# 1 78.9427 -2.0642 39.2566 0.0000 -19.3712 0.0000
# 2 -2.0642 94.4559 38.1556 0.0000 -20.5551 0.0000
# 3 39.2566 38.1556 121.6625 0.0000 -22.0682 0.0000
# 4 0.0000 0.0000 0.0000 55.7828 0.0000 26.1646
# 5 -19.3712 -20.5551 -22.0682 0.0000 14.8339 0.0000
# 6 0.0000 0.0000 0.0000 26.1646 0.0000 12.2499
#
#
#
# Elastic Compliance Matrix: (Units=1/GPa)
#
#
# Indices 1 2 3 4 5 6 
#
# 1 0.025754 0.011747 -0.004028 0.000000 0.043916 0.000000
# 2 0.011747 0.020666 -0.003143 0.000000 0.039300 0.000000
# 3 -0.004028 -0.003143 0.011999 0.000000 0.008235 0.000000
# 4 0.000000 0.000000 0.000000 -9.760112 0.000000 20.846700
# 5 0.043916 0.039300 0.008235 0.000000 0.191471 0.000000
# 6 0.000000 0.000000 0.000000 20.846700 0.000000-44.444998
#
#
# Mechanical properties :
#
#
# Convention : Reuss Voigt Hill
#
# Bulk Modulus (GPa) = 14.79943 49.52858 32.16400
# Shear Modulus (GPa) = -0.09269 31.22085 15.56408
#
# Velocity S-wave (km/s) = -0.20865 3.82931 2.70371
# Velocity P-wave (km/s) = 2.62543 6.54322 4.98531
#
# Compressibility (1/GPa) = 0.06757018
#
# Stress axis : x y z
#
# Youngs Moduli (GPa) = 38.82889 48.38952 83.34325
#
# Poissons Ratio (x) = -0.56843 0.33572
# Poissons Ratio (y) = -0.45612 0.26193
# Poissons Ratio (z) = 0.15641 0.15208
#
# Static dielectric constant tensor:
#      x y z
#    x 1.760050 0.000000 0.005570 
#    y 0.000000 1.791620 0.000000 
#    z 0.005570 0.000000 1.815140 
# 
# From -- ./inp_files/32614.got.cif
#   From: 2010.05.17/outbox.cif.g08.bks.cpg/sg13_17_cif.got.tgz:32614.got - 2010.06.03 16:44:36.
