data_PCOD9233632
_publ_section_title
;
Structure prediction by ZEFSAII (Michael W. Deem and Ramdas Pophale) SiO2 
 PCOD9233632
Probable space group: P 2/C
;
_chemical_formula_sum "Si O2"
_cell_formula_units_Z 18
_cell_length_a 8.690509
_cell_length_b 11.714318
_cell_length_c 10.578484
_cell_angle_alpha 90.000000
_cell_angle_beta 132.271776
_cell_angle_gamma 90.000000
_cell_volume 796.884513
_symmetry_space_group_name_H-M "P 2/C"
_symmetry_group_IT_number 13
_symmetry_cell_setting 'monoclinic'
loop_
_space_group_symop_operation_xyz
x,y,z
-x,y,1/2-z
-x,-y,-z
x,-y,1/2+z
loop_
_atom_site_type_symbol
_atom_site_label
_atom_site_fract_x
_atom_site_fract_y
_atom_site_fract_z
Si Si1 0.306530 0.836679 0.499047
Si Si2 0.500000 0.016811 0.750000
Si Si3 0.124590 0.835122 0.117715
Si Si4 0.232140 0.410336 0.917231
Si Si5 0.726503 0.408235 0.840882
O O1 0.486361 0.926085 0.627409
O O2 0.224680 0.848725 0.311989
O O3 0.356885 0.701324 0.531504
O O4 0.117307 0.862846 0.492651
O O5 0.708946 0.093186 0.871480
O O6 0.130535 0.703139 0.078185
O O7 0.300371 0.456399 0.816955
O O8 0.000000 0.369879 0.750000
O O9 0.215813 0.499624 0.021674
O O10 0.500000 0.362581 0.750000
#
# Coordination Sequence:
#
# PCOD9233632 Si02
#       5
#     4   2   4   4   4
#     4  10  22  40  61  89 123 163 201 256 313 356
#     4  12  22  38  66  86 116 164 216 248 300 370
#     4  10  21  42  61  86 127 160 201 259 309 358
#     4  11  22  41  65  89 129 162 202 253 313 372
#     4  11  22  40  64  94 126 162 203 254 312 368
#
# _framework density 22.587968
#
# number of rings (size 3 to 8) (size 9 to 14) (size 15 to 20)
#    0.000    1.333    5.556    2.667    1.556    0.000 
#    0.000    0.000    4.889    0.000    0.000    0.000 
#    0.000    0.000    0.000    0.000    0.000    0.000 
#
# Total GULP energy -100331.094935 kJ/mol
# GULP energy per Si atom -5573.949719 kJ/mol
# Density = 2.253656 g / cm^3
# Si number density = 22.587968 Si / 1000 Ang^3
#
#
#
# Elastic Constant Matrix: (Units=GPa)
#
#
# Indices 1 2 3 4 5 6 
#
# 1 54.9494 17.8864 6.9749 0.0000 -24.2244 0.0000
# 2 17.8864 145.0645 49.7259 0.0000 -16.1942 0.0000
# 3 6.9749 49.7259 71.3159 0.0000 -18.8627 0.0000
# 4 0.0000 0.0000 0.0000 28.0091 0.0000 1.4351
# 5 -24.2244 -16.1942 -18.8627 0.0000 28.2420 0.0000
# 6 0.0000 0.0000 0.0000 1.4351 0.0000 21.0745
#
#
#
# Elastic Compliance Matrix: (Units=1/GPa)
#
#
# Indices 1 2 3 4 5 6 
#
# 1 0.031445 -0.002886 0.006842 0.000000 0.029886 0.000000
# 2 -0.002886 0.009356 -0.006652 0.000000 -0.001554 0.000000
# 3 0.006842 -0.006652 0.022512 0.000000 0.017089 0.000000
# 4 0.000000 0.000000 0.000000 0.035828 0.000000 -0.002440
# 5 0.029886 -0.001554 0.017089 0.000000 0.071566 0.000000
# 6 0.000000 0.000000 0.000000 -0.002440 0.000000 0.047617
#
#
# Mechanical properties :
#
#
# Convention : Reuss Voigt Hill
#
# Bulk Modulus (GPa) = 17.26545 46.72269 31.99407
# Shear Modulus (GPa) = 20.57417 28.58128 24.57772
#
# Velocity S-wave (km/s) = 3.02130 3.56101 3.30220
# Velocity P-wave (km/s) = 4.45323 6.13493 5.36044
#
# Compressibility (1/GPa) = 0.05791914
#
# Stress axis : x y z
#
# Youngs Moduli (GPa) = 31.80166 106.88048 44.42172
#
# Poissons Ratio (x) = 0.30846 -0.30392
# Poissons Ratio (y) = 0.09178 0.29551
# Poissons Ratio (z) = -0.21758 0.71102
#
# Static dielectric constant tensor:
#      x y z
#    x 2.007490 0.000000 -0.013860 
#    y 0.000000 1.854910 0.000000 
#    z -0.013860 0.000000 1.832260 
# 
# From -- ./inp_files/11599.got.cif
#   From: 2010.05.17/outbox.cif.g08.bks.cpg/sg13_6_cif.got.tgz:11599.got - 2010.06.03 16:44:36.
