data_PCOD9233721
_publ_section_title
;
Structure prediction by ZEFSAII (Michael W. Deem and Ramdas Pophale) SiO2 
 PCOD9233721
Probable space group: P 2/C
;
_chemical_formula_sum "Si O2"
_cell_formula_units_Z 18
_cell_length_a 16.113138
_cell_length_b 5.297763
_cell_length_c 10.513811
_cell_angle_alpha 90.000000
_cell_angle_beta 51.237015
_cell_angle_gamma 90.000000
_cell_volume 699.816351
_symmetry_space_group_name_H-M "P 2/C"
_symmetry_group_IT_number 13
_symmetry_cell_setting 'monoclinic'
loop_
_space_group_symop_operation_xyz
x,y,z
-x,y,1/2-z
-x,-y,-z
x,-y,1/2+z
loop_
_atom_site_type_symbol
_atom_site_label
_atom_site_fract_x
_atom_site_fract_y
_atom_site_fract_z
Si Si1 0.624975 0.474746 0.913422
Si Si2 0.173484 0.474629 0.395334
Si Si3 0.426988 0.024569 0.943090
Si Si4 0.885204 0.976030 0.172906
Si Si5 0.000000 0.695390 0.750000
O O1 0.700272 0.461017 0.717220
O O2 0.500000 0.500000 0.000000
O O3 0.643713 0.728364 0.974826
O O4 0.639927 0.230328 0.986265
O O5 0.177144 0.181428 0.352469
O O6 0.076052 0.525720 0.585612
O O7 0.145741 0.683221 0.310758
O O8 0.500000 0.035649 0.750000
O O9 0.500000 0.000000 0.000000
O O10 0.909514 0.114215 0.281542
O O11 0.000000 0.000000 0.000000
#
# Coordination Sequence:
#
# PCOD9233721 Si02
#       5
#     4   4   4   4   2
#     4  10  22  43  66  98 137 174 224 279 335 404
#     4  11  23  42  65 101 131 174 227 269 336 402
#     4  10  21  42  68  92 133 180 225 276 333 399
#     4  10  22  40  65  94 130 168 220 278 326 401
#     4  10  22  42  68  94 134 174 218 278 344 392
#
# _framework density 25.721034
#
# number of rings (size 3 to 8) (size 9 to 14) (size 15 to 20)
#    0.000    1.778    0.000    4.667    0.000    8.000 
#   24.000    0.000    0.000    0.000    0.000    0.000 
#    0.000    0.000    0.000    0.000    0.000    0.000 
#
# Total GULP energy -100261.437629 kJ/mol
# GULP energy per Si atom -5570.079868 kJ/mol
# Density = 2.566249 g / cm^3
# Si number density = 25.721034 Si / 1000 Ang^3
#
#
#
# Elastic Constant Matrix: (Units=GPa)
#
#
# Indices 1 2 3 4 5 6 
#
# 1 33.2168 -25.7177 36.1315 0.0000 -6.0277 0.0000
# 2 -25.7177 183.2088 32.2883 0.0000 14.1362 0.0000
# 3 36.1315 32.2883 202.1788 0.0000 -25.5971 0.0000
# 4 0.0000 0.0000 0.0000 28.2067 0.0000 6.7226
# 5 -6.0277 14.1362 -25.5971 0.0000 47.7209 0.0000
# 6 0.0000 0.0000 0.0000 6.7226 0.0000 9.9607
#
#
#
# Elastic Compliance Matrix: (Units=1/GPa)
#
#
# Indices 1 2 3 4 5 6 
#
# 1 0.047354 0.008576 -0.010081 0.000000 -0.001966 0.000000
# 2 0.008576 0.007415 -0.003066 0.000000 -0.002758 0.000000
# 3 -0.010081 -0.003066 0.007715 0.000000 0.003773 0.000000
# 4 0.000000 0.000000 0.000000 0.042248 0.000000 -0.028514
# 5 -0.001966 -0.002758 0.003773 0.000000 0.023548 0.000000
# 6 0.000000 0.000000 0.000000 -0.028514 0.000000 0.119640
#
#
# Mechanical properties :
#
#
# Convention : Reuss Voigt Hill
#
# Bulk Modulus (GPa) = 18.74733 56.00095 37.37414
# Shear Modulus (GPa) = 18.19222 42.23781 30.21501
#
# Velocity S-wave (km/s) = 2.66238 4.05674 3.43114
# Velocity P-wave (km/s) = 4.09335 6.61533 5.50082
#
# Compressibility (1/GPa) = 0.05334093
#
# Stress axis : x y z
#
# Youngs Moduli (GPa) = 21.11774 134.85869 129.61690
#
# Poissons Ratio (x) = -1.15649 1.30668
# Poissons Ratio (y) = -0.18110 0.39740
# Poissons Ratio (z) = 0.21289 0.41347
#
# Static dielectric constant tensor:
#      x y z
#    x 2.241160 0.000000 0.090910 
#    y 0.000000 2.128370 0.000000 
#    z 0.090910 0.000000 2.061980 
# 
# From -- ./inp_files/31427.got.cif
#   From: 2010.05.17/outbox.cif.g08.bks.cpg/sg13_16_cif.got.tgz:31427.got - 2010.06.03 16:44:36.
