data_PCOD9233518
_publ_section_title
;
Structure prediction by ZEFSAII (Michael W. Deem and Ramdas Pophale) SiO2 
 PCOD9233518
Probable space group: P 2/C
;
_chemical_formula_sum "Si O2"
_cell_formula_units_Z 20
_cell_length_a 11.694466
_cell_length_b 7.903456
_cell_length_c 16.613777
_cell_angle_alpha 90.000000
_cell_angle_beta 139.525612
_cell_angle_gamma 90.000000
_cell_volume 996.742145
_symmetry_space_group_name_H-M "P 2/C"
_symmetry_group_IT_number 13
_symmetry_cell_setting 'monoclinic'
loop_
_space_group_symop_operation_xyz
x,y,z
-x,y,1/2-z
-x,-y,-z
x,-y,1/2+z
loop_
_atom_site_type_symbol
_atom_site_label
_atom_site_fract_x
_atom_site_fract_y
_atom_site_fract_z
Si Si1 0.106066 0.936083 0.135017
Si Si2 0.461750 0.152004 0.318867
Si Si3 0.789403 0.012617 0.584190
Si Si4 0.343138 0.672980 0.912254
Si Si5 0.727986 0.321701 0.674384
O O1 0.169862 0.742932 0.190973
O O2 0.970507 0.982742 0.133404
O O3 0.288833 0.036376 0.229030
O O4 0.000000 0.000000 0.000000
O O5 0.500000 0.218121 0.250000
O O6 0.628697 0.041744 0.436086
O O7 0.424427 0.290151 0.367336
O O8 0.767744 0.171016 0.632848
O O9 0.760465 0.837045 0.614119
O O10 0.228461 0.503939 0.840619
O O11 0.514023 0.663386 0.062582
#
# Coordination Sequence:
#
# PCOD9233518 Si02
#       5
#     4   4   4   4   4
#     4  12  23  39  64  97 132 174 212 266 339 396
#     4  11  21  41  64  91 132 169 214 265 328 402
#     4  11  21  41  69  90 126 171 216 277 324 384
#     4  10  21  41  71  91 121 174 218 274 329 379
#     4  10  21  41  65  98 123 161 229 271 319 393
#
# _framework density 20.065370999999999
#
# number of rings (size 3 to 8) (size 9 to 14) (size 15 to 20)
#    0.000    1.200    6.000    1.800    0.000    0.000 
#    7.200    8.000    0.000    0.000    0.000    0.000 
#    0.000    0.000    0.000    0.000    0.000    0.000 
#
# Total GULP energy -111442.162351 kJ/mol
# GULP energy per Si atom -5572.108118 kJ/mol
# Density = 2.001970 g / cm^3
# Si number density = 20.065371 Si / 1000 Ang^3
#
#
#
# Elastic Constant Matrix: (Units=GPa)
#
#
# Indices 1 2 3 4 5 6 
#
# 1 70.2441 44.6141 30.7600 0.0000 15.7422 0.0000
# 2 44.6141 156.5759 47.4961 0.0000 -8.2684 0.0000
# 3 30.7600 47.4961 144.7912 0.0000 5.1178 0.0000
# 4 0.0000 0.0000 0.0000 31.7740 0.0000 -3.5405
# 5 15.7422 -8.2684 5.1178 0.0000 30.7763 0.0000
# 6 0.0000 0.0000 0.0000 -3.5405 0.0000 -3.0395
#
#
#
# Elastic Compliance Matrix: (Units=1/GPa)
#
#
# Indices 1 2 3 4 5 6 
#
# 1 0.021985 -0.006270 -0.002170 0.000000 -0.012569 0.000000
# 2 -0.006270 0.009047 -0.001846 0.000000 0.005945 0.000000
# 3 -0.002170 -0.001846 0.007998 0.000000 -0.000716 0.000000
# 4 0.000000 0.000000 0.000000 0.027857 0.000000 -0.032449
# 5 -0.012569 0.005945 -0.000716 0.000000 0.040638 0.000000
# 6 0.000000 0.000000 0.000000 -0.032449 0.000000 -0.291204
#
#
# Mechanical properties :
#
#
# Convention : Reuss Voigt Hill
#
# Bulk Modulus (GPa) = 54.17206 68.59463 61.38334
# Shear Modulus (GPa) = -31.85627 28.48488 -1.68569
#
# Velocity S-wave (km/s) = -3.98882 3.77185 -0.91756
# Velocity P-wave (km/s) = 2.41705 7.29582 5.43466
#
# Compressibility (1/GPa) = 0.01845970
#
# Stress axis : x y z
#
# Youngs Moduli (GPa) = 45.48496 110.53290 125.02787
#
# Poissons Ratio (x) = 0.69304 0.27126
# Poissons Ratio (y) = 0.28519 0.23078
# Poissons Ratio (z) = 0.09868 0.20402
#
# Static dielectric constant tensor:
#      x y z
#    x 1.694510 0.000000 -0.035760 
#    y 0.000000 1.731980 0.000000 
#    z -0.035760 0.000000 1.832860 
# 
# From -- ./inp_files/66153.got.cif
#   From: 2010.05.17/outbox.cif.g08.bks.cpg/sg13_34_cif.got.tgz:66153.got - 2010.06.03 16:44:36.
