data_PCOD9233727
_publ_section_title
;
Structure prediction by ZEFSAII (Michael W. Deem and Ramdas Pophale) SiO2 
 PCOD9233727
Probable space group: P 2/C
;
_chemical_formula_sum "Si O2"
_cell_formula_units_Z 14
_cell_length_a 10.095146
_cell_length_b 6.700229
_cell_length_c 10.512452
_cell_angle_alpha 90.000000
_cell_angle_beta 64.051204
_cell_angle_gamma 90.000000
_cell_volume 639.374847
_symmetry_space_group_name_H-M "P 2/C"
_symmetry_group_IT_number 13
_symmetry_cell_setting 'monoclinic'
loop_
_space_group_symop_operation_xyz
x,y,z
-x,y,1/2-z
-x,-y,-z
x,-y,1/2+z
loop_
_atom_site_type_symbol
_atom_site_label
_atom_site_fract_x
_atom_site_fract_y
_atom_site_fract_z
Si Si1 0.662373 0.358214 0.022431
Si Si2 0.500000 0.958864 0.750000
Si Si3 0.299387 0.326559 0.779022
Si Si4 0.984378 0.836605 0.398122
O O1 0.650605 0.542367 0.123234
O O2 0.552293 0.184463 0.114247
O O3 0.650195 0.409540 0.878990
O O4 0.827209 0.269634 0.971083
O O5 0.367765 0.105662 0.764949
O O6 0.122579 0.312029 0.853016
O O7 0.000000 0.928076 0.250000
O O8 0.000000 0.000000 0.500000
#
# Coordination Sequence:
#
# PCOD9233727 Si02
#       4
#     4   2   4   4
#     4  11  25  43  67  97 129 169 215 265 320 380
#     4  12  24  42  68  92 134 170 218 258 318 380
#     4  11  25  43  67  97 129 169 215 265 320 380
#     4  10  21  42  68  95 125 165 215 265 319 374
#
# _framework density 21.896387000000001
#
# number of rings (size 3 to 8) (size 9 to 14) (size 15 to 20)
#    0.000    1.143    2.857    2.571    0.000    9.143 
#    0.000    0.000    0.000    0.000    0.000    0.000 
#    0.000    0.000    0.000    0.000    0.000    0.000 
#
# Total GULP energy -78374.827216 kJ/mol
# GULP energy per Si atom -5598.201944 kJ/mol
# Density = 2.184655 g / cm^3
# Si number density = 21.896387 Si / 1000 Ang^3
#
#
#
# Elastic Constant Matrix: (Units=GPa)
#
#
# Indices 1 2 3 4 5 6 
#
# 1 95.0279 26.8091 41.6408 0.0000 2.3477 0.0000
# 2 26.8091 92.9839 75.0994 0.0000 14.9183 0.0000
# 3 41.6408 75.0994 170.3589 0.0000 22.4853 0.0000
# 4 0.0000 0.0000 0.0000 35.9931 0.0000 8.4899
# 5 2.3477 14.9183 22.4853 0.0000 54.2056 0.0000
# 6 0.0000 0.0000 0.0000 8.4899 0.0000 27.9113
#
#
#
# Elastic Compliance Matrix: (Units=1/GPa)
#
#
# Indices 1 2 3 4 5 6 
#
# 1 0.011996 -0.001769 -0.002272 0.000000 0.000910 0.000000
# 2 -0.001769 0.017099 -0.006871 0.000000 -0.001779 0.000000
# 3 -0.002272 -0.006871 0.009724 0.000000 -0.002044 0.000000
# 4 0.000000 0.000000 0.000000 0.029931 0.000000 -0.009104
# 5 0.000910 -0.001779 -0.002044 0.000000 0.019747 0.000000
# 6 0.000000 0.000000 0.000000 -0.009104 0.000000 0.038597
#
#
# Mechanical properties :
#
#
# Convention : Reuss Voigt Hill
#
# Bulk Modulus (GPa) = 58.84247 71.71880 65.28063
# Shear Modulus (GPa) = 32.34531 37.94341 35.14436
#
# Velocity S-wave (km/s) = 3.84760 4.16728 4.01063
# Velocity P-wave (km/s) = 6.83156 7.48197 7.16415
#
# Compressibility (1/GPa) = 0.01699453
#
# Stress axis : x y z
#
# Youngs Moduli (GPa) = 83.36401 58.48216 102.83939
#
# Poissons Ratio (x) = 0.10348 0.23367
# Poissons Ratio (y) = 0.14751 0.70656
# Poissons Ratio (z) = 0.18942 0.40180
#
# Static dielectric constant tensor:
#      x y z
#    x 1.836450 0.000000 -0.031030 
#    y 0.000000 1.748770 0.000000 
#    z -0.031030 0.000000 1.787050 
# 
# From -- ./inp_files/20616.got.cif
#   From: 2010.05.17/outbox.cif.g08.bks.cpg/sg13_11_cif.got.tgz:20616.got - 2010.06.03 16:44:36.
