data_PCOD9233578
_publ_section_title
;
Structure prediction by ZEFSAII (Michael W. Deem and Ramdas Pophale) SiO2 
 PCOD9233578
Probable space group: P 2/C
;
_chemical_formula_sum "Si O2"
_cell_formula_units_Z 28
_cell_length_a 21.972082
_cell_length_b 9.192960
_cell_length_c 19.704962
_cell_angle_alpha 90.000000
_cell_angle_beta 160.597276
_cell_angle_gamma 90.000000
_cell_volume 1322.237964
_symmetry_space_group_name_H-M "P 2/C"
_symmetry_group_IT_number 13
_symmetry_cell_setting 'monoclinic'
loop_
_space_group_symop_operation_xyz
x,y,z
-x,y,1/2-z
-x,-y,-z
x,-y,1/2+z
loop_
_atom_site_type_symbol
_atom_site_label
_atom_site_fract_x
_atom_site_fract_y
_atom_site_fract_z
Si Si1 0.163083 0.707156 0.324904
Si Si2 0.101818 0.442653 0.040427
Si Si3 0.633206 0.912849 0.327534
Si Si4 0.614808 0.090088 0.536497
Si Si5 0.000000 0.928750 0.250000
Si Si6 0.670912 0.205809 0.156090
Si Si7 0.415202 0.618898 0.294622
Si Si8 0.500000 0.429204 0.250000
O O1 0.262854 0.785814 0.367540
O O2 0.319847 0.664534 0.543533
O O3 0.028901 0.823481 0.216994
O O4 0.045678 0.572354 0.174804
O O5 0.177114 0.282571 0.138813
O O6 0.274492 0.536001 0.195938
O O7 0.000000 0.500000 0.000000
O O8 0.500000 0.875875 0.250000
O O9 0.669463 0.769381 0.321765
O O10 0.528121 0.029503 0.169874
O O11 0.819744 0.976639 0.551894
O O12 0.500923 0.158896 0.478181
O O13 0.722984 0.945001 0.674001
O O14 0.595833 0.327027 0.024666
O O15 0.463249 0.522159 0.279473
#
# Coordination Sequence:
#
# PCOD9233578 Si02
#       8
#     4   4   4   4   2   4   4   2
#     4  12  24  39  63  95 132 168 220 272 332 392
#     4  12  25  41  62  96 133 169 222 276 324 400
#     4  11  22  43  65  96 133 172 223 277 340 402
#     4  10  21  41  68  92 126 172 217 278 334 388
#     4  12  24  38  66  96 130 168 216 278 334 400
#     4  10  22  42  68  91 124 173 224 266 335 391
#     4  11  24  43  67  92 131 180 222 268 339 401
#     4  12  24  42  66  90 136 186 218 272 340 402
#
# _framework density 21.176219
#
# number of rings (size 3 to 8) (size 9 to 14) (size 15 to 20)
#    0.000    0.857    2.143    5.571    0.000    2.857 
#    0.000    0.000    0.000    0.000    0.000    0.000 
#    0.000    0.000    0.000    0.000    0.000    0.000 
#
# Total GULP energy -156628.317831 kJ/mol
# GULP energy per Si atom -5593.868494 kJ/mol
# Density = 2.112802 g / cm^3
# Si number density = 21.176219 Si / 1000 Ang^3
#
#
#
# Elastic Constant Matrix: (Units=GPa)
#
#
# Indices 1 2 3 4 5 6 
#
# 1 65.9941 5.0833 1.4025 0.0000 -2.8407 0.0000
# 2 5.0833 48.4071 24.2587 0.0000 1.6499 0.0000
# 3 1.4025 24.2587 68.8292 0.0000 -9.7195 0.0000
# 4 0.0000 0.0000 0.0000 18.0597 0.0000 -19.4075
# 5 -2.8407 1.6499 -9.7195 0.0000 26.7576 0.0000
# 6 0.0000 0.0000 0.0000 -19.4075 0.0000 47.4926
#
#
#
# Elastic Compliance Matrix: (Units=1/GPa)
#
#
# Indices 1 2 3 4 5 6 
#
# 1 0.015381 -0.002026 0.000684 0.000000 0.002006 0.000000
# 2 -0.002026 0.026012 -0.009891 0.000000 -0.005412 0.000000
# 3 0.000684 -0.009891 0.019076 0.000000 0.007612 0.000000
# 4 0.000000 0.000000 0.000000 0.098727 0.000000 0.040344
# 5 0.002006 -0.005412 0.007612 0.000000 0.040684 0.000000
# 6 0.000000 0.000000 0.000000 0.040344 0.000000 0.037542
#
#
# Mechanical properties :
#
#
# Convention : Reuss Voigt Hill
#
# Bulk Modulus (GPa) = 26.31420 27.19103 26.75261
# Shear Modulus (GPa) = 18.34491 28.62771 23.48631
#
# Velocity S-wave (km/s) = 2.94649 3.68078 3.33391
# Velocity P-wave (km/s) = 4.90194 5.56169 5.24220
#
# Compressibility (1/GPa) = 0.03800230
#
# Stress axis : x y z
#
# Youngs Moduli (GPa) = 65.01618 38.44374 52.42297
#
# Poissons Ratio (x) = 0.07790 -0.03586
# Poissons Ratio (y) = 0.13175 0.51851
# Poissons Ratio (z) = -0.04448 0.38024
#
# Static dielectric constant tensor:
#      x y z
#    x 1.719380 0.000000 -0.063260 
#    y 0.000000 1.756540 0.000000 
#    z -0.063260 0.000000 1.741910 
# 
# From -- ./inp_files/82253.got.cif
#   From: 2010.05.17/outbox.cif.g08.bks.cpg/sg13_42_cif.got.tgz:82253.got - 2010.06.03 16:44:36.
