data_PCOD9233035
_publ_section_title
;
Structure prediction by ZEFSAII (Michael W. Deem and Ramdas Pophale) SiO2 
 PCOD9233035
Probable space group: P 2/C
;
_chemical_formula_sum "Si O2"
_cell_formula_units_Z 30
_cell_length_a 5.202985
_cell_length_b 8.607577
_cell_length_c 26.810599
_cell_angle_alpha 90.000000
_cell_angle_beta 105.056732
_cell_angle_gamma 90.000000
_cell_volume 1159.493540
_symmetry_space_group_name_H-M "P 2/C"
_symmetry_group_IT_number 13
_symmetry_cell_setting 'monoclinic'
loop_
_space_group_symop_operation_xyz
x,y,z
-x,y,1/2-z
-x,-y,-z
x,-y,1/2+z
loop_
_atom_site_type_symbol
_atom_site_label
_atom_site_fract_x
_atom_site_fract_y
_atom_site_fract_z
Si Si1 0.500096 0.382543 0.650354
Si Si2 0.069235 0.624460 0.604075
Si Si3 0.703235 0.901225 0.306561
Si Si4 0.621633 0.106729 0.401651
Si Si5 0.111990 0.622822 0.465417
Si Si6 0.775650 0.318847 0.177460
Si Si7 0.558376 0.199919 0.944524
Si Si8 0.000000 0.078414 0.250000
O O1 0.307773 0.502034 0.612332
O O2 0.332669 0.276966 0.679909
O O3 0.699595 0.504286 0.685401
O O4 0.597442 0.261323 0.613430
O O5 0.125819 0.780366 0.576489
O O6 0.838888 0.507872 0.575839
O O7 0.052466 0.670682 0.661239
O O8 0.500000 0.927680 0.250000
O O9 0.669660 0.001846 0.354770
O O10 0.971276 0.965060 0.295337
O O11 0.397178 0.228392 0.373287
O O12 0.551853 0.985821 0.441107
O O13 0.866148 0.746559 0.451669
O O14 0.000000 0.500000 0.500000
O O15 0.389705 0.717432 0.479855
O O16 0.776414 0.203881 0.223805
#
# Coordination Sequence:
#
# PCOD9233035 Si02
#       8
#     4   4   4   4   4   4   4   2
#     4   9  22  39  60  84 118 164 215 261 312 391
#     4  10  21  39  63  91 118 166 212 259 327 391
#     4  11  22  39  54  84 121 159 208 269 323 373
#     4  10  22  39  64  87 123 169 214 266 320 395
#     4  11  23  43  68  98 134 167 210 269 328 396
#     4  11  21  38  61  85 122 163 213 268 320 386
#     4  10  22  41  68  96 126 169 217 255 324 392
#     4  12  24  34  62  86 122 168 212 274 342 374
#
# _framework density 25.873362
#
# number of rings (size 3 to 8) (size 9 to 14) (size 15 to 20)
#    0.000    1.600    4.000    0.400    1.867    3.200 
#    0.000    1.333    0.000    0.000    0.000    0.000 
#    0.000    0.000    0.000    0.000    0.000    0.000 
#
# Total GULP energy -167129.877375 kJ/mol
# GULP energy per Si atom -5570.995913 kJ/mol
# Density = 2.581447 g / cm^3
# Si number density = 25.873362 Si / 1000 Ang^3
#
#
#
# Elastic Constant Matrix: (Units=GPa)
#
#
# Indices 1 2 3 4 5 6 
#
# 1 62.3596 44.5177 6.2046 0.0000 -16.4103 0.0000
# 2 44.5177 194.4787 30.0358 0.0000 -8.6346 0.0000
# 3 6.2046 30.0358 57.8705 0.0000 -13.2586 0.0000
# 4 0.0000 0.0000 0.0000 37.9904 0.0000 -9.4838
# 5 -16.4103 -8.6346 -13.2586 0.0000 30.4738 0.0000
# 6 0.0000 0.0000 0.0000 -9.4838 0.0000 42.6055
#
#
#
# Elastic Compliance Matrix: (Units=1/GPa)
#
#
# Indices 1 2 3 4 5 6 
#
# 1 0.022521 -0.005082 0.002967 0.000000 0.011979 0.000000
# 2 -0.005082 0.006740 -0.003491 0.000000 -0.002345 0.000000
# 3 0.002967 -0.003491 0.021007 0.000000 0.009749 0.000000
# 4 0.000000 0.000000 0.000000 0.027871 0.000000 0.006204
# 5 0.011979 -0.002345 0.009749 0.000000 0.042843 0.000000
# 6 0.000000 0.000000 0.000000 0.006204 0.000000 0.024852
#
#
# Mechanical properties :
#
#
# Convention : Reuss Voigt Hill
#
# Bulk Modulus (GPa) = 25.60308 52.91388 39.25848
# Shear Modulus (GPa) = 29.40079 37.81065 33.60572
#
# Velocity S-wave (km/s) = 3.37461 3.82694 3.60787
# Velocity P-wave (km/s) = 5.01009 6.32636 5.70630
#
# Compressibility (1/GPa) = 0.03905781
#
# Stress axis : x y z
#
# Youngs Moduli (GPa) = 44.40349 148.36423 47.60290
#
# Poissons Ratio (x) = 0.75393 -0.14125
# Poissons Ratio (y) = 0.22564 0.16617
# Poissons Ratio (z) = -0.13176 0.51791
#
# Static dielectric constant tensor:
#      x y z
#    x 2.306440 0.000000 -0.006280 
#    y 0.000000 1.989690 0.000000 
#    z -0.006280 0.000000 2.254460 
# 
# From -- ./inp_files/94890.got.cif
#   From: 2010.05.17/outbox.cif.g08.bks.cpg/sg13_48_cif.got.tgz:94890.got - 2010.06.03 16:44:36.
