data_PCOD9233530
_publ_section_title
;
Structure prediction by ZEFSAII (Michael W. Deem and Ramdas Pophale) SiO2 
 PCOD9233530
Probable space group: P 2/C
;
_chemical_formula_sum "Si O2"
_cell_formula_units_Z 24
_cell_length_a 9.909913
_cell_length_b 9.171944
_cell_length_c 14.228593
_cell_angle_alpha 90.000000
_cell_angle_beta 71.146315
_cell_angle_gamma 90.000000
_cell_volume 1223.893283
_symmetry_space_group_name_H-M "P 2/C"
_symmetry_group_IT_number 13
_symmetry_cell_setting 'monoclinic'
loop_
_space_group_symop_operation_xyz
x,y,z
-x,y,1/2-z
-x,-y,-z
x,-y,1/2+z
loop_
_atom_site_type_symbol
_atom_site_label
_atom_site_fract_x
_atom_site_fract_y
_atom_site_fract_z
Si Si1 0.209530 0.625043 0.922749
Si Si2 0.143175 0.105374 0.769530
Si Si3 0.653954 0.803527 0.441647
Si Si4 0.658109 0.162533 0.252002
Si Si5 0.111887 0.298053 0.957190
Si Si6 0.343729 0.140987 0.023968
O O1 0.283544 0.696273 0.815367
O O2 0.192765 0.451579 0.925393
O O3 0.295027 0.685745 0.994196
O O4 0.046745 0.679566 0.968416
O O5 0.241628 0.186313 0.670446
O O6 0.101796 0.214380 0.861218
O O7 0.000000 0.051864 0.750000
O O8 0.234899 0.971890 0.789636
O O9 0.488769 0.791089 0.449451
O O10 0.657891 0.965840 0.486880
O O11 0.500000 0.129417 0.250000
O O12 0.653074 0.176149 0.365746
O O13 0.204967 0.204505 0.007666
#
# Coordination Sequence:
#
# PCOD9233530 Si02
#       6
#     4   4   4   4   4   4
#     4  11  24  44  63  90 132 172 207 258 312 378
#     4  11  24  41  66  98 122 166 214 262 314 368
#     4  10  21  41  66  91 126 161 211 263 311 369
#     4  11  24  43  67  97 126 160 210 266 315 372
#     4  11  26  42  63  93 129 171 211 255 313 376
#     4  10  23  41  66  95 121 167 209 264 316 363
#
# _framework density 19.609552999999998
#
# number of rings (size 3 to 8) (size 9 to 14) (size 15 to 20)
#    0.000    1.333    3.333    1.000    9.333    3.333 
#    3.000    0.000    0.000    0.000    0.000    0.000 
#    0.000    0.000    0.000    0.000    0.000    0.000 
#
# Total GULP energy -134159.284352 kJ/mol
# GULP energy per Si atom -5589.970181 kJ/mol
# Density = 1.956492 g / cm^3
# Si number density = 19.609553 Si / 1000 Ang^3
#
#
#
# Elastic Constant Matrix: (Units=GPa)
#
#
# Indices 1 2 3 4 5 6 
#
# 1 87.5235 30.5902 6.3165 0.0000 14.5926 0.0000
# 2 30.5902 50.6621 2.9239 0.0000 8.3815 0.0000
# 3 6.3165 2.9239 45.2254 0.0000 0.1971 0.0000
# 4 0.0000 0.0000 0.0000 -2.8286 0.0000 -2.6175
# 5 14.5926 8.3815 0.1971 0.0000 27.2548 0.0000
# 6 0.0000 0.0000 0.0000 -2.6175 0.0000 28.7562
#
#
#
# Elastic Compliance Matrix: (Units=1/GPa)
#
#
# Indices 1 2 3 4 5 6 
#
# 1 0.015371 -0.008249 -0.001589 0.000000 -0.005681 0.000000
# 2 -0.008249 0.025303 -0.000469 0.000000 -0.003361 0.000000
# 3 -0.001589 -0.000469 0.022360 0.000000 0.000833 0.000000
# 4 0.000000 0.000000 0.000000 -0.326066 0.000000 -0.029680
# 5 -0.005681 -0.003361 0.000833 0.000000 0.040760 0.000000
# 6 0.000000 0.000000 0.000000 -0.029680 0.000000 0.032073
#
#
# Mechanical properties :
#
#
# Convention : Reuss Voigt Hill
#
# Bulk Modulus (GPa) = 23.57414 29.23023 26.40218
# Shear Modulus (GPa) = -32.16568 20.20849 -5.97859
#
# Velocity S-wave (km/s) = -4.05446 3.21369 -1.74798
# Velocity P-wave (km/s) = 3.14171 5.35807 3.06908
#
# Compressibility (1/GPa) = 0.04241936
#
# Stress axis : x y z
#
# Youngs Moduli (GPa) = 65.05937 39.52141 44.72258
#
# Poissons Ratio (x) = 0.32602 0.07105
# Poissons Ratio (y) = 0.53669 0.02098
# Poissons Ratio (z) = 0.10336 0.01854
#
# Static dielectric constant tensor:
#      x y z
#    x 1.674200 0.000000 -0.017160 
#    y 0.000000 1.666380 0.000000 
#    z -0.017160 0.000000 1.676770 
# 
# From -- ./inp_files/46014.got.cif
#   From: 2010.05.17/outbox.cif.g08.bks.cpg/sg13_24_cif.got.tgz:46014.got - 2010.06.03 16:44:36.
