data_PCOD9233564
_publ_section_title
;
Structure prediction by ZEFSAII (Michael W. Deem and Ramdas Pophale) SiO2 
 PCOD9233564
Probable space group: P 2/C
;
_chemical_formula_sum "Si O2"
_cell_formula_units_Z 18
_cell_length_a 18.706417
_cell_length_b 7.831967
_cell_length_c 8.624182
_cell_angle_alpha 90.000000
_cell_angle_beta 40.189682
_cell_angle_gamma 90.000000
_cell_volume 815.369733
_symmetry_space_group_name_H-M "P 2/C"
_symmetry_group_IT_number 13
_symmetry_cell_setting 'monoclinic'
loop_
_space_group_symop_operation_xyz
x,y,z
-x,y,1/2-z
-x,-y,-z
x,-y,1/2+z
loop_
_atom_site_type_symbol
_atom_site_label
_atom_site_fract_x
_atom_site_fract_y
_atom_site_fract_z
Si Si1 0.339893 0.616014 0.768064
Si Si2 0.276827 0.286275 0.033866
Si Si3 0.715021 0.086507 0.929863
Si Si4 0.500000 0.738046 0.750000
Si Si5 0.920488 0.102875 0.018666
O O1 0.293173 0.429202 0.879181
O O2 0.265067 0.763124 0.977561
O O3 0.852183 0.742025 0.706979
O O4 0.453268 0.637607 0.678753
O O5 0.313957 0.092952 0.940117
O O6 0.339679 0.346357 0.086848
O O7 0.820594 0.034012 0.651665
O O8 0.604776 0.148785 0.028121
O O9 0.000000 0.157379 0.750000
O O10 0.000000 0.000000 0.000000
#
# Coordination Sequence:
#
# PCOD9233564 Si02
#       5
#     4   4   4   2   4
#     4  10  21  42  60 105 126 172 218 263 330 395
#     4  10  23  38  68  91 138 164 222 267 323 392
#     4   8  21  40  62  94 128 172 216 263 327 381
#     4   8  20  42  64  96 134 168 222 270 322 404
#     4  10  21  41  67  93 126 171 217 270 319 387
#
# _framework density 22.075875
#
# number of rings (size 3 to 8) (size 9 to 14) (size 15 to 20)
#    2.667    0.000    0.000    1.333    0.000    6.222 
#    0.000    5.556    0.000    0.000    0.000    0.000 
#    0.000    0.000    0.000    0.000    0.000    0.000 
#
# Total GULP energy -100233.149552 kJ/mol
# GULP energy per Si atom -5568.508308 kJ/mol
# Density = 2.202563 g / cm^3
# Si number density = 22.075875 Si / 1000 Ang^3
#
#
#
# Elastic Constant Matrix: (Units=GPa)
#
#
# Indices 1 2 3 4 5 6 
#
# 1 70.1333 11.6861 21.5636 0.0000 -16.6892 0.0000
# 2 11.6861 131.9843 34.4608 0.0000 1.3220 0.0000
# 3 21.5636 34.4608 96.7815 0.0000 -18.8572 0.0000
# 4 0.0000 0.0000 0.0000 31.6182 0.0000 -1.4099
# 5 -16.6892 1.3220 -18.8572 0.0000 31.4094 0.0000
# 6 0.0000 0.0000 0.0000 -1.4099 0.0000 4.3225
#
#
#
# Elastic Compliance Matrix: (Units=1/GPa)
#
#
# Indices 1 2 3 4 5 6 
#
# 1 0.016889 -0.001097 -0.001829 0.000000 0.007922 0.000000
# 2 -0.001097 0.008590 -0.003395 0.000000 -0.002983 0.000000
# 3 -0.001829 -0.003395 0.013349 0.000000 0.007186 0.000000
# 4 0.000000 0.000000 0.000000 0.032094 0.000000 0.010468
# 5 0.007922 -0.002983 0.007186 0.000000 0.040487 0.000000
# 6 0.000000 0.000000 0.000000 0.010468 0.000000 0.234764
#
#
# Mechanical properties :
#
#
# Convention : Reuss Voigt Hill
#
# Bulk Modulus (GPa) = 38.18928 48.25776 43.22352
# Shear Modulus (GPa) = 13.60382 28.88259 21.24321
#
# Velocity S-wave (km/s) = 2.48509 3.62101 3.10543
# Velocity P-wave (km/s) = 5.05677 6.27612 5.69915
#
# Compressibility (1/GPa) = 0.02618536
#
# Stress axis : x y z
#
# Youngs Moduli (GPa) = 59.21074 116.41116 74.91143
#
# Poissons Ratio (x) = 0.12773 0.13699
# Poissons Ratio (y) = 0.06497 0.25436
# Poissons Ratio (z) = 0.10828 0.39527
#
# Static dielectric constant tensor:
#      x y z
#    x 1.875840 0.000000 0.028000 
#    y 0.000000 1.807840 0.000000 
#    z 0.028000 0.000000 1.885850 
# 
# From -- ./inp_files/40278.got.cif
#   From: 2010.05.17/outbox.cif.g08.bks.cpg/sg13_21_cif.got.tgz:40278.got - 2010.06.03 16:44:36.
