data_PCOD9233678
_publ_section_title
;
Structure prediction by ZEFSAII (Michael W. Deem and Ramdas Pophale) SiO2 
 PCOD9233678
Probable space group: P 2/C
;
_chemical_formula_sum "Si O2"
_cell_formula_units_Z 24
_cell_length_a 28.524826
_cell_length_b 5.014054
_cell_length_c 23.809274
_cell_angle_alpha 90.000000
_cell_angle_beta 163.662578
_cell_angle_gamma 90.000000
_cell_volume 957.895013
_symmetry_space_group_name_H-M "P 2/C"
_symmetry_group_IT_number 13
_symmetry_cell_setting 'monoclinic'
loop_
_space_group_symop_operation_xyz
x,y,z
-x,y,1/2-z
-x,-y,-z
x,-y,1/2+z
loop_
_atom_site_type_symbol
_atom_site_label
_atom_site_fract_x
_atom_site_fract_y
_atom_site_fract_z
Si Si1 0.603939 0.782800 0.040074
Si Si2 0.892387 0.068543 0.431401
Si Si3 0.687006 0.275781 0.960405
Si Si4 0.791407 0.229164 0.644250
Si Si5 0.710523 0.053265 0.863862
Si Si6 0.736049 0.452130 0.327573
O O1 0.710558 0.675495 0.110260
O O2 0.723800 0.903079 0.225100
O O3 0.485153 0.013055 0.876472
O O4 0.463820 0.583917 0.901775
O O5 0.039427 0.073650 0.646301
O O6 0.815313 0.356990 0.360260
O O7 0.000000 0.000000 0.500000
O O8 0.500000 0.392721 0.750000
O O9 0.730175 0.176137 0.947612
O O10 0.684747 0.003733 0.993367
O O11 0.802479 0.511022 0.117728
O O12 0.784526 0.262030 0.905055
O O13 0.781523 0.763416 0.929375
#
# Coordination Sequence:
#
# PCOD9233678 Si02
#       6
#     4   4   4   4   4   4
#     4   9  21  42  66  97 125 173 215 263 313 389
#     4  10  23  46  64  97 134 165 211 273 336 388
#     4  12  21  41  66  94 129 170 219 264 310 389
#     4  11  24  39  64 100 129 170 208 271 327 373
#     4  10  22  38  68  95 123 167 229 259 310 375
#     4  10  21  42  65  97 123 173 216 262 320 389
#
# _framework density 25.054938
#
# number of rings (size 3 to 8) (size 9 to 14) (size 15 to 20)
#    1.000    0.667    1.667    3.000    0.000    2.000 
#    3.000   10.000    0.000    0.000    0.000    0.000 
#    0.000    0.000    0.000    0.000    0.000    0.000 
#
# Total GULP energy -133865.332174 kJ/mol
# GULP energy per Si atom -5577.722174 kJ/mol
# Density = 2.499791 g / cm^3
# Si number density = 25.054938 Si / 1000 Ang^3
#
#
#
# Elastic Constant Matrix: (Units=GPa)
#
#
# Indices 1 2 3 4 5 6 
#
# 1 139.2069 29.5440 31.2214 0.0000 -13.3939 0.0000
# 2 29.5440 105.8906 19.8313 0.0000 -22.8421 0.0000
# 3 31.2214 19.8313 78.5356 0.0000 -4.0397 0.0000
# 4 0.0000 0.0000 0.0000 26.1931 0.0000 -9.3758
# 5 -13.3939 -22.8421 -4.0397 0.0000 46.2988 0.0000
# 6 0.0000 0.0000 0.0000 -9.3758 0.0000 42.4182
#
#
#
# Elastic Compliance Matrix: (Units=1/GPa)
#
#
# Indices 1 2 3 4 5 6 
#
# 1 0.008270 -0.001468 -0.002844 0.000000 0.001420 0.000000
# 2 -0.001468 0.011304 -0.002015 0.000000 0.004976 0.000000
# 3 -0.002844 -0.002015 0.014343 0.000000 -0.000565 0.000000
# 4 0.000000 0.000000 0.000000 0.041458 0.000000 0.009164
# 5 0.001420 0.004976 -0.000565 0.000000 0.024415 0.000000
# 6 0.000000 0.000000 0.000000 0.009164 0.000000 0.025600
#
#
# Mechanical properties :
#
#
# Convention : Reuss Voigt Hill
#
# Bulk Modulus (GPa) = 47.02926 53.86959 50.44943
# Shear Modulus (GPa) = 34.45133 39.18445 36.81789
#
# Velocity S-wave (km/s) = 3.71216 3.95896 3.83755
# Velocity P-wave (km/s) = 6.09793 6.51499 6.30991
#
# Compressibility (1/GPa) = 0.02126336
#
# Stress axis : x y z
#
# Youngs Moduli (GPa) = 120.92508 88.46252 69.71924
#
# Poissons Ratio (x) = 0.12990 0.19826
# Poissons Ratio (y) = 0.17757 0.14046
# Poissons Ratio (z) = 0.34387 0.17823
#
# Static dielectric constant tensor:
#      x y z
#    x 2.103140 0.000000 0.002220 
#    y 0.000000 1.989500 0.000000 
#    z 0.002220 0.000000 2.068010 
# 
# From -- ./inp_files/89605.got.cif
#   From: 2010.05.17/outbox.cif.g08.bks.cpg/sg13_45_cif.got.tgz:89605.got - 2010.06.03 16:44:36.
