data_PCOD9233694
_publ_section_title
;
Structure prediction by ZEFSAII (Michael W. Deem and Ramdas Pophale) SiO2 
 PCOD9233694
Probable space group: P 2/C
;
_chemical_formula_sum "Si O2"
_cell_formula_units_Z 28
_cell_length_a 17.160643
_cell_length_b 5.209528
_cell_length_c 13.733483
_cell_angle_alpha 90.000000
_cell_angle_beta 64.228239
_cell_angle_gamma 90.000000
_cell_volume 1105.636436
_symmetry_space_group_name_H-M "P 2/C"
_symmetry_group_IT_number 13
_symmetry_cell_setting 'monoclinic'
loop_
_space_group_symop_operation_xyz
x,y,z
-x,y,1/2-z
-x,-y,-z
x,-y,1/2+z
loop_
_atom_site_type_symbol
_atom_site_label
_atom_site_fract_x
_atom_site_fract_y
_atom_site_fract_z
Si Si1 0.149448 0.460800 0.766824
Si Si2 0.901826 0.900327 0.033307
Si Si3 0.567357 0.753604 0.853159
Si Si4 0.384750 0.018688 0.467452
Si Si5 0.095142 0.043255 0.192273
Si Si6 0.714436 0.976730 0.659840
Si Si7 0.327868 0.371106 0.647782
O O1 0.115962 0.345675 0.887657
O O2 0.095847 0.704669 0.759583
O O3 0.247657 0.565148 0.700690
O O4 0.149437 0.202270 0.698880
O O5 0.816745 0.081773 0.099714
O O6 0.890949 0.859051 0.924350
O O7 0.000000 0.000000 0.000000
O O8 0.477975 0.887767 0.879174
O O9 0.575227 0.453027 0.872586
O O10 0.638747 0.777231 0.729076
O O11 0.598938 0.863504 0.941356
O O12 0.336375 0.269831 0.534800
O O13 0.322072 0.902454 0.420667
O O14 0.000000 0.926418 0.250000
O O15 0.702283 0.171410 0.754867
#
# Coordination Sequence:
#
# PCOD9233694 Si02
#       7
#     4   4   4   4   4   4   4
#     4  11  27  46  73 109 149 194 248 312 367 453
#     4  11  25  47  74 106 150 197 251 312 376 445
#     4  10  22  40  68  98 137 178 228 302 353 437
#     4  10  21  42  66  98 135 181 233 285 369 430
#     4  12  26  47  74 106 145 199 250 305 381 444
#     4  10  23  42  66  99 136 186 234 294 361 436
#     4  10  23  40  67  99 140 178 234 298 361 428
#
# _framework density 25.324780000000001
#
# number of rings (size 3 to 8) (size 9 to 14) (size 15 to 20)
#    0.000    1.429    1.429    2.143    8.000    2.857 
#    5.143    4.286    0.000    0.000    0.000    0.000 
#    0.000    0.000    0.000    0.000    0.000    0.000 
#
# Total GULP energy -156104.119578 kJ/mol
# GULP energy per Si atom -5575.147128 kJ/mol
# Density = 2.526714 g / cm^3
# Si number density = 25.324780 Si / 1000 Ang^3
#
#
#
# Elastic Constant Matrix: (Units=GPa)
#
#
# Indices 1 2 3 4 5 6 
#
# 1 154.6670 31.4877 61.3444 0.0000 -8.6362 0.0000
# 2 31.4877 56.5374 20.4168 0.0000 -8.0292 0.0000
# 3 61.3444 20.4168 133.5482 0.0000 -6.8179 0.0000
# 4 0.0000 0.0000 0.0000 17.0106 0.0000 -7.2544
# 5 -8.6362 -8.0292 -6.8179 0.0000 53.4889 0.0000
# 6 0.0000 0.0000 0.0000 -7.2544 0.0000 32.0395
#
#
#
# Elastic Compliance Matrix: (Units=1/GPa)
#
#
# Indices 1 2 3 4 5 6 
#
# 1 0.008532 -0.003476 -0.003366 0.000000 0.000427 0.000000
# 2 -0.003476 0.020464 -0.001413 0.000000 0.002331 0.000000
# 3 -0.003366 -0.001413 0.009272 0.000000 0.000426 0.000000
# 4 0.000000 0.000000 0.000000 0.065070 0.000000 0.014733
# 5 0.000427 0.002331 0.000426 0.000000 0.019169 0.000000
# 6 0.000000 0.000000 0.000000 0.014733 0.000000 0.034547
#
#
# Mechanical properties :
#
#
# Convention : Reuss Voigt Hill
#
# Bulk Modulus (GPa) = 45.95835 63.47226 54.71530
# Shear Modulus (GPa) = 27.65235 35.94138 31.79687
#
# Velocity S-wave (km/s) = 3.30799 3.77134 3.54724
# Velocity P-wave (km/s) = 5.72515 6.63940 6.19916
#
# Compressibility (1/GPa) = 0.02175883
#
# Stress axis : x y z
#
# Youngs Moduli (GPa) = 117.20685 48.86540 107.85332
#
# Poissons Ratio (x) = 0.16984 0.36303
# Poissons Ratio (y) = 0.40737 0.15241
# Poissons Ratio (z) = 0.39451 0.06905
#
# Static dielectric constant tensor:
#      x y z
#    x 2.185520 0.000000 -0.052700 
#    y 0.000000 2.131960 0.000000 
#    z -0.052700 0.000000 2.025850 
# 
# From -- ./inp_files/54580.got.cif
#   From: 2010.05.17/outbox.cif.g08.bks.cpg/sg13_28_cif.got.tgz:54580.got - 2010.06.03 16:44:36.
