data_PCOD9233224
_publ_section_title
;
Structure prediction by ZEFSAII (Michael W. Deem and Ramdas Pophale) SiO2 
 PCOD9233224
Probable space group: P 2/C
;
_chemical_formula_sum "Si O2"
_cell_formula_units_Z 20
_cell_length_a 8.246642
_cell_length_b 13.554641
_cell_length_c 11.786310
_cell_angle_alpha 90.000000
_cell_angle_beta 130.078378
_cell_angle_gamma 90.000000
_cell_volume 1008.086478
_symmetry_space_group_name_H-M "P 2/C"
_symmetry_group_IT_number 13
_symmetry_cell_setting 'monoclinic'
loop_
_space_group_symop_operation_xyz
x,y,z
-x,y,1/2-z
-x,-y,-z
x,-y,1/2+z
loop_
_atom_site_type_symbol
_atom_site_label
_atom_site_fract_x
_atom_site_fract_y
_atom_site_fract_z
Si Si1 0.120583 0.999062 0.428351
Si Si2 0.717917 0.199463 0.416272
Si Si3 0.108459 0.216042 0.419775
Si Si4 0.223627 0.603317 0.413930
Si Si5 0.616374 0.591758 0.419628
O O1 0.261526 0.901130 0.502132
O O2 0.000000 0.991527 0.250000
O O3 0.220959 0.108656 0.467365
O O4 0.000000 0.000000 0.500000
O O5 0.500000 0.197808 0.250000
O O6 0.737904 0.298739 0.496823
O O7 0.915077 0.204617 0.419368
O O8 0.256908 0.305981 0.520588
O O9 0.000000 0.236281 0.250000
O O10 0.425668 0.597375 0.423003
O O11 0.231874 0.500808 0.486497
O O12 0.000000 0.611090 0.250000
O O13 0.500000 0.574825 0.250000
#
# Coordination Sequence:
#
# PCOD9233224 Si02
#       5
#     4   4   4   4   4
#     4   9  20  39  61  88 123 164 206 252 306 364
#     4  11  22  38  62  91 123 160 203 251 303 360
#     4  10  21  40  61  86 122 159 199 246 299 361
#     4  11  24  41  61  87 120 156 198 248 302 363
#     4  11  24  40  61  88 117 155 199 246 303 361
#
# _framework density 19.839566999999999
#
# number of rings (size 3 to 8) (size 9 to 14) (size 15 to 20)
#    0.000    1.600    0.000    4.200    0.000    8.800 
#    0.000   16.000    0.000    0.000    0.000    0.000 
#    0.000    0.000    0.000    0.000    0.000    0.000 
#
# Total GULP energy -111545.499740 kJ/mol
# GULP energy per Si atom -5577.274987 kJ/mol
# Density = 1.979441 g / cm^3
# Si number density = 19.839567 Si / 1000 Ang^3
#
#
#
# Elastic Constant Matrix: (Units=GPa)
#
#
# Indices 1 2 3 4 5 6 
#
# 1 50.0565 34.7420 26.3434 0.0000 1.8700 0.0000
# 2 34.7420 200.4846 98.7502 0.0000 19.1701 0.0000
# 3 26.3434 98.7502 139.4157 0.0000 6.4490 0.0000
# 4 0.0000 0.0000 0.0000 -50.8985 0.0000 -94.2351
# 5 1.8700 19.1701 6.4490 0.0000 34.8753 0.0000
# 6 0.0000 0.0000 0.0000 -94.2351 0.0000 -64.4551
#
#
#
# Elastic Compliance Matrix: (Units=1/GPa)
#
#
# Indices 1 2 3 4 5 6 
#
# 1 0.023225 -0.002952 -0.002335 0.000000 0.000809 0.000000
# 2 -0.002952 0.008416 -0.005241 0.000000 -0.003498 0.000000
# 3 -0.002335 -0.005241 0.011284 0.000000 0.000920 0.000000
# 4 0.000000 0.000000 0.000000 0.011511 0.000000 -0.016829
# 5 0.000809 -0.003498 0.000920 0.000000 0.030383 0.000000
# 6 0.000000 0.000000 0.000000 -0.016829 0.000000 0.009090
#
#
# Mechanical properties :
#
#
# Convention : Reuss Voigt Hill
#
# Bulk Modulus (GPa) = 45.72891 78.84756 62.28824
# Shear Modulus (GPa) = 40.89857 -0.75425 20.07216
#
# Velocity S-wave (km/s) = 4.54526 -0.61725 3.18421
# Velocity P-wave (km/s) = 7.11655 6.27063 6.70694
#
# Compressibility (1/GPa) = 0.02186800
#
# Stress axis : x y z
#
# Youngs Moduli (GPa) = 43.05733 118.82708 88.62136
#
# Poissons Ratio (x) = 0.35076 0.20694
# Poissons Ratio (y) = 0.12710 0.46449
# Poissons Ratio (z) = 0.10054 0.62281
#
# Static dielectric constant tensor:
#      x y z
#    x 1.705770 0.000000 -0.049930 
#    y 0.000000 1.710400 0.000000 
#    z -0.049930 0.000000 1.686950 
# 
# From -- ./inp_files/29246.got.cif
#   From: 2010.05.17/outbox.cif.g08.bks.cpg/sg13_15_cif.got.tgz:29246.got - 2010.06.03 16:44:36.
