data_PCOD9233629
_publ_section_title
;
Structure prediction by ZEFSAII (Michael W. Deem and Ramdas Pophale) SiO2 
 PCOD9233629
Probable space group: P 2/C
;
_chemical_formula_sum "Si O2"
_cell_formula_units_Z 22
_cell_length_a 12.813465
_cell_length_b 6.531291
_cell_length_c 14.125370
_cell_angle_alpha 90.000000
_cell_angle_beta 102.125267
_cell_angle_gamma 90.000000
_cell_volume 1155.758080
_symmetry_space_group_name_H-M "P 2/C"
_symmetry_group_IT_number 13
_symmetry_cell_setting 'monoclinic'
loop_
_space_group_symop_operation_xyz
x,y,z
-x,y,1/2-z
-x,-y,-z
x,-y,1/2+z
loop_
_atom_site_type_symbol
_atom_site_label
_atom_site_fract_x
_atom_site_fract_y
_atom_site_fract_z
Si Si1 0.436024 0.644158 0.916269
Si Si2 0.268032 0.029114 0.462361
Si Si3 0.122439 0.743800 0.795703
Si Si4 0.752363 0.644879 0.177794
Si Si5 0.733450 0.988547 0.314284
Si Si6 0.500000 0.863068 0.750000
O O1 0.370956 0.828555 0.955590
O O2 0.348212 0.506663 0.845868
O O3 0.510451 0.734273 0.848380
O O4 0.500000 0.500000 0.000000
O O5 0.166642 0.145583 0.397958
O O6 0.258562 0.003053 0.572058
O O7 0.268629 0.812776 0.407867
O O8 0.147284 0.504463 0.814235
O O9 0.000000 0.783744 0.750000
O O10 0.196090 0.840006 0.725843
O O11 0.765685 0.771079 0.276538
O O12 0.609547 0.014369 0.261366
#
# Coordination Sequence:
#
# PCOD9233629 Si02
#       6
#     4   4   4   4   4   2
#     4  11  24  37  59  94 130 174 209 254 308 382
#     4  10  23  43  62  97 128 163 217 263 317 381
#     4  10  23  46  65  91 126 164 218 268 318 378
#     4  10  21  42  59  91 126 169 207 258 317 370
#     4  11  24  40  65  94 129 167 212 261 320 382
#     4  12  22  40  60  98 134 168 210 254 318 386
#
# _framework density 19.035125000000001
#
# number of rings (size 3 to 8) (size 9 to 14) (size 15 to 20)
#    0.000    1.455    5.455    1.091    5.091    8.000 
#    0.000    1.818    0.000    0.000    0.000    0.000 
#    0.000    0.000    0.000    0.000    0.000    0.000 
#
# Total GULP energy -122801.047678 kJ/mol
# GULP energy per Si atom -5581.865804 kJ/mol
# Density = 1.899180 g / cm^3
# Si number density = 19.035125 Si / 1000 Ang^3
#
#
#
# Elastic Constant Matrix: (Units=GPa)
#
#
# Indices 1 2 3 4 5 6 
#
# 1 88.8832 27.3473 28.0562 0.0000 16.0110 0.0000
# 2 27.3473 95.9473 26.3886 0.0000 -8.6890 0.0000
# 3 28.0562 26.3886 120.4492 0.0000 -13.3663 0.0000
# 4 0.0000 0.0000 0.0000 16.1963 0.0000 4.3758
# 5 16.0110 -8.6890 -13.3663 0.0000 22.1931 0.0000
# 6 0.0000 0.0000 0.0000 4.3758 0.0000 9.7631
#
#
#
# Elastic Compliance Matrix: (Units=1/GPa)
#
#
# Indices 1 2 3 4 5 6 
#
# 1 0.017622 -0.005277 -0.004917 0.000000 -0.017741 0.000000
# 2 -0.005277 0.012872 -0.000653 0.000000 0.008453 0.000000
# 3 -0.004917 -0.000653 0.010669 0.000000 0.009718 0.000000
# 4 0.000000 0.000000 0.000000 0.070249 0.000000 -0.031485
# 5 -0.017741 0.008453 0.009718 0.000000 0.067020 0.000000
# 6 0.000000 0.000000 0.000000 -0.031485 0.000000 0.116538
#
#
# Mechanical properties :
#
#
# Convention : Reuss Voigt Hill
#
# Bulk Modulus (GPa) = 51.36453 52.09599 51.73026
# Shear Modulus (GPa) = 15.47251 24.52968 20.00109
#
# Velocity S-wave (km/s) = 2.85413 3.59368 3.24504
# Velocity P-wave (km/s) = 6.15663 6.68185 6.42461
#
# Compressibility (1/GPa) = 0.01946869
#
# Stress axis : x y z
#
# Youngs Moduli (GPa) = 56.74641 77.69100 93.72924
#
# Poissons Ratio (x) = 0.40997 0.46090
# Poissons Ratio (y) = 0.29945 0.06118
# Poissons Ratio (z) = 0.27904 0.05071
#
# Static dielectric constant tensor:
#      x y z
#    x 1.668140 0.000000 0.011790 
#    y 0.000000 1.681400 0.000000 
#    z 0.011790 0.000000 1.643170 
# 
# From -- ./inp_files/48894.got.cif
#   From: 2010.05.17/outbox.cif.g08.bks.cpg/sg13_25_cif.got.tgz:48894.got - 2010.06.03 16:44:36.
