data_PCOD9233213
_publ_section_title
;
Structure prediction by ZEFSAII (Michael W. Deem and Ramdas Pophale) SiO2 
 PCOD9233213
Probable space group: P 2/C
;
_chemical_formula_sum "Si O2"
_cell_formula_units_Z 16
_cell_length_a 5.343625
_cell_length_b 13.637925
_cell_length_c 12.820036
_cell_angle_alpha 90.000000
_cell_angle_beta 131.128851
_cell_angle_gamma 90.000000
_cell_volume 703.724123
_symmetry_space_group_name_H-M "P 2/C"
_symmetry_group_IT_number 13
_symmetry_cell_setting 'monoclinic'
loop_
_space_group_symop_operation_xyz
x,y,z
-x,y,1/2-z
-x,-y,-z
x,-y,1/2+z
loop_
_atom_site_type_symbol
_atom_site_label
_atom_site_fract_x
_atom_site_fract_y
_atom_site_fract_z
Si Si1 0.365520 0.348275 0.888522
Si Si2 0.361561 0.551483 0.604453
Si Si3 0.613794 0.858379 0.112527
Si Si4 0.601136 0.073051 0.163992
O O1 0.428231 0.453117 0.854756
O O2 0.549951 0.247531 0.906365
O O3 0.000000 0.326217 0.750000
O O4 0.396913 0.372459 0.019626
O O5 0.500000 0.594878 0.750000
O O6 0.000000 0.500000 0.500000
O O7 0.000000 0.862153 0.250000
O O8 0.474021 0.959529 0.120861
O O9 0.575577 0.869874 0.977928
O O10 0.500000 0.109758 0.250000
O O11 0.000000 0.076650 0.250000
#
# Coordination Sequence:
#
# PCOD9233213 Si02
#       4
#     4   4   4   4
#     4  10  21  40  60  88 121 157 213 245 305 373
#     4  11  22  39  61  88 120 161 197 259 308 363
#     4   9  21  40  63  91 121 168 206 257 310 378
#     4  10  22  43  65  94 131 165 207 261 315 370
#
# _framework density 22.736181999999999
#
# number of rings (size 3 to 8) (size 9 to 14) (size 15 to 20)
#    0.000    2.000    2.500    0.000    0.000   11.000 
#   13.500    0.000    0.000    0.000    0.000    0.000 
#    0.000    0.000    0.000    0.000    0.000    0.000 
#
# Total GULP energy -89133.988255 kJ/mol
# GULP energy per Si atom -5570.874266 kJ/mol
# Density = 2.268443 g / cm^3
# Si number density = 22.736182 Si / 1000 Ang^3
#
#
#
# Elastic Constant Matrix: (Units=GPa)
#
#
# Indices 1 2 3 4 5 6 
#
# 1 41.8582 -15.9873 21.7283 0.0000 -9.2181 0.0000
# 2 -15.9873 88.4225 -0.1055 0.0000 7.2775 0.0000
# 3 21.7283 -0.1055 149.8378 0.0000 -27.4021 0.0000
# 4 0.0000 0.0000 0.0000 42.5250 0.0000 10.3910
# 5 -9.2181 7.2775 -27.4021 0.0000 32.0453 0.0000
# 6 0.0000 0.0000 0.0000 10.3910 0.0000 4.4839
#
#
#
# Elastic Compliance Matrix: (Units=1/GPa)
#
#
# Indices 1 2 3 4 5 6 
#
# 1 0.028379 0.004780 -0.003340 0.000000 0.004222 0.000000
# 2 0.004780 0.012369 -0.001122 0.000000 -0.002394 0.000000
# 3 -0.003340 -0.001122 0.008331 0.000000 0.006418 0.000000
# 4 0.000000 0.000000 0.000000 0.054214 0.000000 -0.125635
# 5 0.004222 -0.002394 0.006418 0.000000 0.038452 0.000000
# 6 0.000000 0.000000 0.000000 -0.125635 0.000000 0.514162
#
#
# Mechanical properties :
#
#
# Convention : Reuss Voigt Hill
#
# Bulk Modulus (GPa) = 20.11469 32.37659 26.24564
# Shear Modulus (GPa) = 7.44220 34.10972 20.77596
#
# Velocity S-wave (km/s) = 1.81118 3.87749 3.02617
# Velocity P-wave (km/s) = 3.63869 5.85813 4.87636
#
# Compressibility (1/GPa) = 0.04971491
#
# Stress axis : x y z
#
# Youngs Moduli (GPa) = 35.23707 80.84595 120.03147
#
# Poissons Ratio (x) = -0.38642 0.40088
# Poissons Ratio (y) = -0.16842 0.13469
# Poissons Ratio (z) = 0.11769 0.09072
#
# Static dielectric constant tensor:
#      x y z
#    x 1.856370 0.000000 -0.078260 
#    y 0.000000 2.254200 0.000000 
#    z -0.078260 0.000000 1.777540 
# 
# From -- ./inp_files/8973.got.cif
#   From: 2010.05.17/outbox.cif.g08.bks.cpg/sg13_5_cif.got.tgz:8973.got - 2010.06.03 16:44:36.
