data_PCOD9233817
_publ_section_title
;
Structure prediction by ZEFSAII (Michael W. Deem and Ramdas Pophale) SiO2 
 PCOD9233817
Probable space group: P 2/C
;
_chemical_formula_sum "Si O2"
_cell_formula_units_Z 28
_cell_length_a 26.817106
_cell_length_b 8.433060
_cell_length_c 9.664044
_cell_angle_alpha 90.000000
_cell_angle_beta 38.359009
_cell_angle_gamma 90.000000
_cell_volume 1356.308967
_symmetry_space_group_name_H-M "P 2/C"
_symmetry_group_IT_number 13
_symmetry_cell_setting 'monoclinic'
loop_
_space_group_symop_operation_xyz
x,y,z
-x,y,1/2-z
-x,-y,-z
x,-y,1/2+z
loop_
_atom_site_type_symbol
_atom_site_label
_atom_site_fract_x
_atom_site_fract_y
_atom_site_fract_z
Si Si1 0.729858 0.311464 0.202822
Si Si2 0.762859 0.440333 0.413470
Si Si3 0.057296 0.522468 0.006828
Si Si4 0.170826 0.025659 0.568097
Si Si5 0.330269 0.863448 0.293979
Si Si6 0.592923 0.921526 0.082662
Si Si7 0.912484 0.157847 0.487667
O O1 0.739692 0.438100 0.303158
O O2 0.646084 0.219279 0.398188
O O3 0.747058 0.393107 0.020601
O O4 0.799235 0.181749 0.077651
O O5 0.857861 0.397184 0.216957
O O6 0.703599 0.313169 0.614145
O O7 0.084210 0.347897 0.002043
O O8 0.000000 0.596932 0.250000
O O9 0.000000 0.500000 0.000000
O O10 0.249584 0.967506 0.477788
O O11 0.145016 0.897737 0.511173
O O12 0.108556 0.077719 0.820461
O O13 0.387359 0.907933 0.298126
O O14 0.373245 0.916555 0.059322
O O15 0.500000 0.905139 0.250000
O O16 0.000000 0.103968 0.250000
#
# Coordination Sequence:
#
# PCOD9233817 Si02
#       7
#     4   4   4   4   4   4   4
#     4  10  23  40  64  93 123 171 206 262 319 378
#     4  11  22  41  62  90 125 164 221 256 312 384
#     4  11  25  42  61  90 126 173 218 269 330 366
#     4  11  22  44  59  91 125 163 220 265 315 386
#     4  10  23  38  69  93 121 172 212 255 320 383
#     4  10  21  43  65  99 133 162 208 264 319 390
#     4  11  24  40  62  89 121 170 214 272 328 368
#
# _framework density 20.644264
#
# number of rings (size 3 to 8) (size 9 to 14) (size 15 to 20)
#    0.000    1.429    1.429    4.286    6.000    2.286 
#    2.571    3.571    0.000    0.000    0.000    0.000 
#    0.000    0.000    0.000    0.000    0.000    0.000 
#
# Total GULP energy -156398.926027 kJ/mol
# GULP energy per Si atom -5585.675930 kJ/mol
# Density = 2.059728 g / cm^3
# Si number density = 20.644264 Si / 1000 Ang^3
#
#
#
# Elastic Constant Matrix: (Units=GPa)
#
#
# Indices 1 2 3 4 5 6 
#
# 1 103.4810 28.7156 24.3560 0.0000 -13.3537 0.0000
# 2 28.7156 46.5716 8.4860 0.0000 1.1869 0.0000
# 3 24.3560 8.4860 76.4723 0.0000 -15.4634 0.0000
# 4 0.0000 0.0000 0.0000 8.8191 0.0000 7.5192
# 5 -13.3537 1.1869 -15.4634 0.0000 24.7506 0.0000
# 6 0.0000 0.0000 0.0000 7.5192 0.0000 22.8107
#
#
#
# Elastic Compliance Matrix: (Units=1/GPa)
#
#
# Indices 1 2 3 4 5 6 
#
# 1 0.013132 -0.007879 -0.002059 0.000000 0.006176 0.000000
# 2 -0.007879 0.026832 -0.001817 0.000000 -0.006673 0.000000
# 3 -0.002059 -0.001817 0.015712 0.000000 0.008793 0.000000
# 4 0.000000 0.000000 0.000000 0.157715 0.000000 -0.051988
# 5 0.006176 -0.006673 0.008793 0.000000 0.049549 0.000000
# 6 0.000000 0.000000 0.000000 -0.051988 0.000000 0.060976
#
#
# Mechanical properties :
#
#
# Convention : Reuss Voigt Hill
#
# Bulk Modulus (GPa) = 31.09043 38.84890 34.96967
# Shear Modulus (GPa) = 13.96070 22.27391 18.11731
#
# Velocity S-wave (km/s) = 2.60330 3.28829 2.96564
# Velocity P-wave (km/s) = 4.91213 5.76855 5.35748
#
# Compressibility (1/GPa) = 0.03216423
#
# Stress axis : x y z
#
# Youngs Moduli (GPa) = 76.15159 37.26939 63.64538
#
# Poissons Ratio (x) = 0.29365 0.13106
# Poissons Ratio (y) = 0.60000 0.11567
# Poissons Ratio (z) = 0.15681 0.06773
#
# Static dielectric constant tensor:
#      x y z
#    x 1.717140 0.000000 0.012000 
#    y 0.000000 1.780460 0.000000 
#    z 0.012000 0.000000 1.751590 
# 
# From -- ./inp_files/24509.got.cif
#   From: 2010.05.17/outbox.cif.g08.bks.cpg/sg13_13_cif.got.tgz:24509.got - 2010.06.03 16:44:36.
