data_PCOD9233922
_publ_section_title
;
Structure prediction by ZEFSAII (Michael W. Deem and Ramdas Pophale) SiO2 
 PCOD9233922
Probable space group: P 2/C
;
_chemical_formula_sum "Si O2"
_cell_formula_units_Z 30
_cell_length_a 30.630531
_cell_length_b 6.788446
_cell_length_c 12.293483
_cell_angle_alpha 90.000000
_cell_angle_beta 29.619268
_cell_angle_gamma 90.000000
_cell_volume 1263.376135
_symmetry_space_group_name_H-M "P 2/C"
_symmetry_group_IT_number 13
_symmetry_cell_setting 'monoclinic'
loop_
_space_group_symop_operation_xyz
x,y,z
-x,y,1/2-z
-x,-y,-z
x,-y,1/2+z
loop_
_atom_site_type_symbol
_atom_site_label
_atom_site_fract_x
_atom_site_fract_y
_atom_site_fract_z
Si Si1 0.399713 0.634012 0.458303
Si Si2 0.740361 0.730491 0.027891
Si Si3 0.856441 0.022274 0.628892
Si Si4 0.222536 0.616838 0.316692
Si Si5 0.000000 0.000000 0.500000
Si Si6 0.130713 0.759973 0.105724
Si Si7 0.703671 0.718550 0.601422
Si Si8 0.405482 0.051500 0.750680
O O1 0.500000 0.553920 0.250000
O O2 0.320354 0.483963 0.597363
O O3 0.369270 0.701644 0.643680
O O4 0.402226 0.818150 0.367843
O O5 0.776274 0.735113 0.071478
O O6 0.642357 0.815119 0.236241
O O7 0.795802 0.861826 0.824233
O O8 0.732046 0.503735 0.012006
O O9 0.870547 0.929877 0.480702
O O10 0.943576 0.035115 0.510988
O O11 0.812700 0.235306 0.698920
O O12 0.154890 0.439401 0.490399
O O13 0.960238 0.213234 0.634270
O O14 0.210845 0.799995 0.017733
O O15 0.653576 0.853638 0.622007
O O16 0.500000 0.000000 0.500000
#
# Coordination Sequence:
#
# PCOD9233922 Si02
#       8
#     4   4   4   4   2   4   4   4
#     4  10  21  44  71 106 148 198 259 317 370 443
#     4  10  24  45  70 102 142 196 244 302 373 444
#     4  12  24  49  76 107 144 198 244 303 385 444
#     4  10  25  49  76 101 148 205 249 306 383 454
#     4  12  26  44  76 112 148 182 242 318 370 456
#     4  10  24  46  75 106 149 193 245 302 370 454
#     4  10  23  47  70 101 151 197 251 303 376 446
#     4  12  23  38  70 101 141 191 250 311 365 430
#
# _framework density 23.745896999999999
#
# number of rings (size 3 to 8) (size 9 to 14) (size 15 to 20)
#    0.000    1.600    1.333    4.400    0.000    6.933 
#    4.800   17.333    0.000    0.000    0.000    0.000 
#    0.000    0.000    0.000    0.000    0.000    0.000 
#
# Total GULP energy -167088.875181 kJ/mol
# GULP energy per Si atom -5569.629173 kJ/mol
# Density = 2.369185 g / cm^3
# Si number density = 23.745897 Si / 1000 Ang^3
#
#
#
# Elastic Constant Matrix: (Units=GPa)
#
#
# Indices 1 2 3 4 5 6 
#
# 1 126.2234 74.3273 26.2498 0.0000 -14.2287 0.0000
# 2 74.3273 168.0337 58.8991 0.0000 -7.0149 0.0000
# 3 26.2498 58.8991 81.3549 0.0000 -8.6747 0.0000
# 4 0.0000 0.0000 0.0000 29.0557 0.0000 20.8815
# 5 -14.2287 -7.0149 -8.6747 0.0000 24.0166 0.0000
# 6 0.0000 0.0000 0.0000 20.8815 0.0000 49.6308
#
#
#
# Elastic Compliance Matrix: (Units=1/GPa)
#
#
# Indices 1 2 3 4 5 6 
#
# 1 0.011363 -0.004981 0.000523 0.000000 0.005466 0.000000
# 2 -0.004981 0.010160 -0.005977 0.000000 -0.002142 0.000000
# 3 0.000523 -0.005977 0.016950 0.000000 0.004686 0.000000
# 4 0.000000 0.000000 0.000000 0.049334 0.000000 -0.020757
# 5 0.005466 -0.002142 0.004686 0.000000 0.045943 0.000000
# 6 0.000000 0.000000 0.000000 -0.020757 0.000000 0.028882
#
#
# Mechanical properties :
#
#
# Convention : Reuss Voigt Hill
#
# Bulk Modulus (GPa) = 56.81047 77.17383 66.99215
# Shear Modulus (GPa) = 26.40324 34.94968 30.67646
#
# Velocity S-wave (km/s) = 3.33815 3.84059 3.59815
# Velocity P-wave (km/s) = 6.23168 7.22754 6.74801
#
# Compressibility (1/GPa) = 0.01760239
#
# Stress axis : x y z
#
# Youngs Moduli (GPa) = 88.00303 98.42272 58.99715
#
# Poissons Ratio (x) = 0.49029 -0.03085
# Poissons Ratio (y) = 0.43838 0.35262
# Poissons Ratio (z) = -0.04601 0.58827
#
# Static dielectric constant tensor:
#      x y z
#    x 1.909000 0.000000 0.057880 
#    y 0.000000 1.939020 0.000000 
#    z 0.057880 0.000000 2.018470 
# 
# From -- ./inp_files/42693.got.cif
#   From: 2010.05.17/outbox.cif.g08.bks.cpg/sg13_22_cif.got.tgz:42693.got - 2010.06.03 16:44:36.
