data_PCOD9233934
_publ_section_title
;
Structure prediction by ZEFSAII (Michael W. Deem and Ramdas Pophale) SiO2 
 PCOD9233934
Probable space group: P 2/C
;
_chemical_formula_sum "Si O2"
_cell_formula_units_Z 30
_cell_length_a 13.483100
_cell_length_b 6.630126
_cell_length_c 14.943679
_cell_angle_alpha 90.000000
_cell_angle_beta 66.168953
_cell_angle_gamma 90.000000
_cell_volume 1221.988582
_symmetry_space_group_name_H-M "P 2/C"
_symmetry_group_IT_number 13
_symmetry_cell_setting 'monoclinic'
loop_
_space_group_symop_operation_xyz
x,y,z
-x,y,1/2-z
-x,-y,-z
x,-y,1/2+z
loop_
_atom_site_type_symbol
_atom_site_label
_atom_site_fract_x
_atom_site_fract_y
_atom_site_fract_z
Si Si1 0.338570 0.243052 0.200378
Si Si2 0.402022 0.133557 0.984907
Si Si3 0.199783 0.596498 0.212284
Si Si4 0.000000 0.133332 0.750000
Si Si5 0.220803 0.454206 0.004607
Si Si6 0.701935 0.846539 0.596944
Si Si7 0.427536 0.331159 0.689271
Si Si8 0.915411 0.080092 0.458274
O O1 0.222397 0.361863 0.231288
O O2 0.337514 0.112438 0.289107
O O3 0.367012 0.129355 0.099995
O O4 0.424349 0.425371 0.180481
O O5 0.298291 0.707460 0.227595
O O6 0.316748 0.294254 0.976533
O O7 0.485565 0.765790 0.082812
O O8 0.387800 0.922210 0.939734
O O9 0.089264 0.718897 0.263356
O O10 0.214927 0.579552 0.099298
O O11 0.948393 0.995553 0.847067
O O12 0.113151 0.319461 0.029703
O O13 0.260503 0.614794 0.918148
O O14 0.806778 0.967628 0.528180
O O15 0.500000 0.279936 0.750000
O O16 0.000000 0.000000 0.500000
#
# Coordination Sequence:
#
# PCOD9233934 Si02
#       8
#     4   4   4   2   4   4   4   4
#     4   9  22  42  75 112 154 205 252 319 394 467
#     4  10  22  44  76 108 152 200 254 312 384 485
#     4   9  23  42  79 105 148 206 256 325 392 465
#     4  12  24  50  74 110 150 200 278 320 398 462
#     4  10  22  46  70 105 153 196 250 318 398 466
#     4  11  23  46  73 112 153 197 254 323 395 471
#     4  10  21  44  76 113 156 203 258 322 394 476
#     4  11  28  43  74 112 147 203 267 328 390 472
#
# _framework density 24.550149000000001
#
# number of rings (size 3 to 8) (size 9 to 14) (size 15 to 20)
#    0.800    1.067    1.333    1.200    1.867    6.400 
#    2.400    2.667    5.867    0.000    0.000    0.000 
#    0.000    0.000    0.000    0.000    0.000    0.000 
#
# Total GULP energy -167626.791709 kJ/mol
# GULP energy per Si atom -5587.559724 kJ/mol
# Density = 2.449427 g / cm^3
# Si number density = 24.550149 Si / 1000 Ang^3
#
#
#
# Elastic Constant Matrix: (Units=GPa)
#
#
# Indices 1 2 3 4 5 6 
#
# 1 105.1721 43.7811 32.9380 0.0000 1.0520 0.0000
# 2 43.7811 119.0393 55.2956 0.0000 0.2032 0.0000
# 3 32.9380 55.2956 157.3753 0.0000 24.3740 0.0000
# 4 0.0000 0.0000 0.0000 -32.3783 0.0000 36.4104
# 5 1.0520 0.2032 24.3740 0.0000 34.0847 0.0000
# 6 0.0000 0.0000 0.0000 36.4104 0.0000 13.3725
#
#
#
# Elastic Compliance Matrix: (Units=1/GPa)
#
#
# Indices 1 2 3 4 5 6 
#
# 1 0.011389 -0.003639 -0.001185 0.000000 0.000518 0.000000
# 2 -0.003639 0.011440 -0.003671 0.000000 0.002669 0.000000
# 3 -0.001185 -0.003671 0.008865 0.000000 -0.006281 0.000000
# 4 0.000000 0.000000 0.000000 -0.007604 0.000000 0.020703
# 5 0.000518 0.002669 -0.006281 0.000000 0.033798 0.000000
# 6 0.000000 0.000000 0.000000 0.020703 0.000000 0.018410
#
#
# Mechanical properties :
#
#
# Convention : Reuss Voigt Hill
#
# Bulk Modulus (GPa) = 68.01474 71.73511 69.87493
# Shear Modulus (GPa) = 50.92111 19.65393 35.28752
#
# Velocity S-wave (km/s) = 4.55924 2.83249 3.79537
# Velocity P-wave (km/s) = 7.44850 6.32302 6.90872
#
# Compressibility (1/GPa) = 0.01470269
#
# Stress axis : x y z
#
# Youngs Moduli (GPa) = 87.80312 87.41402 112.80276
#
# Poissons Ratio (x) = 0.31811 0.13370
# Poissons Ratio (y) = 0.31952 0.41413
# Poissons Ratio (z) = 0.10407 0.32092
#
# Static dielectric constant tensor:
#      x y z
#    x 2.049770 0.000000 -0.011100 
#    y 0.000000 2.003870 0.000000 
#    z -0.011100 0.000000 1.982820 
# 
# From -- ./inp_files/67556.got.cif
#   From: 2010.05.17/outbox.cif.g08.bks.cpg/sg13_34_cif.got.tgz:67556.got - 2010.06.03 16:44:36.
