data_PCOD9233001
_publ_section_title
;
Structure prediction by ZEFSAII (Michael W. Deem and Ramdas Pophale) SiO2 
 PCOD9233001
Probable space group: P 2/C
;
_chemical_formula_sum "Si O2"
_cell_formula_units_Z 16
_cell_length_a 5.048228
_cell_length_b 19.671196
_cell_length_c 9.743785
_cell_angle_alpha 90.000000
_cell_angle_beta 122.485286
_cell_angle_gamma 90.000000
_cell_volume 816.201980
_symmetry_space_group_name_H-M "P 2/C"
_symmetry_group_IT_number 13
_symmetry_cell_setting 'monoclinic'
loop_
_space_group_symop_operation_xyz
x,y,z
-x,y,1/2-z
-x,-y,-z
x,-y,1/2+z
loop_
_atom_site_type_symbol
_atom_site_label
_atom_site_fract_x
_atom_site_fract_y
_atom_site_fract_z
Si Si1 0.861342 0.823631 0.366198
Si Si2 0.870148 0.939340 0.868930
Si Si3 0.698537 0.544272 0.942543
Si Si4 0.133324 0.670245 0.137900
O O1 0.500000 0.845374 0.250000
O O2 0.857880 0.745718 0.422910
O O3 0.000000 0.828044 0.250000
O O4 0.038473 0.871301 0.522600
O O5 0.500000 0.945633 0.750000
O O6 0.000000 0.940435 0.750000
O O7 0.000000 0.000000 0.000000
O O8 0.500000 0.549972 0.750000
O O9 0.500000 0.500000 0.000000
O O10 0.000000 0.500000 0.000000
O O11 0.869207 0.617007 0.014982
O O12 0.500000 0.644726 0.250000
O O13 0.000000 0.684039 0.250000
#
# Coordination Sequence:
#
# PCOD9233001 Si02
#       4
#     4   4   4   4
#     4  10  21  40  63  88 120 160 202 251 309 368
#     4  12  24  40  63  92 127 166 209 257 303 361
#     4  12  24  39  60  86 117 154 198 248 299 360
#     4  10  21  39  62  86 119 158 199 248 309 371
#
# _framework density 19.602989999999998
#
# number of rings (size 3 to 8) (size 9 to 14) (size 15 to 20)
#    0.000    1.000    0.000    8.250    0.000    1.000 
#    0.000    2.500    0.000    0.000    0.000    0.000 
#    0.000    0.000    0.000    0.000    0.000    0.000 
#
# Total GULP energy -89149.217000 kJ/mol
# GULP energy per Si atom -5571.826062 kJ/mol
# Density = 1.955837 g / cm^3
# Si number density = 19.602990 Si / 1000 Ang^3
#
#
#
# Elastic Constant Matrix: (Units=GPa)
#
#
# Indices 1 2 3 4 5 6 
#
# 1 187.5094 35.6638 77.2196 0.0000 15.1062 0.0000
# 2 35.6638 130.5333 104.0132 0.0000 16.7137 0.0000
# 3 77.2196 104.0132 166.7756 0.0000 18.4989 0.0000
# 4 0.0000 0.0000 0.0000 332.6286 0.0000 -20.0725
# 5 15.1062 16.7137 18.4989 0.0000 44.2934 0.0000
# 6 0.0000 0.0000 0.0000 -20.0725 0.0000 25.9458
#
#
#
# Elastic Compliance Matrix: (Units=1/GPa)
#
#
# Indices 1 2 3 4 5 6 
#
# 1 0.006756 0.001381 -0.003855 0.000000 -0.001215 0.000000
# 2 0.001381 0.015660 -0.010170 0.000000 -0.002133 0.000000
# 3 -0.003855 -0.010170 0.014210 0.000000 -0.000783 0.000000
# 4 0.000000 0.000000 0.000000 0.003154 0.000000 0.002440
# 5 -0.001215 -0.002133 -0.000783 0.000000 0.024123 0.000000
# 6 0.000000 0.000000 0.000000 0.002440 0.000000 0.040429
#
#
# Mechanical properties :
#
#
# Convention : Reuss Voigt Hill
#
# Bulk Modulus (GPa) = 88.18392 102.06795 95.12593
# Shear Modulus (GPa) = 37.48163 98.43500 67.95831
#
# Velocity S-wave (km/s) = 4.37743 7.09389 5.89428
# Velocity P-wave (km/s) = 8.40427 10.92146 9.74449
#
# Compressibility (1/GPa) = 0.01133994
#
# Stress axis : x y z
#
# Youngs Moduli (GPa) = 148.02360 63.85582 70.37107
#
# Poissons Ratio (x) = -0.08821 0.27126
# Poissons Ratio (y) = -0.20449 0.71567
# Poissons Ratio (z) = 0.57059 0.64941
#
# Static dielectric constant tensor:
#      x y z
#    x 1.654310 0.000000 -0.001580 
#    y 0.000000 1.809700 0.000000 
#    z -0.001580 0.000000 1.615770 
# 
# From -- ./inp_files/10135.got.cif
#   From: 2010.05.17/outbox.cif.g08.bks.cpg/sg13_6_cif.got.tgz:10135.got - 2010.06.03 16:44:36.
