data_PCOD9233933
_publ_section_title
;
Structure prediction by ZEFSAII (Michael W. Deem and Ramdas Pophale) SiO2 
 PCOD9233933
Probable space group: P 2/C
;
_chemical_formula_sum "Si O2"
_cell_formula_units_Z 16
_cell_length_a 22.816269
_cell_length_b 5.480821
_cell_length_c 22.613115
_cell_angle_alpha 90.000000
_cell_angle_beta 12.455891
_cell_angle_gamma 90.000000
_cell_volume 609.925124
_symmetry_space_group_name_H-M "P 2/C"
_symmetry_group_IT_number 13
_symmetry_cell_setting 'monoclinic'
loop_
_space_group_symop_operation_xyz
x,y,z
-x,y,1/2-z
-x,-y,-z
x,-y,1/2+z
loop_
_atom_site_type_symbol
_atom_site_label
_atom_site_fract_x
_atom_site_fract_y
_atom_site_fract_z
Si Si1 0.118455 0.251024 0.268647
Si Si2 0.711094 0.076202 0.003261
Si Si3 0.667262 0.247299 0.322956
Si Si4 0.631462 0.576215 0.733188
O O1 0.192164 0.020858 0.156361
O O2 0.090712 0.231855 0.367013
O O3 0.868813 0.389373 0.485647
O O4 0.378506 0.420908 0.004611
O O5 0.000000 0.127464 0.750000
O O6 0.500000 0.908496 0.250000
O O7 0.487961 0.275436 0.203252
O O8 0.500000 0.500000 0.500000
O O9 0.734721 0.260327 0.186903
O O10 0.500000 0.000000 0.500000
#
# Coordination Sequence:
#
# PCOD9233933 Si02
#       4
#     4   4   4   4
#     4  11  24  45  71 106 147 196 248 320 392 467
#     4  12  26  45  70 103 144 200 264 322 386 466
#     4  10  21  44  74 115 155 195 250 318 396 476
#     4  11  24  45  71 106 147 196 248 320 392 467
#
# _framework density 26.232727000000001
#
# number of rings (size 3 to 8) (size 9 to 14) (size 15 to 20)
#    0.000    1.000    2.500    3.750    0.000    4.000 
#    0.000    5.000    0.000    0.000    0.000    0.000 
#    0.000    0.000    0.000    0.000    0.000    0.000 
#
# Total GULP energy -89460.635977 kJ/mol
# GULP energy per Si atom -5591.289749 kJ/mol
# Density = 2.617302 g / cm^3
# Si number density = 26.232727 Si / 1000 Ang^3
#
#
#
# Elastic Constant Matrix: (Units=GPa)
#
#
# Indices 1 2 3 4 5 6 
#
# 1 194.6960 23.8742 44.4316 0.0000 -33.8740 0.0000
# 2 23.8742 81.8627 29.6687 0.0000 -19.8849 0.0000
# 3 44.4316 29.6687 171.8592 0.0000 -20.5917 0.0000
# 4 0.0000 0.0000 0.0000 30.5728 0.0000 -10.9233
# 5 -33.8740 -19.8849 -20.5917 0.0000 50.6964 0.0000
# 6 0.0000 0.0000 0.0000 -10.9233 0.0000 35.6274
#
#
#
# Elastic Compliance Matrix: (Units=1/GPa)
#
#
# Indices 1 2 3 4 5 6 
#
# 1 0.006035 -0.000554 -0.001059 0.000000 0.003385 0.000000
# 2 -0.000554 0.014093 -0.001757 0.000000 0.004444 0.000000
# 3 -0.001059 -0.001757 0.006547 0.000000 0.001262 0.000000
# 4 0.000000 0.000000 0.000000 0.036733 0.000000 0.011262
# 5 0.003385 0.004444 0.001262 0.000000 0.024243 0.000000
# 6 0.000000 0.000000 0.000000 0.011262 0.000000 0.031521
#
#
# Mechanical properties :
#
#
# Convention : Reuss Voigt Hill
#
# Bulk Modulus (GPa) = 50.16351 71.59630 60.87991
# Shear Modulus (GPa) = 37.71951 46.74224 42.23087
#
# Velocity S-wave (km/s) = 3.79605 4.22575 4.01665
# Velocity P-wave (km/s) = 6.19495 7.15271 6.69099
#
# Compressibility (1/GPa) = 0.01993481
#
# Stress axis : x y z
#
# Youngs Moduli (GPa) = 165.70792 70.95471 152.73861
#
# Poissons Ratio (x) = 0.03931 0.16175
# Poissons Ratio (y) = 0.09179 0.26841
# Poissons Ratio (z) = 0.17548 0.12469
#
# Static dielectric constant tensor:
#      x y z
#    x 2.373610 0.000000 0.138110 
#    y 0.000000 2.145780 0.000000 
#    z 0.138110 0.000000 2.011640 
# 
# From -- ./inp_files/89857.got.cif
#   From: 2010.05.17/outbox.cif.g08.bks.cpg/sg13_45_cif.got.tgz:89857.got - 2010.06.03 16:44:36.
