data_PCOD9233412
_publ_section_title
;
Structure prediction by ZEFSAII (Michael W. Deem and Ramdas Pophale) SiO2 
 PCOD9233412
Probable space group: P 2/C
;
_chemical_formula_sum "Si O2"
_cell_formula_units_Z 28
_cell_length_a 14.705679
_cell_length_b 16.860576
_cell_length_c 5.319594
_cell_angle_alpha 90.000000
_cell_angle_beta 109.417433
_cell_angle_gamma 90.000000
_cell_volume 1243.952063
_symmetry_space_group_name_H-M "P 2/C"
_symmetry_group_IT_number 13
_symmetry_cell_setting 'monoclinic'
loop_
_space_group_symop_operation_xyz
x,y,z
-x,y,1/2-z
-x,-y,-z
x,-y,1/2+z
loop_
_atom_site_type_symbol
_atom_site_label
_atom_site_fract_x
_atom_site_fract_y
_atom_site_fract_z
Si Si1 0.255003 0.307508 0.326378
Si Si2 0.858016 0.050355 0.242911
Si Si3 0.903143 0.791382 0.011365
Si Si4 0.627409 0.950460 0.554979
Si Si5 0.278793 0.214068 0.859246
Si Si6 0.517700 0.804656 0.019010
Si Si7 0.614208 0.451133 0.859526
O O1 0.267747 0.250105 0.575605
O O2 0.308812 0.385311 0.475533
O O3 0.142051 0.289069 0.151873
O O4 0.299267 0.277321 0.102315
O O5 0.908062 0.135389 0.325336
O O6 0.742111 0.066680 0.149320
O O7 0.880655 0.005814 0.003484
O O8 0.820635 0.821508 0.134494
O O9 0.000000 0.776667 0.250000
O O10 0.560697 0.873331 0.521518
O O11 0.606831 0.001916 0.782701
O O12 0.374399 0.162598 0.917595
O O13 0.500000 0.753971 0.250000
O O14 0.500000 0.757936 0.750000
O O15 0.500000 0.429040 0.750000
O O16 0.629733 0.480955 0.587674
#
# Coordination Sequence:
#
# PCOD9233412 Si02
#       7
#     4   4   4   4   4   4   4
#     4  10  23  43  68  98 139 176 220 273 329 385
#     4  10  23  41  63  88 124 164 224 292 351 411
#     4  10  25  46  72  95 126 173 231 295 356 399
#     4  10  22  39  56  79 114 162 206 257 336 413
#     4  10  24  41  61  94 132 171 219 275 329 389
#     4  12  24  36  57  82 122 163 206 258 317 397
#     4  10  21  40  70 106 147 188 221 252 308 391
#
# _framework density 22.508906
#
# number of rings (size 3 to 8) (size 9 to 14) (size 15 to 20)
#    0.857    0.857    0.000    3.429    4.000    5.714 
#    0.000    1.429    0.000    0.857    0.000    0.000 
#    0.000    0.000    0.000    0.000    0.000    0.000 
#
# Total GULP energy -156255.610333 kJ/mol
# GULP energy per Si atom -5580.557512 kJ/mol
# Density = 2.245767 g / cm^3
# Si number density = 22.508906 Si / 1000 Ang^3
#
#
#
# Elastic Constant Matrix: (Units=GPa)
#
#
# Indices 1 2 3 4 5 6 
#
# 1 101.3992 19.5387 42.4709 0.0000 14.3210 0.0000
# 2 19.5387 73.0762 38.8526 0.0000 20.4843 0.0000
# 3 42.4709 38.8526 172.2344 0.0000 3.1389 0.0000
# 4 0.0000 0.0000 0.0000 41.0458 0.0000 6.7036
# 5 14.3210 20.4843 3.1389 0.0000 22.7590 0.0000
# 6 0.0000 0.0000 0.0000 6.7036 0.0000 13.8553
#
#
#
# Elastic Compliance Matrix: (Units=1/GPa)
#
#
# Indices 1 2 3 4 5 6 
#
# 1 0.012082 0.000473 -0.002947 0.000000 -0.007622 0.000000
# 2 0.000473 0.021257 -0.004569 0.000000 -0.018800 0.000000
# 3 -0.002947 -0.004569 0.007473 0.000000 0.004936 0.000000
# 4 0.000000 0.000000 0.000000 0.026453 0.000000 -0.012799
# 5 -0.007622 -0.018800 0.004936 0.000000 0.064974 0.000000
# 6 0.000000 0.000000 0.000000 -0.012799 0.000000 0.078367
#
#
# Mechanical properties :
#
#
# Convention : Reuss Voigt Hill
#
# Bulk Modulus (GPa) = 37.41706 60.93713 49.17710
# Shear Modulus (GPa) = 21.40392 31.92188 26.66290
#
# Velocity S-wave (km/s) = 3.08703 3.76997 3.44546
# Velocity P-wave (km/s) = 5.41901 6.78833 6.14195
#
# Compressibility (1/GPa) = 0.02672577
#
# Stress axis : x y z
#
# Youngs Moduli (GPa) = 82.77033 47.04320 133.80660
#
# Poissons Ratio (x) = -0.02225 0.39432
# Poissons Ratio (y) = -0.03914 0.61138
# Poissons Ratio (z) = 0.24392 0.21495
#
# Static dielectric constant tensor:
#      x y z
#    x 1.877300 0.000000 0.003790 
#    y 0.000000 1.827740 0.000000 
#    z 0.003790 0.000000 2.031140 
# 
# From -- ./inp_files/5254.got.cif
#   From: 2010.05.17/outbox.cif.g08.bks.cpg/sg13_3_cif.got.tgz:5254.got - 2010.06.03 16:44:36.
