data_PCOD9233448
_publ_section_title
;
Structure prediction by ZEFSAII (Michael W. Deem and Ramdas Pophale) SiO2 
 PCOD9233448
Probable space group: P 2/C
;
_chemical_formula_sum "Si O2"
_cell_formula_units_Z 26
_cell_length_a 10.809793
_cell_length_b 15.473284
_cell_length_c 9.804086
_cell_angle_alpha 90.000000
_cell_angle_beta 52.338509
_cell_angle_gamma 90.000000
_cell_volume 1298.170173
_symmetry_space_group_name_H-M "P 2/C"
_symmetry_group_IT_number 13
_symmetry_cell_setting 'monoclinic'
loop_
_space_group_symop_operation_xyz
x,y,z
-x,y,1/2-z
-x,-y,-z
x,-y,1/2+z
loop_
_atom_site_type_symbol
_atom_site_label
_atom_site_fract_x
_atom_site_fract_y
_atom_site_fract_z
Si Si1 0.806339 0.717677 0.300369
Si Si2 0.500000 0.488446 0.250000
Si Si3 0.700419 0.538965 0.367281
Si Si4 0.858398 0.765900 0.547891
Si Si5 0.979490 0.916239 0.921459
Si Si6 0.817071 0.655541 0.829912
Si Si7 0.324777 0.794161 0.364059
O O1 0.824912 0.614603 0.291721
O O2 0.763776 0.762280 0.471755
O O3 0.679500 0.742297 0.274941
O O4 0.968302 0.750314 0.128635
O O5 0.620944 0.538966 0.269827
O O6 0.413492 0.437250 0.429240
O O7 0.757885 0.442917 0.365930
O O8 0.807463 0.690743 0.682983
O O9 0.883917 0.850455 0.621765
O O10 0.000000 0.938576 0.750000
O O11 0.812027 0.866722 0.045244
O O12 0.000000 0.000000 0.000000
O O13 0.000000 0.658881 0.750000
O O14 0.723321 0.722261 0.989903
O O15 0.500000 0.830229 0.250000
#
# Coordination Sequence:
#
# PCOD9233448 Si02
#       7
#     4   2   4   4   4   4   4
#     4  10  22  37  61  90 131 173 226 269 316 381
#     4  10  24  40  50  82 128 168 234 274 340 368
#     4  11  24  37  58  86 127 185 229 273 326 378
#     4  10  21  41  61  95 127 161 218 271 328 381
#     4  11  23  45  77  99 127 169 208 261 332 407
#     4  12  22  40  65  88 132 177 229 276 327 378
#     4  11  24  44  68  98 135 176 211 270 332 390
#
# _framework density 20.028191
#
# number of rings (size 3 to 8) (size 9 to 14) (size 15 to 20)
#    0.000    1.231    4.615    1.846   12.923    0.615 
#    0.000    0.769    0.000    0.000    0.000    0.000 
#    0.000    0.000    0.000    0.000    0.000    0.000 
#
# Total GULP energy -144881.720880 kJ/mol
# GULP energy per Si atom -5572.373880 kJ/mol
# Density = 1.998261 g / cm^3
# Si number density = 20.028191 Si / 1000 Ang^3
#
#
#
# Elastic Constant Matrix: (Units=GPa)
#
#
# Indices 1 2 3 4 5 6 
#
# 1 69.1137 22.9621 48.5077 0.0000 12.2178 0.0000
# 2 22.9621 98.6412 30.8361 0.0000 9.1758 0.0000
# 3 48.5077 30.8361 112.8515 0.0000 43.8045 0.0000
# 4 0.0000 0.0000 0.0000 19.2309 0.0000 14.0037
# 5 12.2178 9.1758 43.8045 0.0000 38.1203 0.0000
# 6 0.0000 0.0000 0.0000 14.0037 0.0000 4.7425
#
#
#
# Elastic Compliance Matrix: (Units=1/GPa)
#
#
# Indices 1 2 3 4 5 6 
#
# 1 0.022063 -0.002169 -0.011460 0.000000 0.006620 0.000000
# 2 -0.002169 0.011343 -0.002486 0.000000 0.000822 0.000000
# 3 -0.011460 -0.002486 0.023122 0.000000 -0.022298 0.000000
# 4 0.000000 0.000000 0.000000 -0.045210 0.000000 0.133496
# 5 0.006620 0.000822 -0.022298 0.000000 0.049536 0.000000
# 6 0.000000 0.000000 0.000000 0.133496 0.000000 -0.183327
#
#
# Mechanical properties :
#
#
# Convention : Reuss Voigt Hill
#
# Bulk Modulus (GPa) = 41.15739 53.91312 47.53525
# Shear Modulus (GPa) = -60.86896 24.30547 -18.28174
#
# Velocity S-wave (km/s) = -5.51884 3.48740 -3.02454
# Velocity P-wave (km/s) = 4.47390 6.57214 3.40420
#
# Compressibility (1/GPa) = 0.02429698
#
# Stress axis : x y z
#
# Youngs Moduli (GPa) = 45.32530 88.15682 43.24942
#
# Poissons Ratio (x) = 0.19122 0.49565
# Poissons Ratio (y) = 0.09831 0.10752
# Poissons Ratio (z) = 0.51944 0.21916
#
# Static dielectric constant tensor:
#      x y z
#    x 3.358000 0.000000 -0.080940 
#    y 0.000000 1.717140 0.000000 
#    z -0.080940 0.000000 1.726040 
# 
# From -- ./inp_files/16410.got.cif
#   From: 2010.05.17/outbox.cif.g08.bks.cpg/sg13_9_cif.got.tgz:16410.got - 2010.06.03 16:44:36.
