data_PCOD9233718
_publ_section_title
;
Structure prediction by ZEFSAII (Michael W. Deem and Ramdas Pophale) SiO2 
 PCOD9233718
Probable space group: P 2/C
;
_chemical_formula_sum "Si O2"
_cell_formula_units_Z 28
_cell_length_a 18.715463
_cell_length_b 5.204999
_cell_length_c 10.561715
_cell_angle_alpha 90.000000
_cell_angle_beta 80.542747
_cell_angle_gamma 90.000000
_cell_volume 1014.874781
_symmetry_space_group_name_H-M "P 2/C"
_symmetry_group_IT_number 13
_symmetry_cell_setting 'monoclinic'
loop_
_space_group_symop_operation_xyz
x,y,z
-x,y,1/2-z
-x,-y,-z
x,-y,1/2+z
loop_
_atom_site_type_symbol
_atom_site_label
_atom_site_fract_x
_atom_site_fract_y
_atom_site_fract_z
Si Si1 0.933475 0.013882 0.923368
Si Si2 0.700363 0.968171 0.843058
Si Si3 0.456171 0.384640 0.894882
Si Si4 0.581575 0.114208 0.174305
Si Si5 0.184977 0.207806 0.867404
Si Si6 0.266047 0.528734 0.028860
Si Si7 0.105937 0.488748 0.199056
O O1 0.858020 0.970171 0.021713
O O2 0.927235 0.787805 0.820047
O O3 0.937856 0.289816 0.858472
O O4 0.000000 0.000000 0.000000
O O5 0.774824 0.019752 0.743096
O O6 0.707223 0.183537 0.950483
O O7 0.634557 0.997926 0.764129
O O8 0.692858 0.682238 0.898638
O O9 0.500000 0.345651 0.750000
O O10 0.397336 0.601433 0.878111
O O11 0.427392 0.100684 0.930599
O O12 0.500000 0.500000 0.000000
O O13 0.500000 0.158449 0.250000
O O14 0.123818 0.403093 0.832456
O O15 0.248707 0.393148 0.900489
O O16 0.185102 0.507733 0.112287
#
# Coordination Sequence:
#
# PCOD9233718 Si02
#       7
#     4   4   4   4   4   4   4
#     4  11  24  42  65  98 131 166 212 262 320 383
#     4  11  23  42  64  94 126 167 223 261 326 391
#     4  10  21  42  68  92 132 175 216 272 338 407
#     4  10  22  43  65  94 130 169 214 276 335 400
#     4  10  22  42  65  93 127 172 212 263 326 373
#     4  10  22  40  64  92 126 167 214 271 313 384
#     4  10  22  41  66  90 133 168 213 262 312 388
#
# _framework density 27.589608999999999
#
# number of rings (size 3 to 8) (size 9 to 14) (size 15 to 20)
#    0.000    1.714    0.000    5.143    0.000   10.857 
#   15.429    2.857    0.000    0.000    0.000    0.000 
#    0.000    0.000    0.000    0.000    0.000    0.000 
#
# Total GULP energy -156899.569127 kJ/mol
# GULP energy per Si atom -5603.556040 kJ/mol
# Density = 2.752681 g / cm^3
# Si number density = 27.589609 Si / 1000 Ang^3
#
#
#
# Elastic Constant Matrix: (Units=GPa)
#
#
# Indices 1 2 3 4 5 6 
#
# 1 100.8466 5.7683 16.2285 0.0000 9.8541 0.0000
# 2 5.7683 144.5265 10.7229 0.0000 13.8438 0.0000
# 3 16.2285 10.7229 90.2589 0.0000 23.3258 0.0000
# 4 0.0000 0.0000 0.0000 50.2855 0.0000 16.6459
# 5 9.8541 13.8438 23.3258 0.0000 68.4027 0.0000
# 6 0.0000 0.0000 0.0000 16.6459 0.0000 -24.7035
#
#
#
# Elastic Compliance Matrix: (Units=1/GPa)
#
#
# Indices 1 2 3 4 5 6 
#
# 1 0.010271 -0.000206 -0.001591 0.000000 -0.000895 0.000000
# 2 -0.000206 0.007082 -0.000484 0.000000 -0.001238 0.000000
# 3 -0.001591 -0.000484 0.012434 0.000000 -0.003913 0.000000
# 4 0.000000 0.000000 0.000000 0.016260 0.000000 0.010956
# 5 -0.000895 -0.001238 -0.003913 0.000000 0.016333 0.000000
# 6 0.000000 0.000000 0.000000 0.010956 0.000000 -0.033097
#
#
# Mechanical properties :
#
#
# Convention : Reuss Voigt Hill
#
# Bulk Modulus (GPa) = 39.64345 44.56346 42.10345
# Shear Modulus (GPa) = 118.33329 38.99108 78.66218
#
# Velocity S-wave (km/s) = 6.55619 3.76340 5.34541
# Velocity P-wave (km/s) = 8.46828 5.92213 7.30696
#
# Compressibility (1/GPa) = 0.02522485
#
# Stress axis : x y z
#
# Youngs Moduli (GPa) = 97.35816 141.20443 80.42446
#
# Poissons Ratio (x) = 0.02911 0.12795
# Poissons Ratio (y) = 0.02007 0.03894
# Poissons Ratio (z) = 0.15488 0.06837
#
# Static dielectric constant tensor:
#      x y z
#    x 2.598620 0.000000 -0.244930 
#    y 0.000000 2.183610 0.000000 
#    z -0.244930 0.000000 2.342250 
# 
# From -- ./inp_files/40160.got.cif
#   From: 2010.05.17/outbox.cif.g08.bks.cpg/sg13_21_cif.got.tgz:40160.got - 2010.06.03 16:44:36.
