data_PCOD9233687
_publ_section_title
;
Structure prediction by ZEFSAII (Michael W. Deem and Ramdas Pophale) SiO2 
 PCOD9233687
Probable space group: P 2/C
;
_chemical_formula_sum "Si O2"
_cell_formula_units_Z 18
_cell_length_a 11.663717
_cell_length_b 8.406950
_cell_length_c 18.372899
_cell_angle_alpha 90.000000
_cell_angle_beta 154.309736
_cell_angle_gamma 90.000000
_cell_volume 780.994906
_symmetry_space_group_name_H-M "P 2/C"
_symmetry_group_IT_number 13
_symmetry_cell_setting 'monoclinic'
loop_
_space_group_symop_operation_xyz
x,y,z
-x,y,1/2-z
-x,-y,-z
x,-y,1/2+z
loop_
_atom_site_type_symbol
_atom_site_label
_atom_site_fract_x
_atom_site_fract_y
_atom_site_fract_z
Si Si1 0.500000 0.490268 0.750000
Si Si2 0.426729 0.103585 0.088261
Si Si3 0.721591 0.633843 0.117066
Si Si4 0.588333 0.761721 0.191855
Si Si5 0.132700 0.781548 0.564326
O O1 0.562422 0.383790 0.856396
O O2 0.253315 0.603654 0.628195
O O3 0.726363 0.143893 0.284979
O O4 0.252036 0.138923 0.059700
O O5 0.421495 0.914888 0.073432
O O6 0.350906 0.222889 0.980145
O O7 0.744760 0.706075 0.210482
O O8 0.000000 0.565025 0.250000
O O9 0.500000 0.500000 0.000000
O O10 0.819254 0.798066 0.382804
#
# Coordination Sequence:
#
# PCOD9233687 Si02
#       5
#     2   4   4   4   4
#     4  10  22  38  66 104 130 176 232 270 354 396
#     4  10  22  43  64 101 135 177 229 282 349 403
#     4  12  26  49  71 101 141 183 232 286 350 421
#     4  12  23  41  71  96 138 181 228 288 345 410
#     4  10  21  42  66  95 141 170 229 287 332 421
#
# _framework density 23.047526000000001
#
# number of rings (size 3 to 8) (size 9 to 14) (size 15 to 20)
#    0.000    1.333    2.222    6.000    0.000    0.000 
#    4.000    0.000    0.000    0.000    0.000    0.000 
#    0.000    0.000    0.000    0.000    0.000    0.000 
#
# Total GULP energy -100631.777786 kJ/mol
# GULP energy per Si atom -5590.654321 kJ/mol
# Density = 2.299507 g / cm^3
# Si number density = 23.047526 Si / 1000 Ang^3
#
#
#
# Elastic Constant Matrix: (Units=GPa)
#
#
# Indices 1 2 3 4 5 6 
#
# 1 87.6506 38.4439 -1.5817 0.0000 -7.4573 0.0000
# 2 38.4439 136.9052 17.0277 0.0000 17.5807 0.0000
# 3 -1.5817 17.0277 54.3253 0.0000 3.1810 0.0000
# 4 0.0000 0.0000 0.0000 24.6388 0.0000 -1.4523
# 5 -7.4573 17.5807 3.1810 0.0000 28.0441 0.0000
# 6 0.0000 0.0000 0.0000 -1.4523 0.0000 19.3746
#
#
#
# Elastic Compliance Matrix: (Units=1/GPa)
#
#
# Indices 1 2 3 4 5 6 
#
# 1 0.014238 -0.005069 0.001606 0.000000 0.006781 0.000000
# 2 -0.005069 0.010022 -0.002861 0.000000 -0.007306 0.000000
# 3 0.001606 -0.002861 0.019350 0.000000 0.000026 0.000000
# 4 0.000000 0.000000 0.000000 0.040767 0.000000 0.003056
# 5 0.006781 -0.007306 0.000026 0.000000 0.042038 0.000000
# 6 0.000000 0.000000 0.000000 0.003056 0.000000 0.051843
#
#
# Mechanical properties :
#
#
# Convention : Reuss Voigt Hill
#
# Bulk Modulus (GPa) = 32.29736 42.96234 37.62985
# Shear Modulus (GPa) = 24.84779 29.41092 27.12936
#
# Velocity S-wave (km/s) = 3.28702 3.57613 3.43462
# Velocity P-wave (km/s) = 5.33384 5.97769 5.66492
#
# Compressibility (1/GPa) = 0.03096228
#
# Stress axis : x y z
#
# Youngs Moduli (GPa) = 70.23432 99.78361 51.68062
#
# Poissons Ratio (x) = 0.50578 -0.08301
# Poissons Ratio (y) = 0.35600 0.14786
# Poissons Ratio (z) = -0.11281 0.28548
#
# Static dielectric constant tensor:
#      x y z
#    x 1.815090 0.000000 0.015940 
#    y 0.000000 1.951780 0.000000 
#    z 0.015940 0.000000 1.943790 
# 
# From -- ./inp_files/66214.got.cif
#   From: 2010.05.17/outbox.cif.g08.bks.cpg/sg13_34_cif.got.tgz:66214.got - 2010.06.03 16:44:36.
