data_PCOD9233635
_publ_section_title
;
Structure prediction by ZEFSAII (Michael W. Deem and Ramdas Pophale) SiO2 
 PCOD9233635
Probable space group: P 2/C
;
_chemical_formula_sum "Si O2"
_cell_formula_units_Z 26
_cell_length_a 15.236156
_cell_length_b 17.542908
_cell_length_c 8.540541
_cell_angle_alpha 90.000000
_cell_angle_beta 33.249171
_cell_angle_gamma 90.000000
_cell_volume 1251.600353
_symmetry_space_group_name_H-M "P 2/C"
_symmetry_group_IT_number 13
_symmetry_cell_setting 'monoclinic'
loop_
_space_group_symop_operation_xyz
x,y,z
-x,y,1/2-z
-x,-y,-z
x,-y,1/2+z
loop_
_atom_site_type_symbol
_atom_site_label
_atom_site_fract_x
_atom_site_fract_y
_atom_site_fract_z
Si Si1 0.608624 0.226320 0.343415
Si Si2 0.713891 0.184558 0.521038
Si Si3 0.500000 0.347252 0.250000
Si Si4 0.837023 0.404774 0.694037
Si Si5 0.175414 0.909015 0.065327
Si Si6 0.000000 0.535223 0.250000
Si Si7 0.000000 0.726474 0.750000
Si Si8 0.684388 0.016412 0.431101
O O1 0.676523 0.234515 0.419378
O O2 0.437580 0.187255 0.636549
O O3 0.568646 0.295908 0.289861
O O4 0.736154 0.171774 0.068396
O O5 0.730191 0.097678 0.441128
O O6 0.867081 0.220536 0.371162
O O7 0.352072 0.395841 0.530842
O O8 0.890520 0.478598 0.515940
O O9 0.898774 0.415784 0.778533
O O10 0.917441 0.330190 0.498018
O O11 0.286825 0.964175 0.792718
O O12 0.193074 0.949787 0.204757
O O13 0.000000 0.904942 0.250000
O O14 0.500000 0.998980 0.750000
#
# Coordination Sequence:
#
# PCOD9233635 Si02
#       8
#     4   4   2   4   4   2   2   4
#     4  10  23  42  58  89 133 163 212 270 324 377
#     4  10  21  42  61  88 127 173 211 271 330 385
#     4  12  24  38  66 106 126 168 218 256 316 376
#     4  10  23  42  68 101 130 172 209 248 314 370
#     4  11  24  40  59  88 119 165 219 274 329 381
#     4   9  22  48  68  94 141 166 204 256 293 378
#     4  11  22  40  70  96 125 174 216 258 323 382
#     4  11  22  40  61  83 119 167 219 268 341 380
#
# _framework density 20.773403999999999
#
# number of rings (size 3 to 8) (size 9 to 14) (size 15 to 20)
#    0.000    1.538    4.615    0.923    4.308    3.077 
#    0.000    0.000    0.000    0.000    0.000    0.000 
#    0.000    0.000    0.000    0.000    0.000    0.000 
#
# Total GULP energy -145264.642280 kJ/mol
# GULP energy per Si atom -5587.101626 kJ/mol
# Density = 2.072612 g / cm^3
# Si number density = 20.773404 Si / 1000 Ang^3
#
#
#
# Elastic Constant Matrix: (Units=GPa)
#
#
# Indices 1 2 3 4 5 6 
#
# 1 117.5381 53.9752 41.5598 0.0000 -33.5328 0.0000
# 2 53.9752 45.3907 24.1409 0.0000 -16.0982 0.0000
# 3 41.5598 24.1409 86.8758 0.0000 -28.9982 0.0000
# 4 0.0000 0.0000 0.0000 -11.3925 0.0000 0.5457
# 5 -33.5328 -16.0982 -28.9982 0.0000 36.9086 0.0000
# 6 0.0000 0.0000 0.0000 0.5457 0.0000 13.7120
#
#
#
# Elastic Compliance Matrix: (Units=1/GPa)
#
#
# Indices 1 2 3 4 5 6 
#
# 1 0.021494 -0.021680 -0.001215 0.000000 0.009118 0.000000
# 2 -0.021680 0.049408 -0.003714 0.000000 -0.001064 0.000000
# 3 -0.001215 -0.003714 0.016557 0.000000 0.010285 0.000000
# 4 0.000000 0.000000 0.000000 -0.087610 0.000000 0.003487
# 5 0.009118 -0.001064 0.010285 0.000000 0.042995 0.000000
# 6 0.000000 0.000000 0.000000 0.003487 0.000000 0.072790
#
#
# Mechanical properties :
#
#
# Convention : Reuss Voigt Hill
#
# Bulk Modulus (GPa) = 29.20255 54.35070 41.77662
# Shear Modulus (GPa) = 27.73717 16.52088 22.12903
#
# Velocity S-wave (km/s) = 3.65804 2.82315 3.26737
# Velocity P-wave (km/s) = 5.65065 6.07020 5.86418
#
# Compressibility (1/GPa) = 0.03424359
#
# Stress axis : x y z
#
# Youngs Moduli (GPa) = 46.52408 20.23955 60.39858
#
# Poissons Ratio (x) = 0.43878 0.07336
# Poissons Ratio (y) = 1.00862 0.22430
# Poissons Ratio (z) = 0.05651 0.07516
#
# Static dielectric constant tensor:
#      x y z
#    x 1.792000 0.000000 0.061710 
#    y 0.000000 1.710270 0.000000 
#    z 0.061710 0.000000 1.769690 
# 
# From -- ./inp_files/20178.got.cif
#   From: 2010.05.17/outbox.cif.g08.bks.cpg/sg13_11_cif.got.tgz:20178.got - 2010.06.03 16:44:36.
