data_PCOD9233646
_publ_section_title
;
Structure prediction by ZEFSAII (Michael W. Deem and Ramdas Pophale) SiO2 
 PCOD9233646
Probable space group: P 2/C
;
_chemical_formula_sum "Si O2"
_cell_formula_units_Z 26
_cell_length_a 8.391010
_cell_length_b 14.460267
_cell_length_c 18.519529
_cell_angle_alpha 90.000000
_cell_angle_beta 145.382402
_cell_angle_gamma 90.000000
_cell_volume 1276.564113
_symmetry_space_group_name_H-M "P 2/C"
_symmetry_group_IT_number 13
_symmetry_cell_setting 'monoclinic'
loop_
_space_group_symop_operation_xyz
x,y,z
-x,y,1/2-z
-x,-y,-z
x,-y,1/2+z
loop_
_atom_site_type_symbol
_atom_site_label
_atom_site_fract_x
_atom_site_fract_y
_atom_site_fract_z
Si Si1 0.965222 0.865724 0.857459
Si Si2 0.525759 0.868081 0.141179
Si Si3 0.277790 0.674045 0.734359
Si Si4 0.500000 0.722276 0.250000
Si Si5 0.000000 0.020670 0.750000
Si Si6 0.333085 0.510175 0.862570
Si Si7 0.181827 0.414007 0.537667
Si Si8 0.500000 0.977286 0.750000
O O1 0.796061 0.777005 0.766217
O O2 0.027491 0.949516 0.826345
O O3 0.767639 0.912335 0.843177
O O4 0.252500 0.832895 0.999023
O O5 0.618482 0.788331 0.230789
O O6 0.459879 0.956364 0.166930
O O7 0.743029 0.910266 0.166052
O O8 0.500000 0.676181 0.750000
O O9 0.360369 0.609439 0.832414
O O10 0.000887 0.628903 0.595031
O O11 0.749716 0.660369 0.375225
O O12 0.510099 0.444469 0.874858
O O13 0.000000 0.491200 0.750000
O O14 0.500000 0.500000 0.000000
O O15 0.000000 0.500000 0.500000
#
# Coordination Sequence:
#
# PCOD9233646 Si02
#       8
#     4   4   4   2   2   4   4   2
#     4  11  21  40  64  97 135 173 226 285 349 410
#     4  10  21  42  62  95 136 174 232 275 346 421
#     4  12  24  43  71 105 137 185 243 297 353 436
#     4  11  24  42  69 100 132 184 237 298 338 425
#     4  10  24  40  66  98 138 188 220 284 360 426
#     4  12  27  46  70 103 145 190 237 302 367 426
#     4  12  24  45  71  99 140 189 243 292 364 431
#     4   9  20  36  65  92 126 172 219 272 342 409
#
# _framework density 20.367172
#
# number of rings (size 3 to 8) (size 9 to 14) (size 15 to 20)
#    0.000    0.923    5.385    1.846    1.077    0.000 
#    1.385    3.077    0.000    0.000    0.000    0.000 
#    0.000    0.000    0.000    0.000    0.000    0.000 
#
# Total GULP energy -145111.203528 kJ/mol
# GULP energy per Si atom -5581.200136 kJ/mol
# Density = 2.032081 g / cm^3
# Si number density = 20.367172 Si / 1000 Ang^3
#
#
#
# Elastic Constant Matrix: (Units=GPa)
#
#
# Indices 1 2 3 4 5 6 
#
# 1 96.4907 42.3745 44.8195 0.0000 24.5367 0.0000
# 2 42.3745 123.6443 44.3828 0.0000 4.2992 0.0000
# 3 44.8195 44.3828 94.3594 0.0000 2.5152 0.0000
# 4 0.0000 0.0000 0.0000 53.5057 0.0000 6.9993
# 5 24.5367 4.2992 2.5152 0.0000 33.0390 0.0000
# 6 0.0000 0.0000 0.0000 6.9993 0.0000 22.1235
#
#
#
# Elastic Compliance Matrix: (Units=1/GPa)
#
#
# Indices 1 2 3 4 5 6 
#
# 1 0.018142 -0.003379 -0.006694 0.000000 -0.012524 0.000000
# 2 -0.003379 0.010388 -0.003319 0.000000 0.001410 0.000000
# 3 -0.006694 -0.003319 0.015225 0.000000 0.004244 0.000000
# 4 0.000000 0.000000 0.000000 0.019496 0.000000 -0.006168
# 5 -0.012524 0.001410 0.004244 0.000000 0.039061 0.000000
# 6 0.000000 0.000000 0.000000 -0.006168 0.000000 0.047152
#
#
# Mechanical properties :
#
#
# Convention : Reuss Voigt Hill
#
# Bulk Modulus (GPa) = 58.92220 64.18308 61.55264
# Shear Modulus (GPa) = 27.48687 33.92814 30.70751
#
# Velocity S-wave (km/s) = 3.67763 4.08588 3.88712
# Velocity P-wave (km/s) = 6.85756 7.33762 7.10165
#
# Compressibility (1/GPa) = 0.01697153
#
# Stress axis : x y z
#
# Youngs Moduli (GPa) = 55.12215 96.26505 65.68114
#
# Poissons Ratio (x) = 0.32529 0.43965
# Poissons Ratio (y) = 0.18626 0.21797
# Poissons Ratio (z) = 0.36898 0.31947
#
# Static dielectric constant tensor:
#      x y z
#    x 1.760010 0.000000 0.011110 
#    y 0.000000 1.718540 0.000000 
#    z 0.011110 0.000000 1.719420 
# 
# From -- ./inp_files/76668.got.cif
#   From: 2010.05.17/outbox.cif.g08.bks.cpg/sg13_39_cif.got.tgz:76668.got - 2010.06.03 16:44:36.
