data_PCOD9233028
_publ_section_title
;
Structure prediction by ZEFSAII (Michael W. Deem and Ramdas Pophale) SiO2 
 PCOD9233028
Probable space group: P 2/C
;
_chemical_formula_sum "Si O2"
_cell_formula_units_Z 28
_cell_length_a 15.767206
_cell_length_b 15.875287
_cell_length_c 8.258263
_cell_angle_alpha 90.000000
_cell_angle_beta 141.277398
_cell_angle_gamma 90.000000
_cell_volume 1293.085949
_symmetry_space_group_name_H-M "P 2/C"
_symmetry_group_IT_number 13
_symmetry_cell_setting 'monoclinic'
loop_
_space_group_symop_operation_xyz
x,y,z
-x,y,1/2-z
-x,-y,-z
x,-y,1/2+z
loop_
_atom_site_type_symbol
_atom_site_label
_atom_site_fract_x
_atom_site_fract_y
_atom_site_fract_z
Si Si1 0.180835 0.925715 0.283820
Si Si2 0.362635 0.375865 0.113726
Si Si3 0.000000 0.009568 0.250000
Si Si4 0.547097 0.768248 0.499697
Si Si5 0.939605 0.413932 0.839368
Si Si6 0.399315 0.945024 0.962209
Si Si7 0.000000 0.298736 0.250000
Si Si8 0.729217 0.231276 0.752102
O O1 0.233193 0.833223 0.332495
O O2 0.123938 0.953834 0.370553
O O3 0.290869 0.992980 0.383853
O O4 0.051984 0.934350 0.973292
O O5 0.500000 0.419741 0.250000
O O6 0.397532 0.311269 0.313379
O O7 0.222687 0.424981 0.933947
O O8 0.318623 0.317333 0.898261
O O9 0.643837 0.851087 0.659430
O O10 0.405370 0.801488 0.363957
O O11 0.500000 0.739503 0.250000
O O12 0.000000 0.392344 0.750000
O O13 0.974696 0.349299 0.041599
O O14 0.000000 0.500000 0.000000
O O15 0.500000 0.915893 0.250000
O O16 0.500000 0.000000 0.000000
O O17 0.139332 0.245961 0.441635
#
# Coordination Sequence:
#
# PCOD9233028 Si02
#       8
#     4   4   2   4   4   4   2   4
#     4  11  22  40  55  80 116 168 215 282 337 386
#     4   9  22  43  66  98 136 174 217 270 337 396
#     4  10  25  38  52  75 116 158 226 276 335 404
#     4  10  22  37  59  92 123 166 219 280 326 392
#     4  11  23  45  77 107 141 176 218 265 324 412
#     4  11  22  34  57  82 113 159 219 271 330 378
#     4  10  23  44  68 101 136 176 212 268 333 398
#     4  10  21  39  63  85 129 167 214 277 333 395
#
# _framework density 21.653628000000001
#
# number of rings (size 3 to 8) (size 9 to 14) (size 15 to 20)
#    0.000    1.714    2.143    1.286    8.000    0.000 
#    5.143    0.714    0.000    0.000    0.000    0.000 
#    0.000    0.000    0.000    0.000    0.000    0.000 
#
# Total GULP energy -155868.451723 kJ/mol
# GULP energy per Si atom -5566.730419 kJ/mol
# Density = 2.160434 g / cm^3
# Si number density = 21.653628 Si / 1000 Ang^3
#
#
#
# Elastic Constant Matrix: (Units=GPa)
#
#
# Indices 1 2 3 4 5 6 
#
# 1 107.0869 10.8933 21.1903 0.0000 14.3277 0.0000
# 2 10.8933 37.7999 19.2303 0.0000 12.8645 0.0000
# 3 21.1903 19.2303 117.6562 0.0000 5.4703 0.0000
# 4 0.0000 0.0000 0.0000 34.0332 0.0000 -2.8657
# 5 14.3277 12.8645 5.4703 0.0000 41.5707 0.0000
# 6 0.0000 0.0000 0.0000 -2.8657 0.0000 7.8992
#
#
#
# Elastic Compliance Matrix: (Units=1/GPa)
#
#
# Indices 1 2 3 4 5 6 
#
# 1 0.010147 -0.001160 -0.001501 0.000000 -0.002941 0.000000
# 2 -0.001160 0.032195 -0.004637 0.000000 -0.008953 0.000000
# 3 -0.001501 -0.004637 0.009495 0.000000 0.000703 0.000000
# 4 0.000000 0.000000 0.000000 0.030309 0.000000 0.010995
# 5 -0.002941 -0.008953 0.000703 0.000000 0.027747 0.000000
# 6 0.000000 0.000000 0.000000 0.010995 0.000000 0.130583
#
#
# Mechanical properties :
#
#
# Convention : Reuss Voigt Hill
#
# Bulk Modulus (GPa) = 26.85182 40.57452 33.71317
# Shear Modulus (GPa) = 18.69257 30.78257 24.73757
#
# Velocity S-wave (km/s) = 2.94131 3.77449 3.38364
# Velocity P-wave (km/s) = 4.89516 6.14608 5.55594
#
# Compressibility (1/GPa) = 0.03724142
#
# Stress axis : x y z
#
# Youngs Moduli (GPa) = 98.55441 31.06030 105.31930
#
# Poissons Ratio (x) = 0.03602 0.15811
# Poissons Ratio (y) = 0.11428 0.48837
# Poissons Ratio (z) = 0.14795 0.14403
#
# Static dielectric constant tensor:
#      x y z
#    x 1.932120 0.000000 -0.082470 
#    y 0.000000 1.835550 0.000000 
#    z -0.082470 0.000000 1.893570 
# 
# From -- ./inp_files/20129.got.cif
#   From: 2010.05.17/outbox.cif.g08.bks.cpg/sg13_11_cif.got.tgz:20129.got - 2010.06.03 16:44:36.
