data_PCOD9233333
_publ_section_title
;
Structure prediction by ZEFSAII (Michael W. Deem and Ramdas Pophale) SiO2 
 PCOD9233333
Probable space group: P 2/C
;
_chemical_formula_sum "Si O2"
_cell_formula_units_Z 18
_cell_length_a 7.931394
_cell_length_b 18.866220
_cell_length_c 5.619030
_cell_angle_alpha 90.000000
_cell_angle_beta 61.965786
_cell_angle_gamma 90.000000
_cell_volume 742.151731
_symmetry_space_group_name_H-M "P 2/C"
_symmetry_group_IT_number 13
_symmetry_cell_setting 'monoclinic'
loop_
_space_group_symop_operation_xyz
x,y,z
-x,y,1/2-z
-x,-y,-z
x,-y,1/2+z
loop_
_atom_site_type_symbol
_atom_site_label
_atom_site_fract_x
_atom_site_fract_y
_atom_site_fract_z
Si Si1 0.216808 0.973470 0.894359
Si Si2 0.217635 0.525734 0.089284
Si Si3 0.500000 0.772532 0.250000
Si Si4 0.707552 0.688896 0.487786
Si Si5 0.183445 0.820589 0.797092
O O1 0.205885 0.889337 0.946449
O O2 0.298832 0.988875 0.574831
O O3 0.000000 0.000000 0.000000
O O4 0.304001 0.502286 0.284536
O O5 0.000000 0.496767 0.250000
O O6 0.213115 0.610503 0.079360
O O7 0.658490 0.722920 0.267080
O O8 0.380695 0.816786 0.518230
O O9 0.500000 0.683278 0.750000
O O10 0.827709 0.746513 0.554953
O O11 0.000000 0.830238 0.750000
#
# Coordination Sequence:
#
# PCOD9233333 Si02
#       5
#     4   4   2   4   4
#     4  10  21  40  66 102 139 173 236 289 348 426
#     4  10  24  43  68 101 138 177 232 288 346 416
#     4  10  26  44  62 104 144 174 250 282 346 426
#     4  10  25  44  66 100 138 181 236 285 344 422
#     4  11  24  42  73  99 137 188 229 294 355 415
#
# _framework density 24.253799999999998
#
# number of rings (size 3 to 8) (size 9 to 14) (size 15 to 20)
#    0.000    1.778    2.222    0.000   12.444    1.778 
#    0.000    1.111    0.000    0.000    0.000    0.000 
#    0.000    0.000    0.000    0.000    0.000    0.000 
#
# Total GULP energy -100667.948078 kJ/mol
# GULP energy per Si atom -5592.663782 kJ/mol
# Density = 2.419860 g / cm^3
# Si number density = 24.253800 Si / 1000 Ang^3
#
#
#
# Elastic Constant Matrix: (Units=GPa)
#
#
# Indices 1 2 3 4 5 6 
#
# 1 95.7953 13.4674 28.6318 0.0000 7.7522 0.0000
# 2 13.4674 161.7772 37.5173 0.0000 11.4128 0.0000
# 3 28.6318 37.5173 119.7984 0.0000 26.8525 0.0000
# 4 0.0000 0.0000 0.0000 22.9381 0.0000 -18.8229
# 5 7.7522 11.4128 26.8525 0.0000 33.2764 0.0000
# 6 0.0000 0.0000 0.0000 -18.8229 0.0000 33.5015
#
#
#
# Elastic Compliance Matrix: (Units=1/GPa)
#
#
# Indices 1 2 3 4 5 6 
#
# 1 0.011266 -0.000328 -0.002474 0.000000 -0.000515 0.000000
# 2 -0.000328 0.006690 -0.001855 0.000000 -0.000721 0.000000
# 3 -0.002474 -0.001855 0.011290 0.000000 -0.007898 0.000000
# 4 0.000000 0.000000 0.000000 0.080890 0.000000 0.045448
# 5 -0.000515 -0.000721 -0.007898 0.000000 0.036792 0.000000
# 6 0.000000 0.000000 0.000000 0.045448 0.000000 0.055385
#
#
# Mechanical properties :
#
#
# Convention : Reuss Voigt Hill
#
# Bulk Modulus (GPa) = 50.17179 59.62265 54.89722
# Shear Modulus (GPa) = 22.90729 37.79349 30.35039
#
# Velocity S-wave (km/s) = 3.07658 3.95175 3.54130
# Velocity P-wave (km/s) = 5.77508 6.74225 6.27732
#
# Compressibility (1/GPa) = 0.01993152
#
# Stress axis : x y z
#
# Youngs Moduli (GPa) = 88.76035 149.48369 88.57406
#
# Poissons Ratio (x) = 0.04898 0.21918
# Poissons Ratio (y) = 0.02908 0.16431
# Poissons Ratio (z) = 0.21964 0.27730
#
# Static dielectric constant tensor:
#      x y z
#    x 1.920730 0.000000 0.003540 
#    y 0.000000 1.848950 0.000000 
#    z 0.003540 0.000000 1.946660 
# 
# From -- ./inp_files/1418.got.cif
#   From: 2010.05.17/outbox.cif.g08.bks.cpg/sg13_1_cif.got.tgz:1418.got - 2010.06.03 16:44:36.
