data_PCOD9233987
_publ_section_title
;
Structure prediction by ZEFSAII (Michael W. Deem and Ramdas Pophale) SiO2 
 PCOD9233987
Probable space group: P 2/C
;
_chemical_formula_sum "Si O2"
_cell_formula_units_Z 24
_cell_length_a 22.190285
_cell_length_b 5.274344
_cell_length_c 16.803114
_cell_angle_alpha 90.000000
_cell_angle_beta 34.611962
_cell_angle_gamma 90.000000
_cell_volume 1117.072490
_symmetry_space_group_name_H-M "P 2/C"
_symmetry_group_IT_number 13
_symmetry_cell_setting 'monoclinic'
loop_
_space_group_symop_operation_xyz
x,y,z
-x,y,1/2-z
-x,-y,-z
x,-y,1/2+z
loop_
_atom_site_type_symbol
_atom_site_label
_atom_site_fract_x
_atom_site_fract_y
_atom_site_fract_z
Si Si1 0.006455 0.710782 0.904890
Si Si2 0.500000 0.117423 0.750000
Si Si3 0.851764 0.348942 0.004652
Si Si4 0.000000 0.015979 0.750000
Si Si5 0.178036 0.046315 0.318263
Si Si6 0.289121 0.642859 0.456260
Si Si7 0.691033 0.872103 0.467752
O O1 0.115484 0.746005 0.832668
O O2 0.016927 0.847072 0.808914
O O3 0.957920 0.439785 0.935806
O O4 0.912500 0.848393 0.056054
O O5 0.588024 0.292742 0.696870
O O6 0.567093 0.944290 0.616042
O O7 0.786445 0.183602 0.139023
O O8 0.782964 0.572248 0.040733
O O9 0.900626 0.190828 0.879688
O O10 0.264555 0.911162 0.169061
O O11 0.257432 0.899945 0.535871
O O12 0.287665 0.402131 0.517444
#
# Coordination Sequence:
#
# PCOD9233987 Si02
#       7
#     4   2   4   2   4   4   4
#     4  10  22  38  55  86 125 166 209 246 300 361
#     4   8  22  38  70  90 118 154 208 262 306 372
#     4  11  23  36  59  88 121 165 203 259 299 368
#     4  10  22  34  56  84 120 166 212 254 290 360
#     4  10  23  37  58  86 130 163 203 248 311 358
#     4  10  23  39  66  91 120 154 213 249 309 365
#     4  10  22  41  66  91 120 163 203 258 306 370
#
# _framework density 21.484729000000002
#
# number of rings (size 3 to 8) (size 9 to 14) (size 15 to 20)
#    1.000    1.000    0.000    2.500   11.667    0.000 
#    0.000    0.833    0.000    3.000    0.000    0.000 
#    0.000    0.000    0.000    0.000    0.000    0.000 
#
# Total GULP energy -133896.351144 kJ/mol
# GULP energy per Si atom -5579.014631 kJ/mol
# Density = 2.143583 g / cm^3
# Si number density = 21.484729 Si / 1000 Ang^3
#
#
#
# Elastic Constant Matrix: (Units=GPa)
#
#
# Indices 1 2 3 4 5 6 
#
# 1 47.9467 11.9182 31.9319 0.0000 3.7909 0.0000
# 2 11.9182 88.8851 18.1460 0.0000 9.1702 0.0000
# 3 31.9319 18.1460 136.6056 0.0000 15.4995 0.0000
# 4 0.0000 0.0000 0.0000 1.4394 0.0000 1.8940
# 5 3.7909 9.1702 15.4995 0.0000 18.8508 0.0000
# 6 0.0000 0.0000 0.0000 1.8940 0.0000 40.3242
#
#
#
# Elastic Compliance Matrix: (Units=1/GPa)
#
#
# Indices 1 2 3 4 5 6 
#
# 1 0.025133 -0.002289 -0.005651 0.000000 0.000706 0.000000
# 2 -0.002289 0.012182 -0.000511 0.000000 -0.005046 0.000000
# 3 -0.005651 -0.000511 0.009432 0.000000 -0.006370 0.000000
# 4 0.000000 0.000000 0.000000 0.740521 0.000000 -0.034782
# 5 0.000706 -0.005046 -0.006370 0.000000 0.060599 0.000000
# 6 0.000000 0.000000 0.000000 -0.034782 0.000000 0.026433
#
#
# Mechanical properties :
#
#
# Convention : Reuss Voigt Hill
#
# Bulk Modulus (GPa) = 33.50537 44.15883 38.83210
# Shear Modulus (GPa) = 5.54847 26.21896 15.88372
#
# Velocity S-wave (km/s) = 1.60876 3.49715 2.72196
# Velocity P-wave (km/s) = 4.36803 6.07494 5.29077
#
# Compressibility (1/GPa) = 0.02984596
#
# Stress axis : x y z
#
# Youngs Moduli (GPa) = 39.78805 82.08658 106.02347
#
# Poissons Ratio (x) = 0.18791 0.59913
# Poissons Ratio (y) = 0.09108 0.05414
# Poissons Ratio (z) = 0.22484 0.04191
#
# Static dielectric constant tensor:
#      x y z
#    x 1.817970 0.000000 -0.005360 
#    y 0.000000 1.827820 0.000000 
#    z -0.005360 0.000000 1.794440 
# 
# From -- ./inp_files/52264.got.cif
#   From: 2010.05.17/outbox.cif.g08.bks.cpg/sg13_27_cif.got.tgz:52264.got - 2010.06.03 16:44:36.
