data_PCOD9233310
_publ_section_title
;
Structure prediction by ZEFSAII (Michael W. Deem and Ramdas Pophale) SiO2 
 PCOD9233310
Probable space group: P 2/C
;
_chemical_formula_sum "Si O2"
_cell_formula_units_Z 28
_cell_length_a 9.331306
_cell_length_b 13.999935
_cell_length_c 20.968552
_cell_angle_alpha 90.000000
_cell_angle_beta 27.759707
_cell_angle_gamma 90.000000
_cell_volume 1275.860602
_symmetry_space_group_name_H-M "P 2/C"
_symmetry_group_IT_number 13
_symmetry_cell_setting 'monoclinic'
loop_
_space_group_symop_operation_xyz
x,y,z
-x,y,1/2-z
-x,-y,-z
x,-y,1/2+z
loop_
_atom_site_type_symbol
_atom_site_label
_atom_site_fract_x
_atom_site_fract_y
_atom_site_fract_z
Si Si1 0.687069 0.545783 0.846880
Si Si2 0.870271 0.298140 0.663832
Si Si3 0.028806 0.478969 0.090181
Si Si4 0.820888 0.297674 0.538626
Si Si5 0.750143 0.154843 0.206107
Si Si6 0.523232 0.760167 0.931603
Si Si7 0.201949 0.063817 0.111159
O O1 0.643858 0.652214 0.890051
O O2 0.000000 0.499509 0.750000
O O3 0.767966 0.560100 0.740446
O O4 0.381428 0.484422 0.977044
O O5 0.854180 0.260846 0.597710
O O6 0.546485 0.292781 0.827391
O O7 0.942584 0.409836 0.621629
O O8 0.156942 0.248109 0.584287
O O9 0.061049 0.406577 0.018699
O O10 0.028121 0.234685 0.411230
O O11 0.500000 0.131143 0.250000
O O12 0.597297 0.196291 0.331770
O O13 0.978624 0.069399 0.138253
O O14 0.687912 0.828202 0.916967
O O15 0.000000 0.031935 0.250000
O O16 0.500000 0.000000 0.000000
#
# Coordination Sequence:
#
# PCOD9233310 Si02
#       7
#     4   4   4   4   4   4   4
#     4  11  21  35  54  80 123 171 222 269 317 373
#     4  10  22  37  54  87 126 172 220 269 316 367
#     4  11  21  35  51  82 122 170 224 271 312 363
#     4  11  21  36  57  85 128 165 220 269 318 365
#     4  11  21  40  69  99 123 165 216 256 319 385
#     4  10  21  40  65  90 126 172 210 264 323 390
#     4  10  24  46  73 100 133 163 205 257 328 405
#
# _framework density 21.945971
#
# number of rings (size 3 to 8) (size 9 to 14) (size 15 to 20)
#    0.000    1.429    4.286    2.143    0.000    1.143 
#    2.571    2.857    3.143    0.000    0.000    0.000 
#    0.000    0.000    0.000    0.000    0.000    0.000 
#
# Total GULP energy -156266.806555 kJ/mol
# GULP energy per Si atom -5580.957377 kJ/mol
# Density = 2.189602 g / cm^3
# Si number density = 21.945971 Si / 1000 Ang^3
#
#
#
# Elastic Constant Matrix: (Units=GPa)
#
#
# Indices 1 2 3 4 5 6 
#
# 1 94.7139 21.8754 30.8046 0.0000 -20.9408 0.0000
# 2 21.8754 38.8180 26.1668 0.0000 -7.2895 0.0000
# 3 30.8046 26.1668 124.3175 0.0000 -28.4379 0.0000
# 4 0.0000 0.0000 0.0000 17.4232 0.0000 -17.2815
# 5 -20.9408 -7.2895 -28.4379 0.0000 29.9388 0.0000
# 6 0.0000 0.0000 0.0000 -17.2815 0.0000 11.2390
#
#
#
# Elastic Compliance Matrix: (Units=1/GPa)
#
#
# Indices 1 2 3 4 5 6 
#
# 1 0.013810 -0.006074 -0.000348 0.000000 0.007850 0.000000
# 2 -0.006074 0.032758 -0.005797 0.000000 -0.001779 0.000000
# 3 -0.000348 -0.005797 0.011462 0.000000 0.009233 0.000000
# 4 0.000000 0.000000 0.000000 -0.109297 0.000000 -0.168059
# 5 0.007850 -0.001779 0.009233 0.000000 0.047229 0.000000
# 6 0.000000 0.000000 0.000000 -0.168059 0.000000 -0.169437
#
#
# Mechanical properties :
#
#
# Convention : Reuss Voigt Hill
#
# Bulk Modulus (GPa) = 29.76809 46.17145 37.96977
# Shear Modulus (GPa) = -36.27372 23.65370 -6.31001
#
# Velocity S-wave (km/s) = -4.06995 3.28657 -1.69750
# Velocity P-wave (km/s) = 2.91416 5.95705 3.67383
#
# Compressibility (1/GPa) = 0.03359302
#
# Stress axis : x y z
#
# Youngs Moduli (GPa) = 72.41330 30.52730 87.24262
#
# Poissons Ratio (x) = 0.18541 0.03034
# Poissons Ratio (y) = 0.43981 0.50573
# Poissons Ratio (z) = 0.02518 0.17696
#
# Static dielectric constant tensor:
#      x y z
#    x 1.895840 0.000000 -0.007010 
#    y 0.000000 1.796210 0.000000 
#    z -0.007010 0.000000 1.814930 
# 
# From -- ./inp_files/76712.got.cif
#   From: 2010.05.17/outbox.cif.g08.bks.cpg/sg13_39_cif.got.tgz:76712.got - 2010.06.03 16:44:36.
