data_PCOD9233955
_publ_section_title
;
Structure prediction by ZEFSAII (Michael W. Deem and Ramdas Pophale) SiO2 
 PCOD9233955
Probable space group: P 2/C
;
_chemical_formula_sum "Si O2"
_cell_formula_units_Z 22
_cell_length_a 18.891424
_cell_length_b 9.838010
_cell_length_c 8.727375
_cell_angle_alpha 90.000000
_cell_angle_beta 34.521554
_cell_angle_gamma 90.000000
_cell_volume 919.223752
_symmetry_space_group_name_H-M "P 2/C"
_symmetry_group_IT_number 13
_symmetry_cell_setting 'monoclinic'
loop_
_space_group_symop_operation_xyz
x,y,z
-x,y,1/2-z
-x,-y,-z
x,-y,1/2+z
loop_
_atom_site_type_symbol
_atom_site_label
_atom_site_fract_x
_atom_site_fract_y
_atom_site_fract_z
Si Si1 0.085118 0.602922 0.438358
Si Si2 0.251418 0.552910 0.874488
Si Si3 0.647360 0.173237 0.316702
Si Si4 0.000000 0.140367 0.250000
Si Si5 0.578062 0.694886 0.455957
Si Si6 0.736330 0.075730 0.824959
O O1 0.141672 0.529818 0.486588
O O2 0.000000 0.500000 0.500000
O O3 0.015072 0.745716 0.587709
O O4 0.206359 0.612484 0.115769
O O5 0.289372 0.691777 0.723044
O O6 0.361889 0.446285 0.703249
O O7 0.513980 0.228521 0.496226
O O8 0.653104 0.053069 0.428097
O O9 0.714879 0.111300 0.042129
O O10 0.877664 0.053261 0.509347
O O11 0.500000 0.668909 0.750000
O O12 0.687450 0.797401 0.311676
#
# Coordination Sequence:
#
# PCOD9233955 Si02
#       6
#     4   4   4   2   4   4
#     4  12  22  41  69 102 139 182 232 290 349 416
#     4  12  23  43  69 105 137 175 242 290 351 417
#     4  11  25  43  67 103 139 185 235 287 348 420
#     4  12  22  44  68  90 146 190 226 288 346 402
#     4  10  21  45  73 100 141 180 231 294 351 414
#     4  11  24  45  66  98 140 191 231 283 349 412
#
# _framework density 23.933235
#
# number of rings (size 3 to 8) (size 9 to 14) (size 15 to 20)
#    0.000    0.727    5.455    2.182    0.000    3.636 
#    3.273    4.545    0.000    0.000    0.000    0.000 
#    0.000    0.000    0.000    0.000    0.000    0.000 
#
# Total GULP energy -122877.443820 kJ/mol
# GULP energy per Si atom -5585.338355 kJ/mol
# Density = 2.387876 g / cm^3
# Si number density = 23.933235 Si / 1000 Ang^3
#
#
#
# Elastic Constant Matrix: (Units=GPa)
#
#
# Indices 1 2 3 4 5 6 
#
# 1 74.9391 26.6633 16.5959 0.0000 -14.5433 0.0000
# 2 26.6633 126.2469 12.8369 0.0000 4.1243 0.0000
# 3 16.5959 12.8369 84.2321 0.0000 -12.7610 0.0000
# 4 0.0000 0.0000 0.0000 26.2550 0.0000 -9.9809
# 5 -14.5433 4.1243 -12.7610 0.0000 23.5993 0.0000
# 6 0.0000 0.0000 0.0000 -9.9809 0.0000 23.2544
#
#
#
# Elastic Compliance Matrix: (Units=1/GPa)
#
#
# Indices 1 2 3 4 5 6 
#
# 1 0.017001 -0.003814 -0.001176 0.000000 0.010507 0.000000
# 2 -0.003814 0.009013 -0.001325 0.000000 -0.004642 0.000000
# 3 -0.001176 -0.001325 0.013322 0.000000 0.006711 0.000000
# 4 0.000000 0.000000 0.000000 0.045514 0.000000 0.019535
# 5 0.010507 -0.004642 0.006711 0.000000 0.053289 0.000000
# 6 0.000000 0.000000 0.000000 0.019535 0.000000 0.051387
#
#
# Mechanical properties :
#
#
# Convention : Reuss Voigt Hill
#
# Bulk Modulus (GPa) = 37.44740 44.17891 40.81315
# Shear Modulus (GPa) = 23.68987 29.90988 26.79987
#
# Velocity S-wave (km/s) = 3.14957 3.53898 3.34994
# Velocity P-wave (km/s) = 5.37652 5.93283 5.66151
#
# Compressibility (1/GPa) = 0.02670413
#
# Stress axis : x y z
#
# Youngs Moduli (GPa) = 58.82015 110.95108 75.06168
#
# Poissons Ratio (x) = 0.42319 0.08831
# Poissons Ratio (y) = 0.22435 0.09949
# Poissons Ratio (z) = 0.06920 0.14705
#
# Static dielectric constant tensor:
#      x y z
#    x 1.898700 0.000000 -0.014090 
#    y 0.000000 1.864230 0.000000 
#    z -0.014090 0.000000 2.142060 
# 
# From -- ./inp_files/22673.got.cif
#   From: 2010.05.17/outbox.cif.g08.bks.cpg/sg13_12_cif.got.tgz:22673.got - 2010.06.03 16:44:36.
