data_PCOD9233023
_publ_section_title
;
Structure prediction by ZEFSAII (Michael W. Deem and Ramdas Pophale) SiO2 
 PCOD9233023
Probable space group: P 2/C
;
_chemical_formula_sum "Si O2"
_cell_formula_units_Z 32
_cell_length_a 10.824383
_cell_length_b 8.299260
_cell_length_c 29.376370
_cell_angle_alpha 90.000000
_cell_angle_beta 144.981928
_cell_angle_gamma 90.000000
_cell_volume 1514.354383
_symmetry_space_group_name_H-M "P 2/C"
_symmetry_group_IT_number 13
_symmetry_cell_setting 'monoclinic'
loop_
_space_group_symop_operation_xyz
x,y,z
-x,y,1/2-z
-x,-y,-z
x,-y,1/2+z
loop_
_atom_site_type_symbol
_atom_site_label
_atom_site_fract_x
_atom_site_fract_y
_atom_site_fract_z
Si Si1 0.060667 0.818759 0.003801
Si Si2 0.464994 0.835433 0.461537
Si Si3 0.627594 0.736732 0.908886
Si Si4 0.522787 0.899068 0.142164
Si Si5 0.710433 0.783456 0.285606
Si Si6 0.835644 0.307381 0.560501
Si Si7 0.083188 0.683257 0.911629
Si Si8 0.640983 0.403499 0.248952
O O1 0.876986 0.710261 0.970358
O O2 0.043943 0.787977 0.945032
O O3 0.310024 0.793763 0.091150
O O4 0.000000 0.000000 0.000000
O O5 0.436311 0.866232 0.398770
O O6 0.263155 0.737184 0.420517
O O7 0.687078 0.739615 0.536912
O O8 0.500000 0.000000 0.500000
O O9 0.484251 0.619662 0.835791
O O10 0.547695 0.915879 0.873224
O O11 0.642766 0.728187 0.967410
O O12 0.704009 0.860513 0.233581
O O13 0.500000 0.842895 0.250000
O O14 0.681014 0.592003 0.269472
O O15 0.945476 0.797409 0.379702
O O16 0.891169 0.493826 0.570127
O O17 0.867826 0.690140 0.816686
O O18 0.500000 0.345277 0.250000
#
# Coordination Sequence:
#
# PCOD9233023 Si02
#       8
#     4   4   4   4   4   4   4   4
#     4   9  19  35  60  94 126 163 209 260 323 395
#     4  11  23  44  67  87 129 171 230 271 320 391
#     4  11  21  37  64  94 128 164 214 256 331 392
#     4  10  22  40  62  91 125 175 216 265 322 383
#     4  10  23  43  63  98 136 161 209 267 332 396
#     4  11  24  41  66  95 126 176 216 271 326 393
#     4  10  22  41  63  93 128 169 215 272 330 384
#     4  10  21  39  62  95 133 164 203 263 329 394
#
# _framework density 21.131117
#
# number of rings (size 3 to 8) (size 9 to 14) (size 15 to 20)
#    0.000    1.750    2.500    1.125    3.500    2.500 
#    0.000    0.625    0.000    0.000    0.000    0.000 
#    0.000    0.000    0.000    0.000    0.000    0.000 
#
# Total GULP energy -178564.161341 kJ/mol
# GULP energy per Si atom -5580.130042 kJ/mol
# Density = 2.108302 g / cm^3
# Si number density = 21.131117 Si / 1000 Ang^3
#
#
#
# Elastic Constant Matrix: (Units=GPa)
#
#
# Indices 1 2 3 4 5 6 
#
# 1 80.5420 11.7707 16.3291 0.0000 -0.7075 0.0000
# 2 11.7707 49.5845 21.7593 0.0000 1.9735 0.0000
# 3 16.3291 21.7593 104.8522 0.0000 -15.5520 0.0000
# 4 0.0000 0.0000 0.0000 24.4495 0.0000 -5.6858
# 5 -0.7075 1.9735 -15.5520 0.0000 22.5563 0.0000
# 6 0.0000 0.0000 0.0000 -5.6858 0.0000 22.1747
#
#
#
# Elastic Compliance Matrix: (Units=1/GPa)
#
#
# Indices 1 2 3 4 5 6 
#
# 1 0.013087 -0.002377 -0.001619 0.000000 -0.000498 0.000000
# 2 -0.002377 0.023298 -0.005322 0.000000 -0.005782 0.000000
# 3 -0.001619 -0.005322 0.012203 0.000000 0.008829 0.000000
# 4 0.000000 0.000000 0.000000 0.043494 0.000000 0.011152
# 5 -0.000498 -0.005782 0.008829 0.000000 0.050911 0.000000
# 6 0.000000 0.000000 0.000000 0.011152 0.000000 0.047956
#
#
# Mechanical properties :
#
#
# Convention : Reuss Voigt Hill
#
# Bulk Modulus (GPa) = 33.38603 37.18856 35.28729
# Shear Modulus (GPa) = 22.77194 26.17739 24.47467
#
# Velocity S-wave (km/s) = 3.28632 3.52349 3.40697
# Velocity P-wave (km/s) = 5.49851 5.84726 5.67556
#
# Compressibility (1/GPa) = 0.02995265
#
# Stress axis : x y z
#
# Youngs Moduli (GPa) = 76.41161 42.92306 81.94470
#
# Poissons Ratio (x) = 0.10201 0.13265
# Poissons Ratio (y) = 0.18159 0.43614
# Poissons Ratio (z) = 0.12369 0.22845
#
# Static dielectric constant tensor:
#      x y z
#    x 1.797500 0.000000 0.006340 
#    y 0.000000 1.757900 0.000000 
#    z 0.006340 0.000000 1.814280 
# 
# From -- ./inp_files/96710.got.cif
#   From: 2010.05.17/outbox.cif.g08.bks.cpg/sg13_49_cif.got.tgz:96710.got - 2010.06.03 16:44:36.
