data_PCOD9233205
_publ_section_title
;
Structure prediction by ZEFSAII (Michael W. Deem and Ramdas Pophale) SiO2 
 PCOD9233205
Probable space group: P 2/C
;
_chemical_formula_sum "Si O2"
_cell_formula_units_Z 30
_cell_length_a 18.609030
_cell_length_b 12.083859
_cell_length_c 18.026212
_cell_angle_alpha 90.000000
_cell_angle_beta 162.903424
_cell_angle_gamma 90.000000
_cell_volume 1191.671031
_symmetry_space_group_name_H-M "P 2/C"
_symmetry_group_IT_number 13
_symmetry_cell_setting 'monoclinic'
loop_
_space_group_symop_operation_xyz
x,y,z
-x,y,1/2-z
-x,-y,-z
x,-y,1/2+z
loop_
_atom_site_type_symbol
_atom_site_label
_atom_site_fract_x
_atom_site_fract_y
_atom_site_fract_z
Si Si1 0.242456 0.118023 0.519377
Si Si2 0.884101 0.178088 0.947582
Si Si3 0.883878 0.812466 0.292264
Si Si4 0.171642 0.591643 0.600672
Si Si5 0.383282 0.681337 0.954430
Si Si6 0.865250 0.524040 0.692462
Si Si7 0.446605 0.691895 0.619820
Si Si8 0.000000 0.908297 0.250000
O O1 0.500000 0.167840 0.750000
O O2 0.192589 0.105605 0.557312
O O3 0.221134 0.996358 0.462151
O O4 0.000000 0.179690 0.250000
O O5 0.892697 0.118285 0.875779
O O6 0.648831 0.262014 0.712993
O O7 0.152828 0.232193 0.228063
O O8 0.990934 0.695959 0.427377
O O9 0.005073 0.844286 0.333225
O O10 0.610081 0.782958 0.997326
O O11 0.340574 0.603840 0.839366
O O12 0.332267 0.619022 0.688061
O O13 0.027950 0.484718 0.429501
O O14 0.349485 0.605557 0.993874
O O15 0.766667 0.399170 0.582305
O O16 0.000000 0.557435 0.750000
O O17 0.500000 0.747041 0.750000
#
# Coordination Sequence:
#
# PCOD9233205 Si02
#       8
#     4   4   4   4   4   4   4   2
#     4  10  24  47  69 101 134 171 216 278 351 388
#     4  11  24  46  70  96 133 177 226 279 327 404
#     4  10  22  41  66 102 129 175 224 264 343 410
#     4  10  21  40  59  90 133 170 214 280 326 379
#     4  11  25  42  67  95 129 180 230 267 330 390
#     4  11  24  37  56  93 129 176 228 278 325 387
#     4  11  20  35  62  88 135 170 215 279 329 382
#     4  10  24  42  70 104 136 172 216 280 344 424
#
# _framework density 25.174733
#
# number of rings (size 3 to 8) (size 9 to 14) (size 15 to 20)
#    0.400    1.067    2.667    2.000    3.733    4.267 
#    0.000    0.667    0.000    0.000    0.000    0.000 
#    0.000    0.000    0.000    0.000    0.000    0.000 
#
# Total GULP energy -167319.820004 kJ/mol
# GULP energy per Si atom -5577.327333 kJ/mol
# Density = 2.511743 g / cm^3
# Si number density = 25.174733 Si / 1000 Ang^3
#
#
#
# Elastic Constant Matrix: (Units=GPa)
#
#
# Indices 1 2 3 4 5 6 
#
# 1 125.1420 17.4862 9.6095 0.0000 -4.3446 0.0000
# 2 17.4862 51.4309 21.1296 0.0000 -4.5386 0.0000
# 3 9.6095 21.1296 103.2166 0.0000 18.6863 0.0000
# 4 0.0000 0.0000 0.0000 13.9811 0.0000 1.7887
# 5 -4.3446 -4.5386 18.6863 0.0000 40.2297 0.0000
# 6 0.0000 0.0000 0.0000 1.7887 0.0000 -1.0042
#
#
#
# Elastic Compliance Matrix: (Units=1/GPa)
#
#
# Indices 1 2 3 4 5 6 
#
# 1 0.008416 -0.002632 -0.000388 0.000000 0.000792 0.000000
# 2 -0.002632 0.022944 -0.005316 0.000000 0.004773 0.000000
# 3 -0.000388 -0.005316 0.011932 0.000000 -0.006184 0.000000
# 4 0.000000 0.000000 0.000000 0.058251 0.000000 0.103758
# 5 0.000792 0.004773 -0.006184 0.000000 0.028354 0.000000
# 6 0.000000 0.000000 0.000000 0.103758 0.000000 -0.811003
#
#
# Mechanical properties :
#
#
# Convention : Reuss Voigt Hill
#
# Bulk Modulus (GPa) = 37.56615 41.80445 39.68530
# Shear Modulus (GPa) = -7.62705 26.07892 9.22594
#
# Velocity S-wave (km/s) = -1.74248 3.22206 1.91643
# Velocity P-wave (km/s) = 3.30246 5.52123 4.54919
#
# Compressibility (1/GPa) = 0.02661971
#
# Stress axis : x y z
#
# Youngs Moduli (GPa) = 118.82120 43.58505 83.80615
#
# Poissons Ratio (x) = 0.11472 0.03253
# Poissons Ratio (y) = 0.31274 0.44551
# Poissons Ratio (z) = 0.04612 0.23170
#
# Static dielectric constant tensor:
#      x y z
#    x 2.012740 0.000000 -0.037290 
#    y 0.000000 2.001810 0.000000 
#    z -0.037290 0.000000 2.079730 
# 
# From -- ./inp_files/70065.got.cif
#   From: 2010.05.17/outbox.cif.g08.bks.cpg/sg13_36_cif.got.tgz:70065.got - 2010.06.03 16:44:36.
