data_PCOD9233669
_publ_section_title
;
Structure prediction by ZEFSAII (Michael W. Deem and Ramdas Pophale) SiO2 
 PCOD9233669
Probable space group: P 2/C
;
_chemical_formula_sum "Si O2"
_cell_formula_units_Z 22
_cell_length_a 11.743770
_cell_length_b 12.248989
_cell_length_c 11.589323
_cell_angle_alpha 90.000000
_cell_angle_beta 37.688148
_cell_angle_gamma 90.000000
_cell_volume 1019.213703
_symmetry_space_group_name_H-M "P 2/C"
_symmetry_group_IT_number 13
_symmetry_cell_setting 'monoclinic'
loop_
_space_group_symop_operation_xyz
x,y,z
-x,y,1/2-z
-x,-y,-z
x,-y,1/2+z
loop_
_atom_site_type_symbol
_atom_site_label
_atom_site_fract_x
_atom_site_fract_y
_atom_site_fract_z
Si Si1 0.000000 0.190657 0.750000
Si Si2 0.667194 0.849027 0.850278
Si Si3 0.284231 0.198992 0.939632
Si Si4 0.756822 0.914697 0.251071
Si Si5 0.168113 0.656049 0.917973
Si Si6 0.871274 0.427374 0.465480
O O1 0.877688 0.114944 0.764837
O O2 0.105551 0.271387 0.576950
O O3 0.695525 0.735861 0.761386
O O4 0.745253 0.957889 0.728421
O O5 0.770161 0.841244 0.890891
O O6 0.450225 0.872956 0.048503
O O7 0.500000 0.167343 0.750000
O O8 0.179496 0.149307 0.914113
O O9 0.264493 0.328736 0.955752
O O10 0.001198 0.620362 0.964580
O O11 0.230794 0.537811 0.913809
O O12 0.000000 0.450102 0.250000
#
# Coordination Sequence:
#
# PCOD9233669 Si02
#       6
#     2   4   4   4   4   4
#     4  12  24  40  60  98 132 160 208 262 310 378
#     4  10  23  44  66  92 127 172 208 262 320 376
#     4  10  21  42  65  90 124 167 217 260 309 379
#     4  10  24  42  65  95 131 164 211 260 318 380
#     4  11  24  39  64  93 127 166 209 262 322 371
#     4  11  21  42  64  89 126 170 212 266 313 374
#
# _framework density 21.585269
#
# number of rings (size 3 to 8) (size 9 to 14) (size 15 to 20)
#    0.000    1.455    4.545    0.000    2.545    2.909 
#    3.273    1.818    0.000    0.000    0.000    0.000 
#    0.000    0.000    0.000    0.000    0.000    0.000 
#
# Total GULP energy -122870.701167 kJ/mol
# GULP energy per Si atom -5585.031871 kJ/mol
# Density = 2.153614 g / cm^3
# Si number density = 21.585269 Si / 1000 Ang^3
#
#
#
# Elastic Constant Matrix: (Units=GPa)
#
#
# Indices 1 2 3 4 5 6 
#
# 1 95.8980 20.5232 20.8181 0.0000 15.7339 0.0000
# 2 20.5232 150.8024 39.8956 0.0000 11.6020 0.0000
# 3 20.8181 39.8956 58.4184 0.0000 22.0804 0.0000
# 4 0.0000 0.0000 0.0000 45.5665 0.0000 9.9481
# 5 15.7339 11.6020 22.0804 0.0000 27.4572 0.0000
# 6 0.0000 0.0000 0.0000 9.9481 0.0000 36.7244
#
#
#
# Elastic Compliance Matrix: (Units=1/GPa)
#
#
# Indices 1 2 3 4 5 6 
#
# 1 0.011799 -0.000743 -0.001811 0.000000 -0.004991 0.000000
# 2 -0.000743 0.008182 -0.006001 0.000000 0.001794 0.000000
# 3 -0.001811 -0.006001 0.029468 0.000000 -0.020124 0.000000
# 4 0.000000 0.000000 0.000000 0.023325 0.000000 -0.006319
# 5 -0.004991 0.001794 -0.020124 0.000000 0.054705 0.000000
# 6 0.000000 0.000000 0.000000 -0.006319 0.000000 0.028941
#
#
# Mechanical properties :
#
#
# Convention : Reuss Voigt Hill
#
# Bulk Modulus (GPa) = 30.92274 51.95475 41.43875
# Shear Modulus (GPa) = 27.12825 36.87508 32.00167
#
# Velocity S-wave (km/s) = 3.54898 4.13770 3.85459
# Velocity P-wave (km/s) = 5.58127 6.85195 6.24899
#
# Compressibility (1/GPa) = 0.03233866
#
# Stress axis : x y z
#
# Youngs Moduli (GPa) = 84.75533 122.22154 33.93523
#
# Poissons Ratio (x) = 0.09076 0.06146
# Poissons Ratio (y) = 0.06294 0.20365
# Poissons Ratio (z) = 0.15350 0.73348
#
# Static dielectric constant tensor:
#      x y z
#    x 1.799630 0.000000 -0.008110 
#    y 0.000000 1.764780 0.000000 
#    z -0.008110 0.000000 1.803520 
# 
# From -- ./inp_files/29335.got.cif
#   From: 2010.05.17/outbox.cif.g08.bks.cpg/sg13_15_cif.got.tgz:29335.got - 2010.06.03 16:44:36.
