data_PCOD9233186
_publ_section_title
;
Structure prediction by ZEFSAII (Michael W. Deem and Ramdas Pophale) SiO2 
 PCOD9233186
Probable space group: P 2/C
;
_chemical_formula_sum "Si O2"
_cell_formula_units_Z 32
_cell_length_a 17.418404
_cell_length_b 5.403101
_cell_length_c 29.314909
_cell_angle_alpha 90.000000
_cell_angle_beta 27.538924
_cell_angle_gamma 90.000000
_cell_volume 1275.592303
_symmetry_space_group_name_H-M "P 2/C"
_symmetry_group_IT_number 13
_symmetry_cell_setting 'monoclinic'
loop_
_space_group_symop_operation_xyz
x,y,z
-x,y,1/2-z
-x,-y,-z
x,-y,1/2+z
loop_
_atom_site_type_symbol
_atom_site_label
_atom_site_fract_x
_atom_site_fract_y
_atom_site_fract_z
Si Si1 0.725594 0.363853 0.186851
Si Si2 0.387002 0.896591 0.889009
Si Si3 0.095347 0.966287 0.379574
Si Si4 0.891708 0.693190 0.413192
Si Si5 0.377434 0.773623 0.184934
Si Si6 0.100038 0.797133 0.649297
Si Si7 0.702835 0.233072 0.639417
Si Si8 0.475502 0.252713 0.985048
O O1 0.676853 0.557321 0.252447
O O2 0.736355 0.477752 0.130120
O O3 0.553416 0.204847 0.277123
O O4 0.906666 0.252056 0.104221
O O5 0.451454 0.112812 0.888114
O O6 0.267209 0.052315 0.918402
O O7 0.297806 0.696230 0.968038
O O8 0.244413 0.989039 0.263636
O O9 0.181737 0.867995 0.380481
O O10 0.984509 0.774609 0.410822
O O11 0.941349 0.436865 0.362590
O O12 0.914950 0.934313 0.367807
O O13 0.391020 0.720655 0.125492
O O14 0.291079 0.756238 0.562183
O O15 0.000000 0.792120 0.750000
O O16 0.500000 0.225868 0.750000
O O17 0.500000 0.500000 0.000000
O O18 0.500000 0.000000 0.000000
#
# Coordination Sequence:
#
# PCOD9233186 Si02
#       8
#     4   4   4   4   4   4   4   4
#     4  10  21  39  70  97 140 184 250 297 367 431
#     4  11  23  42  70 100 146 190 238 312 361 448
#     4  10  25  40  68 102 140 193 246 288 358 449
#     4  12  28  49  74 106 154 199 245 296 387 450
#     4  10  22  41  67 101 137 185 244 296 369 430
#     4  12  29  52  76 108 153 201 246 309 389 456
#     4  11  21  39  65 105 134 183 247 302 361 417
#     4  12  28  45  75 111 142 182 251 313 367 442
#
# _framework density 25.086386000000001
#
# number of rings (size 3 to 8) (size 9 to 14) (size 15 to 20)
#    0.000    1.000    5.000    1.875   12.250    0.500 
#    0.000    0.625    0.000    0.000    0.000    0.000 
#    0.000    0.000    0.000    0.000    0.000    0.000 
#
# Total GULP energy -178346.817847 kJ/mol
# GULP energy per Si atom -5573.338058 kJ/mol
# Density = 2.502929 g / cm^3
# Si number density = 25.086386 Si / 1000 Ang^3
#
#
#
# Elastic Constant Matrix: (Units=GPa)
#
#
# Indices 1 2 3 4 5 6 
#
# 1 86.1487 34.6467 9.6554 0.0000 6.6867 0.0000
# 2 34.6467 117.6789 13.6754 0.0000 14.8854 0.0000
# 3 9.6554 13.6754 64.1615 0.0000 21.1793 0.0000
# 4 0.0000 0.0000 0.0000 30.7076 0.0000 8.0490
# 5 6.6867 14.8854 21.1793 0.0000 36.9205 0.0000
# 6 0.0000 0.0000 0.0000 8.0490 0.0000 47.9104
#
#
#
# Elastic Compliance Matrix: (Units=1/GPa)
#
#
# Indices 1 2 3 4 5 6 
#
# 1 0.013257 -0.003742 -0.001114 0.000000 -0.000254 0.000000
# 2 -0.003742 0.010051 -0.000574 0.000000 -0.003046 0.000000
# 3 -0.001114 -0.000574 0.019408 0.000000 -0.010700 0.000000
# 4 0.000000 0.000000 0.000000 0.034065 0.000000 -0.005723
# 5 -0.000254 -0.003046 -0.010700 0.000000 0.034497 0.000000
# 6 0.000000 0.000000 0.000000 -0.005723 0.000000 0.021834
#
#
# Mechanical properties :
#
#
# Convention : Reuss Voigt Hill
#
# Bulk Modulus (GPa) = 31.39015 42.66045 37.02530
# Shear Modulus (GPa) = 32.34362 37.10846 34.72604
#
# Velocity S-wave (km/s) = 3.59456 3.85024 3.72460
# Velocity P-wave (km/s) = 5.45599 6.06697 5.76958
#
# Compressibility (1/GPa) = 0.03185713
#
# Stress axis : x y z
#
# Youngs Moduli (GPa) = 75.43103 99.49026 51.52623
#
# Poissons Ratio (x) = 0.37226 0.05739
# Poissons Ratio (y) = 0.28223 0.02957
# Poissons Ratio (z) = 0.08402 0.05710
#
# Static dielectric constant tensor:
#      x y z
#    x 2.165900 0.000000 -0.129410 
#    y 0.000000 2.332070 0.000000 
#    z -0.129410 0.000000 2.084700 
# 
# From -- ./inp_files/97250.got.cif
#   From: 2010.05.17/outbox.cif.g08.bks.cpg/sg13_49_cif.got.tgz:97250.got - 2010.06.03 16:44:36.
