data_PCOD9233752
_publ_section_title
;
Structure prediction by ZEFSAII (Michael W. Deem and Ramdas Pophale) SiO2 
 PCOD9233752
Probable space group: P 2/C
;
_chemical_formula_sum "Si O2"
_cell_formula_units_Z 26
_cell_length_a 5.467313
_cell_length_b 5.219538
_cell_length_c 35.001131
_cell_angle_alpha 90.000000
_cell_angle_beta 80.686497
_cell_angle_gamma 90.000000
_cell_volume 985.655087
_symmetry_space_group_name_H-M "P 2/C"
_symmetry_group_IT_number 13
_symmetry_cell_setting 'monoclinic'
loop_
_space_group_symop_operation_xyz
x,y,z
-x,y,1/2-z
-x,-y,-z
x,-y,1/2+z
loop_
_atom_site_type_symbol
_atom_site_label
_atom_site_fract_x
_atom_site_fract_y
_atom_site_fract_z
Si Si1 0.023677 0.498061 0.045639
Si Si2 0.131248 0.771802 0.828236
Si Si3 0.773177 0.004004 0.474960
Si Si4 0.300259 0.148684 0.634719
Si Si5 0.427563 0.365214 0.391057
Si Si6 0.564187 0.128646 0.786140
Si Si7 0.000000 0.251300 0.250000
O O1 0.759501 0.437332 0.070216
O O2 0.151321 0.764369 0.052509
O O3 0.203051 0.262093 0.049290
O O4 0.000000 0.500000 0.000000
O O5 0.259717 0.595668 0.856774
O O6 0.333895 0.968891 0.807399
O O7 0.934266 0.957032 0.854632
O O8 0.048395 0.628401 0.790964
O O9 0.647457 0.573922 0.385231
O O10 0.500000 0.000000 0.500000
O O11 0.000000 0.000000 0.500000
O O12 0.497597 0.936069 0.613478
O O13 0.332157 0.240887 0.677972
O O14 0.500000 0.292048 0.750000
O O15 0.767942 0.928313 0.766204
#
# Coordination Sequence:
#
# PCOD9233752 Si02
#       7
#     4   4   4   4   4   4   2
#     4  10  22  43  66  96 133 175 227 285 345 417
#     4   9  19  37  62  96 130 175 223 281 342 407
#     4  10  21  42  69  99 136 173 226 286 350 423
#     4  10  22  39  62  91 130 171 222 276 343 404
#     4  11  23  43  64  92 134 174 225 279 344 410
#     4   8  15  32  60  88 127 165 216 268 328 401
#     4   8  14  32  64  96 126 174 218 276 336 402
#
# _framework density 26.378397
#
# number of rings (size 3 to 8) (size 9 to 14) (size 15 to 20)
#    0.000    2.462    0.000    1.385    0.000    2.462 
#   16.615    7.692    0.000   43.385    0.000    0.000 
#    0.000    0.000    0.000    0.000    0.000    0.000 
#
# Total GULP energy -145095.269015 kJ/mol
# GULP energy per Si atom -5580.587270 kJ/mol
# Density = 2.631836 g / cm^3
# Si number density = 26.378397 Si / 1000 Ang^3
#
#
#
# Elastic Constant Matrix: (Units=GPa)
#
#
# Indices 1 2 3 4 5 6 
#
# 1 121.1364 37.1463 17.7351 0.0000 -41.4438 0.0000
# 2 37.1463 175.1392 27.4807 0.0000 -22.2844 0.0000
# 3 17.7351 27.4807 117.8378 0.0000 0.5229 0.0000
# 4 0.0000 0.0000 0.0000 -185.7360 0.0000 -94.8407
# 5 -41.4438 -22.2844 0.5229 0.0000 66.2300 0.0000
# 6 0.0000 0.0000 0.0000 -94.8407 0.0000 20.8967
#
#
#
# Elastic Compliance Matrix: (Units=1/GPa)
#
#
# Indices 1 2 3 4 5 6 
#
# 1 0.011086 -0.001304 -0.001393 0.000000 0.006509 0.000000
# 2 -0.001304 0.006359 -0.001293 0.000000 0.001333 0.000000
# 3 -0.001393 -0.001293 0.009003 0.000000 -0.001378 0.000000
# 4 0.000000 0.000000 0.000000 -0.001623 0.000000 -0.007366
# 5 0.006509 0.001333 -0.001378 0.000000 0.019632 0.000000
# 6 0.000000 0.000000 0.000000 -0.007366 0.000000 0.014425
#
#
# Mechanical properties :
#
#
# Convention : Reuss Voigt Hill
#
# Bulk Modulus (GPa) = 54.14747 64.31531 59.23139
# Shear Modulus (GPa) = 68.47566 2.39489 35.43528
#
# Velocity S-wave (km/s) = 5.10052 0.95387 3.66914
# Velocity P-wave (km/s) = 7.43363 5.06438 6.36030
#
# Compressibility (1/GPa) = 0.01846808
#
# Stress axis : x y z
#
# Youngs Moduli (GPa) = 90.20277 157.25992 111.06837
#
# Poissons Ratio (x) = 0.20514 0.15474
# Poissons Ratio (y) = 0.11767 0.14356
# Poissons Ratio (z) = 0.12567 0.20326
#
# Static dielectric constant tensor:
#      x y z
#    x 1.948550 0.000000 -0.022360 
#    y 0.000000 2.718130 0.000000 
#    z -0.022360 0.000000 2.124620 
# 
# From -- ./inp_files/94756.got.cif
#   From: 2010.05.17/outbox.cif.g08.bks.cpg/sg13_48_cif.got.tgz:94756.got - 2010.06.03 16:44:36.
