data_PCOD9233326
_publ_section_title
;
Structure prediction by ZEFSAII (Michael W. Deem and Ramdas Pophale) SiO2 
 PCOD9233326
Probable space group: P 2/C
;
_chemical_formula_sum "Si O2"
_cell_formula_units_Z 24
_cell_length_a 9.079135
_cell_length_b 8.910348
_cell_length_c 19.479094
_cell_angle_alpha 90.000000
_cell_angle_beta 47.719687
_cell_angle_gamma 90.000000
_cell_volume 1165.893260
_symmetry_space_group_name_H-M "P 2/C"
_symmetry_group_IT_number 13
_symmetry_cell_setting 'monoclinic'
loop_
_space_group_symop_operation_xyz
x,y,z
-x,y,1/2-z
-x,-y,-z
x,-y,1/2+z
loop_
_atom_site_type_symbol
_atom_site_label
_atom_site_fract_x
_atom_site_fract_y
_atom_site_fract_z
Si Si1 0.960362 0.902206 0.605967
Si Si2 0.550448 0.407895 0.814338
Si Si3 0.624532 0.926074 0.282131
Si Si4 0.952652 0.407094 0.187246
Si Si5 0.326591 0.439790 0.503060
Si Si6 0.297523 0.106782 0.453768
O O1 0.840697 0.878509 0.571602
O O2 0.958637 0.741887 0.641024
O O3 0.839112 0.018903 0.691299
O O4 0.177943 0.973405 0.528846
O O5 0.500000 0.400990 0.750000
O O6 0.611427 0.239828 0.817415
O O7 0.374530 0.472729 0.916776
O O8 0.738285 0.516619 0.758482
O O9 0.500000 0.922453 0.250000
O O10 0.512845 0.046545 0.364089
O O11 0.000000 0.366585 0.250000
O O12 0.117538 0.516670 0.102880
O O13 0.500000 0.500000 0.500000
O O14 0.320867 0.262953 0.486598
#
# Coordination Sequence:
#
# PCOD9233326 Si02
#       6
#     4   4   4   4   4   4
#     4  10  21  40  65  95 124 166 221 274 330 389
#     4  11  23  43  72  99 127 173 225 271 327 396
#     4   9  19  37  63  95 125 157 211 272 320 379
#     4  12  25  43  63  95 138 174 215 270 334 400
#     4  12  25  43  64  94 139 178 215 274 334 400
#     4  10  21  40  66  94 126 165 221 278 325 389
#
# _framework density 20.585073999999999
#
# number of rings (size 3 to 8) (size 9 to 14) (size 15 to 20)
#    0.000    1.333    1.667    4.000    0.000    6.667 
#    3.000    1.667    0.000    0.000    0.000    0.000 
#    0.000    0.000    0.000    0.000    0.000    0.000 
#
# Total GULP energy -134090.421739 kJ/mol
# GULP energy per Si atom -5587.100906 kJ/mol
# Density = 2.053822 g / cm^3
# Si number density = 20.585074 Si / 1000 Ang^3
#
#
#
# Elastic Constant Matrix: (Units=GPa)
#
#
# Indices 1 2 3 4 5 6 
#
# 1 26.0739 1.0923 -9.1750 0.0000 5.0321 0.0000
# 2 1.0923 100.5628 -12.1631 0.0000 15.3733 0.0000
# 3 -9.1750 -12.1631 67.6660 0.0000 2.7830 0.0000
# 4 0.0000 0.0000 0.0000 45.1287 0.0000 -1.7312
# 5 5.0321 15.3733 2.7830 0.0000 16.7971 0.0000
# 6 0.0000 0.0000 0.0000 -1.7312 0.0000 14.0583
#
#
#
# Elastic Compliance Matrix: (Units=1/GPa)
#
#
# Indices 1 2 3 4 5 6 
#
# 1 0.044082 0.003020 0.007226 0.000000 -0.017167 0.000000
# 2 0.003020 0.012216 0.003124 0.000000 -0.012602 0.000000
# 3 0.007226 0.003124 0.016640 0.000000 -0.007781 0.000000
# 4 0.000000 0.000000 0.000000 0.022264 0.000000 0.002742
# 5 -0.017167 -0.012602 -0.007781 0.000000 0.077500 0.000000
# 6 0.000000 0.000000 0.000000 0.002742 0.000000 0.071470
#
#
# Mechanical properties :
#
#
# Convention : Reuss Voigt Hill
#
# Bulk Modulus (GPa) = 10.03256 17.09012 13.56134
# Shear Modulus (GPa) = 19.94746 29.50007 24.72376
#
# Velocity S-wave (km/s) = 3.11629 3.78971 3.46938
# Velocity P-wave (km/s) = 4.22288 5.24113 4.75931
#
# Compressibility (1/GPa) = 0.09967544
#
# Stress axis : x y z
#
# Youngs Moduli (GPa) = 22.68503 81.86270 60.09713
#
# Poissons Ratio (x) = -0.24719 -0.43426
# Poissons Ratio (y) = -0.06850 -0.18772
# Poissons Ratio (z) = -0.16392 -0.25570
#
# Static dielectric constant tensor:
#      x y z
#    x 1.705060 0.000000 0.002120 
#    y 0.000000 1.717680 0.000000 
#    z 0.002120 0.000000 1.709110 
# 
# From -- ./inp_files/75611.got.cif
#   From: 2010.05.17/outbox.cif.g08.bks.cpg/sg13_38_cif.got.tgz:75611.got - 2010.06.03 16:44:36.
