data_PCOD9233383
_publ_section_title
;
Structure prediction by ZEFSAII (Michael W. Deem and Ramdas Pophale) SiO2 
 PCOD9233383
Probable space group: P 2/C
;
_chemical_formula_sum "Si O2"
_cell_formula_units_Z 16
_cell_length_a 9.155311
_cell_length_b 13.282142
_cell_length_c 6.173759
_cell_angle_alpha 90.000000
_cell_angle_beta 125.405702
_cell_angle_gamma 90.000000
_cell_volume 611.907642
_symmetry_space_group_name_H-M "P 2/C"
_symmetry_group_IT_number 13
_symmetry_cell_setting 'monoclinic'
loop_
_space_group_symop_operation_xyz
x,y,z
-x,y,1/2-z
-x,-y,-z
x,-y,1/2+z
loop_
_atom_site_type_symbol
_atom_site_label
_atom_site_fract_x
_atom_site_fract_y
_atom_site_fract_z
Si Si1 0.750194 0.091765 0.360807
Si Si2 0.850174 0.126077 0.922323
Si Si3 0.659367 0.729853 0.538356
Si Si4 0.790663 0.531744 0.830899
O O1 0.798426 0.139121 0.629221
O O2 0.728233 0.972698 0.377875
O O3 0.939069 0.098539 0.392836
O O4 0.613183 0.165636 0.124120
O O5 0.806039 0.230840 0.995202
O O6 0.500000 0.692849 0.250000
O O7 0.741511 0.649264 0.769237
O O8 0.727019 0.497256 0.525939
O O9 0.000000 0.500000 0.000000
#
# Coordination Sequence:
#
# PCOD9233383 Si02
#       4
#     4   4   4   4
#     4  10  21  40  68  98 136 188 242 291 338 423
#     4  10  21  40  67  99 137 187 245 289 337 426
#     4  12  27  42  68 105 146 188 228 295 377 435
#     4  10  26  50  78 106 132 186 248 312 362 430
#
# _framework density 26.147736999999999
#
# number of rings (size 3 to 8) (size 9 to 14) (size 15 to 20)
#    0.000    1.500    2.500    0.750   10.500    5.000 
#    0.000    0.000    0.000    0.000    0.000    0.000 
#    0.000    0.000    0.000    0.000    0.000    0.000 
#
# Total GULP energy -89177.687296 kJ/mol
# GULP energy per Si atom -5573.605456 kJ/mol
# Density = 2.608822 g / cm^3
# Si number density = 26.147737 Si / 1000 Ang^3
#
#
#
# Elastic Constant Matrix: (Units=GPa)
#
#
# Indices 1 2 3 4 5 6 
#
# 1 52.6832 25.4914 25.9141 0.0000 3.3366 0.0000
# 2 25.4914 122.9821 63.4310 0.0000 7.0086 0.0000
# 3 25.9141 63.4310 130.2269 0.0000 -11.1658 0.0000
# 4 0.0000 0.0000 0.0000 80.0304 0.0000 -9.0830
# 5 3.3366 7.0086 -11.1658 0.0000 52.2750 0.0000
# 6 0.0000 0.0000 0.0000 -9.0830 0.0000 21.4272
#
#
#
# Elastic Compliance Matrix: (Units=1/GPa)
#
#
# Indices 1 2 3 4 5 6 
#
# 1 0.022010 -0.002847 -0.003138 0.000000 -0.001693 0.000000
# 2 -0.002847 0.011596 -0.005296 0.000000 -0.002504 0.000000
# 3 -0.003138 -0.005296 0.011166 0.000000 0.003295 0.000000
# 4 0.000000 0.000000 0.000000 0.013127 0.000000 0.005564
# 5 -0.001693 -0.002504 0.003295 0.000000 0.020277 0.000000
# 6 0.000000 0.000000 0.000000 0.005564 0.000000 0.049028
#
#
# Mechanical properties :
#
#
# Convention : Reuss Voigt Hill
#
# Bulk Modulus (GPa) = 45.02835 59.50722 52.26779
# Shear Modulus (GPa) = 31.81277 43.48356 37.64816
#
# Velocity S-wave (km/s) = 3.49184 4.08241 3.79862
# Velocity P-wave (km/s) = 5.78925 6.71036 6.26675
#
# Compressibility (1/GPa) = 0.02220823
#
# Stress axis : x y z
#
# Youngs Moduli (GPa) = 45.43418 86.23838 89.56040
#
# Poissons Ratio (x) = 0.24552 0.28106
# Poissons Ratio (y) = 0.12935 0.47433
# Poissons Ratio (z) = 0.14258 0.45674
#
# Static dielectric constant tensor:
#      x y z
#    x 3.320500 0.000000 0.315930 
#    y 0.000000 1.990150 0.000000 
#    z 0.315930 0.000000 2.402130 
# 
# From -- ./inp_files/2970.got.cif
#   From: 2010.05.17/outbox.cif.g08.bks.cpg/sg13_2_cif.got.tgz:2970.got - 2010.06.03 16:44:36.
