data_PCOD9233745
_publ_section_title
;
Structure prediction by ZEFSAII (Michael W. Deem and Ramdas Pophale) SiO2 
 PCOD9233745
Probable space group: P 2/C
;
_chemical_formula_sum "Si O2"
_cell_formula_units_Z 24
_cell_length_a 15.200323
_cell_length_b 5.454470
_cell_length_c 12.863076
_cell_angle_alpha 90.000000
_cell_angle_beta 101.770357
_cell_angle_gamma 90.000000
_cell_volume 1044.049162
_symmetry_space_group_name_H-M "P 2/C"
_symmetry_group_IT_number 13
_symmetry_cell_setting 'monoclinic'
loop_
_space_group_symop_operation_xyz
x,y,z
-x,y,1/2-z
-x,-y,-z
x,-y,1/2+z
loop_
_atom_site_type_symbol
_atom_site_label
_atom_site_fract_x
_atom_site_fract_y
_atom_site_fract_z
Si Si1 0.751968 0.950883 0.437573
Si Si2 0.443205 0.493701 0.822153
Si Si3 0.426889 0.183682 0.021906
Si Si4 0.750696 0.557529 0.807524
Si Si5 0.935414 0.800796 0.533876
Si Si6 0.940054 0.534743 0.315742
O O1 0.662172 0.038329 0.471510
O O2 0.775861 0.190264 0.373517
O O3 0.736960 0.695602 0.371099
O O4 0.836812 0.903604 0.532881
O O5 0.500000 0.335008 0.750000
O O6 0.523633 0.678435 0.872147
O O7 0.347889 0.601209 0.763087
O O8 0.414546 0.364327 0.922212
O O9 0.500000 0.000000 0.000000
O O10 0.837774 0.510626 0.755354
O O11 0.922866 0.626651 0.429740
O O12 0.987543 0.677735 0.640829
O O13 0.000000 0.000000 0.500000
O O14 0.000000 0.695057 0.250000
#
# Coordination Sequence:
#
# PCOD9233745 Si02
#       6
#     4   4   4   4   4   4
#     4  11  24  45  71 101 140 179 236 286 349 422
#     4  11  24  44  69 100 141 184 234 297 351 416
#     4  11  26  42  69 101 136 188 238 285 358 421
#     4  11  24  45  70 101 138 185 230 291 351 412
#     4  10  21  42  69  95 141 183 222 293 355 410
#     4  10  23  42  67 102 139 181 239 285 353 426
#
# _framework density 22.987424000000001
#
# number of rings (size 3 to 8) (size 9 to 14) (size 15 to 20)
#    0.000    1.333    3.333    1.000    4.667    4.000 
#    0.000    0.000    0.000    0.000    0.000    0.000 
#    0.000    0.000    0.000    0.000    0.000    0.000 
#
# Total GULP energy -133724.490756 kJ/mol
# GULP energy per Si atom -5571.853781 kJ/mol
# Density = 2.293510 g / cm^3
# Si number density = 22.987424 Si / 1000 Ang^3
#
#
#
# Elastic Constant Matrix: (Units=GPa)
#
#
# Indices 1 2 3 4 5 6 
#
# 1 220.2841 16.8808 56.5245 0.0000 6.7995 0.0000
# 2 16.8808 74.7991 16.3095 0.0000 15.6750 0.0000
# 3 56.5245 16.3095 62.5852 0.0000 13.2437 0.0000
# 4 0.0000 0.0000 0.0000 -2.1030 0.0000 1.3665
# 5 6.7995 15.6750 13.2437 0.0000 33.3843 0.0000
# 6 0.0000 0.0000 0.0000 1.3665 0.0000 39.2906
#
#
#
# Elastic Compliance Matrix: (Units=1/GPa)
#
#
# Indices 1 2 3 4 5 6 
#
# 1 0.005949 -0.000382 -0.005518 0.000000 0.001157 0.000000
# 2 -0.000382 0.015254 -0.002326 0.000000 -0.006161 0.000000
# 3 -0.005518 -0.002326 0.023033 0.000000 -0.006921 0.000000
# 4 0.000000 0.000000 0.000000 -0.465001 0.000000 0.016173
# 5 0.001157 -0.006161 -0.006921 0.000000 0.035357 0.000000
# 6 0.000000 0.000000 0.000000 0.016173 0.000000 0.024889
#
#
# Mechanical properties :
#
#
# Convention : Reuss Voigt Hill
#
# Bulk Modulus (GPa) = 35.99348 59.67756 47.83552
# Shear Modulus (GPa) = -14.93407 31.97794 8.52194
#
# Velocity S-wave (km/s) = -2.55161 3.73380 1.92750
# Velocity P-wave (km/s) = 2.64781 6.67875 5.08019
#
# Compressibility (1/GPa) = 0.02778281
#
# Stress axis : x y z
#
# Youngs Moduli (GPa) = 168.09167 65.55756 43.41603
#
# Poissons Ratio (x) = 0.02503 0.23958
# Poissons Ratio (y) = 0.06417 0.10100
# Poissons Ratio (z) = 0.92758 0.15252
#
# Static dielectric constant tensor:
#      x y z
#    x 1.507710 0.000000 -1.030400 
#    y 0.000000 1.934740 0.000000 
#    z -1.030400 0.000000 -1.383320 
# 
# From -- ./inp_files/52280.got.cif
#   From: 2010.05.17/outbox.cif.g08.bks.cpg/sg13_27_cif.got.tgz:52280.got - 2010.06.03 16:44:36.
