data_PCOD9233682
_publ_section_title
;
Structure prediction by ZEFSAII (Michael W. Deem and Ramdas Pophale) SiO2 
 PCOD9233682
Probable space group: P 2/C
;
_chemical_formula_sum "Si O2"
_cell_formula_units_Z 24
_cell_length_a 14.885705
_cell_length_b 7.501047
_cell_length_c 18.462748
_cell_angle_alpha 90.000000
_cell_angle_beta 147.753258
_cell_angle_gamma 90.000000
_cell_volume 1099.958069
_symmetry_space_group_name_H-M "P 2/C"
_symmetry_group_IT_number 13
_symmetry_cell_setting 'monoclinic'
loop_
_space_group_symop_operation_xyz
x,y,z
-x,y,1/2-z
-x,-y,-z
x,-y,1/2+z
loop_
_atom_site_type_symbol
_atom_site_label
_atom_site_fract_x
_atom_site_fract_y
_atom_site_fract_z
Si Si1 0.016306 0.278329 0.922692
Si Si2 0.176753 0.596218 0.680467
Si Si3 0.895054 0.083897 0.284395
Si Si4 0.252970 0.840418 0.968536
Si Si5 0.470231 0.502544 0.066176
Si Si6 0.374012 0.194079 0.099105
O O1 0.067424 0.325750 0.039858
O O2 0.186681 0.241695 0.996643
O O3 0.921595 0.457793 0.835430
O O4 0.908849 0.100566 0.836877
O O5 0.342790 0.488669 0.770612
O O6 0.219980 0.772880 0.753820
O O7 0.084327 0.167866 0.403553
O O8 0.817919 0.065464 0.152451
O O9 0.345969 0.657720 0.010024
O O10 0.380033 0.983159 0.089312
O O11 0.405859 0.312629 0.050559
O O12 0.500000 0.500000 0.000000
O O13 0.500000 0.242430 0.250000
#
# Coordination Sequence:
#
# PCOD9233682 Si02
#       6
#     4   4   4   4   4   4
#     4  10  23  42  65  93 125 175 219 265 323 395
#     4  11  22  41  66  96 129 168 215 270 332 390
#     4  10  21  42  66  92 130 169 219 270 324 395
#     4  10  24  41  65  96 126 174 219 269 332 394
#     4  12  25  42  66  98 136 167 214 278 335 395
#     4  11  24  46  65  93 132 174 221 270 329 400
#
# _framework density 21.819013000000002
#
# number of rings (size 3 to 8) (size 9 to 14) (size 15 to 20)
#    0.000    1.333    3.333    1.500    2.333    2.667 
#   12.000    0.000    0.000    0.000    0.000    0.000 
#    0.000    0.000    0.000    0.000    0.000    0.000 
#
# Total GULP energy -133925.297590 kJ/mol
# GULP energy per Si atom -5580.220733 kJ/mol
# Density = 2.176935 g / cm^3
# Si number density = 21.819013 Si / 1000 Ang^3
#
#
#
# Elastic Constant Matrix: (Units=GPa)
#
#
# Indices 1 2 3 4 5 6 
#
# 1 56.5088 42.2877 0.9684 0.0000 -1.9750 0.0000
# 2 42.2877 122.6665 37.8286 0.0000 12.6963 0.0000
# 3 0.9684 37.8286 55.5486 0.0000 0.2694 0.0000
# 4 0.0000 0.0000 0.0000 13.2137 0.0000 -10.9783
# 5 -1.9750 12.6963 0.2694 0.0000 21.4185 0.0000
# 6 0.0000 0.0000 0.0000 -10.9783 0.0000 31.6735
#
#
#
# Elastic Compliance Matrix: (Units=1/GPa)
#
#
# Indices 1 2 3 4 5 6 
#
# 1 0.027873 -0.013310 0.008528 0.000000 0.010353 0.000000
# 2 -0.013310 0.017518 -0.011642 0.000000 -0.011465 0.000000
# 3 0.008528 -0.011642 0.025746 0.000000 0.007364 0.000000
# 4 0.000000 0.000000 0.000000 0.106287 0.000000 0.036840
# 5 0.010353 -0.011465 0.007364 0.000000 0.054347 0.000000
# 6 0.000000 0.000000 0.000000 0.036840 0.000000 0.044341
#
#
# Mechanical properties :
#
#
# Convention : Reuss Voigt Hill
#
# Bulk Modulus (GPa) = 26.11766 44.09926 35.10846
# Shear Modulus (GPa) = 15.54140 23.50374 19.52257
#
# Velocity S-wave (km/s) = 2.67177 3.28565 2.99448
# Velocity P-wave (km/s) = 4.63831 5.88637 5.29921
#
# Compressibility (1/GPa) = 0.03828826
#
# Stress axis : x y z
#
# Youngs Moduli (GPa) = 35.87757 57.08573 38.84109
#
# Poissons Ratio (x) = 0.75982 -0.33124
# Poissons Ratio (y) = 0.47754 0.45218
# Poissons Ratio (z) = -0.30597 0.66458
#
# Static dielectric constant tensor:
#      x y z
#    x 1.811030 0.000000 0.013620 
#    y 0.000000 1.784830 0.000000 
#    z 0.013620 0.000000 1.895200 
# 
# From -- ./inp_files/87757.got.cif
#   From: 2010.05.17/outbox.cif.g08.bks.cpg/sg13_44_cif.got.tgz:87757.got - 2010.06.03 16:44:36.
