data_PCOD9233150
_publ_section_title
;
Structure prediction by ZEFSAII (Michael W. Deem and Ramdas Pophale) SiO2 
 PCOD9233150
Probable space group: P 2/C
;
_chemical_formula_sum "Si O2"
_cell_formula_units_Z 20
_cell_length_a 25.211737
_cell_length_b 9.105196
_cell_length_c 28.146418
_cell_angle_alpha 90.000000
_cell_angle_beta 8.537257
_cell_angle_gamma 90.000000
_cell_volume 959.185710
_symmetry_space_group_name_H-M "P 2/C"
_symmetry_group_IT_number 13
_symmetry_cell_setting 'monoclinic'
loop_
_space_group_symop_operation_xyz
x,y,z
-x,y,1/2-z
-x,-y,-z
x,-y,1/2+z
loop_
_atom_site_type_symbol
_atom_site_label
_atom_site_fract_x
_atom_site_fract_y
_atom_site_fract_z
Si Si1 0.540063 0.881198 0.423630
Si Si2 0.673170 0.862894 0.741395
Si Si3 0.426146 0.555487 0.952988
Si Si4 0.392002 0.247130 0.399789
Si Si5 0.837686 0.581966 0.725788
O O1 0.262990 0.752231 0.679123
O O2 0.500000 0.000000 0.500000
O O3 0.530961 0.979680 0.384125
O O4 0.945931 0.830099 0.072270
O O5 0.449720 0.719552 0.954759
O O6 0.663304 0.844701 0.693011
O O7 0.354574 0.599686 0.962019
O O8 0.799371 0.465582 0.622091
O O9 0.147967 0.474205 0.232424
O O10 0.500000 0.262376 0.250000
O O11 0.000000 0.175856 0.750000
O O12 0.500000 0.500000 0.000000
#
# Coordination Sequence:
#
# PCOD9233150 Si02
#       5
#     4   4   4   4   4
#     4  11  23  36  60  89 139 162 195 255 321 391
#     4   9  23  37  58  94 121 159 214 245 321 374
#     4  10  23  37  59  92 115 153 217 245 312 365
#     4  10  21  39  67  88 113 157 217 274 296 359
#     4  12  21  36  59  88 128 160 191 244 307 384
#
# _framework density 20.851019999999998
#
# number of rings (size 3 to 8) (size 9 to 14) (size 15 to 20)
#    1.200    0.400    2.000    3.000    8.400    0.000 
#    0.000    0.000    0.000    4.800    0.000    0.000 
#    0.000    0.000    0.000    0.000    0.000    0.000 
#
# Total GULP energy -111426.317787 kJ/mol
# GULP energy per Si atom -5571.315889 kJ/mol
# Density = 2.080356 g / cm^3
# Si number density = 20.851020 Si / 1000 Ang^3
#
#
#
# Elastic Constant Matrix: (Units=GPa)
#
#
# Indices 1 2 3 4 5 6 
#
# 1 131.5664 36.1176 12.5892 0.0000 16.4843 0.0000
# 2 36.1176 105.9832 14.3486 0.0000 -5.1602 0.0000
# 3 12.5892 14.3486 62.8273 0.0000 6.8201 0.0000
# 4 0.0000 0.0000 0.0000 17.3901 0.0000 5.9850
# 5 16.4843 -5.1602 6.8201 0.0000 26.7312 0.0000
# 6 0.0000 0.0000 0.0000 5.9850 0.0000 22.8905
#
#
#
# Elastic Compliance Matrix: (Units=1/GPa)
#
#
# Indices 1 2 3 4 5 6 
#
# 1 0.009382 -0.003452 -0.000402 0.000000 -0.006350 0.000000
# 2 -0.003452 0.011174 -0.002392 0.000000 0.004896 0.000000
# 3 -0.000402 -0.002392 0.017039 0.000000 -0.004561 0.000000
# 4 0.000000 0.000000 0.000000 0.063190 0.000000 -0.016522
# 5 -0.006350 0.004896 -0.004561 0.000000 0.043434 0.000000
# 6 0.000000 0.000000 0.000000 -0.016522 0.000000 0.048006
#
#
# Mechanical properties :
#
#
# Convention : Reuss Voigt Hill
#
# Bulk Modulus (GPa) = 39.83627 47.38750 43.61188
# Shear Modulus (GPa) = 23.46478 29.22378 26.34428
#
# Velocity S-wave (km/s) = 3.35827 3.74779 3.55836
# Velocity P-wave (km/s) = 5.84670 6.44236 6.15174
#
# Compressibility (1/GPa) = 0.02510275
#
# Stress axis : x y z
#
# Youngs Moduli (GPa) = 106.58191 89.49298 58.69042
#
# Poissons Ratio (x) = 0.30894 0.02362
# Poissons Ratio (y) = 0.36793 0.14037
# Poissons Ratio (z) = 0.04289 0.21404
#
# Static dielectric constant tensor:
#      x y z
#    x 1.841200 0.000000 -0.038130 
#    y 0.000000 2.559400 0.000000 
#    z -0.038130 0.000000 1.751990 
# 
# From -- ./inp_files/97846.got.cif
#   From: 2010.05.17/outbox.cif.g08.bks.cpg/sg13_49_cif.got.tgz:97846.got - 2010.06.03 16:44:36.
