data_PCOD9233803
_publ_section_title
;
Structure prediction by ZEFSAII (Michael W. Deem and Ramdas Pophale) SiO2 
 PCOD9233803
Probable space group: P 2/C
;
_chemical_formula_sum "Si O2"
_cell_formula_units_Z 28
_cell_length_a 25.238746
_cell_length_b 8.677856
_cell_length_c 8.769373
_cell_angle_alpha 90.000000
_cell_angle_beta 40.262968
_cell_angle_gamma 90.000000
_cell_volume 1241.311273
_symmetry_space_group_name_H-M "P 2/C"
_symmetry_group_IT_number 13
_symmetry_cell_setting 'monoclinic'
loop_
_space_group_symop_operation_xyz
x,y,z
-x,y,1/2-z
-x,-y,-z
x,-y,1/2+z
loop_
_atom_site_type_symbol
_atom_site_label
_atom_site_fract_x
_atom_site_fract_y
_atom_site_fract_z
Si Si1 0.578979 0.109349 0.474935
Si Si2 0.171239 0.179114 0.052001
Si Si3 0.016503 0.669283 0.031177
Si Si4 0.526757 0.761854 0.535090
Si Si5 0.132324 0.154068 0.777819
Si Si6 0.727342 0.316578 0.208258
Si Si7 0.309084 0.375161 0.879533
O O1 0.556243 0.192850 0.367856
O O2 0.664479 0.172317 0.346243
O O3 0.570891 0.926635 0.471728
O O4 0.500000 0.151228 0.750000
O O5 0.108198 0.289101 0.279766
O O6 0.158505 0.014111 0.160329
O O7 0.147696 0.166836 0.925135
O O8 0.261291 0.252463 0.877456
O O9 0.958428 0.794795 0.073790
O O10 0.000000 0.674631 0.250000
O O11 0.000000 0.500000 0.000000
O O12 0.596318 0.667204 0.298300
O O13 0.500000 0.683465 0.750000
O O14 0.190728 0.269684 0.557180
O O15 0.738122 0.369195 0.357320
O O16 0.691009 0.459899 0.197579
#
# Coordination Sequence:
#
# PCOD9233803 Si02
#       7
#     4   4   4   4   4   4   4
#     4  10  21  43  64  93 125 172 217 277 329 401
#     4  12  26  46  72 101 136 174 225 269 329 389
#     4  12  25  46  73 104 142 179 220 269 327 389
#     4  10  23  39  68  92 128 167 224 271 337 395
#     4  12  26  46  72 102 134 177 220 274 325 393
#     4  12  26  43  66  93 136 173 225 273 338 392
#     4  12  26  44  63  97 132 178 220 278 332 398
#
# _framework density 22.556791
#
# number of rings (size 3 to 8) (size 9 to 14) (size 15 to 20)
#    0.000    0.571    1.429    6.857    4.000    1.143 
#    0.000    0.000    0.000    0.000    0.000    0.000 
#    0.000    0.000    0.000    0.000    0.000    0.000 
#
# Total GULP energy -156656.525620 kJ/mol
# GULP energy per Si atom -5594.875915 kJ/mol
# Density = 2.250545 g / cm^3
# Si number density = 22.556791 Si / 1000 Ang^3
#
#
#
# Elastic Constant Matrix: (Units=GPa)
#
#
# Indices 1 2 3 4 5 6 
#
# 1 65.5275 -1.4115 17.5326 0.0000 21.4150 0.0000
# 2 -1.4115 72.1263 -11.0777 0.0000 3.2861 0.0000
# 3 17.5326 -11.0777 83.7170 0.0000 22.2104 0.0000
# 4 0.0000 0.0000 0.0000 21.5515 0.0000 -8.2187
# 5 21.4150 3.2861 22.2104 0.0000 54.7582 0.0000
# 6 0.0000 0.0000 0.0000 -8.2187 0.0000 24.2075
#
#
#
# Elastic Compliance Matrix: (Units=1/GPa)
#
#
# Indices 1 2 3 4 5 6 
#
# 1 0.017831 0.000313 -0.002059 0.000000 -0.006157 0.000000
# 2 0.000313 0.014318 0.002341 0.000000 -0.001931 0.000000
# 3 -0.002059 0.002341 0.014018 0.000000 -0.005021 0.000000
# 4 0.000000 0.000000 0.000000 0.053301 0.000000 0.018096
# 5 -0.006157 -0.001931 -0.005021 0.000000 0.022822 0.000000
# 6 0.000000 0.000000 0.000000 0.018096 0.000000 0.047453
#
#
# Mechanical properties :
#
#
# Convention : Reuss Voigt Hill
#
# Bulk Modulus (GPa) = 21.11592 25.71752 23.41672
# Shear Modulus (GPa) = 27.12384 34.52529 30.82456
#
# Velocity S-wave (km/s) = 3.47143 3.91652 3.70067
# Velocity P-wave (km/s) = 5.04473 5.64608 5.35385
#
# Compressibility (1/GPa) = 0.04735764
#
# Stress axis : x y z
#
# Youngs Moduli (GPa) = 56.08343 69.84063 71.33577
#
# Poissons Ratio (x) = -0.02187 0.14691
# Poissons Ratio (y) = -0.01756 -0.16703
# Poissons Ratio (z) = 0.11550 -0.16353
#
# Static dielectric constant tensor:
#      x y z
#    x 1.881820 0.000000 0.028710 
#    y 0.000000 1.823240 0.000000 
#    z 0.028710 0.000000 1.815620 
# 
# From -- ./inp_files/24519.got.cif
#   From: 2010.05.17/outbox.cif.g08.bks.cpg/sg13_13_cif.got.tgz:24519.got - 2010.06.03 16:44:36.
