data_PCOD9233116
_publ_section_title
;
Structure prediction by ZEFSAII (Michael W. Deem and Ramdas Pophale) SiO2 
 PCOD9233116
Probable space group: P 2/C
;
_chemical_formula_sum "Si O2"
_cell_formula_units_Z 20
_cell_length_a 13.879528
_cell_length_b 6.535099
_cell_length_c 17.743529
_cell_angle_alpha 90.000000
_cell_angle_beta 33.645972
_cell_angle_gamma 90.000000
_cell_volume 891.709540
_symmetry_space_group_name_H-M "P 2/C"
_symmetry_group_IT_number 13
_symmetry_cell_setting 'monoclinic'
loop_
_space_group_symop_operation_xyz
x,y,z
-x,y,1/2-z
-x,-y,-z
x,-y,1/2+z
loop_
_atom_site_type_symbol
_atom_site_label
_atom_site_fract_x
_atom_site_fract_y
_atom_site_fract_z
Si Si1 0.313652 0.606694 0.628862
Si Si2 0.300488 0.374968 0.966217
Si Si3 0.467099 0.254917 0.166507
Si Si4 0.993015 0.612218 0.086540
Si Si5 0.759161 0.064268 0.052490
O O1 0.500000 0.500000 0.500000
O O2 0.259577 0.671894 0.580653
O O3 0.359512 0.777057 0.660630
O O4 0.178955 0.454778 0.757312
O O5 0.480072 0.507182 0.850529
O O6 0.280312 0.174600 0.928345
O O7 0.151766 0.518177 0.030181
O O8 0.654718 0.146117 0.046471
O O9 0.347691 0.163997 0.309340
O O10 0.000000 0.500000 0.000000
O O11 0.045962 0.852925 0.058873
#
# Coordination Sequence:
#
# PCOD9233116 Si02
#       5
#     4   4   4   4   4
#     4  10  21  44  66  94 133 177 214 277 348 392
#     4  10  23  41  68  95 136 177 220 282 336 399
#     4   9  20  40  65  95 136 166 222 278 338 395
#     4  11  22  42  69  94 134 173 228 277 332 398
#     4  10  21  39  66 102 126 176 230 269 332 403
#
# _framework density 22.428826999999998
#
# number of rings (size 3 to 8) (size 9 to 14) (size 15 to 20)
#    0.000    2.000    2.000    0.600    0.000    8.000 
#    0.000   12.000    0.000    0.000    0.000    0.000 
#    0.000    0.000    0.000    0.000    0.000    0.000 
#
# Total GULP energy -111368.973991 kJ/mol
# GULP energy per Si atom -5568.448700 kJ/mol
# Density = 2.237778 g / cm^3
# Si number density = 22.428827 Si / 1000 Ang^3
#
#
#
# Elastic Constant Matrix: (Units=GPa)
#
#
# Indices 1 2 3 4 5 6 
#
# 1 118.4386 -8.4096 22.4756 0.0000 14.6761 0.0000
# 2 -8.4096 74.2459 23.2589 0.0000 2.3904 0.0000
# 3 22.4756 23.2589 112.6404 0.0000 5.1547 0.0000
# 4 0.0000 0.0000 0.0000 18.0784 0.0000 -1.8662
# 5 14.6761 2.3904 5.1547 0.0000 34.7351 0.0000
# 6 0.0000 0.0000 0.0000 -1.8662 0.0000 14.5705
#
#
#
# Elastic Compliance Matrix: (Units=1/GPa)
#
#
# Indices 1 2 3 4 5 6 
#
# 1 0.009443 0.001847 -0.002091 0.000000 -0.003807 0.000000
# 2 0.001847 0.014772 -0.003359 0.000000 -0.001299 0.000000
# 3 -0.002091 -0.003359 0.010006 0.000000 -0.000370 0.000000
# 4 0.000000 0.000000 0.000000 0.056056 0.000000 0.007180
# 5 -0.003807 -0.001299 -0.000370 0.000000 0.030542 0.000000
# 6 0.000000 0.000000 0.000000 0.007180 0.000000 0.069551
#
#
# Mechanical properties :
#
#
# Convention : Reuss Voigt Hill
#
# Bulk Modulus (GPa) = 37.01826 42.21940 39.61883
# Shear Modulus (GPa) = 24.20352 31.34348 27.77350
#
# Velocity S-wave (km/s) = 3.28857 3.74232 3.52276
# Velocity P-wave (km/s) = 5.56419 6.12682 5.85227
#
# Compressibility (1/GPa) = 0.02701370
#
# Stress axis : x y z
#
# Youngs Moduli (GPa) = 105.89943 67.69469 99.94259
#
# Poissons Ratio (x) = -0.12505 0.20902
# Poissons Ratio (y) = -0.19563 0.33575
# Poissons Ratio (z) = 0.22148 0.22742
#
# Static dielectric constant tensor:
#      x y z
#    x 2.065330 0.000000 0.094570 
#    y 0.000000 1.985390 0.000000 
#    z 0.094570 0.000000 1.918680 
# 
# From -- ./inp_files/79190.got.cif
#   From: 2010.05.17/outbox.cif.g08.bks.cpg/sg13_40_cif.got.tgz:79190.got - 2010.06.03 16:44:36.
