data_PCOD9233077
_publ_section_title
;
Structure prediction by ZEFSAII (Michael W. Deem and Ramdas Pophale) SiO2 
 PCOD9233077
Probable space group: P 2/C
;
_chemical_formula_sum "Si O2"
_cell_formula_units_Z 28
_cell_length_a 10.182495
_cell_length_b 12.597037
_cell_length_c 9.703802
_cell_angle_alpha 90.000000
_cell_angle_beta 70.884743
_cell_angle_gamma 90.000000
_cell_volume 1176.069001
_symmetry_space_group_name_H-M "P 2/C"
_symmetry_group_IT_number 13
_symmetry_cell_setting 'monoclinic'
loop_
_space_group_symop_operation_xyz
x,y,z
-x,y,1/2-z
-x,-y,-z
x,-y,1/2+z
loop_
_atom_site_type_symbol
_atom_site_label
_atom_site_fract_x
_atom_site_fract_y
_atom_site_fract_z
Si Si1 0.144282 0.558380 0.409465
Si Si2 0.707346 0.409592 0.355618
Si Si3 0.202822 0.140103 0.559697
Si Si4 0.105534 0.805222 0.392824
Si Si5 0.160763 0.813337 0.682871
Si Si6 0.473626 0.742401 0.918139
Si Si7 0.638725 0.932045 0.969297
O O1 0.233951 0.498808 0.264068
O O2 0.241007 0.564682 0.510112
O O3 0.107562 0.677921 0.376879
O O4 0.000000 0.500000 0.500000
O O5 0.793454 0.301966 0.286304
O O6 0.546648 0.373207 0.404878
O O7 0.170277 0.143609 0.735002
O O8 0.311584 0.235923 0.497348
O O9 0.054482 0.159274 0.539077
O O10 0.268194 0.027649 0.496296
O O11 0.187520 0.827866 0.506890
O O12 0.263808 0.903040 0.697573
O O13 0.000000 0.829649 0.750000
O O14 0.500000 0.774338 0.750000
O O15 0.556728 0.815664 0.000033
O O16 0.500000 0.000000 0.000000
#
# Coordination Sequence:
#
# PCOD9233077 Si02
#       7
#     4   4   4   4   4   4   4
#     4  11  23  41  70  95 130 174 225 281 342 403
#     4  10  23  42  66  99 129 178 226 279 338 407
#     4  10  23  41  63  97 134 171 219 270 341 399
#     4  10  24  40  65  96 130 171 212 284 340 393
#     4  10  21  39  64  96 131 164 222 279 328 397
#     4  10  23  42  69  94 138 182 225 275 331 407
#     4   9  21  41  61  95 128 177 223 260 337 406
#
# _framework density 23.808126000000001
#
# number of rings (size 3 to 8) (size 9 to 14) (size 15 to 20)
#    0.000    2.000    0.000    2.143   12.000    2.857 
#    0.000   13.571    0.000    0.000    0.000    0.000 
#    0.000    0.000    0.000    0.000    0.000    0.000 
#
# Total GULP energy -156003.161890 kJ/mol
# GULP energy per Si atom -5571.541496 kJ/mol
# Density = 2.375394 g / cm^3
# Si number density = 23.808126 Si / 1000 Ang^3
#
#
#
# Elastic Constant Matrix: (Units=GPa)
#
#
# Indices 1 2 3 4 5 6 
#
# 1 94.2040 8.5777 27.6716 0.0000 6.7397 0.0000
# 2 8.5777 115.9044 6.1319 0.0000 6.0053 0.0000
# 3 27.6716 6.1319 44.4333 0.0000 12.8170 0.0000
# 4 0.0000 0.0000 0.0000 8.0176 0.0000 -12.8803
# 5 6.7397 6.0053 12.8170 0.0000 39.7340 0.0000
# 6 0.0000 0.0000 0.0000 -12.8803 0.0000 41.1613
#
#
#
# Elastic Compliance Matrix: (Units=1/GPa)
#
#
# Indices 1 2 3 4 5 6 
#
# 1 0.013035 -0.000558 -0.008189 0.000000 0.000515 0.000000
# 2 -0.000558 0.008753 -0.000558 0.000000 -0.001048 0.000000
# 3 -0.008189 -0.000558 0.030054 0.000000 -0.008221 0.000000
# 4 0.000000 0.000000 0.000000 0.250814 0.000000 0.078486
# 5 0.000515 -0.001048 -0.008221 0.000000 0.027890 0.000000
# 6 0.000000 0.000000 0.000000 0.078486 0.000000 0.048855
#
#
# Mechanical properties :
#
#
# Convention : Reuss Voigt Hill
#
# Bulk Modulus (GPa) = 30.09222 37.70047 33.89634
# Shear Modulus (GPa) = 12.22230 31.92660 22.07445
#
# Velocity S-wave (km/s) = 2.26822 3.66593 3.04827
# Velocity P-wave (km/s) = 4.41890 5.81277 5.16309
#
# Compressibility (1/GPa) = 0.03323119
#
# Stress axis : x y z
#
# Youngs Moduli (GPa) = 76.71822 114.24742 33.27351
#
# Poissons Ratio (x) = 0.06376 0.27248
# Poissons Ratio (y) = 0.04282 0.01857
# Poissons Ratio (z) = 0.62825 0.06375
#
# Static dielectric constant tensor:
#      x y z
#    x 1.964460 0.000000 0.020730 
#    y 0.000000 2.005260 0.000000 
#    z 0.020730 0.000000 1.934700 
# 
# From -- ./inp_files/30092.got.cif
#   From: 2010.05.17/outbox.cif.g08.bks.cpg/sg13_16_cif.got.tgz:30092.got - 2010.06.03 16:44:36.
