data_PCOD9233166
_publ_section_title
;
Structure prediction by ZEFSAII (Michael W. Deem and Ramdas Pophale) SiO2 
 PCOD9233166
Probable space group: P 2/C
;
_chemical_formula_sum "Si O2"
_cell_formula_units_Z 22
_cell_length_a 5.139718
_cell_length_b 16.156129
_cell_length_c 13.246772
_cell_angle_alpha 90.000000
_cell_angle_beta 87.191314
_cell_angle_gamma 90.000000
_cell_volume 1098.663362
_symmetry_space_group_name_H-M "P 2/C"
_symmetry_group_IT_number 13
_symmetry_cell_setting 'monoclinic'
loop_
_space_group_symop_operation_xyz
x,y,z
-x,y,1/2-z
-x,-y,-z
x,-y,1/2+z
loop_
_atom_site_type_symbol
_atom_site_label
_atom_site_fract_x
_atom_site_fract_y
_atom_site_fract_z
Si Si1 0.743277 0.557986 0.505410
Si Si2 0.500000 0.831202 0.250000
Si Si3 0.994729 0.808217 0.983360
Si Si4 0.868977 0.694258 0.347430
Si Si5 0.503157 0.905930 0.036157
Si Si6 0.236785 0.686891 0.817039
O O1 0.500000 0.500000 0.500000
O O2 0.729186 0.625027 0.415376
O O3 0.719010 0.612224 0.606619
O O4 0.000000 0.500000 0.500000
O O5 0.705891 0.767645 0.296672
O O6 0.574788 0.889067 0.153041
O O7 0.123255 0.762839 0.885648
O O8 0.950724 0.739815 0.072575
O O9 0.216845 0.869622 0.020419
O O10 0.723813 0.854560 0.971519
O O11 0.000000 0.650929 0.250000
O O12 0.500000 0.000000 0.000000
O O13 0.500000 0.705733 0.750000
O O14 0.000000 0.662423 0.750000
#
# Coordination Sequence:
#
# PCOD9233166 Si02
#       6
#     4   2   4   4   4   4
#     4  11  26  42  61  97 134 164 217 285 338 381
#     4  10  22  40  66  96 126 170 228 248 322 414
#     4  10  22  41  64  92 126 166 222 264 314 397
#     4  10  21  39  68  89 123 171 222 264 317 392
#     4  11  22  40  64  96 136 162 204 278 329 372
#     4  11  23  43  67  89 128 181 222 265 328 407
#
# _framework density 20.024332999999999
#
# number of rings (size 3 to 8) (size 9 to 14) (size 15 to 20)
#    0.000    1.455    1.818    2.727    2.545    5.091 
#    4.909    0.000    0.000    0.000    0.000    0.000 
#    0.000    0.000    0.000    0.000    0.000    0.000 
#
# Total GULP energy -122765.714734 kJ/mol
# GULP energy per Si atom -5580.259761 kJ/mol
# Density = 1.997876 g / cm^3
# Si number density = 20.024333 Si / 1000 Ang^3
#
#
#
# Elastic Constant Matrix: (Units=GPa)
#
#
# Indices 1 2 3 4 5 6 
#
# 1 82.8200 22.3223 28.6089 0.0000 -8.6359 0.0000
# 2 22.3223 107.3387 55.6660 0.0000 -4.2307 0.0000
# 3 28.6089 55.6660 145.8621 0.0000 -10.4047 0.0000
# 4 0.0000 0.0000 0.0000 11.6340 0.0000 -3.3073
# 5 -8.6359 -4.2307 -10.4047 0.0000 25.8769 0.0000
# 6 0.0000 0.0000 0.0000 -3.3073 0.0000 36.8171
#
#
#
# Elastic Compliance Matrix: (Units=1/GPa)
#
#
# Indices 1 2 3 4 5 6 
#
# 1 0.013516 -0.001780 -0.001720 0.000000 0.003528 0.000000
# 2 -0.001780 0.011850 -0.004198 0.000000 -0.000344 0.000000
# 3 -0.001720 -0.004198 0.008962 0.000000 0.002343 0.000000
# 4 0.000000 0.000000 0.000000 0.088207 0.000000 0.007924
# 5 0.003528 -0.000344 0.002343 0.000000 0.040708 0.000000
# 6 0.000000 0.000000 0.000000 0.007924 0.000000 0.027873
#
#
# Mechanical properties :
#
#
# Convention : Reuss Voigt Hill
#
# Bulk Modulus (GPa) = 52.81783 61.02392 56.92088
# Shear Modulus (GPa) = 23.49372 30.16053 26.82712
#
# Velocity S-wave (km/s) = 3.42900 3.88518 3.66420
# Velocity P-wave (km/s) = 6.48934 7.11809 6.81097
#
# Compressibility (1/GPa) = 0.01893300
#
# Stress axis : x y z
#
# Youngs Moduli (GPa) = 73.98562 84.38950 111.57795
#
# Poissons Ratio (x) = 0.15019 0.19193
# Poissons Ratio (y) = 0.13167 0.46838
# Poissons Ratio (z) = 0.12727 0.35425
#
# Static dielectric constant tensor:
#      x y z
#    x 0.680520 0.000000 -2.210270 
#    y 0.000000 1.699030 0.000000 
#    z -2.210270 0.000000 -2.826950 
# 
# From -- ./inp_files/26178.got.cif
#   From: 2010.05.17/outbox.cif.g08.bks.cpg/sg13_14_cif.got.tgz:26178.got - 2010.06.03 16:44:36.
