data_PCOD9233869
_publ_section_title
;
Structure prediction by ZEFSAII (Michael W. Deem and Ramdas Pophale) SiO2 
 PCOD9233869
Probable space group: P 2/C
;
_chemical_formula_sum "Si O2"
_cell_formula_units_Z 24
_cell_length_a 8.489625
_cell_length_b 4.966987
_cell_length_c 24.018354
_cell_angle_alpha 90.000000
_cell_angle_beta 125.996407
_cell_angle_gamma 90.000000
_cell_volume 819.411778
_symmetry_space_group_name_H-M "P 2/C"
_symmetry_group_IT_number 13
_symmetry_cell_setting 'monoclinic'
loop_
_space_group_symop_operation_xyz
x,y,z
-x,y,1/2-z
-x,-y,-z
x,-y,1/2+z
loop_
_atom_site_type_symbol
_atom_site_label
_atom_site_fract_x
_atom_site_fract_y
_atom_site_fract_z
Si Si1 0.478698 0.353277 0.338768
Si Si2 0.093624 0.448613 0.926855
Si Si3 0.764192 0.836726 0.804275
Si Si4 0.078467 0.618545 0.204482
Si Si5 0.451212 0.808588 0.539559
Si Si6 0.800282 0.225992 0.946871
O O1 0.294775 0.395369 0.257652
O O2 0.610797 0.181724 0.321867
O O3 0.616376 0.598272 0.384452
O O4 0.393647 0.256162 0.379680
O O5 0.112927 0.274751 0.869594
O O6 0.937775 0.224382 0.921455
O O7 0.069900 0.667284 0.975271
O O8 0.326361 0.435013 0.989860
O O9 0.947021 0.639075 0.852332
O O10 0.785082 0.114235 0.777761
O O11 0.000000 0.579074 0.250000
O O12 0.298912 0.957772 0.550214
O O13 0.500000 0.000000 0.500000
#
# Coordination Sequence:
#
# PCOD9233869 Si02
#       6
#     4   4   4   4   4   4
#     4  10  24  42  69  96 132 183 232 291 344 419
#     4  10  23  41  68  98 133 184 234 287 341 422
#     4  11  26  45  70 101 137 183 234 283 347 422
#     4  12  27  44  70 101 140 185 228 288 351 415
#     4  11  25  39  67 102 139 180 226 297 356 409
#     4  10  21  43  70  95 133 179 237 285 342 415
#
# _framework density 29.289301999999999
#
# number of rings (size 3 to 8) (size 9 to 14) (size 15 to 20)
#    0.000    1.333    1.667    2.000    7.000    5.333 
#    0.000    0.000    0.000    0.000    0.000    0.000 
#    0.000    0.000    0.000    0.000    0.000    0.000 
#
# Total GULP energy -133670.583740 kJ/mol
# GULP energy per Si atom -5569.607656 kJ/mol
# Density = 2.922264 g / cm^3
# Si number density = 29.289302 Si / 1000 Ang^3
#
#
#
# Elastic Constant Matrix: (Units=GPa)
#
#
# Indices 1 2 3 4 5 6 
#
# 1 164.1056 55.2149 74.7022 0.0000 -40.8697 0.0000
# 2 55.2149 136.9481 22.3869 0.0000 -12.7221 0.0000
# 3 74.7022 22.3869 285.9968 0.0000 -13.2368 0.0000
# 4 0.0000 0.0000 0.0000 23.8165 0.0000 12.3607
# 5 -40.8697 -12.7221 -13.2368 0.0000 38.6228 0.0000
# 6 0.0000 0.0000 0.0000 12.3607 0.0000 36.8407
#
#
#
# Elastic Compliance Matrix: (Units=1/GPa)
#
#
# Indices 1 2 3 4 5 6 
#
# 1 0.010323 -0.002970 -0.002036 0.000000 0.009247 0.000000
# 2 -0.002970 0.008453 0.000099 0.000000 -0.000324 0.000000
# 3 -0.002036 0.000099 0.003986 0.000000 -0.000756 0.000000
# 4 0.000000 0.000000 0.000000 0.050841 0.000000 -0.017058
# 5 0.009247 -0.000324 -0.000756 0.000000 0.035311 0.000000
# 6 0.000000 0.000000 0.000000 -0.017058 0.000000 0.032867
#
#
# Mechanical properties :
#
#
# Convention : Reuss Voigt Hill
#
# Bulk Modulus (GPa) = 77.23331 99.07315 88.15323
# Shear Modulus (GPa) = 32.06992 48.83911 40.45451
#
# Velocity S-wave (km/s) = 3.31257 4.08790 3.72049
# Velocity P-wave (km/s) = 6.40759 7.49536 6.97272
#
# Compressibility (1/GPa) = 0.01294778
#
# Stress axis : x y z
#
# Youngs Moduli (GPa) = 96.87497 118.29885 250.90581
#
# Poissons Ratio (x) = 0.35135 0.51079
# Poissons Ratio (y) = 0.28772 -0.02486
# Poissons Ratio (z) = 0.19722 -0.01172
#
# Static dielectric constant tensor:
#      x y z
#    x 2.457390 0.000000 0.441200 
#    y 0.000000 2.796990 0.000000 
#    z 0.441200 0.000000 3.170440 
# 
# From -- ./inp_files/84398.got.cif
#   From: 2010.05.17/outbox.cif.g08.bks.cpg/sg13_43_cif.got.tgz:84398.got - 2010.06.03 16:44:36.
