data_PCOD9233561
_publ_section_title
;
Structure prediction by ZEFSAII (Michael W. Deem and Ramdas Pophale) SiO2 
 PCOD9233561
Probable space group: P 2/C
;
_chemical_formula_sum "Si O2"
_cell_formula_units_Z 16
_cell_length_a 8.070207
_cell_length_b 19.589558
_cell_length_c 8.138788
_cell_angle_alpha 90.000000
_cell_angle_beta 35.413619
_cell_angle_gamma 90.000000
_cell_volume 745.596196
_symmetry_space_group_name_H-M "P 2/C"
_symmetry_group_IT_number 13
_symmetry_cell_setting 'monoclinic'
loop_
_space_group_symop_operation_xyz
x,y,z
-x,y,1/2-z
-x,-y,-z
x,-y,1/2+z
loop_
_atom_site_type_symbol
_atom_site_label
_atom_site_fract_x
_atom_site_fract_y
_atom_site_fract_z
Si Si1 0.300327 0.552905 0.064423
Si Si2 0.821480 0.339295 0.556382
Si Si3 0.715847 0.953565 0.227508
Si Si4 0.819423 0.813127 0.056057
O O1 0.191478 0.611622 0.276441
O O2 0.000000 0.519984 0.250000
O O3 0.500000 0.576541 0.750000
O O4 0.500000 0.500000 0.000000
O O5 0.500000 0.338497 0.750000
O O6 0.921725 0.262376 0.524533
O O7 0.000000 0.359691 0.250000
O O8 0.500000 0.940829 0.250000
O O9 0.814900 0.876035 0.186910
O O10 0.500000 0.000000 0.500000
O O11 0.000000 0.000000 0.000000
O O12 0.500000 0.801526 0.250000
O O13 0.000000 0.835730 0.750000
#
# Coordination Sequence:
#
# PCOD9233561 Si02
#       4
#     4   4   4   4
#     4  12  26  44  66  95 129 164 203 254 312 375
#     4  10  21  41  67  92 119 161 213 259 306 370
#     4  11  21  36  57  86 120 158 202 248 299 358
#     4   9  18  35  60  85 115 159 206 247 300 371
#
# _framework density 21.459336
#
# number of rings (size 3 to 8) (size 9 to 14) (size 15 to 20)
#    0.000    1.500    0.000    6.750    0.000    2.000 
#    0.000    3.750    0.000    0.000    0.000    0.000 
#    0.000    0.000    0.000    0.000    0.000    0.000 
#
# Total GULP energy -89069.660089 kJ/mol
# GULP energy per Si atom -5566.853756 kJ/mol
# Density = 2.141049 g / cm^3
# Si number density = 21.459336 Si / 1000 Ang^3
#
#
#
# Elastic Constant Matrix: (Units=GPa)
#
#
# Indices 1 2 3 4 5 6 
#
# 1 62.7132 42.8795 32.1171 0.0000 -11.0642 0.0000
# 2 42.8795 185.8472 61.1628 0.0000 26.3225 0.0000
# 3 32.1171 61.1628 198.6350 0.0000 -1.8866 0.0000
# 4 0.0000 0.0000 0.0000 44.2012 0.0000 4.4090
# 5 -11.0642 26.3225 -1.8866 0.0000 49.3194 0.0000
# 6 0.0000 0.0000 0.0000 4.4090 0.0000 33.9705
#
#
#
# Elastic Compliance Matrix: (Units=1/GPa)
#
#
# Indices 1 2 3 4 5 6 
#
# 1 0.022095 -0.005637 -0.001762 0.000000 0.007898 0.000000
# 2 -0.005637 0.008003 -0.001606 0.000000 -0.005597 0.000000
# 3 -0.001762 -0.001606 0.005820 0.000000 0.000684 0.000000
# 4 0.000000 0.000000 0.000000 0.022921 0.000000 -0.002975
# 5 0.007898 -0.005597 0.000684 0.000000 0.025061 0.000000
# 6 0.000000 0.000000 0.000000 -0.002975 0.000000 0.029823
#
#
# Mechanical properties :
#
#
# Convention : Reuss Voigt Hill
#
# Bulk Modulus (GPa) = 55.83756 79.94602 67.89179
# Shear Modulus (GPa) = 36.31033 46.23397 41.27215
#
# Velocity S-wave (km/s) = 4.11792 4.64669 4.39027
# Velocity P-wave (km/s) = 6.97756 8.13169 7.57664
#
# Compressibility (1/GPa) = 0.01790909
#
# Stress axis : x y z
#
# Youngs Moduli (GPa) = 45.25839 124.96070 171.81487
#
# Poissons Ratio (x) = 0.70436 0.30273
# Poissons Ratio (y) = 0.25511 0.27591
# Poissons Ratio (z) = 0.07974 0.20067
#
# Static dielectric constant tensor:
#      x y z
#    x 1.764190 0.000000 0.096660 
#    y 0.000000 2.438050 0.000000 
#    z 0.096660 0.000000 1.568620 
# 
# From -- ./inp_files/12991.got.cif
#   From: 2010.05.17/outbox.cif.g08.bks.cpg/sg13_7_cif.got.tgz:12991.got - 2010.06.03 16:44:36.
