data_PCOD9233339
_publ_section_title
;
Structure prediction by ZEFSAII (Michael W. Deem and Ramdas Pophale) SiO2 
 PCOD9233339
Probable space group: P 2/C
;
_chemical_formula_sum "Si O2"
_cell_formula_units_Z 32
_cell_length_a 14.237279
_cell_length_b 8.974417
_cell_length_c 24.806062
_cell_angle_alpha 90.000000
_cell_angle_beta 152.642598
_cell_angle_gamma 90.000000
_cell_volume 1456.511766
_symmetry_space_group_name_H-M "P 2/C"
_symmetry_group_IT_number 13
_symmetry_cell_setting 'monoclinic'
loop_
_space_group_symop_operation_xyz
x,y,z
-x,y,1/2-z
-x,-y,-z
x,-y,1/2+z
loop_
_atom_site_type_symbol
_atom_site_label
_atom_site_fract_x
_atom_site_fract_y
_atom_site_fract_z
Si Si1 0.286646 0.617096 0.503542
Si Si2 0.808228 0.334661 0.111251
Si Si3 0.290647 0.579150 0.624960
Si Si4 0.893026 0.173745 0.824043
Si Si5 0.146181 0.887807 0.963257
Si Si6 0.384942 0.164997 0.912739
Si Si7 0.864223 0.265099 0.926044
Si Si8 0.431193 0.105250 0.047441
O O1 0.249267 0.502172 0.436555
O O2 0.308553 0.536083 0.571420
O O3 0.475317 0.732298 0.592760
O O4 0.095598 0.726449 0.418529
O O5 0.864251 0.245443 0.085037
O O6 0.000000 0.330757 0.250000
O O7 0.601277 0.252152 0.026562
O O8 0.500000 0.651717 0.750000
O O9 0.253797 0.421451 0.634118
O O10 0.102118 0.686471 0.542084
O O11 0.746385 0.232414 0.702288
O O12 0.807169 0.190304 0.840516
O O13 0.960695 0.001341 0.857221
O O14 0.337086 0.992920 0.042968
O O15 0.161015 0.829226 0.032027
O O16 0.287589 0.150542 0.922343
O O17 0.410067 0.996576 0.903165
#
# Coordination Sequence:
#
# PCOD9233339 Si02
#       8
#     4   4   4   4   4   4   4   4
#     4  10  22  43  59  94 127 167 213 262 325 381
#     4  11  25  41  62  91 130 170 212 265 321 385
#     4  10  22  39  62  91 136 171 206 273 329 385
#     4  10  23  38  68  91 128 164 211 271 322 382
#     4  10  21  40  66  90 128 167 207 267 319 387
#     4  10  23  43  61  97 124 170 214 266 325 385
#     4  10  21  41  62  98 125 169 221 261 331 389
#     4   9  22  40  62  88 131 159 217 257 321 382
#
# _framework density 21.970300000000002
#
# number of rings (size 3 to 8) (size 9 to 14) (size 15 to 20)
#    0.000    2.000    1.250    0.375    8.750    2.500 
#    0.000    0.000    0.000    1.500    0.000    0.000 
#    0.000    0.000    0.000    0.000    0.000    0.000 
#
# Total GULP energy -178310.883777 kJ/mol
# GULP energy per Si atom -5572.215118 kJ/mol
# Density = 2.192029 g / cm^3
# Si number density = 21.970300 Si / 1000 Ang^3
#
#
#
# Elastic Constant Matrix: (Units=GPa)
#
#
# Indices 1 2 3 4 5 6 
#
# 1 102.8871 14.6775 8.5249 0.0000 -23.7199 0.0000
# 2 14.6775 86.6637 -11.5323 0.0000 -1.8796 0.0000
# 3 8.5249 -11.5323 43.0855 0.0000 -6.5706 0.0000
# 4 0.0000 0.0000 0.0000 -45.5527 0.0000 -7.4966
# 5 -23.7199 -1.8796 -6.5706 0.0000 17.3496 0.0000
# 6 0.0000 0.0000 0.0000 -7.4966 0.0000 32.5785
#
#
#
# Elastic Compliance Matrix: (Units=1/GPa)
#
#
# Indices 1 2 3 4 5 6 
#
# 1 0.014551 -0.002104 -0.000470 0.000000 0.019488 0.000000
# 2 -0.002104 0.012386 0.003712 0.000000 -0.000129 0.000000
# 3 -0.000470 0.003712 0.025747 0.000000 0.009510 0.000000
# 4 0.000000 0.000000 0.000000 -0.021152 0.000000 -0.004867
# 5 0.019488 -0.000129 0.009510 0.000000 0.087869 0.000000
# 6 0.000000 0.000000 0.000000 -0.004867 0.000000 0.029575
#
#
# Mechanical properties :
#
#
# Convention : Reuss Voigt Hill
#
# Bulk Modulus (GPa) = 18.19549 28.44184 23.31866
# Shear Modulus (GPa) = 30.29894 15.60614 22.95254
#
# Velocity S-wave (km/s) = 3.71763 2.66809 3.23570
# Velocity P-wave (km/s) = 5.16987 4.73976 4.95948
#
# Compressibility (1/GPa) = 0.05495869
#
# Stress axis : x y z
#
# Youngs Moduli (GPa) = 68.72178 80.73369 38.84017
#
# Poissons Ratio (x) = 0.16989 0.01827
# Poissons Ratio (y) = 0.14462 -0.14417
# Poissons Ratio (z) = 0.03233 -0.29968
#
# Static dielectric constant tensor:
#      x y z
#    x 1.854590 0.000000 0.024340 
#    y 0.000000 1.820260 0.000000 
#    z 0.024340 0.000000 1.892500 
# 
# From -- ./inp_files/87416.got.cif
#   From: 2010.05.17/outbox.cif.g08.bks.cpg/sg13_44_cif.got.tgz:87416.got - 2010.06.03 16:44:36.
