data_PCOD9233507
_publ_section_title
;
Structure prediction by ZEFSAII (Michael W. Deem and Ramdas Pophale) SiO2 
 PCOD9233507
Probable space group: P 2/C
;
_chemical_formula_sum "Si O2"
_cell_formula_units_Z 24
_cell_length_a 21.762904
_cell_length_b 6.488791
_cell_length_c 27.862672
_cell_angle_alpha 90.000000
_cell_angle_beta 162.704859
_cell_angle_gamma 90.000000
_cell_volume 1169.740156
_symmetry_space_group_name_H-M "P 2/C"
_symmetry_group_IT_number 13
_symmetry_cell_setting 'monoclinic'
loop_
_space_group_symop_operation_xyz
x,y,z
-x,y,1/2-z
-x,-y,-z
x,-y,1/2+z
loop_
_atom_site_type_symbol
_atom_site_label
_atom_site_fract_x
_atom_site_fract_y
_atom_site_fract_z
Si Si1 0.748554 0.431845 0.737405
Si Si2 0.742277 0.186931 0.641394
Si Si3 0.099451 0.499626 0.374034
Si Si4 0.504670 0.330915 0.130077
Si Si5 0.896858 0.116448 0.467605
Si Si6 0.973871 0.187928 0.357793
O O1 0.652108 0.309361 0.620265
O O2 0.598684 0.477346 0.669964
O O3 0.943595 0.294802 0.898392
O O4 0.100926 0.678178 0.914540
O O5 0.592073 0.188040 0.484012
O O6 0.818703 0.965029 0.714595
O O7 0.942464 0.323010 0.775391
O O8 0.320854 0.593351 0.526897
O O9 0.000000 0.421114 0.250000
O O10 0.682744 0.215807 0.291753
O O11 0.889047 0.954450 0.505349
O O12 0.840000 0.349237 0.288777
O O13 0.000000 0.000000 0.500000
#
# Coordination Sequence:
#
# PCOD9233507 Si02
#       6
#     4   4   4   4   4   4
#     4  10  21  41  65  91 130 165 214 267 318 379
#     4   9  21  41  62  94 128 162 217 269 317 381
#     4   9  21  42  63  90 125 167 215 270 315 378
#     4  11  21  40  67  95 129 168 215 265 322 389
#     4  11  23  42  64  95 132 169 214 268 321 387
#     4  10  21  43  66  88 132 169 205 270 327 378
#
# _framework density 20.517375999999999
#
# number of rings (size 3 to 8) (size 9 to 14) (size 15 to 20)
#    0.000    2.000    1.667    1.000    0.000    2.667 
#   12.000    9.167    0.000    0.000    0.000    0.000 
#    0.000    0.000    0.000    0.000    0.000    0.000 
#
# Total GULP energy -134214.336666 kJ/mol
# GULP energy per Si atom -5592.264028 kJ/mol
# Density = 2.047068 g / cm^3
# Si number density = 20.517376 Si / 1000 Ang^3
#
#
#
# Elastic Constant Matrix: (Units=GPa)
#
#
# Indices 1 2 3 4 5 6 
#
# 1 84.3050 39.5492 41.8948 0.0000 0.5643 0.0000
# 2 39.5492 81.8995 23.8530 0.0000 -9.7838 0.0000
# 3 41.8948 23.8530 86.1618 0.0000 -5.4010 0.0000
# 4 0.0000 0.0000 0.0000 10.0943 0.0000 0.8781
# 5 0.5643 -9.7838 -5.4010 0.0000 24.9656 0.0000
# 6 0.0000 0.0000 0.0000 0.8781 0.0000 25.1602
#
#
#
# Elastic Compliance Matrix: (Units=1/GPa)
#
#
# Indices 1 2 3 4 5 6 
#
# 1 0.019267 -0.007713 -0.007552 0.000000 -0.005092 0.000000
# 2 -0.007713 0.016879 -0.000504 0.000000 0.006680 0.000000
# 3 -0.007552 -0.000504 0.015628 0.000000 0.003354 0.000000
# 4 0.000000 0.000000 0.000000 0.099367 0.000000 -0.003468
# 5 -0.005092 0.006680 0.003354 0.000000 0.043514 0.000000
# 6 0.000000 0.000000 0.000000 -0.003468 0.000000 0.039866
#
#
# Mechanical properties :
#
#
# Convention : Reuss Voigt Hill
#
# Bulk Modulus (GPa) = 49.41568 51.44002 50.42785
# Shear Modulus (GPa) = 18.32812 21.84865 20.08839
#
# Velocity S-wave (km/s) = 2.99205 3.26680 3.13244
# Velocity P-wave (km/s) = 6.00613 6.27337 6.14120
#
# Compressibility (1/GPa) = 0.02023649
#
# Stress axis : x y z
#
# Youngs Moduli (GPa) = 51.90222 59.24408 63.98771
#
# Poissons Ratio (x) = 0.45693 0.48325
# Poissons Ratio (y) = 0.40031 0.03225
# Poissons Ratio (z) = 0.39198 0.02986
#
# Static dielectric constant tensor:
#      x y z
#    x 1.762750 0.000000 -0.022220 
#    y 0.000000 1.709050 0.000000 
#    z -0.022220 0.000000 1.725700 
# 
# From -- ./inp_files/93446.got.cif
#   From: 2010.05.17/outbox.cif.g08.bks.cpg/sg13_47_cif.got.tgz:93446.got - 2010.06.03 16:44:36.
