data_PCOD9233082
_publ_section_title
;
Structure prediction by ZEFSAII (Michael W. Deem and Ramdas Pophale) SiO2 
 PCOD9233082
Probable space group: P 2/C
;
_chemical_formula_sum "Si O2"
_cell_formula_units_Z 20
_cell_length_a 11.194837
_cell_length_b 5.135796
_cell_length_c 29.318292
_cell_angle_alpha 90.000000
_cell_angle_beta 34.835051
_cell_angle_gamma 90.000000
_cell_volume 962.862825
_symmetry_space_group_name_H-M "P 2/C"
_symmetry_group_IT_number 13
_symmetry_cell_setting 'monoclinic'
loop_
_space_group_symop_operation_xyz
x,y,z
-x,y,1/2-z
-x,-y,-z
x,-y,1/2+z
loop_
_atom_site_type_symbol
_atom_site_label
_atom_site_fract_x
_atom_site_fract_y
_atom_site_fract_z
Si Si1 0.284162 0.384651 0.837207
Si Si2 0.479875 0.453634 0.061027
Si Si3 0.883532 0.887440 0.579458
Si Si4 0.896544 0.183126 0.916643
Si Si5 0.788208 0.940143 0.345985
O O1 0.500000 0.479062 0.750000
O O2 0.300699 0.095972 0.852723
O O3 0.107558 0.352834 0.853691
O O4 0.195478 0.596858 0.899632
O O5 0.386168 0.719411 0.111079
O O6 0.316562 0.223855 0.123418
O O7 0.500000 0.500000 0.000000
O O8 0.708939 0.338926 0.999998
O O9 0.040166 0.931768 0.573190
O O10 0.000000 0.000000 0.500000
O O11 0.841462 0.110065 0.882600
O O12 0.000000 0.919780 0.250000
#
# Coordination Sequence:
#
# PCOD9233082 Si02
#       5
#     4   4   4   4   4
#     4  10  22  40  62  86 124 158 201 256 306 348
#     4  10  21  39  65  86 122 161 200 246 300 371
#     4  10  22  40  62  86 120 155 210 250 295 361
#     4   9  23  38  64  84 122 163 201 239 314 356
#     4  11  23  40  60  94 126 152 203 254 302 367
#
# _framework density 20.771388999999999
#
# number of rings (size 3 to 8) (size 9 to 14) (size 15 to 20)
#    1.200    0.800    0.000    4.200    8.400    0.000 
#    7.200    0.000    0.000    0.000    0.000    0.000 
#    0.000    0.000    0.000    0.000    0.000    0.000 
#
# Total GULP energy -111419.906004 kJ/mol
# GULP energy per Si atom -5570.995300 kJ/mol
# Density = 2.072411 g / cm^3
# Si number density = 20.771389 Si / 1000 Ang^3
#
#
#
# Elastic Constant Matrix: (Units=GPa)
#
#
# Indices 1 2 3 4 5 6 
#
# 1 25.2363 -1.5192 12.1416 0.0000 -3.1401 0.0000
# 2 -1.5192 95.7722 4.4889 0.0000 -4.7051 0.0000
# 3 12.1416 4.4889 97.5839 0.0000 -12.7682 0.0000
# 4 0.0000 0.0000 0.0000 37.2977 0.0000 -0.6086
# 5 -3.1401 -4.7051 -12.7682 0.0000 26.9195 0.0000
# 6 0.0000 0.0000 0.0000 -0.6086 0.0000 5.0293
#
#
#
# Elastic Compliance Matrix: (Units=1/GPa)
#
#
# Indices 1 2 3 4 5 6 
#
# 1 0.042421 0.001042 -0.004963 0.000000 0.002777 0.000000
# 2 0.001042 0.010564 -0.000382 0.000000 0.001787 0.000000
# 3 -0.004963 -0.000382 0.011513 0.000000 0.004815 0.000000
# 4 0.000000 0.000000 0.000000 0.026864 0.000000 0.003251
# 5 0.002777 0.001787 0.004815 0.000000 0.040068 0.000000
# 6 0.000000 0.000000 0.000000 0.003251 0.000000 0.199228
#
#
# Mechanical properties :
#
#
# Convention : Reuss Voigt Hill
#
# Bulk Modulus (GPa) = 17.89152 27.64613 22.76882
# Shear Modulus (GPa) = 13.97062 27.41469 20.69266
#
# Velocity S-wave (km/s) = 2.59625 3.63689 3.15970
# Velocity P-wave (km/s) = 4.19757 5.56548 4.92920
#
# Compressibility (1/GPa) = 0.05589239
#
# Stress axis : x y z
#
# Youngs Moduli (GPa) = 23.57300 94.66429 86.86113
#
# Poissons Ratio (x) = -0.09863 0.43107
# Poissons Ratio (y) = -0.02456 0.03316
# Poissons Ratio (z) = 0.11699 0.03614
#
# Static dielectric constant tensor:
#      x y z
#    x 1.769240 0.000000 -0.033920 
#    y 0.000000 1.797170 0.000000 
#    z -0.033920 0.000000 1.735850 
# 
# From -- ./inp_files/85905.got.cif
#   From: 2010.05.17/outbox.cif.g08.bks.cpg/sg13_43_cif.got.tgz:85905.got - 2010.06.03 16:44:36.
