data_PCOD9233440
_publ_section_title
;
Structure prediction by ZEFSAII (Michael W. Deem and Ramdas Pophale) SiO2 
 PCOD9233440
Probable space group: P 2/C
;
_chemical_formula_sum "Si O2"
_cell_formula_units_Z 24
_cell_length_a 14.217412
_cell_length_b 6.566099
_cell_length_c 19.080945
_cell_angle_alpha 90.000000
_cell_angle_beta 40.543802
_cell_angle_gamma 90.000000
_cell_volume 1157.872417
_symmetry_space_group_name_H-M "P 2/C"
_symmetry_group_IT_number 13
_symmetry_cell_setting 'monoclinic'
loop_
_space_group_symop_operation_xyz
x,y,z
-x,y,1/2-z
-x,-y,-z
x,-y,1/2+z
loop_
_atom_site_type_symbol
_atom_site_label
_atom_site_fract_x
_atom_site_fract_y
_atom_site_fract_z
Si Si1 0.599241 0.195757 0.440102
Si Si2 0.709126 0.482217 0.066792
Si Si3 0.871265 0.097636 0.995704
Si Si4 0.129110 0.778521 0.627072
Si Si5 0.424941 0.542057 0.150838
Si Si6 0.825111 0.746956 0.129144
O O1 0.751352 0.135098 0.387664
O O2 0.617013 0.320978 0.357391
O O3 0.519482 0.348063 0.538425
O O4 0.500000 0.000000 0.500000
O O5 0.539548 0.521787 0.149568
O O6 0.779012 0.580416 0.096872
O O7 0.742112 0.244347 0.046715
O O8 0.798494 0.590221 0.954069
O O9 0.010249 0.237602 0.936296
O O10 0.910014 0.942532 0.910901
O O11 0.817669 0.962437 0.092007
O O12 0.000000 0.713654 0.750000
O O13 0.288938 0.685821 0.246375
#
# Coordination Sequence:
#
# PCOD9233440 Si02
#       6
#     4   4   4   4   4   4
#     4  10  22  39  60  88 128 160 208 258 308 388
#     4  10  21  41  61  88 126 160 208 265 317 382
#     4  10  22  40  63  90 127 163 211 264 317 383
#     4  10  23  38  59  92 123 162 214 257 314 384
#     4  10  22  39  61  90 124 163 206 259 321 378
#     4  10  22  39  63  93 123 162 212 263 318 388
#
# _framework density 20.727671000000001
#
# number of rings (size 3 to 8) (size 9 to 14) (size 15 to 20)
#    0.000    2.000    0.000    2.000    4.667    2.000 
#    0.000    5.000    0.000    0.000    0.000    0.000 
#    0.000    0.000    0.000    0.000    0.000    0.000 
#
# Total GULP energy -133783.027773 kJ/mol
# GULP energy per Si atom -5574.292824 kJ/mol
# Density = 2.068049 g / cm^3
# Si number density = 20.727671 Si / 1000 Ang^3
#
#
#
# Elastic Constant Matrix: (Units=GPa)
#
#
# Indices 1 2 3 4 5 6 
#
# 1 90.8869 24.9352 30.5562 0.0000 -5.1019 0.0000
# 2 24.9352 42.5275 8.7162 0.0000 -4.6851 0.0000
# 3 30.5562 8.7162 86.3706 0.0000 -5.9981 0.0000
# 4 0.0000 0.0000 0.0000 16.0338 0.0000 -4.6786
# 5 -5.1019 -4.6851 -5.9981 0.0000 23.5853 0.0000
# 6 0.0000 0.0000 0.0000 -4.6786 0.0000 17.0014
#
#
#
# Elastic Compliance Matrix: (Units=1/GPa)
#
#
# Indices 1 2 3 4 5 6 
#
# 1 0.014581 -0.007598 -0.004355 0.000000 0.000538 0.000000
# 2 -0.007598 0.028391 0.000102 0.000000 0.004022 0.000000
# 3 -0.004355 0.000102 0.013279 0.000000 0.002455 0.000000
# 4 0.000000 0.000000 0.000000 0.067814 0.000000 0.018662
# 5 0.000538 0.004022 0.002455 0.000000 0.043939 0.000000
# 6 0.000000 0.000000 0.000000 0.018662 0.000000 0.063954
#
#
# Mechanical properties :
#
#
# Convention : Reuss Voigt Hill
#
# Bulk Modulus (GPa) = 30.72105 38.68891 34.70498
# Shear Modulus (GPa) = 18.76111 21.69593 20.22852
#
# Velocity S-wave (km/s) = 3.01179 3.23880 3.12736
# Velocity P-wave (km/s) = 5.19114 5.71772 5.46078
#
# Compressibility (1/GPa) = 0.03255097
#
# Stress axis : x y z
#
# Youngs Moduli (GPa) = 68.58083 35.22217 75.30820
#
# Poissons Ratio (x) = 0.26761 0.32793
# Poissons Ratio (y) = 0.52106 -0.00769
# Poissons Ratio (z) = 0.29864 -0.00360
#
# Static dielectric constant tensor:
#      x y z
#    x 1.748410 0.000000 0.075570 
#    y 0.000000 1.734410 0.000000 
#    z 0.075570 0.000000 1.649600 
# 
# From -- ./inp_files/79236.got.cif
#   From: 2010.05.17/outbox.cif.g08.bks.cpg/sg13_40_cif.got.tgz:79236.got - 2010.06.03 16:44:36.
