data_PCOD9233478
_publ_section_title
;
Structure prediction by ZEFSAII (Michael W. Deem and Ramdas Pophale) SiO2 
 PCOD9233478
Probable space group: P 2/C
;
_chemical_formula_sum "Si O2"
_cell_formula_units_Z 24
_cell_length_a 10.454875
_cell_length_b 7.011461
_cell_length_c 16.458028
_cell_angle_alpha 90.000000
_cell_angle_beta 63.450488
_cell_angle_gamma 90.000000
_cell_volume 1079.217627
_symmetry_space_group_name_H-M "P 2/C"
_symmetry_group_IT_number 13
_symmetry_cell_setting 'monoclinic'
loop_
_space_group_symop_operation_xyz
x,y,z
-x,y,1/2-z
-x,-y,-z
x,-y,1/2+z
loop_
_atom_site_type_symbol
_atom_site_label
_atom_site_fract_x
_atom_site_fract_y
_atom_site_fract_z
Si Si1 0.232268 0.411048 0.218197
Si Si2 0.500000 0.371571 0.250000
Si Si3 0.197173 0.991220 0.476361
Si Si4 0.926314 0.937851 0.647959
Si Si5 0.643852 0.677976 0.546403
Si Si6 0.612776 0.721048 0.990425
Si Si7 0.000000 0.268496 0.750000
O O1 0.360518 0.465433 0.245028
O O2 0.136584 0.242027 0.285719
O O3 0.301108 0.322372 0.116931
O O4 0.135343 0.589466 0.219224
O O5 0.433306 0.264433 0.347200
O O6 0.189237 0.981330 0.382436
O O7 0.206133 0.215653 0.495302
O O8 0.336591 0.908232 0.479154
O O9 0.062555 0.883695 0.553486
O O10 0.982170 0.115200 0.683413
O O11 0.550193 0.722077 0.492904
O O12 0.646734 0.450304 0.542585
#
# Coordination Sequence:
#
# PCOD9233478 Si02
#       7
#     4   2   4   4   4   4   2
#     4  11  23  45  65  95 135 174 213 283 326 391
#     4  10  22  42  68  92 134 174 218 270 336 378
#     4  11  22  40  63  94 128 166 216 272 322 395
#     4  11  25  40  64  96 128 171 223 263 333 393
#     4  10  21  41  63  95 130 170 214 269 325 390
#     4  10  22  38  67  92 128 170 216 262 330 387
#     4  12  24  40  66  92 128 174 218 266 326 398
#
# _framework density 22.238332
#
# number of rings (size 3 to 8) (size 9 to 14) (size 15 to 20)
#    0.000    1.333    1.667    4.000    2.333    0.000 
#    0.000   10.833    0.000    0.000    0.000    0.000 
#    0.000    0.000    0.000    0.000    0.000    0.000 
#
# Total GULP energy -133797.419149 kJ/mol
# GULP energy per Si atom -5574.892465 kJ/mol
# Density = 2.218772 g / cm^3
# Si number density = 22.238332 Si / 1000 Ang^3
#
#
#
# Elastic Constant Matrix: (Units=GPa)
#
#
# Indices 1 2 3 4 5 6 
#
# 1 92.6181 38.9843 20.3322 0.0000 22.5897 0.0000
# 2 38.9843 82.2552 29.6785 0.0000 12.6044 0.0000
# 3 20.3322 29.6785 88.9908 0.0000 14.0447 0.0000
# 4 0.0000 0.0000 0.0000 -15.0246 0.0000 -19.9635
# 5 22.5897 12.6044 14.0447 0.0000 38.5246 0.0000
# 6 0.0000 0.0000 0.0000 -19.9635 0.0000 12.6814
#
#
#
# Elastic Compliance Matrix: (Units=1/GPa)
#
#
# Indices 1 2 3 4 5 6 
#
# 1 0.015027 -0.005952 -0.000387 0.000000 -0.006723 0.000000
# 2 -0.005952 0.016516 -0.004081 0.000000 -0.000426 0.000000
# 3 -0.000387 -0.004081 0.013199 0.000000 -0.003250 0.000000
# 4 0.000000 0.000000 0.000000 -0.021528 0.000000 -0.033890
# 5 -0.006723 -0.000426 -0.003250 0.000000 0.031224 0.000000
# 6 0.000000 0.000000 0.000000 -0.033890 0.000000 0.025505
#
#
# Mechanical properties :
#
#
# Convention : Reuss Voigt Hill
#
# Bulk Modulus (GPa) = 41.83778 49.09489 45.46634
# Shear Modulus (GPa) = 45.97628 18.89423 32.43525
#
# Velocity S-wave (km/s) = 4.55184 2.91799 3.82321
# Velocity P-wave (km/s) = 6.81761 5.78598 6.32287
#
# Compressibility (1/GPa) = 0.02390184
#
# Stress axis : x y z
#
# Youngs Moduli (GPa) = 66.54656 60.54758 75.76047
#
# Poissons Ratio (x) = 0.36038 0.02934
# Poissons Ratio (y) = 0.39609 0.30918
# Poissons Ratio (z) = 0.02577 0.24709
#
# Static dielectric constant tensor:
#      x y z
#    x 1.902120 0.000000 -0.010810 
#    y 0.000000 1.780210 0.000000 
#    z -0.010810 0.000000 1.851380 
# 
# From -- ./inp_files/65319.got.cif
#   From: 2010.05.17/outbox.cif.g08.bks.cpg/sg13_33_cif.got.tgz:65319.got - 2010.06.03 16:44:36.
