data_PCOD9233209
_publ_section_title
;
Structure prediction by ZEFSAII (Michael W. Deem and Ramdas Pophale) SiO2 
 PCOD9233209
Probable space group: P 2/C
;
_chemical_formula_sum "Si O2"
_cell_formula_units_Z 26
_cell_length_a 7.605011
_cell_length_b 15.126186
_cell_length_c 13.551941
_cell_angle_alpha 90.000000
_cell_angle_beta 129.573490
_cell_angle_gamma 90.000000
_cell_volume 1201.647392
_symmetry_space_group_name_H-M "P 2/C"
_symmetry_group_IT_number 13
_symmetry_cell_setting 'monoclinic'
loop_
_space_group_symop_operation_xyz
x,y,z
-x,y,1/2-z
-x,-y,-z
x,-y,1/2+z
loop_
_atom_site_type_symbol
_atom_site_label
_atom_site_fract_x
_atom_site_fract_y
_atom_site_fract_z
Si Si1 0.617941 0.965257 0.892135
Si Si2 0.681263 0.769792 0.903032
Si Si3 0.132923 0.541786 0.897429
Si Si4 0.405925 0.720930 0.001236
Si Si5 0.212737 0.097038 0.394080
Si Si6 0.500000 0.672676 0.250000
Si Si7 0.991833 0.614682 0.041935
O O1 0.500000 0.999142 0.750000
O O2 0.738801 0.872685 0.909789
O O3 0.426539 0.931236 0.901462
O O4 0.766542 0.037588 0.001085
O O5 0.500000 0.747390 0.750000
O O6 0.568679 0.745711 0.968483
O O7 0.908114 0.712551 0.989756
O O8 0.000000 0.543766 0.750000
O O9 0.168911 0.439171 0.939655
O O10 0.319321 0.619427 0.961387
O O11 0.966840 0.569436 0.926806
O O12 0.500540 0.725918 0.146899
O O13 0.219149 0.798841 0.922289
O O14 0.000000 0.076515 0.250000
O O15 0.261049 0.617578 0.165494
#
# Coordination Sequence:
#
# PCOD9233209 Si02
#       7
#     4   4   4   4   4   2   4
#     4   9  21  40  61  95 125 157 212 251 310 366
#     4  10  21  41  66  93 122 163 207 263 307 369
#     4  10  21  40  60  87 118 163 208 253 303 370
#     4  10  22  39  62  90 125 165 207 255 309 370
#     4  10  21  40  63  90 128 165 203 255 306 371
#     4  10  24  42  58  90 128 164 204 256 312 380
#     4  10  23  42  60  91 124 159 209 255 310 369
#
# _framework density 21.636963999999999
#
# number of rings (size 3 to 8) (size 9 to 14) (size 15 to 20)
#    0.000    2.154    0.000    1.385    3.231    7.385 
#   26.308    0.000    0.000    0.000    0.000    0.000 
#    0.000    0.000    0.000    0.000    0.000    0.000 
#
# Total GULP energy -144876.691712 kJ/mol
# GULP energy per Si atom -5572.180450 kJ/mol
# Density = 2.158772 g / cm^3
# Si number density = 21.636964 Si / 1000 Ang^3
#
#
#
# Elastic Constant Matrix: (Units=GPa)
#
#
# Indices 1 2 3 4 5 6 
#
# 1 54.8362 25.5650 40.9349 0.0000 -15.9349 0.0000
# 2 25.5650 86.5148 60.7520 0.0000 16.4329 0.0000
# 3 40.9349 60.7520 146.7008 0.0000 -28.6356 0.0000
# 4 0.0000 0.0000 0.0000 36.4227 0.0000 -0.4472
# 5 -15.9349 16.4329 -28.6356 0.0000 42.3814 0.0000
# 6 0.0000 0.0000 0.0000 -0.4472 0.0000 31.3463
#
#
#
# Elastic Compliance Matrix: (Units=1/GPa)
#
#
# Indices 1 2 3 4 5 6 
#
# 1 0.027605 -0.010262 -0.000749 0.000000 0.013852 0.000000
# 2 -0.010262 0.029067 -0.013969 0.000000 -0.024567 0.000000
# 3 -0.000749 -0.013969 0.015911 0.000000 0.015886 0.000000
# 4 0.000000 0.000000 0.000000 0.027460 0.000000 0.000392
# 5 0.013852 -0.024567 0.015886 0.000000 0.049063 0.000000
# 6 0.000000 0.000000 0.000000 0.000392 0.000000 0.031907
#
#
# Mechanical properties :
#
#
# Convention : Reuss Voigt Hill
#
# Bulk Modulus (GPa) = 44.20447 60.28397 52.24422
# Shear Modulus (GPa) = 20.96300 32.75008 26.85654
#
# Velocity S-wave (km/s) = 3.11601 3.89474 3.52694
# Velocity P-wave (km/s) = 5.78105 6.93883 6.38623
#
# Compressibility (1/GPa) = 0.02262215
#
# Stress axis : x y z
#
# Youngs Moduli (GPa) = 36.22540 34.40316 62.84803
#
# Poissons Ratio (x) = 0.35306 0.04707
# Poissons Ratio (y) = 0.37176 0.87794
# Poissons Ratio (z) = 0.02713 0.48059
#
# Static dielectric constant tensor:
#      x y z
#    x 1.929860 0.000000 -0.003390 
#    y 0.000000 1.901730 0.000000 
#    z -0.003390 0.000000 1.748030 
# 
# From -- ./inp_files/47937.got.cif
#   From: 2010.05.17/outbox.cif.g08.bks.cpg/sg13_24_cif.got.tgz:47937.got - 2010.06.03 16:44:36.
