data_PCOD9233354
_publ_section_title
;
Structure prediction by ZEFSAII (Michael W. Deem and Ramdas Pophale) SiO2 
 PCOD9233354
Probable space group: P 2/C
;
_chemical_formula_sum "Si O2"
_cell_formula_units_Z 18
_cell_length_a 11.841472
_cell_length_b 6.911252
_cell_length_c 22.073716
_cell_angle_alpha 90.000000
_cell_angle_beta 158.059171
_cell_angle_gamma 90.000000
_cell_volume 674.996527
_symmetry_space_group_name_H-M "P 2/C"
_symmetry_group_IT_number 13
_symmetry_cell_setting 'monoclinic'
loop_
_space_group_symop_operation_xyz
x,y,z
-x,y,1/2-z
-x,-y,-z
x,-y,1/2+z
loop_
_atom_site_type_symbol
_atom_site_label
_atom_site_fract_x
_atom_site_fract_y
_atom_site_fract_z
Si Si1 0.410030 0.639055 0.143435
Si Si2 0.156160 0.291299 0.735178
Si Si3 0.500000 0.719720 0.750000
Si Si4 0.141704 0.152858 0.187545
Si Si5 0.528713 0.773647 0.990388
O O1 0.500000 0.746857 0.250000
O O2 0.707264 0.589862 0.252390
O O3 0.289440 0.433837 0.108662
O O4 0.183448 0.763111 0.991194
O O5 0.396700 0.326576 0.908985
O O6 0.821829 0.291555 0.596817
O O7 0.157892 0.072334 0.711076
O O8 0.665889 0.826136 0.778418
O O9 0.255041 0.248327 0.307248
O O10 0.500000 0.000000 0.000000
#
# Coordination Sequence:
#
# PCOD9233354 Si02
#       5
#     4   4   2   4   4
#     4  10  25  41  58  95 140 162 218 266 311 383
#     4  10  21  40  66  97 127 157 212 276 324 381
#     4  10  26  40  60  90 136 178 220 256 310 386
#     4  11  21  39  66  90 123 177 211 262 328 376
#     4   9  20  38  65  97 123 156 210 268 325 379
#
# _framework density 26.666806000000001
#
# number of rings (size 3 to 8) (size 9 to 14) (size 15 to 20)
#    0.667    1.333    0.000    3.333    4.667    3.556 
#    0.000    1.111    0.000   10.667    0.000    0.000 
#    0.000    0.000    0.000    0.000    0.000    0.000 
#
# Total GULP energy -100545.259072 kJ/mol
# GULP energy per Si atom -5585.847726 kJ/mol
# Density = 2.660611 g / cm^3
# Si number density = 26.666806 Si / 1000 Ang^3
#
#
#
# Elastic Constant Matrix: (Units=GPa)
#
#
# Indices 1 2 3 4 5 6 
#
# 1 175.6828 21.9412 59.9531 0.0000 -24.0160 0.0000
# 2 21.9412 70.5958 24.7559 0.0000 -11.2818 0.0000
# 3 59.9531 24.7559 212.4359 0.0000 -24.3327 0.0000
# 4 0.0000 0.0000 0.0000 37.4304 0.0000 -15.0140
# 5 -24.0160 -11.2818 -24.3327 0.0000 33.1463 0.0000
# 6 0.0000 0.0000 0.0000 -15.0140 0.0000 50.5300
#
#
#
# Elastic Compliance Matrix: (Units=1/GPa)
#
#
# Indices 1 2 3 4 5 6 
#
# 1 0.006780 -0.001056 -0.001385 0.000000 0.003536 0.000000
# 2 -0.001056 0.015464 -0.001080 0.000000 0.003706 0.000000
# 3 -0.001385 -0.001080 0.005532 0.000000 0.002690 0.000000
# 4 0.000000 0.000000 0.000000 0.030331 0.000000 0.009012
# 5 0.003536 0.003706 0.002690 0.000000 0.035967 0.000000
# 6 0.000000 0.000000 0.000000 0.009012 0.000000 0.022468
#
#
# Mechanical properties :
#
#
# Convention : Reuss Voigt Hill
#
# Bulk Modulus (GPa) = 48.22991 74.66833 61.44912
# Shear Modulus (GPa) = 38.31504 47.69227 43.00366
#
# Velocity S-wave (km/s) = 3.79464 4.23360 4.02011
# Velocity P-wave (km/s) = 6.10937 7.20826 6.68145
#
# Compressibility (1/GPa) = 0.02073402
#
# Stress axis : x y z
#
# Youngs Moduli (GPa) = 147.48943 64.66538 180.76026
#
# Poissons Ratio (x) = 0.06831 0.25042
# Poissons Ratio (y) = 0.15581 0.19514
# Poissons Ratio (z) = 0.20433 0.06981
#
# Static dielectric constant tensor:
#      x y z
#    x 2.104410 0.000000 0.040630 
#    y 0.000000 2.200330 0.000000 
#    z 0.040630 0.000000 2.108870 
# 
# From -- ./inp_files/66339.got.cif
#   From: 2010.05.17/outbox.cif.g08.bks.cpg/sg13_34_cif.got.tgz:66339.got - 2010.06.03 16:44:36.
