data_PCOD9233957
_publ_section_title
;
Structure prediction by ZEFSAII (Michael W. Deem and Ramdas Pophale) SiO2 
 PCOD9233957
Probable space group: P 2/C
;
_chemical_formula_sum "Si O2"
_cell_formula_units_Z 22
_cell_length_a 9.721458
_cell_length_b 9.053520
_cell_length_c 12.870803
_cell_angle_alpha 90.000000
_cell_angle_beta 130.922287
_cell_angle_gamma 90.000000
_cell_volume 855.944749
_symmetry_space_group_name_H-M "P 2/C"
_symmetry_group_IT_number 13
_symmetry_cell_setting 'monoclinic'
loop_
_space_group_symop_operation_xyz
x,y,z
-x,y,1/2-z
-x,-y,-z
x,-y,1/2+z
loop_
_atom_site_type_symbol
_atom_site_label
_atom_site_fract_x
_atom_site_fract_y
_atom_site_fract_z
Si Si1 0.946031 0.339196 0.857675
Si Si2 0.500000 0.487007 0.750000
Si Si3 0.554275 0.770406 0.122437
Si Si4 0.000000 0.107142 0.250000
Si Si5 0.148749 0.347635 0.168215
Si Si6 0.500000 0.972143 0.750000
Si Si7 0.266339 0.137523 0.979599
O O1 0.766554 0.243144 0.756518
O O2 0.901482 0.501326 0.797401
O O3 0.124900 0.270339 0.898609
O O4 0.994426 0.336459 0.003538
O O5 0.536169 0.372210 0.865704
O O6 0.664718 0.590891 0.793975
O O7 0.560768 0.805999 0.003199
O O8 0.498421 0.919719 0.151342
O O9 0.883578 0.210765 0.270697
O O10 0.851680 0.002268 0.118900
O O11 0.324239 0.880132 0.629017
#
# Coordination Sequence:
#
# PCOD9233957 Si02
#       7
#     4   2   4   2   4   2   4
#     4  10  22  45  75  98 148 204 251 309 382 442
#     4   9  22  45  74 106 155 203 242 322 385 433
#     4  10  21  45  74 100 146 202 251 300 381 457
#     4  12  26  42  80 120 146 198 268 302 380 464
#     4  10  24  44  73 114 147 198 258 319 373 460
#     4  11  26  41  66 108 163 185 244 322 387 441
#     4  12  25  45  75 112 146 205 249 318 375 460
#
# _framework density 25.702594000000001
#
# number of rings (size 3 to 8) (size 9 to 14) (size 15 to 20)
#    0.000    1.455    1.818    1.636    7.636    3.636 
#    3.273    0.909    0.000    1.091    0.000    0.000 
#    0.000    0.000    0.000    0.000    0.000    0.000 
#
# Total GULP energy -122844.040660 kJ/mol
# GULP energy per Si atom -5583.820030 kJ/mol
# Density = 2.564409 g / cm^3
# Si number density = 25.702594 Si / 1000 Ang^3
#
#
#
# Elastic Constant Matrix: (Units=GPa)
#
#
# Indices 1 2 3 4 5 6 
#
# 1 153.3347 54.3375 24.6994 0.0000 -2.9139 0.0000
# 2 54.3375 160.3166 26.7830 0.0000 -0.9851 0.0000
# 3 24.6994 26.7830 89.1341 0.0000 21.2973 0.0000
# 4 0.0000 0.0000 0.0000 26.4835 0.0000 -13.0906
# 5 -2.9139 -0.9851 21.2973 0.0000 22.7403 0.0000
# 6 0.0000 0.0000 0.0000 -13.0906 0.0000 -6.1848
#
#
#
# Elastic Compliance Matrix: (Units=1/GPa)
#
#
# Indices 1 2 3 4 5 6 
#
# 1 0.007718 -0.002237 -0.002164 0.000000 0.002919 0.000000
# 2 -0.002237 0.007351 -0.002057 0.000000 0.001959 0.000000
# 3 -0.002164 -0.002057 0.016135 0.000000 -0.015478 0.000000
# 4 0.000000 0.000000 0.000000 0.018453 0.000000 -0.039058
# 5 0.002919 0.001959 -0.015478 0.000000 0.058929 0.000000
# 6 0.000000 0.000000 0.000000 -0.039058 0.000000 -0.079018
#
#
# Mechanical properties :
#
#
# Convention : Reuss Voigt Hill
#
# Bulk Modulus (GPa) = 54.67765 68.26950 61.47358
# Shear Modulus (GPa) = 102.91950 28.40550 65.66250
#
# Velocity S-wave (km/s) = 6.33478 3.32800 5.05989
# Velocity P-wave (km/s) = 8.65016 6.43323 7.62272
#
# Compressibility (1/GPa) = 0.01828901
#
# Stress axis : x y z
#
# Youngs Moduli (GPa) = 129.56167 136.02814 61.97688
#
# Poissons Ratio (x) = 0.30423 0.13413
# Poissons Ratio (y) = 0.28977 0.12750
# Poissons Ratio (z) = 0.28040 0.27983
#
# Static dielectric constant tensor:
#      x y z
#    x 2.195820 0.000000 -0.005310 
#    y 0.000000 2.049500 0.000000 
#    z -0.005310 0.000000 2.062450 
# 
# From -- ./inp_files/49865.got.cif
#   From: 2010.05.17/outbox.cif.g08.bks.cpg/sg13_25_cif.got.tgz:49865.got - 2010.06.03 16:44:36.
