data_PCOD9233736
_publ_section_title
;
Structure prediction by ZEFSAII (Michael W. Deem and Ramdas Pophale) SiO2 
 PCOD9233736
Probable space group: P 2/C
;
_chemical_formula_sum "Si O2"
_cell_formula_units_Z 20
_cell_length_a 20.333531
_cell_length_b 5.250229
_cell_length_c 18.208380
_cell_angle_alpha 90.000000
_cell_angle_beta 155.951529
_cell_angle_gamma 90.000000
_cell_volume 792.136310
_symmetry_space_group_name_H-M "P 2/C"
_symmetry_group_IT_number 13
_symmetry_cell_setting 'monoclinic'
loop_
_space_group_symop_operation_xyz
x,y,z
-x,y,1/2-z
-x,-y,-z
x,-y,1/2+z
loop_
_atom_site_type_symbol
_atom_site_label
_atom_site_fract_x
_atom_site_fract_y
_atom_site_fract_z
Si Si1 0.639186 0.886338 0.090917
Si Si2 0.230456 0.553740 0.164911
Si Si3 0.654256 0.089659 0.949652
Si Si4 0.788161 0.053205 0.438035
Si Si5 0.092251 0.202283 0.191742
O O1 0.803620 0.059655 0.264397
O O2 0.689264 0.612742 0.174788
O O3 0.606260 0.913901 0.970610
O O4 0.500000 0.000000 0.000000
O O5 0.284912 0.791840 0.169665
O O6 0.271841 0.297164 0.166665
O O7 0.036675 0.593141 0.966106
O O8 0.500000 0.197382 0.750000
O O9 0.748195 0.936509 0.982502
O O10 0.778373 0.284580 0.114852
O O11 0.977469 0.008353 0.613818
#
# Coordination Sequence:
#
# PCOD9233736 Si02
#       5
#     4   4   4   4   4
#     4  10  21  42  69 105 143 188 227 287 353 414
#     4  10  22  45  72 102 133 177 235 291 339 411
#     4  10  21  43  66 102 141 184 229 283 352 413
#     4  10  22  45  71 102 132 178 234 290 342 405
#     4   8  22  39  71  99 136 177 235 278 351 392
#
# _framework density 25.248180000000001
#
# number of rings (size 3 to 8) (size 9 to 14) (size 15 to 20)
#    2.400    0.000    0.000    2.400    0.000    0.800 
#    7.200   11.000    0.000    0.000    0.000    0.000 
#    0.000    0.000    0.000    0.000    0.000    0.000 
#
# Total GULP energy -111629.728737 kJ/mol
# GULP energy per Si atom -5581.486437 kJ/mol
# Density = 2.519071 g / cm^3
# Si number density = 25.248180 Si / 1000 Ang^3
#
#
#
# Elastic Constant Matrix: (Units=GPa)
#
#
# Indices 1 2 3 4 5 6 
#
# 1 219.3604 54.8861 58.5087 0.0000 3.3308 0.0000
# 2 54.8861 105.2678 19.7600 0.0000 -5.6909 0.0000
# 3 58.5087 19.7600 118.7802 0.0000 -8.6643 0.0000
# 4 0.0000 0.0000 0.0000 17.9849 0.0000 -4.0984
# 5 3.3308 -5.6909 -8.6643 0.0000 59.4723 0.0000
# 6 0.0000 0.0000 0.0000 -4.0984 0.0000 25.3348
#
#
#
# Elastic Compliance Matrix: (Units=1/GPa)
#
#
# Indices 1 2 3 4 5 6 
#
# 1 0.005917 -0.002659 -0.002542 0.000000 -0.000956 0.000000
# 2 -0.002659 0.011031 -0.000442 0.000000 0.001140 0.000000
# 3 -0.002542 -0.000442 0.009856 0.000000 0.001536 0.000000
# 4 0.000000 0.000000 0.000000 0.057731 0.000000 0.009339
# 5 -0.000956 0.001140 0.001536 0.000000 0.017201 0.000000
# 6 0.000000 0.000000 0.000000 0.009339 0.000000 0.040982
#
#
# Mechanical properties :
#
#
# Convention : Reuss Voigt Hill
#
# Bulk Modulus (GPa) = 64.44254 78.85755 71.65004
# Shear Modulus (GPa) = 31.41173 41.24198 36.32685
#
# Velocity S-wave (km/s) = 3.53103 4.04600 3.79725
# Velocity P-wave (km/s) = 6.49641 7.28887 6.90402
#
# Compressibility (1/GPa) = 0.01551770
#
# Stress axis : x y z
#
# Youngs Moduli (GPa) = 169.01652 90.65533 101.45628
#
# Poissons Ratio (x) = 0.24109 0.25787
# Poissons Ratio (y) = 0.44949 0.04483
# Poissons Ratio (z) = 0.42959 0.04006
#
# Static dielectric constant tensor:
#      x y z
#    x 1.997390 0.000000 0.026790 
#    y 0.000000 1.988460 0.000000 
#    z 0.026790 0.000000 2.094780 
# 
# From -- ./inp_files/69201.got.cif
#   From: 2010.05.17/outbox.cif.g08.bks.cpg/sg13_35_cif.got.tgz:69201.got - 2010.06.03 16:44:36.
