data_PCOD9233444
_publ_section_title
;
Structure prediction by ZEFSAII (Michael W. Deem and Ramdas Pophale) SiO2 
 PCOD9233444
Probable space group: P 2/C
;
_chemical_formula_sum "Si O2"
_cell_formula_units_Z 26
_cell_length_a 17.695264
_cell_length_b 5.266928
_cell_length_c 20.122190
_cell_angle_alpha 90.000000
_cell_angle_beta 37.964206
_cell_angle_gamma 90.000000
_cell_volume 1153.676809
_symmetry_space_group_name_H-M "P 2/C"
_symmetry_group_IT_number 13
_symmetry_cell_setting 'monoclinic'
loop_
_space_group_symop_operation_xyz
x,y,z
-x,y,1/2-z
-x,-y,-z
x,-y,1/2+z
loop_
_atom_site_type_symbol
_atom_site_label
_atom_site_fract_x
_atom_site_fract_y
_atom_site_fract_z
Si Si1 0.000000 0.404523 0.250000
Si Si2 0.611723 0.686344 0.931849
Si Si3 0.885256 0.638324 0.545917
Si Si4 0.729148 0.039441 0.244146
Si Si5 0.832027 0.306410 0.781615
Si Si6 0.213886 0.134477 0.930865
Si Si7 0.751932 0.078324 0.446333
O O1 0.038831 0.575985 0.286195
O O2 0.120417 0.238418 0.150056
O O3 0.617039 0.900636 0.870966
O O4 0.736025 0.526772 0.833310
O O5 0.638577 0.795298 0.985942
O O6 0.500000 0.500000 0.000000
O O7 0.790593 0.709429 0.670429
O O8 0.830541 0.423494 0.536015
O O9 0.000000 0.500000 0.500000
O O10 0.892790 0.920371 0.508340
O O11 0.824084 0.889543 0.226299
O O12 0.705833 0.886133 0.192364
O O13 0.781743 0.171587 0.883271
O O14 0.273407 0.053411 0.958558
#
# Coordination Sequence:
#
# PCOD9233444 Si02
#       7
#     2   4   4   4   4   4   4
#     4  10  22  36  58  88 136 166 222 256 334 396
#     4  10  22  42  70  94 126 171 229 284 334 399
#     4  10  22  39  59  95 133 180 222 261 320 402
#     4   9  22  38  63  91 129 171 223 270 333 390
#     4  10  21  41  61  90 129 170 214 272 329 398
#     4  10  23  39  61  90 132 174 216 275 323 401
#     4  10  23  40  59  96 127 179 214 278 337 400
#
# _framework density 22.536640999999999
#
# number of rings (size 3 to 8) (size 9 to 14) (size 15 to 20)
#    0.923    1.231    0.000    1.846    4.308    8.615 
#    2.769    0.000    0.000   13.846    0.000    0.000 
#    0.000    0.000    0.000    0.000    0.000    0.000 
#
# Total GULP energy -144974.690435 kJ/mol
# GULP energy per Si atom -5575.949632 kJ/mol
# Density = 2.248535 g / cm^3
# Si number density = 22.536641 Si / 1000 Ang^3
#
#
#
# Elastic Constant Matrix: (Units=GPa)
#
#
# Indices 1 2 3 4 5 6 
#
# 1 109.0687 12.2891 48.1501 0.0000 19.6628 0.0000
# 2 12.2891 70.5919 -7.0516 0.0000 5.5239 0.0000
# 3 48.1501 -7.0516 46.1210 0.0000 23.0087 0.0000
# 4 0.0000 0.0000 0.0000 25.6401 0.0000 -0.5530
# 5 19.6628 5.5239 23.0087 0.0000 42.5385 0.0000
# 6 0.0000 0.0000 0.0000 -0.5530 0.0000 39.1135
#
#
#
# Elastic Compliance Matrix: (Units=1/GPa)
#
#
# Indices 1 2 3 4 5 6 
#
# 1 0.019363 -0.006056 -0.023376 0.000000 0.004480 0.000000
# 2 -0.006056 0.016846 0.011769 0.000000 -0.005754 0.000000
# 3 -0.023376 0.011769 0.059244 0.000000 -0.022768 0.000000
# 4 0.000000 0.000000 0.000000 0.039013 0.000000 0.000552
# 5 0.004480 -0.005754 -0.022768 0.000000 0.034499 0.000000
# 6 0.000000 0.000000 0.000000 0.000552 0.000000 0.025574
#
#
# Mechanical properties :
#
#
# Convention : Reuss Voigt Hill
#
# Bulk Modulus (GPa) = 16.63152 36.95074 26.79113
# Shear Modulus (GPa) = 20.00734 32.95136 26.47935
#
# Velocity S-wave (km/s) = 2.98278 3.82792 3.43147
# Velocity P-wave (km/s) = 4.38844 5.99740 5.25486
#
# Compressibility (1/GPa) = 0.06012679
#
# Stress axis : x y z
#
# Youngs Moduli (GPa) = 51.64542 59.36069 16.87939
#
# Poissons Ratio (x) = 0.35951 0.39457
# Poissons Ratio (y) = 0.31279 -0.19865
# Poissons Ratio (z) = 1.20724 -0.69862
#
# Static dielectric constant tensor:
#      x y z
#    x 1.816590 0.000000 0.059850 
#    y 0.000000 1.902510 0.000000 
#    z 0.059850 0.000000 1.836820 
# 
# From -- ./inp_files/78998.got.cif
#   From: 2010.05.17/outbox.cif.g08.bks.cpg/sg13_40_cif.got.tgz:78998.got - 2010.06.03 16:44:36.
