data_PCOD9233707
_publ_section_title
;
Structure prediction by ZEFSAII (Michael W. Deem and Ramdas Pophale) SiO2 
 PCOD9233707
Probable space group: P 2/C
;
_chemical_formula_sum "Si O2"
_cell_formula_units_Z 16
_cell_length_a 10.891239
_cell_length_b 11.442052
_cell_length_c 7.704453
_cell_angle_alpha 90.000000
_cell_angle_beta 37.009473
_cell_angle_gamma 90.000000
_cell_volume 577.938081
_symmetry_space_group_name_H-M "P 2/C"
_symmetry_group_IT_number 13
_symmetry_cell_setting 'monoclinic'
loop_
_space_group_symop_operation_xyz
x,y,z
-x,y,1/2-z
-x,-y,-z
x,-y,1/2+z
loop_
_atom_site_type_symbol
_atom_site_label
_atom_site_fract_x
_atom_site_fract_y
_atom_site_fract_z
Si Si1 0.000000 0.003287 0.750000
Si Si2 0.283275 0.876559 0.678402
Si Si3 0.762947 0.623171 0.856833
Si Si4 0.783328 0.367221 0.749421
Si Si5 0.500000 0.181722 0.250000
O O1 0.077501 0.090321 0.514504
O O2 0.803700 0.926842 0.906882
O O3 0.341694 0.741174 0.586433
O O4 0.448196 0.900121 0.644754
O O5 0.688928 0.492094 0.909387
O O6 0.972257 0.627520 0.507930
O O7 0.774079 0.640601 0.050952
O O8 0.680649 0.266086 0.978208
#
# Coordination Sequence:
#
# PCOD9233707 Si02
#       5
#     2   4   4   4   2
#     4  10  24  48  70  94 132 194 248 272 332 432
#     4  11  24  43  70  97 136 183 234 289 342 400
#     4  10  21  42  67  94 138 194 229 261 338 441
#     4  10  22  39  67 105 141 180 228 274 342 430
#     4  12  26  42  70 112 146 168 218 304 360 386
#
# _framework density 27.684626000000002
#
# number of rings (size 3 to 8) (size 9 to 14) (size 15 to 20)
#    0.000    1.500    0.000    4.500    0.000   12.000 
#    0.000    0.000    0.000    0.000    0.000    0.000 
#    0.000    0.000    0.000    0.000    0.000    0.000 
#
# Total GULP energy -89254.247024 kJ/mol
# GULP energy per Si atom -5578.390439 kJ/mol
# Density = 2.762161 g / cm^3
# Si number density = 27.684626 Si / 1000 Ang^3
#
#
#
# Elastic Constant Matrix: (Units=GPa)
#
#
# Indices 1 2 3 4 5 6 
#
# 1 127.1262 55.6691 9.6196 0.0000 1.4338 0.0000
# 2 55.6691 150.2094 55.7268 0.0000 13.2814 0.0000
# 3 9.6196 55.7268 148.7132 0.0000 12.0708 0.0000
# 4 0.0000 0.0000 0.0000 31.6978 0.0000 16.7502
# 5 1.4338 13.2814 12.0708 0.0000 41.6450 0.0000
# 6 0.0000 0.0000 0.0000 16.7502 0.0000 16.1296
#
#
#
# Elastic Compliance Matrix: (Units=1/GPa)
#
#
# Indices 1 2 3 4 5 6 
#
# 1 0.009493 -0.003868 0.000780 0.000000 0.000681 0.000000
# 2 -0.003868 0.009423 -0.003121 0.000000 -0.001967 0.000000
# 3 0.000780 -0.003121 0.007952 0.000000 -0.001336 0.000000
# 4 0.000000 0.000000 0.000000 0.069915 0.000000 -0.072605
# 5 0.000681 -0.001967 -0.001336 0.000000 0.025004 0.000000
# 6 0.000000 0.000000 0.000000 -0.072605 0.000000 0.137396
#
#
# Mechanical properties :
#
#
# Convention : Reuss Voigt Hill
#
# Bulk Modulus (GPa) = 69.20350 74.23109 71.71730
# Shear Modulus (GPa) = 18.08864 38.23003 28.15934
#
# Velocity S-wave (km/s) = 2.55891 3.72009 3.19273
# Velocity P-wave (km/s) = 5.81223 6.73227 6.28910
#
# Compressibility (1/GPa) = 0.01445014
#
# Stress axis : x y z
#
# Youngs Moduli (GPa) = 105.33798 106.12689 125.75597
#
# Poissons Ratio (x) = 0.41049 -0.09810
# Poissons Ratio (y) = 0.40743 0.39249
# Poissons Ratio (z) = -0.08217 0.33123
#
# Static dielectric constant tensor:
#      x y z
#    x 2.442870 0.000000 -0.090530 
#    y 0.000000 2.122190 0.000000 
#    z -0.090530 0.000000 2.115990 
# 
# From -- ./inp_files/15441.got.cif
#   From: 2010.05.17/outbox.cif.g08.bks.cpg/sg13_8_cif.got.tgz:15441.got - 2010.06.03 16:44:36.
