data_PCOD9233930
_publ_section_title
;
Structure prediction by ZEFSAII (Michael W. Deem and Ramdas Pophale) SiO2 
 PCOD9233930
Probable space group: P 2/C
;
_chemical_formula_sum "Si O2"
_cell_formula_units_Z 20
_cell_length_a 8.524458
_cell_length_b 11.207288
_cell_length_c 18.459530
_cell_angle_alpha 90.000000
_cell_angle_beta 29.862921
_cell_angle_gamma 90.000000
_cell_volume 878.118838
_symmetry_space_group_name_H-M "P 2/C"
_symmetry_group_IT_number 13
_symmetry_cell_setting 'monoclinic'
loop_
_space_group_symop_operation_xyz
x,y,z
-x,y,1/2-z
-x,-y,-z
x,-y,1/2+z
loop_
_atom_site_type_symbol
_atom_site_label
_atom_site_fract_x
_atom_site_fract_y
_atom_site_fract_z
Si Si1 0.202217 0.267842 0.816718
Si Si2 0.548450 0.420162 0.907749
Si Si3 0.276721 0.596088 0.904906
Si Si4 0.737642 0.189614 0.415312
Si Si5 0.897364 0.061293 0.874423
O O1 0.500000 0.293871 0.750000
O O2 0.189840 0.346169 0.746448
O O3 0.169230 0.131517 0.806615
O O4 0.899534 0.297660 0.985718
O O5 0.489920 0.523723 0.874269
O O6 0.500000 0.500000 0.000000
O O7 0.321153 0.307591 0.014327
O O8 0.500000 0.630449 0.750000
O O9 0.000000 0.500000 0.000000
O O10 0.416820 0.143345 0.504419
O O11 0.000000 0.215157 0.250000
O O12 0.832346 0.073655 0.424702
O O13 0.000000 0.048459 0.750000
#
# Coordination Sequence:
#
# PCOD9233930 Si02
#       5
#     4   4   4   4   4
#     4  12  25  47  71  99 148 195 235 299 370 432
#     4  12  25  40  70 106 138 178 242 292 359 430
#     4  12  24  44  65  97 147 191 229 295 368 425
#     4  10  23  41  70 106 140 172 239 305 354 422
#     4  10  21  44  73  99 136 187 234 299 364 420
#
# _framework density 22.775959
#
# number of rings (size 3 to 8) (size 9 to 14) (size 15 to 20)
#    0.000    0.800    6.000    1.200    2.800    1.600 
#    0.000    1.000    0.000    1.200    0.000    0.000 
#    0.000    0.000    0.000    0.000    0.000    0.000 
#
# Total GULP energy -111445.524706 kJ/mol
# GULP energy per Si atom -5572.276235 kJ/mol
# Density = 2.272412 g / cm^3
# Si number density = 22.775959 Si / 1000 Ang^3
#
#
#
# Elastic Constant Matrix: (Units=GPa)
#
#
# Indices 1 2 3 4 5 6 
#
# 1 42.4038 38.2682 23.0910 0.0000 24.8037 0.0000
# 2 38.2682 121.8112 38.4004 0.0000 16.5815 0.0000
# 3 23.0910 38.4004 174.0172 0.0000 26.9564 0.0000
# 4 0.0000 0.0000 0.0000 31.7277 0.0000 -4.7346
# 5 24.8037 16.5815 26.9564 0.0000 27.0859 0.0000
# 6 0.0000 0.0000 0.0000 -4.7346 0.0000 29.9243
#
#
#
# Elastic Compliance Matrix: (Units=1/GPa)
#
#
# Indices 1 2 3 4 5 6 
#
# 1 0.068233 -0.014679 0.002923 0.000000 -0.056407 0.000000
# 2 -0.014679 0.012383 -0.002001 0.000000 0.007854 0.000000
# 3 0.002923 -0.002001 0.007123 0.000000 -0.008541 0.000000
# 4 0.000000 0.000000 0.000000 0.032280 0.000000 0.005107
# 5 -0.056407 0.007854 -0.008541 0.000000 0.092266 0.000000
# 6 0.000000 0.000000 0.000000 0.005107 0.000000 0.034226
#
#
# Mechanical properties :
#
#
# Convention : Reuss Voigt Hill
#
# Bulk Modulus (GPa) = 16.60458 59.75015 38.17736
# Shear Modulus (GPa) = 17.00094 33.64575 25.32334
#
# Velocity S-wave (km/s) = 2.73507 3.84767 3.33805
# Velocity P-wave (km/s) = 4.15697 6.78456 5.62631
#
# Compressibility (1/GPa) = 0.06022435
#
# Stress axis : x y z
#
# Youngs Moduli (GPa) = 14.65559 80.75657 140.38341
#
# Poissons Ratio (x) = 1.18545 -0.41033
# Poissons Ratio (y) = 0.21513 0.28094
# Poissons Ratio (z) = -0.04284 0.16161
#
# Static dielectric constant tensor:
#      x y z
#    x 1.950660 0.000000 -0.029600 
#    y 0.000000 1.841530 0.000000 
#    z -0.029600 0.000000 1.776540 
# 
# From -- ./inp_files/64401.got.cif
#   From: 2010.05.17/outbox.cif.g08.bks.cpg/sg13_33_cif.got.tgz:64401.got - 2010.06.03 16:44:36.
