data_PCOD9233252
_publ_section_title
;
Structure prediction by ZEFSAII (Michael W. Deem and Ramdas Pophale) SiO2 
 PCOD9233252
Probable space group: P 2/C
;
_chemical_formula_sum "Si O2"
_cell_formula_units_Z 30
_cell_length_a 12.669898
_cell_length_b 9.475459
_cell_length_c 18.828265
_cell_angle_alpha 90.000000
_cell_angle_beta 141.019035
_cell_angle_gamma 90.000000
_cell_volume 1421.926822
_symmetry_space_group_name_H-M "P 2/C"
_symmetry_group_IT_number 13
_symmetry_cell_setting 'monoclinic'
loop_
_space_group_symop_operation_xyz
x,y,z
-x,y,1/2-z
-x,-y,-z
x,-y,1/2+z
loop_
_atom_site_type_symbol
_atom_site_label
_atom_site_fract_x
_atom_site_fract_y
_atom_site_fract_z
Si Si1 0.557468 0.753193 0.912805
Si Si2 0.003425 0.638054 0.901783
Si Si3 0.343244 0.283747 0.532561
Si Si4 0.500000 0.565007 0.250000
Si Si5 0.421097 0.967805 0.381913
Si Si6 0.203447 0.382157 0.073780
Si Si7 0.193833 0.756206 0.328884
Si Si8 0.296539 0.564469 0.855007
O O1 0.666356 0.713699 0.901249
O O2 0.451014 0.623166 0.889214
O O3 0.431282 0.886357 0.843841
O O4 0.699998 0.786558 0.045012
O O5 0.917335 0.682562 0.930562
O O6 0.870201 0.625402 0.769255
O O7 0.153210 0.738771 0.957697
O O8 0.092380 0.484434 0.964567
O O9 0.437015 0.358927 0.646616
O O10 0.445916 0.142475 0.577821
O O11 0.327749 0.371953 0.450531
O O12 0.332658 0.480930 0.184264
O O13 0.247860 0.881491 0.303065
O O14 0.500000 0.000000 0.500000
O O15 0.263618 0.603651 0.339451
O O16 0.000000 0.747932 0.250000
#
# Coordination Sequence:
#
# PCOD9233252 Si02
#       8
#     4   4   4   2   4   4   4   4
#     4  11  23  42  64  96 134 185 213 274 333 415
#     4  10  23  37  63 106 130 176 214 293 328 391
#     4  11  22  43  64  96 137 171 227 271 339 398
#     4  10  22  38  66  94 128 180 210 286 332 392
#     4  10  23  44  64  92 139 178 219 269 337 409
#     4  10  21  40  62  94 146 167 224 269 347 390
#     4  11  22  38  63 102 131 171 221 284 335 390
#     4  12  22  38  70 103 134 164 233 283 338 386
#
# _framework density 21.098132
#
# number of rings (size 3 to 8) (size 9 to 14) (size 15 to 20)
#    0.000    1.333    2.667    4.800    5.600    0.000 
#    7.200    2.667    0.000    0.000    0.000    0.000 
#    0.000    0.000    0.000    0.000    0.000    0.000 
#
# Total GULP energy -167421.703764 kJ/mol
# GULP energy per Si atom -5580.723459 kJ/mol
# Density = 2.105011 g / cm^3
# Si number density = 21.098132 Si / 1000 Ang^3
#
#
#
# Elastic Constant Matrix: (Units=GPa)
#
#
# Indices 1 2 3 4 5 6 
#
# 1 154.6667 75.7358 33.2279 0.0000 21.9486 0.0000
# 2 75.7358 87.6846 19.4050 0.0000 24.2310 0.0000
# 3 33.2279 19.4050 116.1048 0.0000 5.8151 0.0000
# 4 0.0000 0.0000 0.0000 7.0020 0.0000 8.3994
# 5 21.9486 24.2310 5.8151 0.0000 42.7486 0.0000
# 6 0.0000 0.0000 0.0000 8.3994 0.0000 29.5653
#
#
#
# Elastic Compliance Matrix: (Units=1/GPa)
#
#
# Indices 1 2 3 4 5 6 
#
# 1 0.011521 -0.009491 -0.001695 0.000000 -0.000305 0.000000
# 2 -0.009491 0.021767 -0.000552 0.000000 -0.007390 0.000000
# 3 -0.001695 -0.000552 0.009194 0.000000 -0.000067 0.000000
# 4 0.000000 0.000000 0.000000 0.216649 0.000000 -0.061549
# 5 -0.000305 -0.007390 -0.000067 0.000000 0.027747 0.000000
# 6 0.000000 0.000000 0.000000 -0.061549 0.000000 0.051309
#
#
# Mechanical properties :
#
#
# Convention : Reuss Voigt Hill
#
# Bulk Modulus (GPa) = 52.61987 68.35484 60.48735
# Shear Modulus (GPa) = 13.58704 31.20233 22.39468
#
# Velocity S-wave (km/s) = 2.54045 3.84984 3.26153
# Velocity P-wave (km/s) = 5.79654 7.22707 6.55097
#
# Compressibility (1/GPa) = 0.01900423
#
# Stress axis : x y z
#
# Youngs Moduli (GPa) = 86.80087 45.94198 108.77021
#
# Poissons Ratio (x) = 0.43605 0.18442
# Poissons Ratio (y) = 0.82386 0.05999
# Poissons Ratio (z) = 0.14717 0.02534
#
# Static dielectric constant tensor:
#      x y z
#    x 1.802520 0.000000 0.020620 
#    y 0.000000 1.775350 0.000000 
#    z 0.020620 0.000000 1.756640 
# 
# From -- ./inp_files/87309.got.cif
#   From: 2010.05.17/outbox.cif.g08.bks.cpg/sg13_44_cif.got.tgz:87309.got - 2010.06.03 16:44:36.
