data_PCOD9233857
_publ_section_title
;
Structure prediction by ZEFSAII (Michael W. Deem and Ramdas Pophale) SiO2 
 PCOD9233857
Probable space group: P 2/C
;
_chemical_formula_sum "Si O2"
_cell_formula_units_Z 28
_cell_length_a 15.963291
_cell_length_b 5.041733
_cell_length_c 15.381040
_cell_angle_alpha 90.000000
_cell_angle_beta 72.570213
_cell_angle_gamma 90.000000
_cell_volume 1181.068051
_symmetry_space_group_name_H-M "P 2/C"
_symmetry_group_IT_number 13
_symmetry_cell_setting 'monoclinic'
loop_
_space_group_symop_operation_xyz
x,y,z
-x,y,1/2-z
-x,-y,-z
x,-y,1/2+z
loop_
_atom_site_type_symbol
_atom_site_label
_atom_site_fract_x
_atom_site_fract_y
_atom_site_fract_z
Si Si1 0.737262 0.896852 0.409214
Si Si2 0.103277 0.375505 0.545791
Si Si3 0.441436 0.805143 0.959312
Si Si4 0.179181 0.111729 0.796525
Si Si5 0.256616 0.253608 0.939114
Si Si6 0.932022 0.638799 0.637113
Si Si7 0.559427 0.679583 0.148028
O O1 0.831589 0.805248 0.418586
O O2 0.650002 0.737810 0.463160
O O3 0.751848 0.911991 0.302821
O O4 0.717505 0.154850 0.473118
O O5 0.169699 0.588579 0.486671
O O6 0.062316 0.272753 0.467531
O O7 0.026966 0.512431 0.625019
O O8 0.477739 0.527882 0.911479
O O9 0.429962 0.011096 0.881891
O O10 0.500000 0.000000 0.000000
O O11 0.226880 0.047556 0.873665
O O12 0.137806 0.405770 0.818252
O O13 0.101307 0.901901 0.805575
O O14 0.338774 0.408382 0.873076
O O15 0.500000 0.659774 0.250000
#
# Coordination Sequence:
#
# PCOD9233857 Si02
#       7
#     4   4   4   4   4   4   4
#     4  11  24  43  69  98 141 184 230 288 360 417
#     4  10  21  43  69  90 139 181 223 285 351 411
#     4  11  25  46  68 103 140 181 231 290 360 426
#     4  11  25  42  66 103 132 180 234 286 343 418
#     4  10  23  44  68  94 141 177 231 281 356 423
#     4  10  24  42  67  99 132 178 234 282 343 414
#     4  11  24  44  72 102 134 182 232 289 358 422
#
# _framework density 23.707356000000001
#
# number of rings (size 3 to 8) (size 9 to 14) (size 15 to 20)
#    0.000    1.429    2.857    0.857    6.000    2.286 
#    5.143    0.000    0.000    0.000    0.000    0.000 
#    0.000    0.000    0.000    0.000    0.000    0.000 
#
# Total GULP energy -156119.319561 kJ/mol
# GULP energy per Si atom -5575.689984 kJ/mol
# Density = 2.365340 g / cm^3
# Si number density = 23.707356 Si / 1000 Ang^3
#
#
#
# Elastic Constant Matrix: (Units=GPa)
#
#
# Indices 1 2 3 4 5 6 
#
# 1 65.7330 6.5642 18.4248 0.0000 -17.6782 0.0000
# 2 6.5642 93.7623 37.6265 0.0000 -2.8663 0.0000
# 3 18.4248 37.6265 128.1100 0.0000 -33.1399 0.0000
# 4 0.0000 0.0000 0.0000 22.9983 0.0000 -5.2232
# 5 -17.6782 -2.8663 -33.1399 0.0000 25.9547 0.0000
# 6 0.0000 0.0000 0.0000 -5.2232 0.0000 38.7816
#
#
#
# Elastic Compliance Matrix: (Units=1/GPa)
#
#
# Indices 1 2 3 4 5 6 
#
# 1 0.018867 -0.001475 0.001496 0.000000 0.014598 0.000000
# 2 -0.001475 0.012616 -0.005066 0.000000 -0.006080 0.000000
# 3 0.001496 -0.005066 0.013733 0.000000 0.017995 0.000000
# 4 0.000000 0.000000 0.000000 0.044854 0.000000 0.006041
# 5 0.014598 -0.006080 0.017995 0.000000 0.070777 0.000000
# 6 0.000000 0.000000 0.000000 0.006041 0.000000 0.026599
#
#
# Mechanical properties :
#
#
# Convention : Reuss Voigt Hill
#
# Bulk Modulus (GPa) = 28.46864 45.87072 37.16968
# Shear Modulus (GPa) = 23.89561 32.54624 28.22092
#
# Velocity S-wave (km/s) = 3.17825 3.70920 3.45394
# Velocity P-wave (km/s) = 5.05003 6.14287 5.62307
#
# Compressibility (1/GPa) = 0.03512637
#
# Stress axis : x y z
#
# Youngs Moduli (GPa) = 53.00277 79.26720 72.81488
#
# Poissons Ratio (x) = 0.11691 -0.10893
# Poissons Ratio (y) = 0.07817 0.36887
# Poissons Ratio (z) = -0.07929 0.40155
#
# Static dielectric constant tensor:
#      x y z
#    x 1.951590 0.000000 0.034590 
#    y 0.000000 1.916550 0.000000 
#    z 0.034590 0.000000 1.868750 
# 
# From -- ./inp_files/54395.got.cif
#   From: 2010.05.17/outbox.cif.g08.bks.cpg/sg13_28_cif.got.tgz:54395.got - 2010.06.03 16:44:36.
