data_PCOD9233569
_publ_section_title
;
Structure prediction by ZEFSAII (Michael W. Deem and Ramdas Pophale) SiO2 
 PCOD9233569
Probable space group: P 2/C
;
_chemical_formula_sum "Si O2"
_cell_formula_units_Z 22
_cell_length_a 14.970722
_cell_length_b 12.297090
_cell_length_c 10.582057
_cell_angle_alpha 90.000000
_cell_angle_beta 149.589448
_cell_angle_gamma 90.000000
_cell_volume 986.122772
_symmetry_space_group_name_H-M "P 2/C"
_symmetry_group_IT_number 13
_symmetry_cell_setting 'monoclinic'
loop_
_space_group_symop_operation_xyz
x,y,z
-x,y,1/2-z
-x,-y,-z
x,-y,1/2+z
loop_
_atom_site_type_symbol
_atom_site_label
_atom_site_fract_x
_atom_site_fract_y
_atom_site_fract_z
Si Si1 0.363665 0.103502 0.968705
Si Si2 0.000000 0.623716 0.750000
Si Si3 0.156166 0.706407 0.532898
Si Si4 0.411143 0.857784 0.007845
Si Si5 0.307438 0.468507 0.028626
Si Si6 0.853049 0.691664 0.328928
O O1 0.445796 0.122718 0.929415
O O2 0.209645 0.190981 0.793356
O O3 0.500000 0.126928 0.250000
O O4 0.323775 0.975646 0.929950
O O5 0.102638 0.697613 0.972608
O O6 0.849652 0.550315 0.631696
O O7 0.278574 0.626833 0.599555
O O8 0.026027 0.645528 0.469807
O O9 0.270055 0.782755 0.762877
O O10 0.000000 0.754037 0.250000
O O11 0.500000 0.821248 0.250000
O O12 0.500000 0.520188 0.250000
O O13 0.288324 0.400126 0.875713
#
# Coordination Sequence:
#
# PCOD9233569 Si02
#       6
#     4   2   4   4   4   4
#     4  10  21  42  66  92 132 183 221 269 344 416
#     4  12  26  44  60 100 136 166 228 300 322 400
#     4  10  21  41  67  96 131 178 221 275 339 417
#     4  10  22  39  65 101 135 169 232 285 325 411
#     4  11  23  45  71  90 126 184 227 270 348 410
#     4  11  23  41  64  91 133 171 220 282 334 400
#
# _framework density 22.309595000000002
#
# number of rings (size 3 to 8) (size 9 to 14) (size 15 to 20)
#    0.000    1.455    2.727    4.364    2.545    1.455 
#    4.909    0.000    0.000    0.000    0.000    0.000 
#    0.000    0.000    0.000    0.000    0.000    0.000 
#
# Total GULP energy -122614.787411 kJ/mol
# GULP energy per Si atom -5573.399428 kJ/mol
# Density = 2.225882 g / cm^3
# Si number density = 22.309595 Si / 1000 Ang^3
#
#
#
# Elastic Constant Matrix: (Units=GPa)
#
#
# Indices 1 2 3 4 5 6 
#
# 1 75.7157 18.8222 50.2117 0.0000 -14.5720 0.0000
# 2 18.8222 56.0375 64.1144 0.0000 -6.5452 0.0000
# 3 50.2117 64.1144 128.1664 0.0000 -23.5985 0.0000
# 4 0.0000 0.0000 0.0000 37.8736 0.0000 -7.7169
# 5 -14.5720 -6.5452 -23.5985 0.0000 57.0483 0.0000
# 6 0.0000 0.0000 0.0000 -7.7169 0.0000 8.2287
#
#
#
# Elastic Compliance Matrix: (Units=1/GPa)
#
#
# Indices 1 2 3 4 5 6 
#
# 1 0.018488 0.004547 -0.009257 0.000000 0.001415 0.000000
# 2 0.004547 0.043781 -0.024402 0.000000 -0.003910 0.000000
# 3 -0.009257 -0.024402 0.024555 0.000000 0.004993 0.000000
# 4 0.000000 0.000000 0.000000 0.032641 0.000000 0.030610
# 5 0.001415 -0.003910 0.004993 0.000000 0.019507 0.000000
# 6 0.000000 0.000000 0.000000 0.030610 0.000000 0.150232
#
#
# Mechanical properties :
#
#
# Convention : Reuss Voigt Hill
#
# Bulk Modulus (GPa) = 34.96598 58.46847 46.71722
# Shear Modulus (GPa) = 14.00707 29.08154 21.54430
#
# Velocity S-wave (km/s) = 2.50841 3.61438 3.11094
# Velocity P-wave (km/s) = 4.90883 6.60931 5.82149
#
# Compressibility (1/GPa) = 0.02859923
#
# Stress axis : x y z
#
# Youngs Moduli (GPa) = 54.08837 22.84110 40.72421
#
# Poissons Ratio (x) = -0.10385 0.37699
# Poissons Ratio (y) = -0.24592 0.99376
# Poissons Ratio (z) = 0.50070 0.55737
#
# Static dielectric constant tensor:
#      x y z
#    x 1.898120 0.000000 -0.000800 
#    y 0.000000 1.815590 0.000000 
#    z -0.000800 0.000000 2.783180 
# 
# From -- ./inp_files/39429.got.cif
#   From: 2010.05.17/outbox.cif.g08.bks.cpg/sg13_20_cif.got.tgz:39429.got - 2010.06.03 16:44:36.
