data_PCOD9233756
_publ_section_title
;
Structure prediction by ZEFSAII (Michael W. Deem and Ramdas Pophale) SiO2 
 PCOD9233756
Probable space group: P 2/C
;
_chemical_formula_sum "Si O2"
_cell_formula_units_Z 20
_cell_length_a 20.032888
_cell_length_b 6.383060
_cell_length_c 15.535548
_cell_angle_alpha 90.000000
_cell_angle_beta 29.731019
_cell_angle_gamma 90.000000
_cell_volume 985.186491
_symmetry_space_group_name_H-M "P 2/C"
_symmetry_group_IT_number 13
_symmetry_cell_setting 'monoclinic'
loop_
_space_group_symop_operation_xyz
x,y,z
-x,y,1/2-z
-x,-y,-z
x,-y,1/2+z
loop_
_atom_site_type_symbol
_atom_site_label
_atom_site_fract_x
_atom_site_fract_y
_atom_site_fract_z
Si Si1 0.099289 0.830917 0.487013
Si Si2 0.685662 0.498021 0.709207
Si Si3 0.188345 0.951980 0.709403
Si Si4 0.150072 0.811986 0.076520
Si Si5 0.450011 0.198570 0.999148
O O1 0.180469 0.620500 0.410854
O O2 0.938721 0.797880 0.662824
O O3 0.149782 0.926709 0.340269
O O4 0.133956 0.001176 0.523228
O O5 0.735032 0.651168 0.579561
O O6 0.622943 0.642546 0.853602
O O7 0.575605 0.318051 0.815849
O O8 0.335849 0.862444 0.559208
O O9 0.185440 0.096257 0.629314
O O10 0.000000 0.714634 0.250000
O O11 0.500000 0.000000 0.000000
#
# Coordination Sequence:
#
# PCOD9233756 Si02
#       5
#     4   4   4   4   4
#     4  10  21  43  66  97 130 168 225 281 329 390
#     4  11  22  41  70  93 132 174 224 276 330 404
#     4  10  21  42  70  92 134 178 212 276 344 384
#     4  10  22  42  64  99 135 168 221 288 327 392
#     4  11  22  43  67  93 135 177 217 278 334 397
#
# _framework density 20.300723999999999
#
# number of rings (size 3 to 8) (size 9 to 14) (size 15 to 20)
#    0.000    1.600    4.000    0.000    0.000    3.200 
#    3.600    6.000    0.000    0.000    0.000    0.000 
#    0.000    0.000    0.000    0.000    0.000    0.000 
#
# Total GULP energy -111694.520349 kJ/mol
# GULP energy per Si atom -5584.726017 kJ/mol
# Density = 2.025452 g / cm^3
# Si number density = 20.300724 Si / 1000 Ang^3
#
#
#
# Elastic Constant Matrix: (Units=GPa)
#
#
# Indices 1 2 3 4 5 6 
#
# 1 173.7043 63.9011 80.2810 0.0000 -12.6216 0.0000
# 2 63.9011 78.9146 49.2680 0.0000 -15.5870 0.0000
# 3 80.2810 49.2680 111.1836 0.0000 -8.6758 0.0000
# 4 0.0000 0.0000 0.0000 48.6093 0.0000 -8.8004
# 5 -12.6216 -15.5870 -8.6758 0.0000 45.1256 0.0000
# 6 0.0000 0.0000 0.0000 -8.8004 0.0000 18.5974
#
#
#
# Elastic Compliance Matrix: (Units=1/GPa)
#
#
# Indices 1 2 3 4 5 6 
#
# 1 0.009835 -0.004855 -0.004941 0.000000 0.000124 0.000000
# 2 -0.004855 0.020922 -0.005388 0.000000 0.004833 0.000000
# 3 -0.004941 -0.005388 0.014920 0.000000 -0.000375 0.000000
# 4 0.000000 0.000000 0.000000 0.022500 0.000000 0.010647
# 5 0.000124 0.004833 -0.000375 0.000000 0.023792 0.000000
# 6 0.000000 0.000000 0.000000 0.010647 0.000000 0.058809
#
#
# Mechanical properties :
#
#
# Convention : Reuss Voigt Hill
#
# Bulk Modulus (GPa) = 65.31954 83.41142 74.36548
# Shear Modulus (GPa) = 26.84570 33.82329 30.33449
#
# Velocity S-wave (km/s) = 3.64043 4.08623 3.86976
# Velocity P-wave (km/s) = 7.06513 7.96493 7.52849
#
# Compressibility (1/GPa) = 0.01530935
#
# Stress axis : x y z
#
# Youngs Moduli (GPa) = 101.67316 47.79677 67.02452
#
# Poissons Ratio (x) = 0.23206 0.33114
# Poissons Ratio (y) = 0.49365 0.36114
# Poissons Ratio (z) = 0.50233 0.25753
#
# Static dielectric constant tensor:
#      x y z
#    x 1.722840 0.000000 -0.011390 
#    y 0.000000 1.742080 0.000000 
#    z -0.011390 0.000000 1.743820 
# 
# From -- ./inp_files/56399.got.cif
#   From: 2010.05.17/outbox.cif.g08.bks.cpg/sg13_29_cif.got.tgz:56399.got - 2010.06.03 16:44:36.
