data_PCOD9233376
_publ_section_title
;
Structure prediction by ZEFSAII (Michael W. Deem and Ramdas Pophale) SiO2 
 PCOD9233376
Probable space group: P 2/C
;
_chemical_formula_sum "Si O2"
_cell_formula_units_Z 28
_cell_length_a 8.793461
_cell_length_b 14.256986
_cell_length_c 21.145620
_cell_angle_alpha 90.000000
_cell_angle_beta 151.385002
_cell_angle_gamma 90.000000
_cell_volume 1269.616252
_symmetry_space_group_name_H-M "P 2/C"
_symmetry_group_IT_number 13
_symmetry_cell_setting 'monoclinic'
loop_
_space_group_symop_operation_xyz
x,y,z
-x,y,1/2-z
-x,-y,-z
x,-y,1/2+z
loop_
_atom_site_type_symbol
_atom_site_label
_atom_site_fract_x
_atom_site_fract_y
_atom_site_fract_z
Si Si1 0.676729 0.137950 0.596545
Si Si2 0.479923 0.735575 0.570478
Si Si3 0.176981 0.997767 0.966363
Si Si4 0.874189 0.420002 0.376770
Si Si5 0.139660 0.642387 0.101857
Si Si6 0.553696 0.115724 0.201781
Si Si7 0.210238 0.560778 0.872627
O O1 0.529277 0.222019 0.503117
O O2 0.428866 0.087213 0.552327
O O3 0.000000 0.162489 0.750000
O O4 0.756676 0.065382 0.569046
O O5 0.631692 0.808092 0.676057
O O6 0.663714 0.639831 0.628639
O O7 0.123858 0.709889 0.463682
O O8 0.832049 0.955710 0.824624
O O9 0.268910 0.056610 0.063254
O O10 0.500000 0.400861 0.250000
O O11 0.908698 0.533718 0.394644
O O12 0.067741 0.365670 0.501223
O O13 0.026312 0.399103 0.365312
O O14 0.500000 0.669577 0.250000
O O15 0.500000 0.165098 0.250000
O O16 0.000000 0.496241 0.750000
O O17 0.500000 0.500000 0.000000
#
# Coordination Sequence:
#
# PCOD9233376 Si02
#       7
#     4   4   4   4   4   4   4
#     4  10  21  40  67  98 137 178 224 286 344 412
#     4  11  26  43  66 108 142 175 241 293 350 406
#     4  10  21  42  71  98 132 184 228 267 353 424
#     4  10  22  43  71  94 130 188 236 288 351 414
#     4  10  22  43  69  95 135 183 229 286 351 415
#     4  11  24  44  72 103 142 181 228 290 341 426
#     4  12  27  44  70 101 138 187 239 294 347 418
#
# _framework density 22.053906999999999
#
# number of rings (size 3 to 8) (size 9 to 14) (size 15 to 20)
#    0.000    1.429    2.857    1.286    6.000    3.429 
#    2.571    1.429    0.000    0.000    0.000    0.000 
#    0.000    0.000    0.000    0.000    0.000    0.000 
#
# Total GULP energy -156307.399960 kJ/mol
# GULP energy per Si atom -5582.407141 kJ/mol
# Density = 2.200371 g / cm^3
# Si number density = 22.053907 Si / 1000 Ang^3
#
#
#
# Elastic Constant Matrix: (Units=GPa)
#
#
# Indices 1 2 3 4 5 6 
#
# 1 89.0657 14.9864 52.4226 0.0000 -16.9893 0.0000
# 2 14.9864 50.9513 28.8655 0.0000 -11.2511 0.0000
# 3 52.4226 28.8655 161.2272 0.0000 -25.9140 0.0000
# 4 0.0000 0.0000 0.0000 13.2261 0.0000 2.1354
# 5 -16.9893 -11.2511 -25.9140 0.0000 36.6870 0.0000
# 6 0.0000 0.0000 0.0000 2.1354 0.0000 23.7934
#
#
#
# Elastic Compliance Matrix: (Units=1/GPa)
#
#
# Indices 1 2 3 4 5 6 
#
# 1 0.014403 -0.001251 -0.003890 0.000000 0.003538 0.000000
# 2 -0.001251 0.022611 -0.002956 0.000000 0.004267 0.000000
# 3 -0.003890 -0.002956 0.008530 0.000000 0.003317 0.000000
# 4 0.000000 0.000000 0.000000 0.076720 0.000000 -0.006885
# 5 0.003538 0.004267 0.003317 0.000000 0.032548 0.000000
# 6 0.000000 0.000000 0.000000 -0.006885 0.000000 0.042646
#
#
# Mechanical properties :
#
#
# Convention : Reuss Voigt Hill
#
# Bulk Modulus (GPa) = 34.07171 54.86589 44.46880
# Shear Modulus (GPa) = 22.37789 28.40596 25.39193
#
# Velocity S-wave (km/s) = 3.18888 3.59280 3.39685
# Velocity P-wave (km/s) = 5.38901 6.49177 5.96592
#
# Compressibility (1/GPa) = 0.02934986
#
# Stress axis : x y z
#
# Youngs Moduli (GPa) = 69.43051 44.22573 117.23789
#
# Poissons Ratio (x) = 0.05533 0.45610
# Poissons Ratio (y) = 0.08686 0.34651
# Poissons Ratio (z) = 0.27011 0.13071
#
# Static dielectric constant tensor:
#      x y z
#    x 1.824860 0.000000 0.008290 
#    y 0.000000 1.855170 0.000000 
#    z 0.008290 0.000000 1.854630 
# 
# From -- ./inp_files/76774.got.cif
#   From: 2010.05.17/outbox.cif.g08.bks.cpg/sg13_39_cif.got.tgz:76774.got - 2010.06.03 16:44:36.
