data_PCOD9233135
_publ_section_title
;
Structure prediction by ZEFSAII (Michael W. Deem and Ramdas Pophale) SiO2 
 PCOD9233135
Probable space group: P 2/C
;
_chemical_formula_sum "Si O2"
_cell_formula_units_Z 18
_cell_length_a 8.588268
_cell_length_b 19.564778
_cell_length_c 10.145697
_cell_angle_alpha 90.000000
_cell_angle_beta 148.192878
_cell_angle_gamma 90.000000
_cell_volume 898.511502
_symmetry_space_group_name_H-M "P 2/C"
_symmetry_group_IT_number 13
_symmetry_cell_setting 'monoclinic'
loop_
_space_group_symop_operation_xyz
x,y,z
-x,y,1/2-z
-x,-y,-z
x,-y,1/2+z
loop_
_atom_site_type_symbol
_atom_site_label
_atom_site_fract_x
_atom_site_fract_y
_atom_site_fract_z
Si Si1 0.184796 0.035855 0.249197
Si Si2 0.686928 0.810828 0.752120
Si Si3 0.500000 0.615267 0.250000
Si Si4 0.315255 0.485741 0.999748
Si Si5 0.674117 0.747485 0.246580
O O1 0.234223 0.114486 0.246067
O O2 0.000000 0.031046 0.250000
O O3 0.500000 0.000000 0.500000
O O4 0.000000 0.000000 0.000000
O O5 0.500000 0.818428 0.750000
O O6 0.490384 0.772712 0.501359
O O7 0.989459 0.770735 0.000530
O O8 0.736802 0.561623 0.475206
O O9 0.632253 0.666067 0.236550
O O10 0.000000 0.452507 0.750000
O O11 0.500000 0.450246 0.250000
O O12 0.500000 0.500000 0.000000
O O13 0.500000 0.776607 0.250000
#
# Coordination Sequence:
#
# PCOD9233135 Si02
#       5
#     4   4   2   4   4
#     4  12  25  43  65  93 125 165 209 262 322 382
#     4  12  24  41  63  92 126 162 210 267 319 374
#     4   8  24  36  72  84 136 160 228 244 328 368
#     4  10  21  39  66  94 128 169 210 259 315 371
#     4  10  22  40  64  87 121 169 213 252 313 382
#
# _framework density 20.033131999999998
#
# number of rings (size 3 to 8) (size 9 to 14) (size 15 to 20)
#    1.333    0.000    0.000    6.667    3.111    0.000 
#    0.000    3.333    0.000    0.000    0.000    0.000 
#    0.000    0.000    0.000    0.000    0.000    0.000 
#
# Total GULP energy -100426.253807 kJ/mol
# GULP energy per Si atom -5579.236323 kJ/mol
# Density = 1.998754 g / cm^3
# Si number density = 20.033132 Si / 1000 Ang^3
#
#
#
# Elastic Constant Matrix: (Units=GPa)
#
#
# Indices 1 2 3 4 5 6 
#
# 1 139.8599 -18.1104 41.8668 0.0000 -10.6646 0.0000
# 2 -18.1104 63.2755 11.7512 0.0000 -5.1897 0.0000
# 3 41.8668 11.7512 176.7339 0.0000 -0.1321 0.0000
# 4 0.0000 0.0000 0.0000 8.4625 0.0000 -5.5046
# 5 -10.6646 -5.1897 -0.1321 0.0000 36.8609 0.0000
# 6 0.0000 0.0000 0.0000 -5.5046 0.0000 29.6492
#
#
#
# Elastic Compliance Matrix: (Units=1/GPa)
#
#
# Indices 1 2 3 4 5 6 
#
# 1 0.008420 0.003052 -0.002196 0.000000 0.002858 0.000000
# 2 0.003052 0.017297 -0.001871 0.000000 0.003312 0.000000
# 3 -0.002196 -0.001871 0.006302 0.000000 -0.000876 0.000000
# 4 0.000000 0.000000 0.000000 0.134398 0.000000 0.024952
# 5 0.002858 0.003312 -0.000876 0.000000 0.028419 0.000000
# 6 0.000000 0.000000 0.000000 0.024952 0.000000 0.038360
#
#
# Mechanical properties :
#
#
# Convention : Reuss Voigt Hill
#
# Bulk Modulus (GPa) = 33.34329 50.09828 41.72078
# Shear Modulus (GPa) = 20.38974 37.95196 29.17085
#
# Velocity S-wave (km/s) = 3.19376 4.35726 3.82007
# Velocity P-wave (km/s) = 5.50276 7.09763 6.35046
#
# Compressibility (1/GPa) = 0.02999104
#
# Stress axis : x y z
#
# Youngs Moduli (GPa) = 118.75923 57.81512 158.67842
#
# Poissons Ratio (x) = -0.17646 0.34838
# Poissons Ratio (y) = -0.36248 0.29683
# Poissons Ratio (z) = 0.26074 0.10815
#
# Static dielectric constant tensor:
#      x y z
#    x 1.697800 0.000000 0.005080 
#    y 0.000000 1.681580 0.000000 
#    z 0.005080 0.000000 1.771940 
# 
# From -- ./inp_files/13370.got.cif
#   From: 2010.05.17/outbox.cif.g08.bks.cpg/sg13_7_cif.got.tgz:13370.got - 2010.06.03 16:44:36.
