data_PCOD9233633
_publ_section_title
;
Structure prediction by ZEFSAII (Michael W. Deem and Ramdas Pophale) SiO2 
 PCOD9233633
Probable space group: P 2/C
;
_chemical_formula_sum "Si O2"
_cell_formula_units_Z 24
_cell_length_a 17.292470
_cell_length_b 11.819835
_cell_length_c 12.827568
_cell_angle_alpha 90.000000
_cell_angle_beta 24.016974
_cell_angle_gamma 90.000000
_cell_volume 1067.124109
_symmetry_space_group_name_H-M "P 2/C"
_symmetry_group_IT_number 13
_symmetry_cell_setting 'monoclinic'
loop_
_space_group_symop_operation_xyz
x,y,z
-x,y,1/2-z
-x,-y,-z
x,-y,1/2+z
loop_
_atom_site_type_symbol
_atom_site_label
_atom_site_fract_x
_atom_site_fract_y
_atom_site_fract_z
Si Si1 0.648675 0.315172 0.980367
Si Si2 0.623075 0.557992 0.939176
Si Si3 0.052021 0.099325 0.080316
Si Si4 0.746385 0.905843 0.782750
Si Si5 0.398999 0.231949 0.692193
Si Si6 0.944108 0.295735 0.937760
O O1 0.662561 0.452508 0.965258
O O2 0.578663 0.269108 0.956031
O O3 0.860089 0.274508 0.742937
O O4 0.500000 0.278293 0.250000
O O5 0.815638 0.608824 0.652115
O O6 0.500000 0.500000 0.000000
O O7 0.493547 0.662818 0.136494
O O8 0.000000 0.032953 0.250000
O O9 0.865171 0.120590 0.241568
O O10 0.177096 0.203457 0.970528
O O11 0.192893 0.028503 0.832002
O O12 0.822051 0.817551 0.602975
O O13 0.525376 0.877087 0.065766
O O14 0.000000 0.322398 0.750000
#
# Coordination Sequence:
#
# PCOD9233633 Si02
#       6
#     4   4   4   4   4   4
#     4  11  21  38  61  90 121 165 210 256 307 366
#     4   9  20  37  56  83 122 154 203 256 297 361
#     4  11  23  41  64  92 127 161 204 249 314 366
#     4  10  22  41  64  91 125 160 204 260 294 372
#     4  10  21  42  61  88 127 161 206 255 303 368
#     4  11  20  37  64  90 122 162 205 256 312 359
#
# _framework density 22.490354
#
# number of rings (size 3 to 8) (size 9 to 14) (size 15 to 20)
#    0.000    1.667    1.667    4.500    0.000    0.667 
#    6.000    3.333    0.000    0.000    0.000    0.000 
#    0.000    0.000    0.000    0.000    0.000    0.000 
#
# Total GULP energy -133951.160187 kJ/mol
# GULP energy per Si atom -5581.298341 kJ/mol
# Density = 2.243917 g / cm^3
# Si number density = 22.490354 Si / 1000 Ang^3
#
#
#
# Elastic Constant Matrix: (Units=GPa)
#
#
# Indices 1 2 3 4 5 6 
#
# 1 96.1086 7.2954 45.1646 0.0000 -14.3454 0.0000
# 2 7.2954 34.1065 11.0558 0.0000 -3.3661 0.0000
# 3 45.1646 11.0558 91.7933 0.0000 -21.3216 0.0000
# 4 0.0000 0.0000 0.0000 26.3225 0.0000 -6.0766
# 5 -14.3454 -3.3661 -21.3216 0.0000 41.7365 0.0000
# 6 0.0000 0.0000 0.0000 -6.0766 0.0000 18.3628
#
#
#
# Elastic Compliance Matrix: (Units=1/GPa)
#
#
# Indices 1 2 3 4 5 6 
#
# 1 0.013626 -0.000737 -0.006288 0.000000 0.001412 0.000000
# 2 -0.000737 0.030567 -0.003183 0.000000 0.000586 0.000000
# 3 -0.006288 -0.003183 0.015669 0.000000 0.005587 0.000000
# 4 0.000000 0.000000 0.000000 0.041132 0.000000 0.013611
# 5 0.001412 0.000586 0.005587 0.000000 0.027346 0.000000
# 6 0.000000 0.000000 0.000000 0.013611 0.000000 0.058962
#
#
# Mechanical properties :
#
#
# Convention : Reuss Voigt Hill
#
# Bulk Modulus (GPa) = 25.35051 38.78221 32.06636
# Shear Modulus (GPa) = 22.63799 27.85055 25.24427
#
# Velocity S-wave (km/s) = 3.17608 3.52281 3.35393
# Velocity P-wave (km/s) = 4.97455 5.81621 5.41177
#
# Compressibility (1/GPa) = 0.03944693
#
# Stress axis : x y z
#
# Youngs Moduli (GPa) = 73.38669 32.71489 63.82108
#
# Poissons Ratio (x) = 0.02411 0.40129
# Poissons Ratio (y) = 0.05410 0.20313
# Poissons Ratio (z) = 0.46144 0.10412
#
# Static dielectric constant tensor:
#      x y z
#    x 1.819010 0.000000 0.019540 
#    y 0.000000 1.891940 0.000000 
#    z 0.019540 0.000000 1.866520 
# 
# From -- ./inp_files/57666.got.cif
#   From: 2010.05.17/outbox.cif.g08.bks.cpg/sg13_29_cif.got.tgz:57666.got - 2010.06.03 16:44:36.
