data_PCOD9233434
_publ_section_title
;
Structure prediction by ZEFSAII (Michael W. Deem and Ramdas Pophale) SiO2 
 PCOD9233434
Probable space group: P 2/C
;
_chemical_formula_sum "Si O2"
_cell_formula_units_Z 20
_cell_length_a 16.431942
_cell_length_b 9.016852
_cell_length_c 25.542735
_cell_angle_alpha 90.000000
_cell_angle_beta 14.525763
_cell_angle_gamma 90.000000
_cell_volume 949.216475
_symmetry_space_group_name_H-M "P 2/C"
_symmetry_group_IT_number 13
_symmetry_cell_setting 'monoclinic'
loop_
_space_group_symop_operation_xyz
x,y,z
-x,y,1/2-z
-x,-y,-z
x,-y,1/2+z
loop_
_atom_site_type_symbol
_atom_site_label
_atom_site_fract_x
_atom_site_fract_y
_atom_site_fract_z
Si Si1 0.192176 0.652793 0.471819
Si Si2 0.248215 0.213773 0.343515
Si Si3 0.048725 0.335708 0.580894
Si Si4 0.372829 0.937934 0.416880
Si Si5 0.333296 0.926675 0.153626
O O1 0.500000 0.583997 0.250000
O O2 0.001120 0.511440 0.611836
O O3 0.347803 0.767839 0.415429
O O4 0.977692 0.744737 0.564291
O O5 0.082525 0.272274 0.500075
O O6 0.594020 0.296108 0.119367
O O7 0.355973 0.041112 0.279700
O O8 0.763511 0.246601 0.787304
O O9 0.451401 0.953114 0.429133
O O10 0.022176 0.001234 0.620525
O O11 0.500000 0.000000 0.000000
#
# Coordination Sequence:
#
# PCOD9233434 Si02
#       5
#     4   4   4   4   4
#     4  12  23  36  66 102 141 173 209 275 353 405
#     4  10  21  41  59  99 137 175 214 273 337 407
#     4  10  23  39  63  97 139 171 219 272 338 402
#     4  11  24  41  69  98 130 173 232 274 334 396
#     4  11  24  45  68  92 129 180 232 280 320 387
#
# _framework density 21.070011000000001
#
# number of rings (size 3 to 8) (size 9 to 14) (size 15 to 20)
#    0.000    1.200    4.000    2.400    8.400    1.600 
#    0.000    1.000    0.000    2.400    0.000    0.000 
#    0.000    0.000    0.000    0.000    0.000    0.000 
#
# Total GULP energy -111753.427274 kJ/mol
# GULP energy per Si atom -5587.671364 kJ/mol
# Density = 2.102205 g / cm^3
# Si number density = 21.070011 Si / 1000 Ang^3
#
#
#
# Elastic Constant Matrix: (Units=GPa)
#
#
# Indices 1 2 3 4 5 6 
#
# 1 135.6920 45.3186 34.6819 0.0000 -23.8543 0.0000
# 2 45.3186 171.4521 32.5933 0.0000 14.2510 0.0000
# 3 34.6819 32.5933 55.5529 0.0000 -7.0060 0.0000
# 4 0.0000 0.0000 0.0000 25.7023 0.0000 7.7432
# 5 -23.8543 14.2510 -7.0060 0.0000 21.2406 0.0000
# 6 0.0000 0.0000 0.0000 7.7432 0.0000 12.3773
#
#
#
# Elastic Compliance Matrix: (Units=1/GPa)
#
#
# Indices 1 2 3 4 5 6 
#
# 1 0.012185 -0.003818 -0.003462 0.000000 0.015104 0.000000
# 2 -0.003818 0.008562 -0.004074 0.000000 -0.011376 0.000000
# 3 -0.003462 -0.004074 0.023380 0.000000 0.006557 0.000000
# 4 0.000000 0.000000 0.000000 0.047943 0.000000 -0.029993
# 5 0.015104 -0.011376 0.006557 0.000000 0.073837 0.000000
# 6 0.000000 0.000000 0.000000 -0.029993 0.000000 0.099556
#
#
# Mechanical properties :
#
#
# Convention : Reuss Voigt Hill
#
# Bulk Modulus (GPa) = 46.69132 65.32052 56.00592
# Shear Modulus (GPa) = 16.93129 28.53759 22.73444
#
# Velocity S-wave (km/s) = 2.83781 3.68423 3.28837
# Velocity P-wave (km/s) = 5.73984 7.01192 6.40753
#
# Compressibility (1/GPa) = 0.02141726
#
# Stress axis : x y z
#
# Youngs Moduli (GPa) = 82.06860 116.79743 42.77205
#
# Poissons Ratio (x) = 0.44593 0.14809
# Poissons Ratio (y) = 0.31334 0.17427
# Poissons Ratio (z) = 0.28414 0.47588
#
# Static dielectric constant tensor:
#      x y z
#    x 1.756140 0.000000 -0.004370 
#    y 0.000000 1.835220 0.000000 
#    z -0.004370 0.000000 1.762790 
# 
# From -- ./inp_files/87216.got.cif
#   From: 2010.05.17/outbox.cif.g08.bks.cpg/sg13_44_cif.got.tgz:87216.got - 2010.06.03 16:44:36.
