data_PCOD9233670
_publ_section_title
;
Structure prediction by ZEFSAII (Michael W. Deem and Ramdas Pophale) SiO2 
 PCOD9233670
Probable space group: P 2/C
;
_chemical_formula_sum "Si O2"
_cell_formula_units_Z 18
_cell_length_a 5.271997
_cell_length_b 21.915020
_cell_length_c 8.942943
_cell_angle_alpha 90.000000
_cell_angle_beta 58.334036
_cell_angle_gamma 90.000000
_cell_volume 879.406905
_symmetry_space_group_name_H-M "P 2/C"
_symmetry_group_IT_number 13
_symmetry_cell_setting 'monoclinic'
loop_
_space_group_symop_operation_xyz
x,y,z
-x,y,1/2-z
-x,-y,-z
x,-y,1/2+z
loop_
_atom_site_type_symbol
_atom_site_label
_atom_site_fract_x
_atom_site_fract_y
_atom_site_fract_z
Si Si1 0.858778 0.170229 0.628821
Si Si2 0.859471 0.057237 0.130502
Si Si3 0.785970 0.415715 0.086398
Si Si4 0.852148 0.692606 0.130562
Si Si5 0.000000 0.516762 0.250000
O O1 0.500000 0.160532 0.750000
O O2 0.915092 0.239077 0.552565
O O3 0.000000 0.167580 0.750000
O O4 0.022719 0.118869 0.483125
O O5 0.500000 0.054460 0.250000
O O6 0.000000 0.055305 0.250000
O O7 0.000000 0.000000 0.000000
O O8 0.500000 0.385850 0.250000
O O9 0.846995 0.472572 0.177408
O O10 0.033318 0.363673 0.002512
O O11 0.777628 0.442391 0.919637
O O12 0.500000 0.687315 0.250000
O O13 0.000000 0.688442 0.250000
#
# Coordination Sequence:
#
# PCOD9233670 Si02
#       5
#     4   4   4   4   2
#     4  10  21  42  65  91 126 171 208 259 319 376
#     4  12  24  40  64  96 131 171 215 267 312 377
#     4  11  23  40  64  91 123 167 214 266 324 392
#     4  10  23  42  66  91 129 167 209 262 325 385
#     4  10  24  40  60  92 128 160 214 266 330 380
#
# _framework density 20.468340999999999
#
# number of rings (size 3 to 8) (size 9 to 14) (size 15 to 20)
#    0.000    1.333    1.111    4.000    3.111    4.444 
#    2.000    0.000    0.000    0.000    0.000    0.000 
#    0.000    0.000    0.000    0.000    0.000    0.000 
#
# Total GULP energy -100536.144351 kJ/mol
# GULP energy per Si atom -5585.341353 kJ/mol
# Density = 2.042175 g / cm^3
# Si number density = 20.468341 Si / 1000 Ang^3
#
#
#
# Elastic Constant Matrix: (Units=GPa)
#
#
# Indices 1 2 3 4 5 6 
#
# 1 132.9323 41.9981 51.1346 0.0000 -11.2910 0.0000
# 2 41.9981 169.0362 89.1445 0.0000 -15.8441 0.0000
# 3 51.1346 89.1445 126.0157 0.0000 -3.9763 0.0000
# 4 0.0000 0.0000 0.0000 -117.8230 0.0000 -31.4239
# 5 -11.2910 -15.8441 -3.9763 0.0000 36.1334 0.0000
# 6 0.0000 0.0000 0.0000 -31.4239 0.0000 25.6805
#
#
#
# Elastic Compliance Matrix: (Units=1/GPa)
#
#
# Indices 1 2 3 4 5 6 
#
# 1 0.009130 -0.000209 -0.003482 0.000000 0.002378 0.000000
# 2 -0.000209 0.009880 -0.006793 0.000000 0.003519 0.000000
# 3 -0.003482 -0.006793 0.014075 0.000000 -0.002518 0.000000
# 4 0.000000 0.000000 0.000000 -0.006399 0.000000 -0.007830
# 5 0.002378 0.003519 -0.002518 0.000000 0.029684 0.000000
# 6 0.000000 0.000000 0.000000 -0.007830 0.000000 0.029359
#
#
# Mechanical properties :
#
#
# Convention : Reuss Voigt Hill
#
# Bulk Modulus (GPa) = 82.53499 88.05985 85.29742
# Shear Modulus (GPa) = 45.15201 5.17865 25.16533
#
# Velocity S-wave (km/s) = 4.70184 1.59235 3.51019
# Velocity P-wave (km/s) = 8.35986 6.81884 7.62836
#
# Compressibility (1/GPa) = 0.01211607
#
# Stress axis : x y z
#
# Youngs Moduli (GPa) = 109.52863 101.20951 71.05001
#
# Poissons Ratio (x) = 0.02120 0.24737
# Poissons Ratio (y) = 0.02294 0.48268
# Poissons Ratio (z) = 0.38133 0.68757
#
# Static dielectric constant tensor:
#      x y z
#    x 1.746280 0.000000 0.005750 
#    y 0.000000 1.747170 0.000000 
#    z 0.005750 0.000000 1.694660 
# 
# From -- ./inp_files/9868.got.cif
#   From: 2010.05.17/outbox.cif.g08.bks.cpg/sg13_5_cif.got.tgz:9868.got - 2010.06.03 16:44:36.
