data_PCOD9233551
_publ_section_title
;
Structure prediction by ZEFSAII (Michael W. Deem and Ramdas Pophale) SiO2 
 PCOD9233551
Probable space group: P 2/C
;
_chemical_formula_sum "Si O2"
_cell_formula_units_Z 20
_cell_length_a 5.607012
_cell_length_b 23.638888
_cell_length_c 9.293163
_cell_angle_alpha 90.000000
_cell_angle_beta 54.304899
_cell_angle_gamma 90.000000
_cell_volume 1000.344215
_symmetry_space_group_name_H-M "P 2/C"
_symmetry_group_IT_number 13
_symmetry_cell_setting 'monoclinic'
loop_
_space_group_symop_operation_xyz
x,y,z
-x,y,1/2-z
-x,-y,-z
x,-y,1/2+z
loop_
_atom_site_type_symbol
_atom_site_label
_atom_site_fract_x
_atom_site_fract_y
_atom_site_fract_z
Si Si1 0.020204 0.057006 0.582424
Si Si2 0.687948 0.779534 0.904459
Si Si3 0.500000 0.148434 0.750000
Si Si4 0.500000 0.872556 0.750000
Si Si5 0.646417 0.321642 0.860774
Si Si6 0.355081 0.450530 0.642341
O O1 0.304790 0.088914 0.422305
O O2 0.000000 0.035074 0.750000
O O3 0.770932 0.105407 0.672513
O O4 0.000000 0.000000 0.500000
O O5 0.667949 0.829477 0.794329
O O6 0.000000 0.754001 0.750000
O O7 0.605742 0.811961 0.081775
O O8 0.473417 0.726154 0.989565
O O9 0.500000 0.313270 0.750000
O O10 0.571324 0.386051 0.930075
O O11 0.000000 0.316886 0.750000
O O12 0.500000 0.455559 0.750000
O O13 0.500000 0.500000 0.500000
O O14 0.000000 0.455697 0.750000
#
# Coordination Sequence:
#
# PCOD9233551 Si02
#       6
#     4   4   2   2   4   4
#     4  12  28  45  68  94 128 167 212 274 335 407
#     4  12  26  43  69  99 130 178 228 273 344 414
#     4  12  25  46  68  92 133 168 210 282 338 394
#     4  12  27  44  66 100 127 166 226 274 336 414
#     4  10  24  43  68  99 142 186 230 286 349 402
#     4  10  21  41  66  99 138 187 232 285 342 400
#
# _framework density 19.993117999999999
#
# number of rings (size 3 to 8) (size 9 to 14) (size 15 to 20)
#    0.000    0.800    5.000    1.200    8.400    2.400 
#    1.800    0.000    0.000    0.000    0.000    0.000 
#    0.000    0.000    0.000    0.000    0.000    0.000 
#
# Total GULP energy -111370.344383 kJ/mol
# GULP energy per Si atom -5568.517219 kJ/mol
# Density = 1.994761 g / cm^3
# Si number density = 19.993118 Si / 1000 Ang^3
#
#
#
# Elastic Constant Matrix: (Units=GPa)
#
#
# Indices 1 2 3 4 5 6 
#
# 1 75.3496 27.7175 31.2099 0.0000 -3.6697 0.0000
# 2 27.7175 146.1897 56.5054 0.0000 -3.8461 0.0000
# 3 31.2099 56.5054 119.2432 0.0000 -2.0374 0.0000
# 4 0.0000 0.0000 0.0000 189.5821 0.0000 4.8002
# 5 -3.6697 -3.8461 -2.0374 0.0000 31.8482 0.0000
# 6 0.0000 0.0000 0.0000 4.8002 0.0000 32.8169
#
#
#
# Elastic Compliance Matrix: (Units=1/GPa)
#
#
# Indices 1 2 3 4 5 6 
#
# 1 0.015260 -0.001619 -0.003204 0.000000 0.001358 0.000000
# 2 -0.001619 0.008564 -0.003624 0.000000 0.000616 0.000000
# 3 -0.003204 -0.003624 0.010940 0.000000 -0.000107 0.000000
# 4 0.000000 0.000000 0.000000 0.005294 0.000000 -0.000774
# 5 0.001358 0.000616 -0.000107 0.000000 0.031623 0.000000
# 6 0.000000 0.000000 0.000000 -0.000774 0.000000 0.030585
#
#
# Mechanical properties :
#
#
# Convention : Reuss Voigt Hill
#
# Bulk Modulus (GPa) = 55.95680 63.51646 59.73663
# Shear Modulus (GPa) = 39.96216 65.87275 52.91745
#
# Velocity S-wave (km/s) = 4.47564 5.74624 5.15027
# Velocity P-wave (km/s) = 7.39981 8.70998 8.08149
#
# Compressibility (1/GPa) = 0.01787093
#
# Stress axis : x y z
#
# Youngs Moduli (GPa) = 65.52991 116.76203 91.40613
#
# Poissons Ratio (x) = 0.18908 0.29282
# Poissons Ratio (y) = 0.10612 0.33126
# Poissons Ratio (z) = 0.20993 0.42315
#
# Static dielectric constant tensor:
#      x y z
#    x 1.799030 0.000000 0.040300 
#    y 0.000000 1.842070 0.000000 
#    z 0.040300 0.000000 1.643760 
# 
# From -- ./inp_files/9918.got.cif
#   From: 2010.05.17/outbox.cif.g08.bks.cpg/sg13_5_cif.got.tgz:9918.got - 2010.06.03 16:44:36.
