data_PCOD9233460
_publ_section_title
;
Structure prediction by ZEFSAII (Michael W. Deem and Ramdas Pophale) SiO2 
 PCOD9233460
Probable space group: P 2/C
;
_chemical_formula_sum "Si O2"
_cell_formula_units_Z 22
_cell_length_a 11.882178
_cell_length_b 7.199480
_cell_length_c 18.333859
_cell_angle_alpha 90.000000
_cell_angle_beta 37.930600
_cell_angle_gamma 90.000000
_cell_volume 964.092943
_symmetry_space_group_name_H-M "P 2/C"
_symmetry_group_IT_number 13
_symmetry_cell_setting 'monoclinic'
loop_
_space_group_symop_operation_xyz
x,y,z
-x,y,1/2-z
-x,-y,-z
x,-y,1/2+z
loop_
_atom_site_type_symbol
_atom_site_label
_atom_site_fract_x
_atom_site_fract_y
_atom_site_fract_z
Si Si1 0.289740 0.936840 0.608168
Si Si2 0.500000 0.780102 0.750000
Si Si3 0.059080 0.709113 0.488607
Si Si4 0.362944 0.108560 0.909957
Si Si5 0.785126 0.793035 0.234016
Si Si6 0.250973 0.356206 0.250352
O O1 0.253922 0.913919 0.541335
O O2 0.285729 0.748847 0.657175
O O3 0.500000 0.000000 0.500000
O O4 0.181055 0.089598 0.710528
O O5 0.591308 0.665271 0.768808
O O6 0.362020 0.921390 0.862117
O O7 0.261530 0.728692 0.418357
O O8 0.075258 0.820085 0.404632
O O9 0.000000 0.500000 0.500000
O O10 0.914825 0.752535 0.625211
O O11 0.577453 0.150403 0.815576
O O12 0.784679 0.571758 0.246682
#
# Coordination Sequence:
#
# PCOD9233460 Si02
#       6
#     4   2   4   4   4   4
#     4  10  21  41  62  92 126 169 215 262 329 383
#     4  12  22  38  64  96 120 176 224 258 332 384
#     4  10  22  39  64  98 127 170 216 271 325 381
#     4  11  21  41  66  89 132 170 217 265 326 393
#     4  10  21  41  66  90 129 169 213 272 317 388
#     4  11  24  39  64  95 130 164 223 267 321 387
#
# _framework density 22.819378
#
# number of rings (size 3 to 8) (size 9 to 14) (size 15 to 20)
#    0.000    1.455    5.455    0.000    5.091    6.545 
#    0.000    0.000    0.000    4.364    0.000    0.000 
#    0.000    0.000    0.000    0.000    0.000    0.000 
#
# Total GULP energy -122823.753232 kJ/mol
# GULP energy per Si atom -5582.897874 kJ/mol
# Density = 2.276744 g / cm^3
# Si number density = 22.819378 Si / 1000 Ang^3
#
#
#
# Elastic Constant Matrix: (Units=GPa)
#
#
# Indices 1 2 3 4 5 6 
#
# 1 77.7692 14.3991 22.9695 0.0000 19.8129 0.0000
# 2 14.3991 83.0092 3.9918 0.0000 22.6834 0.0000
# 3 22.9695 3.9918 116.6712 0.0000 34.3738 0.0000
# 4 0.0000 0.0000 0.0000 38.7845 0.0000 2.1456
# 5 19.8129 22.6834 34.3738 0.0000 52.7812 0.0000
# 6 0.0000 0.0000 0.0000 2.1456 0.0000 11.6730
#
#
#
# Elastic Compliance Matrix: (Units=1/GPa)
#
#
# Indices 1 2 3 4 5 6 
#
# 1 0.014584 -0.001424 -0.001720 0.000000 -0.003742 0.000000
# 2 -0.001424 0.014023 0.001755 0.000000 -0.006635 0.000000
# 3 -0.001720 0.001755 0.010990 0.000000 -0.007266 0.000000
# 4 0.000000 0.000000 0.000000 0.026048 0.000000 -0.004788
# 5 -0.003742 -0.006635 -0.007266 0.000000 0.027935 0.000000
# 6 0.000000 0.000000 0.000000 -0.004788 0.000000 0.086548
#
#
# Mechanical properties :
#
#
# Convention : Reuss Voigt Hill
#
# Bulk Modulus (GPa) = 27.15990 40.01893 33.58941
# Shear Modulus (GPa) = 25.61759 36.38701 31.00230
#
# Velocity S-wave (km/s) = 3.35419 3.99753 3.68991
# Velocity P-wave (km/s) = 5.18929 6.23557 5.73634
#
# Compressibility (1/GPa) = 0.03681899
#
# Stress axis : x y z
#
# Youngs Moduli (GPa) = 68.56998 71.31329 90.98799
#
# Poissons Ratio (x) = 0.10158 0.15649
# Poissons Ratio (y) = 0.09767 -0.15973
# Poissons Ratio (z) = 0.11793 -0.12519
#
# Static dielectric constant tensor:
#      x y z
#    x 2.216170 0.000000 0.246700 
#    y 0.000000 1.837620 0.000000 
#    z 0.246700 0.000000 2.081200 
# 
# From -- ./inp_files/65868.got.cif
#   From: 2010.05.17/outbox.cif.g08.bks.cpg/sg13_33_cif.got.tgz:65868.got - 2010.06.03 16:44:36.
