data_PCOD9233845
_publ_section_title
;
Structure prediction by ZEFSAII (Michael W. Deem and Ramdas Pophale) SiO2 
 PCOD9233845
Probable space group: P 2/C
;
_chemical_formula_sum "Si O2"
_cell_formula_units_Z 28
_cell_length_a 12.761976
_cell_length_b 6.862195
_cell_length_c 15.133378
_cell_angle_alpha 90.000000
_cell_angle_beta 72.805166
_cell_angle_gamma 90.000000
_cell_volume 1266.073500
_symmetry_space_group_name_H-M "P 2/C"
_symmetry_group_IT_number 13
_symmetry_cell_setting 'monoclinic'
loop_
_space_group_symop_operation_xyz
x,y,z
-x,y,1/2-z
-x,-y,-z
x,-y,1/2+z
loop_
_atom_site_type_symbol
_atom_site_label
_atom_site_fract_x
_atom_site_fract_y
_atom_site_fract_z
Si Si1 0.185949 0.333049 0.084160
Si Si2 0.320587 0.936758 0.689183
Si Si3 0.622695 0.499420 0.573490
Si Si4 0.000000 0.329238 0.250000
Si Si5 0.500000 0.710583 0.750000
Si Si6 0.881124 0.041969 0.142579
Si Si7 0.014805 0.731533 0.487297
Si Si8 0.457878 0.198861 0.552145
O O1 0.263051 0.203274 0.129540
O O2 0.108293 0.213962 0.036708
O O3 0.095479 0.436920 0.170683
O O4 0.258722 0.456812 0.997770
O O5 0.431311 0.838021 0.697789
O O6 0.241427 0.974497 0.791902
O O7 0.353601 0.140003 0.636302
O O8 0.593632 0.585228 0.676348
O O9 0.553502 0.300520 0.583639
O O10 0.573542 0.653579 0.516728
O O11 0.936561 0.182445 0.201002
O O12 0.904122 0.163438 0.047350
O O13 0.939861 0.833430 0.112357
O O14 0.000000 0.500000 0.500000
O O15 0.500000 0.000000 0.500000
#
# Coordination Sequence:
#
# PCOD9233845 Si02
#       8
#     4   4   4   2   2   4   4   4
#     4  10  21  43  68  90 134 174 213 274 333 384
#     4  11  23  43  68  94 131 181 216 272 332 392
#     4  11  24  41  66  96 131 173 218 281 323 394
#     4   8  18  42  66  94 128 170 220 274 316 404
#     4  12  26  40  66 104 138 168 232 274 324 404
#     4   9  21  42  65  92 132 166 218 270 326 386
#     4  10  22  42  65  97 129 169 217 274 326 395
#     4  11  21  45  66  91 131 175 225 261 327 394
#
# _framework density 22.115618000000001
#
# number of rings (size 3 to 8) (size 9 to 14) (size 15 to 20)
#    0.000    1.714    2.857    0.857    2.000    4.000 
#   15.429    0.714    0.000    0.000    0.000    0.000 
#    0.000    0.000    0.000    0.000    0.000    0.000 
#
# Total GULP energy -156052.432190 kJ/mol
# GULP energy per Si atom -5573.301150 kJ/mol
# Density = 2.206528 g / cm^3
# Si number density = 22.115618 Si / 1000 Ang^3
#
#
#
# Elastic Constant Matrix: (Units=GPa)
#
#
# Indices 1 2 3 4 5 6 
#
# 1 53.4467 7.9002 28.1529 0.0000 -10.8724 0.0000
# 2 7.9002 95.8188 33.7511 0.0000 -13.7876 0.0000
# 3 28.1529 33.7511 143.1353 0.0000 -44.6758 0.0000
# 4 0.0000 0.0000 0.0000 36.3312 0.0000 -9.5062
# 5 -10.8724 -13.7876 -44.6758 0.0000 46.9558 0.0000
# 6 0.0000 0.0000 0.0000 -9.5062 0.0000 13.8878
#
#
#
# Elastic Compliance Matrix: (Units=1/GPa)
#
#
# Indices 1 2 3 4 5 6 
#
# 1 0.020936 -0.000253 -0.003653 0.000000 0.001298 0.000000
# 2 -0.000253 0.011426 -0.002298 0.000000 0.001110 0.000000
# 3 -0.003653 -0.002298 0.011055 0.000000 0.008998 0.000000
# 4 0.000000 0.000000 0.000000 0.033530 0.000000 0.022951
# 5 0.001298 0.001110 0.008998 0.000000 0.030484 0.000000
# 6 0.000000 0.000000 0.000000 0.022951 0.000000 0.087715
#
#
# Mechanical properties :
#
#
# Convention : Reuss Voigt Hill
#
# Bulk Modulus (GPa) = 32.24822 48.00102 40.12462
# Shear Modulus (GPa) = 22.94725 34.27475 28.61100
#
# Velocity S-wave (km/s) = 3.22468 3.94102 3.60071
# Velocity P-wave (km/s) = 5.33648 6.51618 5.95561
#
# Compressibility (1/GPa) = 0.03100946
#
# Stress axis : x y z
#
# Youngs Moduli (GPa) = 47.76496 87.51644 90.45476
#
# Poissons Ratio (x) = 0.02211 0.33045
# Poissons Ratio (y) = 0.01207 0.20788
# Poissons Ratio (z) = 0.17450 0.20113
#
# Static dielectric constant tensor:
#      x y z
#    x 1.873970 0.000000 -0.047500 
#    y 0.000000 1.810550 0.000000 
#    z -0.047500 0.000000 1.934380 
# 
# From -- ./inp_files/67529.got.cif
#   From: 2010.05.17/outbox.cif.g08.bks.cpg/sg13_34_cif.got.tgz:67529.got - 2010.06.03 16:44:36.
