data_PCOD9233509
_publ_section_title
;
Structure prediction by ZEFSAII (Michael W. Deem and Ramdas Pophale) SiO2 
 PCOD9233509
Probable space group: P 2/C
;
_chemical_formula_sum "Si O2"
_cell_formula_units_Z 22
_cell_length_a 13.169648
_cell_length_b 11.513788
_cell_length_c 15.403687
_cell_angle_alpha 90.000000
_cell_angle_beta 27.858695
_cell_angle_gamma 90.000000
_cell_volume 1091.455328
_symmetry_space_group_name_H-M "P 2/C"
_symmetry_group_IT_number 13
_symmetry_cell_setting 'monoclinic'
loop_
_space_group_symop_operation_xyz
x,y,z
-x,y,1/2-z
-x,-y,-z
x,-y,1/2+z
loop_
_atom_site_type_symbol
_atom_site_label
_atom_site_fract_x
_atom_site_fract_y
_atom_site_fract_z
Si Si1 0.266283 0.177643 0.459449
Si Si2 0.500000 0.048459 0.750000
Si Si3 0.480966 0.243873 0.893077
Si Si4 0.029040 0.498478 0.083181
Si Si5 0.500000 0.457943 0.750000
Si Si6 0.816057 0.729226 0.286732
Si Si7 0.000000 0.301354 0.250000
O O1 0.500000 0.223455 0.250000
O O2 0.230906 0.222366 0.583129
O O3 0.042872 0.214034 0.580841
O O4 0.309035 0.039185 0.422994
O O5 0.574236 0.136582 0.768255
O O6 0.516230 0.367798 0.818393
O O7 0.607001 0.247451 0.886967
O O8 0.221742 0.230383 0.089011
O O9 0.867366 0.592519 0.245705
O O10 0.001982 0.380889 0.160541
O O11 0.000000 0.500000 0.000000
O O12 0.279332 0.529650 0.914917
#
# Coordination Sequence:
#
# PCOD9233509 Si02
#       7
#     4   2   4   4   2   4   2
#     4   9  23  44  59  94 133 163 213 273 326 372
#     4   9  22  45  64  86 130 171 206 281 338 364
#     4  10  21  41  65  92 125 169 221 267 314 385
#     4  11  22  41  65  97 135 176 209 264 322 387
#     4   9  20  41  60  94 136 167 208 257 320 376
#     4  11  22  40  69  98 127 169 224 257 321 399
#     4  10  24  40  62 100 134 172 220 266 318 390
#
# _framework density 20.156573000000002
#
# number of rings (size 3 to 8) (size 9 to 14) (size 15 to 20)
#    0.545    1.455    1.818    1.091    1.273    5.091 
#    3.273    0.000    0.000    0.000    0.000    0.000 
#    0.000    0.000    0.000    0.000    0.000    0.000 
#
# Total GULP energy -122603.422705 kJ/mol
# GULP energy per Si atom -5572.882850 kJ/mol
# Density = 2.011070 g / cm^3
# Si number density = 20.156573 Si / 1000 Ang^3
#
#
#
# Elastic Constant Matrix: (Units=GPa)
#
#
# Indices 1 2 3 4 5 6 
#
# 1 123.3285 32.8583 41.2406 0.0000 -10.0231 0.0000
# 2 32.8583 70.1017 23.1281 0.0000 -1.8402 0.0000
# 3 41.2406 23.1281 106.4273 0.0000 -8.1685 0.0000
# 4 0.0000 0.0000 0.0000 29.8727 0.0000 11.0682
# 5 -10.0231 -1.8402 -8.1685 0.0000 28.6377 0.0000
# 6 0.0000 0.0000 0.0000 11.0682 0.0000 3.0946
#
#
#
# Elastic Compliance Matrix: (Units=1/GPa)
#
#
# Indices 1 2 3 4 5 6 
#
# 1 0.010319 -0.003787 -0.002983 0.000000 0.002518 0.000000
# 2 -0.003787 0.016756 -0.002242 0.000000 -0.000888 0.000000
# 3 -0.002983 -0.002242 0.011193 0.000000 0.002005 0.000000
# 4 0.000000 0.000000 0.000000 -0.102944 0.000000 0.368191
# 5 0.002518 -0.000888 0.002005 0.000000 0.036315 0.000000
# 6 0.000000 0.000000 0.000000 0.368191 0.000000 -0.993737
#
#
# Mechanical properties :
#
#
# Convention : Reuss Voigt Hill
#
# Bulk Modulus (GPa) = 49.39358 54.92349 52.15853
# Shear Modulus (GPa) = -5.01341 25.82971 10.40815
#
# Velocity S-wave (km/s) = -1.57881 3.58362 2.27483
# Velocity P-wave (km/s) = 4.60811 6.66564 5.72998
#
# Compressibility (1/GPa) = 0.02024555
#
# Stress axis : x y z
#
# Youngs Moduli (GPa) = 96.90569 59.67875 89.34197
#
# Poissons Ratio (x) = 0.22599 0.26647
# Poissons Ratio (y) = 0.36696 0.20032
# Poissons Ratio (z) = 0.28903 0.13381
#
# Static dielectric constant tensor:
#      x y z
#    x 1.726230 0.000000 0.025380 
#    y 0.000000 1.734930 0.000000 
#    z 0.025380 0.000000 1.795260 
# 
# From -- ./inp_files/51141.got.cif
#   From: 2010.05.17/outbox.cif.g08.bks.cpg/sg13_26_cif.got.tgz:51141.got - 2010.06.03 16:44:36.
