data_PCOD9233415
_publ_section_title
;
Structure prediction by ZEFSAII (Michael W. Deem and Ramdas Pophale) SiO2 
 PCOD9233415
Probable space group: P 2/C
;
_chemical_formula_sum "Si O2"
_cell_formula_units_Z 22
_cell_length_a 4.994753
_cell_length_b 17.187511
_cell_length_c 11.476654
_cell_angle_alpha 90.000000
_cell_angle_beta 72.399676
_cell_angle_gamma 90.000000
_cell_volume 939.120448
_symmetry_space_group_name_H-M "P 2/C"
_symmetry_group_IT_number 13
_symmetry_cell_setting 'monoclinic'
loop_
_space_group_symop_operation_xyz
x,y,z
-x,y,1/2-z
-x,-y,-z
x,-y,1/2+z
loop_
_atom_site_type_symbol
_atom_site_label
_atom_site_fract_x
_atom_site_fract_y
_atom_site_fract_z
Si Si1 0.558541 0.841601 0.118353
Si Si2 0.156150 0.219328 0.496363
Si Si3 0.185285 0.602361 0.015992
Si Si4 0.778422 0.447000 0.374231
Si Si5 0.855563 0.005258 0.647006
Si Si6 0.500000 0.853747 0.750000
O O1 0.500000 0.801457 0.250000
O O2 0.632703 0.930137 0.135906
O O3 0.282902 0.836470 0.077713
O O4 0.830991 0.803441 0.019931
O O5 0.178450 0.306759 0.540615
O O6 0.374082 0.205521 0.362570
O O7 0.216745 0.540855 0.116516
O O8 0.463402 0.582998 0.902995
O O9 0.905497 0.582136 0.980410
O O10 0.000000 0.419653 0.250000
O O11 0.000000 0.031917 0.750000
O O12 0.743915 0.919981 0.700639
O O13 0.000000 0.000000 0.500000
#
# Coordination Sequence:
#
# PCOD9233415 Si02
#       6
#     4   4   4   4   4   2
#     4  12  26  45  72  97 140 187 244 296 368 420
#     4  12  27  46  67 109 143 185 235 302 366 429
#     4  10  23  43  64 103 139 175 233 282 344 431
#     4  10  21  40  70  97 132 185 224 274 347 425
#     4  12  25  46  71 102 145 194 254 313 365 454
#     4  12  28  40  74 102 144 188 240 302 370 430
#
# _framework density 23.426172999999999
#
# number of rings (size 3 to 8) (size 9 to 14) (size 15 to 20)
#    0.000    0.727    2.727    4.364    2.545    2.909 
#    0.000    0.000    0.000    0.000    0.000    0.000 
#    0.000    0.000    0.000    0.000    0.000    0.000 
#
# Total GULP energy -122564.593424 kJ/mol
# GULP energy per Si atom -5571.117883 kJ/mol
# Density = 2.337285 g / cm^3
# Si number density = 23.426173 Si / 1000 Ang^3
#
#
#
# Elastic Constant Matrix: (Units=GPa)
#
#
# Indices 1 2 3 4 5 6 
#
# 1 83.8624 17.6247 8.3251 0.0000 -7.8159 0.0000
# 2 17.6247 99.3588 -18.1628 0.0000 0.2007 0.0000
# 3 8.3251 -18.1628 94.2347 0.0000 -31.1953 0.0000
# 4 0.0000 0.0000 0.0000 0.6969 0.0000 0.3957
# 5 -7.8159 0.2007 -31.1953 0.0000 31.3630 0.0000
# 6 0.0000 0.0000 0.0000 0.3957 0.0000 12.9378
#
#
#
# Elastic Compliance Matrix: (Units=1/GPa)
#
#
# Indices 1 2 3 4 5 6 
#
# 1 0.012733 -0.002409 -0.000796 0.000000 0.002397 0.000000
# 2 -0.002409 0.011066 0.003166 0.000000 0.002478 0.000000
# 3 -0.000796 0.003166 0.016728 0.000000 0.016420 0.000000
# 4 0.000000 0.000000 0.000000 1.460311 0.000000 -0.044667
# 5 0.002397 0.002478 0.016420 0.000000 0.048798 0.000000
# 6 0.000000 0.000000 0.000000 -0.044667 0.000000 0.078659
#
#
# Mechanical properties :
#
#
# Convention : Reuss Voigt Hill
#
# Bulk Modulus (GPa) = 24.72253 32.55889 28.64071
# Shear Modulus (GPa) = 3.04534 26.97747 15.01140
#
# Velocity S-wave (km/s) = 1.14140 3.39720 2.53414
# Velocity P-wave (km/s) = 3.50904 5.41448 4.56234
#
# Compressibility (1/GPa) = 0.04044893
#
# Stress axis : x y z
#
# Youngs Moduli (GPa) = 78.53639 90.37067 59.78052
#
# Poissons Ratio (x) = 0.21769 0.04756
# Poissons Ratio (y) = 0.18919 -0.18925
# Poissons Ratio (z) = 0.06248 -0.28610
#
# Static dielectric constant tensor:
#      x y z
#    x 1.748390 0.000000 -0.117750 
#    y 0.000000 1.899570 0.000000 
#    z -0.117750 0.000000 1.956270 
# 
# From -- ./inp_files/26474.got.cif
#   From: 2010.05.17/outbox.cif.g08.bks.cpg/sg13_14_cif.got.tgz:26474.got - 2010.06.03 16:44:36.
