data_PCOD9233115
_publ_section_title
;
Structure prediction by ZEFSAII (Michael W. Deem and Ramdas Pophale) SiO2 
 PCOD9233115
Probable space group: P 2/C
;
_chemical_formula_sum "Si O2"
_cell_formula_units_Z 20
_cell_length_a 8.367011
_cell_length_b 5.427665
_cell_length_c 23.695332
_cell_angle_alpha 90.000000
_cell_angle_beta 126.170596
_cell_angle_gamma 90.000000
_cell_volume 868.683121
_symmetry_space_group_name_H-M "P 2/C"
_symmetry_group_IT_number 13
_symmetry_cell_setting 'monoclinic'
loop_
_space_group_symop_operation_xyz
x,y,z
-x,y,1/2-z
-x,-y,-z
x,-y,1/2+z
loop_
_atom_site_type_symbol
_atom_site_label
_atom_site_fract_x
_atom_site_fract_y
_atom_site_fract_z
Si Si1 0.090996 0.503898 0.375255
Si Si2 0.434943 0.228604 0.396758
Si Si3 0.313399 0.554090 0.749769
Si Si4 0.905026 0.251895 0.506753
Si Si5 0.199332 0.146951 0.799609
O O1 0.293523 0.343948 0.415939
O O2 0.069034 0.698845 0.421025
O O3 0.882941 0.361736 0.324842
O O4 0.105645 0.644010 0.319461
O O5 0.359685 0.317969 0.319152
O O6 0.667687 0.258647 0.449389
O O7 0.372404 0.946757 0.376626
O O8 0.500000 0.591711 0.750000
O O9 0.290017 0.265166 0.762441
O O10 0.000000 0.500000 0.500000
O O11 0.000000 0.000000 0.500000
O O12 0.000000 0.982731 0.750000
#
# Coordination Sequence:
#
# PCOD9233115 Si02
#       5
#     4   4   4   4   4
#     4  10  23  43  69  98 140 188 238 293 356 438
#     4  11  23  42  71  96 139 188 244 288 364 434
#     4  10  21  39  66 100 143 175 240 301 362 410
#     4  12  30  48  71 103 148 187 238 300 365 427
#     4   9  20  38  65 100 132 177 238 290 351 423
#
# _framework density 23.023354999999999
#
# number of rings (size 3 to 8) (size 9 to 14) (size 15 to 20)
#    0.000    1.600    0.000    4.800   11.200    1.600 
#    3.600    0.000    0.000    0.000    0.000    0.000 
#    0.000    0.000    0.000    0.000    0.000    0.000 
#
# Total GULP energy -111363.883987 kJ/mol
# GULP energy per Si atom -5568.194199 kJ/mol
# Density = 2.297095 g / cm^3
# Si number density = 23.023355 Si / 1000 Ang^3
#
#
#
# Elastic Constant Matrix: (Units=GPa)
#
#
# Indices 1 2 3 4 5 6 
#
# 1 147.6650 30.7036 33.4875 0.0000 20.4256 0.0000
# 2 30.7036 52.4166 3.0142 0.0000 6.2811 0.0000
# 3 33.4875 3.0142 85.4273 0.0000 16.3492 0.0000
# 4 0.0000 0.0000 0.0000 21.8131 0.0000 -0.4597
# 5 20.4256 6.2811 16.3492 0.0000 58.6727 0.0000
# 6 0.0000 0.0000 0.0000 -0.4597 0.0000 22.7577
#
#
#
# Elastic Compliance Matrix: (Units=1/GPa)
#
#
# Indices 1 2 3 4 5 6 
#
# 1 0.008639 -0.004690 -0.002896 0.000000 -0.001698 0.000000
# 2 -0.004690 0.021880 0.001270 0.000000 -0.001063 0.000000
# 3 -0.002896 0.001270 0.013341 0.000000 -0.002845 0.000000
# 4 0.000000 0.000000 0.000000 0.045864 0.000000 0.000926
# 5 -0.001698 -0.001063 -0.002845 0.000000 0.018542 0.000000
# 6 0.000000 0.000000 0.000000 0.000926 0.000000 0.043960
#
#
# Mechanical properties :
#
#
# Convention : Reuss Voigt Hill
#
# Bulk Modulus (GPa) = 32.02336 46.65772 39.34054
# Shear Modulus (GPa) = 28.52806 35.20227 31.86517
#
# Velocity S-wave (km/s) = 3.52389 3.91446 3.72430
# Velocity P-wave (km/s) = 5.52235 6.38279 5.96810
#
# Compressibility (1/GPa) = 0.03122720
#
# Stress axis : x y z
#
# Youngs Moduli (GPa) = 115.75400 45.70440 74.95808
#
# Poissons Ratio (x) = 0.21437 0.21708
# Poissons Ratio (y) = 0.54293 -0.09521
# Poissons Ratio (z) = 0.33522 -0.05805
#
# Static dielectric constant tensor:
#      x y z
#    x 1.916630 0.000000 0.095350 
#    y 0.000000 2.222100 0.000000 
#    z 0.095350 0.000000 1.958070 
# 
# From -- ./inp_files/62381.got.cif
#   From: 2010.05.17/outbox.cif.g08.bks.cpg/sg13_32_cif.got.tgz:62381.got - 2010.06.03 16:44:36.
