data_PCOD9233358
_publ_section_title
;
Structure prediction by ZEFSAII (Michael W. Deem and Ramdas Pophale) SiO2 
 PCOD9233358
Probable space group: P 2/C
;
_chemical_formula_sum "Si O2"
_cell_formula_units_Z 22
_cell_length_a 20.496540
_cell_length_b 9.117209
_cell_length_c 8.913056
_cell_angle_alpha 90.000000
_cell_angle_beta 142.485133
_cell_angle_gamma 90.000000
_cell_volume 1014.292114
_symmetry_space_group_name_H-M "P 2/C"
_symmetry_group_IT_number 13
_symmetry_cell_setting 'monoclinic'
loop_
_space_group_symop_operation_xyz
x,y,z
-x,y,1/2-z
-x,-y,-z
x,-y,1/2+z
loop_
_atom_site_type_symbol
_atom_site_label
_atom_site_fract_x
_atom_site_fract_y
_atom_site_fract_z
Si Si1 0.329644 0.960417 0.620178
Si Si2 0.852633 0.702083 0.887595
Si Si3 0.202107 0.847588 0.118533
Si Si4 0.107499 0.435810 0.355211
Si Si5 0.391357 0.799420 0.013152
Si Si6 0.000000 0.963008 0.250000
O O1 0.234961 0.889673 0.347281
O O2 0.285476 0.077329 0.659075
O O3 0.398215 0.053977 0.628761
O O4 0.385193 0.839939 0.826120
O O5 0.889957 0.604617 0.814746
O O6 0.726086 0.737285 0.656736
O O7 0.871965 0.605222 0.071248
O O8 0.925357 0.848110 0.021948
O O9 0.195161 0.674341 0.084915
O O10 0.091385 0.924241 0.863514
O O11 0.000000 0.397888 0.250000
O O12 0.500000 0.712908 0.250000
#
# Coordination Sequence:
#
# PCOD9233358 Si02
#       6
#     4   4   4   4   4   2
#     4  10  21  40  66  99 128 164 218 273 325 383
#     4  12  27  43  64  97 133 175 221 266 326 393
#     4  11  22  37  66  97 131 167 212 264 325 389
#     4  12  26  41  64  93 137 178 211 262 329 400
#     4  11  23  44  68  95 132 172 221 279 327 379
#     4  12  22  40  68  96 134 164 212 266 330 382
#
# _framework density 21.690003000000001
#
# number of rings (size 3 to 8) (size 9 to 14) (size 15 to 20)
#    0.000    0.727    7.273    1.091    5.091    1.455 
#    0.000    0.909    0.000    0.000    0.000    0.000 
#    0.000    0.000    0.000    0.000    0.000    0.000 
#
# Total GULP energy -122705.364543 kJ/mol
# GULP energy per Si atom -5577.516570 kJ/mol
# Density = 2.164064 g / cm^3
# Si number density = 21.690003 Si / 1000 Ang^3
#
#
#
# Elastic Constant Matrix: (Units=GPa)
#
#
# Indices 1 2 3 4 5 6 
#
# 1 75.3888 1.9437 46.9840 0.0000 0.0398 0.0000
# 2 1.9437 48.3182 18.2721 0.0000 -4.7946 0.0000
# 3 46.9840 18.2721 109.4595 0.0000 6.3626 0.0000
# 4 0.0000 0.0000 0.0000 15.0868 0.0000 -4.6658
# 5 0.0398 -4.7946 6.3626 0.0000 40.2388 0.0000
# 6 0.0000 0.0000 0.0000 -4.6658 0.0000 17.2489
#
#
#
# Elastic Compliance Matrix: (Units=1/GPa)
#
#
# Indices 1 2 3 4 5 6 
#
# 1 0.018468 0.002618 -0.008459 0.000000 0.001631 0.000000
# 2 0.002618 0.022890 -0.005150 0.000000 0.003539 0.000000
# 3 -0.008459 -0.005150 0.013788 0.000000 -0.002786 0.000000
# 4 0.000000 0.000000 0.000000 0.072334 0.000000 0.019566
# 5 0.001631 0.003539 -0.002786 0.000000 0.025712 0.000000
# 6 0.000000 0.000000 0.000000 0.019566 0.000000 0.063267
#
#
# Mechanical properties :
#
#
# Convention : Reuss Voigt Hill
#
# Bulk Modulus (GPa) = 30.15403 40.84068 35.49736
# Shear Modulus (GPa) = 20.04030 25.57934 22.80982
#
# Velocity S-wave (km/s) = 3.04294 3.43784 3.24640
# Velocity P-wave (km/s) = 5.12625 5.88460 5.51846
#
# Compressibility (1/GPa) = 0.03316306
#
# Stress axis : x y z
#
# Youngs Moduli (GPa) = 54.14763 43.68775 72.52489
#
# Poissons Ratio (x) = -0.11437 0.61349
# Poissons Ratio (y) = -0.14175 0.37353
# Poissons Ratio (z) = 0.45803 0.22501
#
# Static dielectric constant tensor:
#      x y z
#    x 1.791760 0.000000 0.001540 
#    y 0.000000 1.792720 0.000000 
#    z 0.001540 0.000000 1.910210 
# 
# From -- ./inp_files/22905.got.cif
#   From: 2010.05.17/outbox.cif.g08.bks.cpg/sg13_12_cif.got.tgz:22905.got - 2010.06.03 16:44:36.
