data_PCOD9233230
_publ_section_title
;
Structure prediction by ZEFSAII (Michael W. Deem and Ramdas Pophale) SiO2 
 PCOD9233230
Probable space group: P 2/C
;
_chemical_formula_sum "Si O2"
_cell_formula_units_Z 30
_cell_length_a 6.771855
_cell_length_b 10.262367
_cell_length_c 17.868493
_cell_angle_alpha 90.000000
_cell_angle_beta 104.710957
_cell_angle_gamma 90.000000
_cell_volume 1201.069202
_symmetry_space_group_name_H-M "P 2/C"
_symmetry_group_IT_number 13
_symmetry_cell_setting 'monoclinic'
loop_
_space_group_symop_operation_xyz
x,y,z
-x,y,1/2-z
-x,-y,-z
x,-y,1/2+z
loop_
_atom_site_type_symbol
_atom_site_label
_atom_site_fract_x
_atom_site_fract_y
_atom_site_fract_z
Si Si1 0.310085 0.450762 0.872924
Si Si2 0.500000 0.586143 0.250000
Si Si3 0.127600 0.771011 0.039087
Si Si4 0.889377 0.586734 0.831581
Si Si5 0.278182 0.522772 0.535894
Si Si6 0.152145 0.136755 0.127838
Si Si7 0.934078 0.118844 0.663765
Si Si8 0.483215 0.023284 0.586753
O O1 0.405883 0.356284 0.818284
O O2 0.275274 0.409965 0.955416
O O3 0.106132 0.526672 0.829301
O O4 0.499046 0.548452 0.907398
O O5 0.304022 0.499351 0.209790
O O6 0.316044 0.864349 0.075660
O O7 0.231719 0.631693 0.031275
O O8 0.996333 0.782200 0.103320
O O9 0.996768 0.834023 0.958187
O O10 0.856151 0.739516 0.817722
O O11 0.882936 0.576989 0.921556
O O12 0.376695 0.099866 0.117975
O O13 0.065214 0.011333 0.161560
O O14 0.700996 0.070621 0.637585
O O15 0.000000 0.175449 0.750000
O O16 0.500000 0.000000 0.500000
#
# Coordination Sequence:
#
# PCOD9233230 Si02
#       8
#     4   2   4   4   4   4   4   4
#     4  10  21  40  61  90 129 173 215 268 323 392
#     4  10  24  40  58  92 134 172 214 264 338 400
#     4  11  22  42  66  98 129 170 225 275 321 399
#     4  11  23  41  65  96 136 175 218 274 334 399
#     4  10  23  40  66  98 127 171 229 268 321 401
#     4  11  23  39  68  98 131 167 222 274 327 399
#     4  11  25  44  66  98 134 170 218 280 343 394
#     4  11  21  40  67  92 122 172 222 266 333 393
#
# _framework density 24.977746
#
# number of rings (size 3 to 8) (size 9 to 14) (size 15 to 20)
#    0.000    1.333    4.000    1.600    0.000   10.667 
#    0.000    8.000    0.000    0.000    0.000    0.000 
#    0.000    0.000    0.000    0.000    0.000    0.000 
#
# Total GULP energy -167577.223487 kJ/mol
# GULP energy per Si atom -5585.907450 kJ/mol
# Density = 2.492090 g / cm^3
# Si number density = 24.977746 Si / 1000 Ang^3
#
#
#
# Elastic Constant Matrix: (Units=GPa)
#
#
# Indices 1 2 3 4 5 6 
#
# 1 182.6921 25.7053 45.9030 0.0000 10.0040 0.0000
# 2 25.7053 65.8395 -6.7904 0.0000 -3.0232 0.0000
# 3 45.9030 -6.7904 90.4115 0.0000 -1.0829 0.0000
# 4 0.0000 0.0000 0.0000 17.0488 0.0000 13.5115
# 5 10.0040 -3.0232 -1.0829 0.0000 62.7344 0.0000
# 6 0.0000 0.0000 0.0000 13.5115 0.0000 7.9891
#
#
#
# Elastic Compliance Matrix: (Units=1/GPa)
#
#
# Indices 1 2 3 4 5 6 
#
# 1 0.006940 -0.003160 -0.003777 0.000000 -0.001324 0.000000
# 2 -0.003160 0.016782 0.002881 0.000000 0.001362 0.000000
# 3 -0.003777 0.002881 0.013206 0.000000 0.000969 0.000000
# 4 0.000000 0.000000 0.000000 -0.172339 0.000000 0.291469
# 5 -0.001324 0.001362 0.000969 0.000000 0.016234 0.000000
# 6 0.000000 0.000000 0.000000 0.291469 0.000000 -0.367775
#
#
# Mechanical properties :
#
#
# Convention : Reuss Voigt Hill
#
# Bulk Modulus (GPa) = 34.70203 52.06431 43.38317
# Shear Modulus (GPa) = -10.65559 35.82948 12.58694
#
# Velocity S-wave (km/s) = -2.06768 3.79153 2.24727
# Velocity P-wave (km/s) = 2.86757 6.32907 4.91325
#
# Compressibility (1/GPa) = 0.02881676
#
# Stress axis : x y z
#
# Youngs Moduli (GPa) = 144.09937 59.58853 75.72372
#
# Poissons Ratio (x) = 0.18828 0.28597
# Poissons Ratio (y) = 0.45531 -0.21816
# Poissons Ratio (z) = 0.54419 -0.17167
#
# Static dielectric constant tensor:
#      x y z
#    x 1.999570 0.000000 -0.066810 
#    y 0.000000 2.002240 0.000000 
#    z -0.066810 0.000000 2.104170 
# 
# From -- ./inp_files/61659.got.cif
#   From: 2010.05.17/outbox.cif.g08.bks.cpg/sg13_31_cif.got.tgz:61659.got - 2010.06.03 16:44:36.
