data_PCOD9233584
_publ_section_title
;
Structure prediction by ZEFSAII (Michael W. Deem and Ramdas Pophale) SiO2 
 PCOD9233584
Probable space group: P 2/C
;
_chemical_formula_sum "Si O2"
_cell_formula_units_Z 20
_cell_length_a 13.621912
_cell_length_b 4.997152
_cell_length_c 25.389732
_cell_angle_alpha 90.000000
_cell_angle_beta 152.999278
_cell_angle_gamma 90.000000
_cell_volume 784.650493
_symmetry_space_group_name_H-M "P 2/C"
_symmetry_group_IT_number 13
_symmetry_cell_setting 'monoclinic'
loop_
_space_group_symop_operation_xyz
x,y,z
-x,y,1/2-z
-x,-y,-z
x,-y,1/2+z
loop_
_atom_site_type_symbol
_atom_site_label
_atom_site_fract_x
_atom_site_fract_y
_atom_site_fract_z
Si Si1 0.428686 0.963505 0.771180
Si Si2 0.850222 0.931088 0.762713
Si Si3 0.240060 0.803805 0.489230
Si Si4 0.601135 0.539932 0.105600
Si Si5 0.067762 0.739657 0.067145
O O1 0.500000 0.828430 0.750000
O O2 0.234343 0.867150 0.717577
O O3 0.680352 0.236544 0.800029
O O4 0.628949 0.982003 0.905946
O O5 0.900214 0.024789 0.619185
O O6 0.692554 0.167917 0.664947
O O7 0.801478 0.663228 0.707925
O O8 0.408905 0.584749 0.549872
O O9 0.050943 0.688415 0.434578
O O10 0.500000 0.500000 0.000000
O O11 0.000000 0.500000 0.000000
O O12 0.000000 0.000000 0.000000
#
# Coordination Sequence:
#
# PCOD9233584 Si02
#       5
#     4   4   4   4   4
#     4  10  21  41  68  99 142 188 231 274 352 411
#     4  10  25  44  70 108 139 184 240 292 358 434
#     4  10  24  45  71 101 152 182 238 299 349 421
#     4  11  25  48  74 103 138 182 242 296 368 425
#     4  11  24  41  63  99 137 187 236 275 343 418
#
# _framework density 25.489056000000001
#
# number of rings (size 3 to 8) (size 9 to 14) (size 15 to 20)
#    0.000    1.600    2.000    0.600    2.800   13.600 
#    0.000    2.000    0.000    0.000    0.000    0.000 
#    0.000    0.000    0.000    0.000    0.000    0.000 
#
# Total GULP energy -111715.079489 kJ/mol
# GULP energy per Si atom -5585.753974 kJ/mol
# Density = 2.543104 g / cm^3
# Si number density = 25.489056 Si / 1000 Ang^3
#
#
#
# Elastic Constant Matrix: (Units=GPa)
#
#
# Indices 1 2 3 4 5 6 
#
# 1 65.8729 18.4418 26.4472 0.0000 -5.9090 0.0000
# 2 18.4418 114.5052 16.2683 0.0000 -16.4784 0.0000
# 3 26.4472 16.2683 122.4621 0.0000 -7.8168 0.0000
# 4 0.0000 0.0000 0.0000 54.2553 0.0000 -6.9152
# 5 -5.9090 -16.4784 -7.8168 0.0000 47.0321 0.0000
# 6 0.0000 0.0000 0.0000 -6.9152 0.0000 10.6534
#
#
#
# Elastic Compliance Matrix: (Units=1/GPa)
#
#
# Indices 1 2 3 4 5 6 
#
# 1 0.017220 -0.002173 -0.003377 0.000000 0.000841 0.000000
# 2 -0.002173 0.009601 -0.000615 0.000000 0.002988 0.000000
# 3 -0.003377 -0.000615 0.009032 0.000000 0.000861 0.000000
# 4 0.000000 0.000000 0.000000 0.020094 0.000000 0.013043
# 5 0.000841 0.002988 0.000861 0.000000 0.022558 0.000000
# 6 0.000000 0.000000 0.000000 0.013043 0.000000 0.102333
#
#
# Mechanical properties :
#
#
# Convention : Reuss Voigt Hill
#
# Bulk Modulus (GPa) = 42.51124 47.23943 44.87533
# Shear Modulus (GPa) = 24.87466 38.50035 31.68750
#
# Velocity S-wave (km/s) = 3.12732 3.89069 3.52970
# Velocity P-wave (km/s) = 5.45478 6.22549 5.85283
#
# Compressibility (1/GPa) = 0.02352319
#
# Stress axis : x y z
#
# Youngs Moduli (GPa) = 58.07167 104.15960 110.72074
#
# Poissons Ratio (x) = 0.22630 0.37386
# Poissons Ratio (y) = 0.12617 0.06814
# Poissons Ratio (z) = 0.19608 0.06410
#
# Static dielectric constant tensor:
#      x y z
#    x 2.041850 0.000000 0.008090 
#    y 0.000000 2.104970 0.000000 
#    z 0.008090 0.000000 2.212510 
# 
# From -- ./inp_files/85908.got.cif
#   From: 2010.05.17/outbox.cif.g08.bks.cpg/sg13_43_cif.got.tgz:85908.got - 2010.06.03 16:44:36.
