data_PCOD9233390
_publ_section_title
;
Structure prediction by ZEFSAII (Michael W. Deem and Ramdas Pophale) SiO2 
 PCOD9233390
Probable space group: P 2/C
;
_chemical_formula_sum "Si O2"
_cell_formula_units_Z 20
_cell_length_a 22.411004
_cell_length_b 7.348026
_cell_length_c 14.369189
_cell_angle_alpha 90.000000
_cell_angle_beta 156.866137
_cell_angle_gamma 90.000000
_cell_volume 929.661678
_symmetry_space_group_name_H-M "P 2/C"
_symmetry_group_IT_number 13
_symmetry_cell_setting 'monoclinic'
loop_
_space_group_symop_operation_xyz
x,y,z
-x,y,1/2-z
-x,-y,-z
x,-y,1/2+z
loop_
_atom_site_type_symbol
_atom_site_label
_atom_site_fract_x
_atom_site_fract_y
_atom_site_fract_z
Si Si1 0.500000 0.848387 0.250000
Si Si2 0.098764 0.744037 0.088816
Si Si3 0.642962 0.809213 0.910495
Si Si4 0.792719 0.327403 0.251958
Si Si5 0.168042 0.247354 0.983825
Si Si6 0.000000 0.892372 0.750000
O O1 0.435397 0.999042 0.231535
O O2 0.642592 0.728446 0.482685
O O3 0.767492 0.145112 0.668408
O O4 0.945512 0.763588 0.929418
O O5 0.057950 0.788504 0.923897
O O6 0.164139 0.539679 0.188491
O O7 0.500000 0.705509 0.750000
O O8 0.725320 0.697466 0.947645
O O9 0.766323 0.268807 0.320393
O O10 0.000000 0.337283 0.750000
O O11 0.130376 0.036281 0.907739
#
# Coordination Sequence:
#
# PCOD9233390 Si02
#       6
#     2   4   4   4   4   2
#     4  10  24  40  64  96 130 172 212 272 318 376
#     4  11  23  43  64  97 128 177 211 266 321 395
#     4  10  23  42  67  93 132 166 218 265 323 375
#     4  11  24  40  68  92 136 167 216 264 329 380
#     4  10  21  40  68  94 125 172 219 262 315 386
#     4  10  22  34  70  88 122 162 230 250 310 380
#
# _framework density 21.513202
#
# number of rings (size 3 to 8) (size 9 to 14) (size 15 to 20)
#    1.200    0.400    2.000    2.400    2.800    3.200 
#    3.600    1.000    0.000    0.000    0.000    0.000 
#    0.000    0.000    0.000    0.000    0.000    0.000 
#
# Total GULP energy -111473.405980 kJ/mol
# GULP energy per Si atom -5573.670299 kJ/mol
# Density = 2.146424 g / cm^3
# Si number density = 21.513202 Si / 1000 Ang^3
#
#
#
# Elastic Constant Matrix: (Units=GPa)
#
#
# Indices 1 2 3 4 5 6 
#
# 1 140.8885 2.1873 67.3304 0.0000 18.1395 0.0000
# 2 2.1873 48.8016 31.5346 0.0000 9.4626 0.0000
# 3 67.3304 31.5346 136.5792 0.0000 20.0666 0.0000
# 4 0.0000 0.0000 0.0000 30.9684 0.0000 -3.6274
# 5 18.1395 9.4626 20.0666 0.0000 34.8503 0.0000
# 6 0.0000 0.0000 0.0000 -3.6274 0.0000 12.2665
#
#
#
# Elastic Compliance Matrix: (Units=1/GPa)
#
#
# Indices 1 2 3 4 5 6 
#
# 1 0.009967 0.003569 -0.005280 0.000000 -0.003117 0.000000
# 2 0.003569 0.025794 -0.007006 0.000000 -0.004827 0.000000
# 3 -0.005280 -0.007006 0.011862 0.000000 -0.002180 0.000000
# 4 0.000000 0.000000 0.000000 0.033450 0.000000 0.009892
# 5 -0.003117 -0.004827 -0.002180 0.000000 0.032883 0.000000
# 6 0.000000 0.000000 0.000000 0.009892 0.000000 0.084448
#
#
# Mechanical properties :
#
#
# Convention : Reuss Voigt Hill
#
# Bulk Modulus (GPa) = 33.12259 58.70824 45.91541
# Shear Modulus (GPa) = 22.13376 30.63150 26.38263
#
# Velocity S-wave (km/s) = 3.21104 3.77748 3.50572
# Velocity P-wave (km/s) = 5.40162 6.80988 6.14622
#
# Compressibility (1/GPa) = 0.03019088
#
# Stress axis : x y z
#
# Youngs Moduli (GPa) = 100.33332 38.76837 84.30054
#
# Poissons Ratio (x) = -0.13837 0.44507
# Poissons Ratio (y) = -0.35811 0.59060
# Poissons Ratio (z) = 0.52971 0.27161
#
# Static dielectric constant tensor:
#      x y z
#    x 1.822310 0.000000 0.021720 
#    y 0.000000 1.830140 0.000000 
#    z 0.021720 0.000000 1.785580 
# 
# From -- ./inp_files/58753.got.cif
#   From: 2010.05.17/outbox.cif.g08.bks.cpg/sg13_30_cif.got.tgz:58753.got - 2010.06.03 16:44:36.
