data_PCOD9233581
_publ_section_title
;
Structure prediction by ZEFSAII (Michael W. Deem and Ramdas Pophale) SiO2 
 PCOD9233581
Probable space group: P 2/C
;
_chemical_formula_sum "Si O2"
_cell_formula_units_Z 22
_cell_length_a 5.266918
_cell_length_b 12.330767
_cell_length_c 15.950605
_cell_angle_alpha 90.000000
_cell_angle_beta 79.051946
_cell_angle_gamma 90.000000
_cell_volume 1017.060379
_symmetry_space_group_name_H-M "P 2/C"
_symmetry_group_IT_number 13
_symmetry_cell_setting 'monoclinic'
loop_
_space_group_symop_operation_xyz
x,y,z
-x,y,1/2-z
-x,-y,-z
x,-y,1/2+z
loop_
_atom_site_type_symbol
_atom_site_label
_atom_site_fract_x
_atom_site_fract_y
_atom_site_fract_z
Si Si1 0.937764 0.342980 0.122161
Si Si2 0.483677 0.908981 0.427825
Si Si3 0.850291 0.558143 0.347277
Si Si4 0.500000 0.532457 0.750000
Si Si5 0.500000 0.968076 0.750000
Si Si6 0.000000 0.175826 0.250000
Si Si7 0.963562 0.235126 0.947377
O O1 0.704058 0.385359 0.194594
O O2 0.082062 0.253059 0.168259
O O3 0.107017 0.451246 0.099433
O O4 0.865898 0.286621 0.040680
O O5 0.747702 0.843749 0.424154
O O6 0.232285 0.829257 0.446534
O O7 0.500000 0.000000 0.500000
O O8 0.483774 0.962635 0.336024
O O9 0.566441 0.546251 0.325004
O O10 0.960022 0.663411 0.384211
O O11 0.000000 0.543616 0.250000
O O12 0.242530 0.895706 0.761730
#
# Coordination Sequence:
#
# PCOD9233581 Si02
#       7
#     4   4   4   2   2   2   4
#     4  11  23  42  68 109 139 185 229 291 342 439
#     4  12  28  51  69 106 138 186 247 310 339 422
#     4  10  24  42  67 105 149 181 232 280 344 442
#     4  10  21  41  68  96 158 178 235 279 338 418
#     4  12  27  45  74  96 140 184 247 301 368 404
#     4  12  22  42  74 100 128 190 234 294 358 412
#     4  12  28  43  77  99 147 187 232 285 373 408
#
# _framework density 21.630966000000001
#
# number of rings (size 3 to 8) (size 9 to 14) (size 15 to 20)
#    0.000    0.727    2.727    4.909   10.182    0.727 
#    0.000    0.000    0.000    0.000    0.000    0.000 
#    0.000    0.000    0.000    0.000    0.000    0.000 
#
# Total GULP energy -122775.779117 kJ/mol
# GULP energy per Si atom -5580.717233 kJ/mol
# Density = 2.158173 g / cm^3
# Si number density = 21.630966 Si / 1000 Ang^3
#
#
#
# Elastic Constant Matrix: (Units=GPa)
#
#
# Indices 1 2 3 4 5 6 
#
# 1 81.1348 26.4801 7.2570 0.0000 20.4327 0.0000
# 2 26.4801 110.0754 46.5329 0.0000 16.1966 0.0000
# 3 7.2570 46.5329 106.4171 0.0000 17.7813 0.0000
# 4 0.0000 0.0000 0.0000 8.1927 0.0000 11.1405
# 5 20.4327 16.1966 17.7813 0.0000 27.1084 0.0000
# 6 0.0000 0.0000 0.0000 11.1405 0.0000 40.9830
#
#
#
# Elastic Compliance Matrix: (Units=1/GPa)
#
#
# Indices 1 2 3 4 5 6 
#
# 1 0.016088 -0.003077 0.002210 0.000000 -0.011737 0.000000
# 2 -0.003077 0.012111 -0.004789 0.000000 -0.001775 0.000000
# 3 0.002210 -0.004789 0.012512 0.000000 -0.007011 0.000000
# 4 0.000000 0.000000 0.000000 0.193634 0.000000 -0.052636
# 5 -0.011737 -0.001775 -0.007011 0.000000 0.051395 0.000000
# 6 0.000000 0.000000 0.000000 -0.052636 0.000000 0.038709
#
#
# Mechanical properties :
#
#
# Convention : Reuss Voigt Hill
#
# Bulk Modulus (GPa) = 34.01758 50.90747 42.46253
# Shear Modulus (GPa) = 14.46926 29.74733 22.10830
#
# Velocity S-wave (km/s) = 2.58914 3.71242 3.20045
# Velocity P-wave (km/s) = 4.96978 6.47778 5.77323
#
# Compressibility (1/GPa) = 0.02939656
#
# Stress axis : x y z
#
# Youngs Moduli (GPa) = 62.15982 82.57164 79.92369
#
# Poissons Ratio (x) = 0.25409 -0.17660
# Poissons Ratio (y) = 0.19128 0.38277
# Poissons Ratio (z) = -0.13735 0.39545
#
# Static dielectric constant tensor:
#      x y z
#    x 2.307500 0.000000 0.180780 
#    y 0.000000 1.814720 0.000000 
#    z 0.180780 0.000000 1.879420 
# 
# From -- ./inp_files/43647.got.cif
#   From: 2010.05.17/outbox.cif.g08.bks.cpg/sg13_22_cif.got.tgz:43647.got - 2010.06.03 16:44:36.
