data_PCOD9233787
_publ_section_title
;
Structure prediction by ZEFSAII (Michael W. Deem and Ramdas Pophale) SiO2 
 PCOD9233787
Probable space group: P 2/C
;
_chemical_formula_sum "Si O2"
_cell_formula_units_Z 16
_cell_length_a 9.797279
_cell_length_b 6.865480
_cell_length_c 24.780090
_cell_angle_alpha 90.000000
_cell_angle_beta 156.346431
_cell_angle_gamma 90.000000
_cell_volume 668.723007
_symmetry_space_group_name_H-M "P 2/C"
_symmetry_group_IT_number 13
_symmetry_cell_setting 'monoclinic'
loop_
_space_group_symop_operation_xyz
x,y,z
-x,y,1/2-z
-x,-y,-z
x,-y,1/2+z
loop_
_atom_site_type_symbol
_atom_site_label
_atom_site_fract_x
_atom_site_fract_y
_atom_site_fract_z
Si Si1 0.377993 0.944117 0.767073
Si Si2 0.773973 0.525727 0.808037
Si Si3 0.690437 0.844998 0.481378
Si Si4 0.185844 0.376248 0.865778
O O1 0.500000 0.981160 0.750000
O O2 0.415063 0.709422 0.788909
O O3 0.968995 0.966511 0.615923
O O4 0.418139 0.054030 0.613117
O O5 0.500000 0.442429 0.750000
O O6 0.918505 0.374791 0.817468
O O7 0.097231 0.642345 0.951412
O O8 0.360817 0.803678 0.398454
O O9 0.000000 0.488837 0.750000
O O10 0.500000 0.500000 0.000000
#
# Coordination Sequence:
#
# PCOD9233787 Si02
#       4
#     4   4   4   4
#     4   9  17  32  62  94 130 155 200 256 313 370
#     4   8  18  35  65  88 123 156 205 250 311 364
#     4   9  18  35  59  93 127 159 201 254 313 373
#     4  10  21  43  59  84 126 164 210 254 299 371
#
# _framework density 23.926196999999998
#
# number of rings (size 3 to 8) (size 9 to 14) (size 15 to 20)
#    1.500    1.500    0.000    0.750    0.000    0.000 
#    4.500    8.750    0.000    0.000    0.000    1.750 
#    0.000    0.000    0.000    0.000    0.000    0.000 
#
# Total GULP energy -89187.212312 kJ/mol
# GULP energy per Si atom -5574.200770 kJ/mol
# Density = 2.387174 g / cm^3
# Si number density = 23.926197 Si / 1000 Ang^3
#
#
#
# Elastic Constant Matrix: (Units=GPa)
#
#
# Indices 1 2 3 4 5 6 
#
# 1 181.5662 43.1349 56.0368 0.0000 46.8211 0.0000
# 2 43.1349 71.0749 9.2264 0.0000 3.0921 0.0000
# 3 56.0368 9.2264 106.4124 0.0000 9.7454 0.0000
# 4 0.0000 0.0000 0.0000 6.8095 0.0000 11.4567
# 5 46.8211 3.0921 9.7454 0.0000 50.6359 0.0000
# 6 0.0000 0.0000 0.0000 11.4567 0.0000 10.4187
#
#
#
# Elastic Compliance Matrix: (Units=1/GPa)
#
#
# Indices 1 2 3 4 5 6 
#
# 1 0.010179 -0.005279 -0.004143 0.000000 -0.008292 0.000000
# 2 -0.005279 0.016988 0.000972 0.000000 0.003657 0.000000
# 3 -0.004143 0.000972 0.011349 0.000000 0.001587 0.000000
# 4 0.000000 0.000000 0.000000 -0.172754 0.000000 0.189965
# 5 -0.008292 0.003657 0.001587 0.000000 0.026888 0.000000
# 6 0.000000 0.000000 0.000000 0.189965 0.000000 -0.112909
#
#
# Mechanical properties :
#
#
# Convention : Reuss Voigt Hill
#
# Bulk Modulus (GPa) = 46.26069 63.98329 55.12199
# Shear Modulus (GPa) = -25.49014 30.28318 2.39652
#
# Velocity S-wave (km/s) = -3.26753 3.56151 1.00190
# Velocity P-wave (km/s) = 2.26738 6.61154 4.94234
#
# Compressibility (1/GPa) = 0.02161662
#
# Stress axis : x y z
#
# Youngs Moduli (GPa) = 98.24423 58.86477 88.10976
#
# Poissons Ratio (x) = 0.31074 0.36504
# Poissons Ratio (y) = 0.51861 -0.08564
# Poissons Ratio (z) = 0.40703 -0.05722
#
# Static dielectric constant tensor:
#      x y z
#    x 1.914940 0.000000 0.023460 
#    y 0.000000 1.962900 0.000000 
#    z 0.023460 0.000000 1.930150 
# 
# From -- ./inp_files/84488.got.cif
#   From: 2010.05.17/outbox.cif.g08.bks.cpg/sg13_43_cif.got.tgz:84488.got - 2010.06.03 16:44:36.
