data_PCOD9233997
_publ_section_title
;
Structure prediction by ZEFSAII (Michael W. Deem and Ramdas Pophale) SiO2 
 PCOD9233997
Probable space group: P 2/C
;
_chemical_formula_sum "Si O2"
_cell_formula_units_Z 30
_cell_length_a 21.335056
_cell_length_b 5.362912
_cell_length_c 23.424343
_cell_angle_alpha 90.000000
_cell_angle_beta 147.081832
_cell_angle_gamma 90.000000
_cell_volume 1456.511791
_symmetry_space_group_name_H-M "P 2/C"
_symmetry_group_IT_number 13
_symmetry_cell_setting 'monoclinic'
loop_
_space_group_symop_operation_xyz
x,y,z
-x,y,1/2-z
-x,-y,-z
x,-y,1/2+z
loop_
_atom_site_type_symbol
_atom_site_label
_atom_site_fract_x
_atom_site_fract_y
_atom_site_fract_z
Si Si1 0.500000 0.479918 0.750000
Si Si2 0.118973 0.872640 0.736307
Si Si3 0.526189 0.706921 0.972409
Si Si4 0.010569 0.619221 0.327688
Si Si5 0.698341 0.894545 0.526338
Si Si6 0.539874 0.300517 0.658770
Si Si7 0.728132 0.388855 0.479077
Si Si8 0.686819 0.079817 0.679086
O O1 0.542901 0.315134 0.729005
O O2 0.387093 0.638657 0.646794
O O3 0.048557 0.615447 0.685558
O O4 0.220690 0.826942 0.859599
O O5 0.046072 0.113612 0.700826
O O6 0.188698 0.956607 0.732779
O O7 0.513191 0.562681 0.903170
O O8 0.414993 0.879406 0.895242
O O9 0.500000 0.500000 0.000000
O O10 0.652155 0.786336 0.092491
O O11 0.000000 0.580997 0.250000
O O12 0.144012 0.622355 0.448686
O O13 0.562085 0.892172 0.436357
O O14 0.716202 0.666797 0.495991
O O15 0.729603 0.160321 0.524450
O O16 0.655332 0.245119 0.710882
#
# Coordination Sequence:
#
# PCOD9233997 Si02
#       8
#     2   4   4   4   4   4   4   4
#     4  10  26  44  68  92 120 178 214 272 320 376
#     4  12  23  35  65  94 127 173 207 251 336 390
#     4   9  18  35  56  86 133 166 200 264 318 377
#     4  12  23  40  61  93 129 170 208 267 319 384
#     4  11  21  36  63  92 129 168 206 260 322 387
#     4  10  23  39  60  91 133 166 220 264 319 377
#     4  11  24  42  61  91 130 161 218 265 317 374
#     4  10  22  34  58  91 131 167 209 260 323 390
#
# _framework density 20.597155000000001
#
# number of rings (size 3 to 8) (size 9 to 14) (size 15 to 20)
#    0.000    1.333    2.667    3.600   13.067    2.133 
#    0.000    0.000    0.000    1.600    0.000    0.000 
#    0.000    0.000    0.000    0.000    0.000    0.000 
#
# Total GULP energy -167247.786545 kJ/mol
# GULP energy per Si atom -5574.926218 kJ/mol
# Density = 2.055027 g / cm^3
# Si number density = 20.597155 Si / 1000 Ang^3
#
#
#
# Elastic Constant Matrix: (Units=GPa)
#
#
# Indices 1 2 3 4 5 6 
#
# 1 89.4540 13.3165 21.9416 0.0000 1.8474 0.0000
# 2 13.3165 73.0335 -7.3389 0.0000 5.5466 0.0000
# 3 21.9416 -7.3389 65.8589 0.0000 8.4729 0.0000
# 4 0.0000 0.0000 0.0000 23.4609 0.0000 12.3808
# 5 1.8474 5.5466 8.4729 0.0000 29.9258 0.0000
# 6 0.0000 0.0000 0.0000 12.3808 0.0000 20.8564
#
#
#
# Elastic Compliance Matrix: (Units=1/GPa)
#
#
# Indices 1 2 3 4 5 6 
#
# 1 0.012739 -0.002877 -0.004703 0.000000 0.001079 0.000000
# 2 -0.002877 0.014783 0.003047 0.000000 -0.003425 0.000000
# 3 -0.004703 0.003047 0.017773 0.000000 -0.005306 0.000000
# 4 0.000000 0.000000 0.000000 0.062068 0.000000 -0.036845
# 5 0.001079 -0.003425 -0.005306 0.000000 0.035487 0.000000
# 6 0.000000 0.000000 0.000000 -0.036845 0.000000 0.069819
#
#
# Mechanical properties :
#
#
# Convention : Reuss Voigt Hill
#
# Bulk Modulus (GPa) = 27.60382 31.57610 29.58996
# Shear Modulus (GPa) = 21.38467 28.21042 24.79754
#
# Velocity S-wave (km/s) = 3.22566 3.70486 3.47353
# Velocity P-wave (km/s) = 5.22533 5.80215 5.52128
#
# Compressibility (1/GPa) = 0.03622688
#
# Stress axis : x y z
#
# Youngs Moduli (GPa) = 78.50128 67.64424 56.26460
#
# Poissons Ratio (x) = 0.19463 0.26464
# Poissons Ratio (y) = 0.22587 -0.17141
# Poissons Ratio (z) = 0.36922 -0.20608
#
# Static dielectric constant tensor:
#      x y z
#    x 1.837650 0.000000 0.026730 
#    y 0.000000 1.893780 0.000000 
#    z 0.026730 0.000000 1.765220 
# 
# From -- ./inp_files/88377.got.cif
#   From: 2010.05.17/outbox.cif.g08.bks.cpg/sg13_45_cif.got.tgz:88377.got - 2010.06.03 16:44:36.
