data_PCOD9233201
_publ_section_title
;
Structure prediction by ZEFSAII (Michael W. Deem and Ramdas Pophale) SiO2 
 PCOD9233201
Probable space group: P 2/C
;
_chemical_formula_sum "Si O2"
_cell_formula_units_Z 32
_cell_length_a 9.499503
_cell_length_b 11.561337
_cell_length_c 30.061560
_cell_angle_alpha 90.000000
_cell_angle_beta 28.230076
_cell_angle_gamma 90.000000
_cell_volume 1561.686398
_symmetry_space_group_name_H-M "P 2/C"
_symmetry_group_IT_number 13
_symmetry_cell_setting 'monoclinic'
loop_
_space_group_symop_operation_xyz
x,y,z
-x,y,1/2-z
-x,-y,-z
x,-y,1/2+z
loop_
_atom_site_type_symbol
_atom_site_label
_atom_site_fract_x
_atom_site_fract_y
_atom_site_fract_z
Si Si1 0.786303 0.057813 0.096252
Si Si2 0.652754 0.593101 0.341338
Si Si3 0.604295 0.437939 0.015578
Si Si4 0.648045 0.818417 0.035351
Si Si5 0.589399 0.825714 0.497268
Si Si6 0.847991 0.582984 0.080701
Si Si7 0.223012 0.819020 0.354389
Si Si8 0.652169 0.958577 0.850985
O O1 0.509197 0.104017 0.145441
O O2 0.697859 0.946858 0.150096
O O3 0.001958 0.151277 0.058698
O O4 0.000000 0.000000 0.000000
O O5 0.589436 0.482605 0.389359
O O6 0.449915 0.693027 0.420537
O O7 0.502263 0.572269 0.334816
O O8 0.000000 0.623824 0.250000
O O9 0.540461 0.304438 0.026345
O O10 0.500000 0.500000 0.000000
O O11 0.954331 0.454558 0.931398
O O12 0.460222 0.909035 0.117351
O O13 0.547587 0.839316 0.012864
O O14 0.459948 0.907704 0.571238
O O15 0.945104 0.839253 0.399171
O O16 0.871490 0.724986 0.081175
O O17 0.000000 0.500000 0.000000
O O18 0.500000 0.769422 0.250000
O O19 0.000000 0.951472 0.750000
#
# Coordination Sequence:
#
# PCOD9233201 Si02
#       8
#     4   4   4   4   4   4   4   4
#     4  10  21  40  58  90 130 168 209 261 319 388
#     4  11  23  38  65  97 124 157 220 274 312 382
#     4  10  21  42  62  86 123 168 203 256 329 379
#     4  11  22  38  64  92 128 163 211 262 330 376
#     4  11  23  40  62  89 129 169 204 264 324 384
#     4   9  21  39  62  92 124 171 209 260 328 381
#     4  11  23  36  65  97 133 168 217 266 326 379
#     4  11  24  39  63  90 127 168 216 255 315 383
#
# _framework density 20.490670999999999
#
# number of rings (size 3 to 8) (size 9 to 14) (size 15 to 20)
#    0.000    1.500    3.750    2.250    5.250    0.500 
#    0.000    0.000    0.000    1.500    0.000    0.000 
#    0.000    0.000    0.000    0.000    0.000    0.000 
#
# Total GULP energy -178237.839907 kJ/mol
# GULP energy per Si atom -5569.932497 kJ/mol
# Density = 2.044403 g / cm^3
# Si number density = 20.490671 Si / 1000 Ang^3
#
#
#
# Elastic Constant Matrix: (Units=GPa)
#
#
# Indices 1 2 3 4 5 6 
#
# 1 157.9281 21.8915 43.8009 0.0000 -37.9632 0.0000
# 2 21.8915 62.6959 31.6512 0.0000 -0.3958 0.0000
# 3 43.8009 31.6512 72.9023 0.0000 -30.4505 0.0000
# 4 0.0000 0.0000 0.0000 48.2158 0.0000 17.0470
# 5 -37.9632 -0.3958 -30.4505 0.0000 32.8818 0.0000
# 6 0.0000 0.0000 0.0000 17.0470 0.0000 41.8845
#
#
#
# Elastic Compliance Matrix: (Units=1/GPa)
#
#
# Indices 1 2 3 4 5 6 
#
# 1 0.009379 -0.003537 0.000661 0.000000 0.011398 0.000000
# 2 -0.003537 0.025845 -0.017403 0.000000 -0.019889 0.000000
# 3 0.000661 -0.017403 0.034421 0.000000 0.032430 0.000000
# 4 0.000000 0.000000 0.000000 0.024226 0.000000 -0.009860
# 5 0.011398 -0.019889 0.032430 0.000000 0.073364 0.000000
# 6 0.000000 0.000000 0.000000 -0.009860 0.000000 0.027888
#
#
# Mechanical properties :
#
#
# Convention : Reuss Voigt Hill
#
# Bulk Modulus (GPa) = 34.37857 54.24594 44.31226
# Shear Modulus (GPa) = 20.37683 37.67529 29.02606
#
# Velocity S-wave (km/s) = 3.15690 4.29261 3.76779
# Velocity P-wave (km/s) = 5.48654 7.14840 6.37188
#
# Compressibility (1/GPa) = 0.02908788
#
# Stress axis : x y z
#
# Youngs Moduli (GPa) = 106.62490 38.69189 29.05192
#
# Poissons Ratio (x) = 0.13684 -0.01922
# Poissons Ratio (y) = 0.37710 0.50560
# Poissons Ratio (z) = -0.07053 0.67337
#
# Static dielectric constant tensor:
#      x y z
#    x 1.266800 0.000000 0.192290 
#    y 0.000000 1.490070 0.000000 
#    z 0.192290 0.000000 1.645190 
# 
# From -- ./inp_files/96102.got.cif
#   From: 2010.05.17/outbox.cif.g08.bks.cpg/sg13_49_cif.got.tgz:96102.got - 2010.06.03 16:44:36.
