data_PCOD9233501
_publ_section_title
;
Structure prediction by ZEFSAII (Michael W. Deem and Ramdas Pophale) SiO2 
 PCOD9233501
Probable space group: P 2/C
;
_chemical_formula_sum "Si O2"
_cell_formula_units_Z 32
_cell_length_a 15.672028
_cell_length_b 12.339493
_cell_length_c 17.951631
_cell_angle_alpha 90.000000
_cell_angle_beta 29.189185
_cell_angle_gamma 90.000000
_cell_volume 1693.068867
_symmetry_space_group_name_H-M "P 2/C"
_symmetry_group_IT_number 13
_symmetry_cell_setting 'monoclinic'
loop_
_space_group_symop_operation_xyz
x,y,z
-x,y,1/2-z
-x,-y,-z
x,-y,1/2+z
loop_
_atom_site_type_symbol
_atom_site_label
_atom_site_fract_x
_atom_site_fract_y
_atom_site_fract_z
Si Si1 0.184234 0.605122 0.565766
Si Si2 0.186212 0.858344 0.563788
Si Si3 0.223609 0.230457 0.425077
Si Si4 0.573762 0.230457 0.074923
Si Si5 0.663133 0.009376 0.930718
Si Si6 0.024568 0.990624 0.069282
Si Si7 0.157583 0.530390 0.934006
Si Si8 0.525596 0.530390 0.565994
O O1 0.230031 0.732138 0.519969
O O2 0.164237 0.544170 0.502244
O O3 0.331276 0.544170 0.502244
O O4 0.000000 0.599807 0.750000
O O5 0.000000 0.861916 0.750000
O O6 0.322810 0.923048 0.512164
O O7 0.152863 0.923048 0.512164
O O8 0.371133 0.206719 0.250000
O O9 0.326085 0.246080 0.423915
O O10 0.134883 0.344022 0.473805
O O11 0.097759 0.128997 0.528835
O O12 0.582492 0.344022 0.026195
O O13 0.655429 0.128997 0.971165
O O14 0.837621 0.994938 0.750000
O O15 0.500000 0.000000 0.000000
O O16 0.000000 0.000000 0.000000
O O17 0.343331 0.521607 0.750000
O O18 0.000000 0.500000 0.000000
O O19 0.500000 0.500000 0.500000
#
# Coordination Sequence:
#
# PCOD9233501 Si02
#       8
#     4   4   4   4   4   4   4   4
#     4  11  23  42  65  90 124 169 208 251 314 377
#     4   9  22  42  61  84 124 165 198 247 310 365
#     4  10  21  41  65  88 121 161 202 255 314 365
#     4  10  21  41  65  88 121 161 202 255 314 365
#     4  11  23  41  63  92 124 161 207 254 305 366
#     4  11  23  41  63  92 124 161 207 254 305 366
#     4  11  24  43  64  93 127 164 208 259 313 371
#     4  11  24  43  64  93 127 164 208 259 313 371
#
# _framework density 18.900589
#
# number of rings (size 3 to 8) (size 9 to 14) (size 15 to 20)
#    0.000    1.500    2.500    1.875    3.500    2.000 
#    0.000    3.750    0.000    0.000    0.000    0.000 
#    0.000    0.000    0.000    0.000    0.000    0.000 
#
# Total GULP energy -178771.382705 kJ/mol
# GULP energy per Si atom -5586.605710 kJ/mol
# Density = 1.885757 g / cm^3
# Si number density = 18.900589 Si / 1000 Ang^3
#
#
#
# Elastic Constant Matrix: (Units=GPa)
#
#
# Indices 1 2 3 4 5 6 
#
# 1 116.8573 40.7571 15.6499 0.0000 -0.8245 0.0000
# 2 40.7571 105.6721 22.0382 0.0000 -0.6345 0.0000
# 3 15.6499 22.0382 32.3995 0.0000 -2.0384 0.0000
# 4 0.0000 0.0000 0.0000 33.3920 0.0000 -0.0689
# 5 -0.8245 -0.6345 -2.0384 0.0000 38.4008 0.0000
# 6 0.0000 0.0000 0.0000 -0.0689 0.0000 35.4246
#
#
#
# Elastic Compliance Matrix: (Units=1/GPa)
#
#
# Indices 1 2 3 4 5 6 
#
# 1 0.010071 -0.003344 -0.002588 0.000000 0.000024 0.000000
# 2 -0.003344 0.012140 -0.006656 0.000000 -0.000225 0.000000
# 3 -0.002588 -0.006656 0.036755 0.000000 0.001785 0.000000
# 4 0.000000 0.000000 0.000000 0.029947 0.000000 0.000058
# 5 0.000024 -0.000225 0.001785 0.000000 0.026133 0.000000
# 6 0.000000 0.000000 0.000000 0.000058 0.000000 0.028229
#
#
# Mechanical properties :
#
#
# Convention : Reuss Voigt Hill
#
# Bulk Modulus (GPa) = 29.59647 45.75770 37.67708
# Shear Modulus (GPa) = 27.82188 33.20907 30.51548
#
# Velocity S-wave (km/s) = 3.84084 4.19625 4.02247
# Velocity P-wave (km/s) = 5.94663 6.90943 6.44603
#
# Compressibility (1/GPa) = 0.03378781
#
# Stress axis : x y z
#
# Youngs Moduli (GPa) = 99.29871 82.37263 27.20736
#
# Poissons Ratio (x) = 0.27548 0.07042
# Poissons Ratio (y) = 0.33208 0.18110
# Poissons Ratio (z) = 0.25700 0.54830
#
# Static dielectric constant tensor:
#      x y z
#    x 2.001430 0.000000 -0.011790 
#    y 0.000000 1.599840 0.000000 
#    z -0.011790 0.000000 1.653500 
# 
# From -- ./inp_files/68640.got.cif
#   From: 2010.05.17/outbox.cif.g08.bks.cpg/sg13_35_cif.got.tgz:68640.got - 2010.06.03 16:44:36.
