data_PCOD9233053
_publ_section_title
;
Structure prediction by ZEFSAII (Michael W. Deem and Ramdas Pophale) SiO2 
 PCOD9233053
Probable space group: P 2/C
;
_chemical_formula_sum "Si O2"
_cell_formula_units_Z 24
_cell_length_a 10.623652
_cell_length_b 11.782042
_cell_length_c 11.796368
_cell_angle_alpha 90.000000
_cell_angle_beta 133.048326
_cell_angle_gamma 90.000000
_cell_volume 1079.017045
_symmetry_space_group_name_H-M "P 2/C"
_symmetry_group_IT_number 13
_symmetry_cell_setting 'monoclinic'
loop_
_space_group_symop_operation_xyz
x,y,z
-x,y,1/2-z
-x,-y,-z
x,-y,1/2+z
loop_
_atom_site_type_symbol
_atom_site_label
_atom_site_fract_x
_atom_site_fract_y
_atom_site_fract_z
Si Si1 0.255739 0.406682 0.962126
Si Si2 0.737627 0.102786 0.634568
Si Si3 0.168309 0.652107 0.931845
Si Si4 0.676637 0.804484 0.872415
Si Si5 0.108220 0.683569 0.158502
Si Si6 0.326782 0.155349 0.379775
O O1 0.372265 0.312698 0.093316
O O2 0.282830 0.538130 0.998247
O O3 0.243096 0.384948 0.820259
O O4 0.074094 0.365644 0.908600
O O5 0.785600 0.129763 0.533108
O O6 0.846437 0.187303 0.779697
O O7 0.533709 0.136893 0.519058
O O8 0.753396 0.970243 0.666085
O O9 0.261563 0.761220 0.937144
O O10 0.000000 0.629556 0.750000
O O11 0.120442 0.667919 0.033112
O O12 0.500000 0.875060 0.750000
O O13 0.734004 0.792250 0.778883
#
# Coordination Sequence:
#
# PCOD9233053 Si02
#       6
#     4   4   4   4   4   4
#     4  10  21  40  63  83 127 169 199 251 309 366
#     4   9  21  42  63  90 122 168 200 254 313 361
#     4  12  24  38  61  95 123 159 206 257 310 358
#     4   9  19  39  62  86 121 165 205 247 313 367
#     4  10  21  39  64  86 121 165 204 245 309 369
#     4  10  22  39  64  92 127 156 211 256 302 368
#
# _framework density 22.242466
#
# number of rings (size 3 to 8) (size 9 to 14) (size 15 to 20)
#    0.000    2.000    1.667    1.500    4.667    0.667 
#    9.000    4.167    0.000    0.000    0.000    0.000 
#    0.000    0.000    0.000    0.000    0.000    0.000 
#
# Total GULP energy -133840.065672 kJ/mol
# GULP energy per Si atom -5576.669403 kJ/mol
# Density = 2.219184 g / cm^3
# Si number density = 22.242466 Si / 1000 Ang^3
#
#
#
# Elastic Constant Matrix: (Units=GPa)
#
#
# Indices 1 2 3 4 5 6 
#
# 1 61.2428 21.8586 34.4663 0.0000 -34.9538 0.0000
# 2 21.8586 141.3012 20.8179 0.0000 -15.3795 0.0000
# 3 34.4663 20.8179 103.9727 0.0000 -48.4302 0.0000
# 4 0.0000 0.0000 0.0000 13.6984 0.0000 8.8391
# 5 -34.9538 -15.3795 -48.4302 0.0000 46.0446 0.0000
# 6 0.0000 0.0000 0.0000 8.8391 0.0000 23.0632
#
#
#
# Elastic Compliance Matrix: (Units=1/GPa)
#
#
# Indices 1 2 3 4 5 6 
#
# 1 0.029573 -0.002262 0.001480 0.000000 0.023251 0.000000
# 2 -0.002262 0.007539 -0.000758 0.000000 0.000004 0.000000
# 3 0.001480 -0.000758 0.018986 0.000000 0.020840 0.000000
# 4 0.000000 0.000000 0.000000 0.096986 0.000000 -0.037170
# 5 0.023251 0.000004 0.020840 0.000000 0.061290 0.000000
# 6 0.000000 0.000000 0.000000 -0.037170 0.000000 0.057605
#
#
# Mechanical properties :
#
#
# Convention : Reuss Voigt Hill
#
# Bulk Modulus (GPa) = 18.86151 51.20028 35.03090
# Shear Modulus (GPa) = 17.08045 31.85285 24.46665
#
# Velocity S-wave (km/s) = 2.77414 3.78838 3.32022
# Velocity P-wave (km/s) = 4.33123 6.49653 5.52107
#
# Compressibility (1/GPa) = 0.05301803
#
# Stress axis : x y z
#
# Youngs Moduli (GPa) = 33.81432 132.64197 52.66905
#
# Poissons Ratio (x) = 0.30006 -0.07793
# Poissons Ratio (y) = 0.07649 0.03992
# Poissons Ratio (z) = -0.05003 0.10053
#
# Static dielectric constant tensor:
#      x y z
#    x 1.896840 0.000000 0.063800 
#    y 0.000000 1.818980 0.000000 
#    z 0.063800 0.000000 1.901230 
# 
# From -- ./inp_files/33957.got.cif
#   From: 2010.05.17/outbox.cif.g08.bks.cpg/sg13_17_cif.got.tgz:33957.got - 2010.06.03 16:44:36.
