data_PCOD9233820
_publ_section_title
;
Structure prediction by ZEFSAII (Michael W. Deem and Ramdas Pophale) SiO2 
 PCOD9233820
Probable space group: P 2/C
;
_chemical_formula_sum "Si O2"
_cell_formula_units_Z 24
_cell_length_a 16.983228
_cell_length_b 6.487742
_cell_length_c 12.958524
_cell_angle_alpha 90.000000
_cell_angle_beta 136.125235
_cell_angle_gamma 90.000000
_cell_volume 989.590405
_symmetry_space_group_name_H-M "P 2/C"
_symmetry_group_IT_number 13
_symmetry_cell_setting 'monoclinic'
loop_
_space_group_symop_operation_xyz
x,y,z
-x,y,1/2-z
-x,-y,-z
x,-y,1/2+z
loop_
_atom_site_type_symbol
_atom_site_label
_atom_site_fract_x
_atom_site_fract_y
_atom_site_fract_z
Si Si1 0.084394 0.821195 0.425988
Si Si2 0.357301 0.120159 0.364425
Si Si3 0.555930 0.780913 0.915456
Si Si4 0.236527 0.518986 0.449902
Si Si5 0.141698 0.417203 0.163990
Si Si6 0.228423 0.797431 0.113088
O O1 0.193933 0.698087 0.486184
O O2 0.054135 0.695069 0.502828
O O3 0.000000 0.829260 0.250000
O O4 0.124175 0.049321 0.491723
O O5 0.391527 0.000736 0.500460
O O6 0.326230 0.935507 0.255656
O O7 0.457905 0.250615 0.408151
O O8 0.244776 0.252613 0.268310
O O9 0.500000 0.784786 0.750000
O O10 0.655188 0.610804 0.006914
O O11 0.130769 0.467100 0.274497
O O12 0.265049 0.322123 0.545314
O O13 0.186556 0.622699 0.151812
#
# Coordination Sequence:
#
# PCOD9233820 Si02
#       6
#     4   4   4   4   4   4
#     4  10  24  44  67  96 126 162 213 272 328 380
#     4  10  23  41  63  94 136 170 212 265 310 375
#     4  11  22  41  61  96 131 168 219 255 310 370
#     4  11  24  41  67  96 129 171 216 259 321 385
#     4  10  22  42  66  95 129 168 210 260 319 382
#     4  10  21  43  66  88 131 171 207 267 320 375
#
# _framework density 24.252458000000001
#
# number of rings (size 3 to 8) (size 9 to 14) (size 15 to 20)
#    0.000    1.667    1.667    3.000    4.667    4.000 
#    6.000    3.333    0.000    0.000    0.000    0.000 
#    0.000    0.000    0.000    0.000    0.000    0.000 
#
# Total GULP energy -134252.971031 kJ/mol
# GULP energy per Si atom -5593.873793 kJ/mol
# Density = 2.419726 g / cm^3
# Si number density = 24.252458 Si / 1000 Ang^3
#
#
#
# Elastic Constant Matrix: (Units=GPa)
#
#
# Indices 1 2 3 4 5 6 
#
# 1 46.3048 14.8983 7.7815 0.0000 -8.8434 0.0000
# 2 14.8983 93.1354 37.3471 0.0000 -17.5888 0.0000
# 3 7.7815 37.3471 153.4933 0.0000 -18.9508 0.0000
# 4 0.0000 0.0000 0.0000 26.7431 0.0000 -19.4117
# 5 -8.8434 -17.5888 -18.9508 0.0000 34.7309 0.0000
# 6 0.0000 0.0000 0.0000 -19.4117 0.0000 17.3639
#
#
#
# Elastic Compliance Matrix: (Units=1/GPa)
#
#
# Indices 1 2 3 4 5 6 
#
# 1 0.023385 -0.002920 0.000083 0.000000 0.004521 0.000000
# 2 -0.002920 0.013047 -0.002469 0.000000 0.004517 0.000000
# 3 0.000083 -0.002469 0.007462 0.000000 0.002843 0.000000
# 4 0.000000 0.000000 0.000000 0.198333 0.000000 0.221723
# 5 0.004521 0.004517 0.002843 0.000000 0.033782 0.000000
# 6 0.000000 0.000000 0.000000 0.221723 0.000000 0.305463
#
#
# Mechanical properties :
#
#
# Convention : Reuss Voigt Hill
#
# Bulk Modulus (GPa) = 30.04569 45.88748 37.96659
# Shear Modulus (GPa) = 8.28941 31.29469 19.79205
#
# Velocity S-wave (km/s) = 1.85078 3.59607 2.85982
# Velocity P-wave (km/s) = 4.12102 6.01699 5.15689
#
# Compressibility (1/GPa) = 0.03328264
#
# Stress axis : x y z
#
# Youngs Moduli (GPa) = 42.76230 76.64468 134.00510
#
# Poissons Ratio (x) = 0.22383 -0.01115
# Poissons Ratio (y) = 0.12488 0.33084
# Poissons Ratio (z) = -0.00356 0.18923
#
# Static dielectric constant tensor:
#      x y z
#    x 1.948690 0.000000 0.000630 
#    y 0.000000 1.881130 0.000000 
#    z 0.000630 0.000000 1.975770 
# 
# From -- ./inp_files/56626.got.cif
#   From: 2010.05.17/outbox.cif.g08.bks.cpg/sg13_29_cif.got.tgz:56626.got - 2010.06.03 16:44:36.
