data_PCOD9233026
_publ_section_title
;
Structure prediction by ZEFSAII (Michael W. Deem and Ramdas Pophale) SiO2 
 PCOD9233026
Probable space group: P 2/C
;
_chemical_formula_sum "Si O2"
_cell_formula_units_Z 18
_cell_length_a 10.821223
_cell_length_b 11.362422
_cell_length_c 14.220757
_cell_angle_alpha 90.000000
_cell_angle_beta 29.934289
_cell_angle_gamma 90.000000
_cell_volume 872.521498
_symmetry_space_group_name_H-M "P 2/C"
_symmetry_group_IT_number 13
_symmetry_cell_setting 'monoclinic'
loop_
_space_group_symop_operation_xyz
x,y,z
-x,y,1/2-z
-x,-y,-z
x,-y,1/2+z
loop_
_atom_site_type_symbol
_atom_site_label
_atom_site_fract_x
_atom_site_fract_y
_atom_site_fract_z
Si Si1 0.772473 0.768935 0.838776
Si Si2 0.320772 0.450846 0.199295
Si Si3 0.500000 0.284960 0.250000
Si Si4 0.101804 0.868710 0.928233
Si Si5 0.341341 0.307989 0.762991
O O1 0.850021 0.642487 0.742075
O O2 0.737262 0.853315 0.773034
O O3 0.000000 0.813679 0.750000
O O4 0.530342 0.744011 0.060270
O O5 0.461650 0.372150 0.185670
O O6 0.215495 0.570668 0.311853
O O7 0.500000 0.500000 0.000000
O O8 0.733779 0.194919 0.099446
O O9 0.859135 0.788683 0.080640
O O10 0.000000 0.000000 0.000000
O O11 0.500000 0.337466 0.750000
#
# Coordination Sequence:
#
# PCOD9233026 Si02
#       5
#     4   4   2   4   4
#     4  10  21  39  62  97 129 164 215 266 318 392
#     4   9  20  37  62  99 131 163 210 268 330 390
#     4  10  22  42  64  96 134 166 216 272 322 388
#     4  11  26  43  65  92 131 176 219 266 317 382
#     4  11  21  38  67  95 125 169 209 260 333 376
#
# _framework density 20.629864999999999
#
# number of rings (size 3 to 8) (size 9 to 14) (size 15 to 20)
#    0.000    1.778    3.333    0.000    1.556    8.000 
#    0.000   13.333    0.000    0.000    0.000    0.000 
#    0.000    0.000    0.000    0.000    0.000    0.000 
#
# Total GULP energy -100319.654320 kJ/mol
# GULP energy per Si atom -5573.314129 kJ/mol
# Density = 2.058291 g / cm^3
# Si number density = 20.629865 Si / 1000 Ang^3
#
#
#
# Elastic Constant Matrix: (Units=GPa)
#
#
# Indices 1 2 3 4 5 6 
#
# 1 54.4754 7.2574 0.6295 0.0000 11.8705 0.0000
# 2 7.2574 122.9499 29.0112 0.0000 13.0364 0.0000
# 3 0.6295 29.0112 81.4009 0.0000 18.7629 0.0000
# 4 0.0000 0.0000 0.0000 22.2724 0.0000 -9.0769
# 5 11.8705 13.0364 18.7629 0.0000 29.4755 0.0000
# 6 0.0000 0.0000 0.0000 -9.0769 0.0000 19.5189
#
#
#
# Elastic Compliance Matrix: (Units=1/GPa)
#
#
# Indices 1 2 3 4 5 6 
#
# 1 0.020469 -0.000751 0.002265 0.000000 -0.009353 0.000000
# 2 -0.000751 0.009036 -0.002770 0.000000 -0.001931 0.000000
# 3 0.002265 -0.002770 0.015449 0.000000 -0.009522 0.000000
# 4 0.000000 0.000000 0.000000 0.055397 0.000000 0.025761
# 5 -0.009353 -0.001931 -0.009522 0.000000 0.044608 0.000000
# 6 0.000000 0.000000 0.000000 0.025761 0.000000 0.063212
#
#
# Mechanical properties :
#
#
# Convention : Reuss Voigt Hill
#
# Bulk Modulus (GPa) = 23.56074 36.95806 30.25940
# Shear Modulus (GPa) = 22.23899 29.04856 25.64378
#
# Velocity S-wave (km/s) = 3.28685 3.75651 3.52950
# Velocity P-wave (km/s) = 5.08429 6.06374 5.59549
#
# Compressibility (1/GPa) = 0.04244349
#
# Stress axis : x y z
#
# Youngs Moduli (GPa) = 48.85462 110.66891 64.72840
#
# Poissons Ratio (x) = 0.08311 -0.14663
# Poissons Ratio (y) = 0.03669 0.17927
# Poissons Ratio (z) = -0.11067 0.30650
#
# Static dielectric constant tensor:
#      x y z
#    x 1.818730 0.000000 0.047550 
#    y 0.000000 1.743210 0.000000 
#    z 0.047550 0.000000 1.832270 
# 
# From -- ./inp_files/29142.got.cif
#   From: 2010.05.17/outbox.cif.g08.bks.cpg/sg13_15_cif.got.tgz:29142.got - 2010.06.03 16:44:36.
