data_PCOD9233512
_publ_section_title
;
Structure prediction by ZEFSAII (Michael W. Deem and Ramdas Pophale) SiO2 
 PCOD9233512
Probable space group: P 2/C
;
_chemical_formula_sum "Si O2"
_cell_formula_units_Z 28
_cell_length_a 23.381138
_cell_length_b 10.800459
_cell_length_c 28.649777
_cell_angle_alpha 90.000000
_cell_angle_beta 10.730620
_cell_angle_gamma 90.000000
_cell_volume 1347.067815
_symmetry_space_group_name_H-M "P 2/C"
_symmetry_group_IT_number 13
_symmetry_cell_setting 'monoclinic'
loop_
_space_group_symop_operation_xyz
x,y,z
-x,y,1/2-z
-x,-y,-z
x,-y,1/2+z
loop_
_atom_site_type_symbol
_atom_site_label
_atom_site_fract_x
_atom_site_fract_y
_atom_site_fract_z
Si Si1 0.349042 0.884352 0.594438
Si Si2 0.408943 0.354654 0.768956
Si Si3 0.643274 0.291862 0.988759
Si Si4 0.320044 0.376307 0.159274
Si Si5 0.678187 0.607453 0.557908
Si Si6 0.310326 0.014121 0.530998
Si Si7 0.356196 0.914255 0.314871
O O1 0.446407 0.745283 0.530298
O O2 0.363627 0.912743 0.527934
O O3 0.500000 0.000000 0.500000
O O4 0.996221 0.891217 0.892791
O O5 0.500000 0.342738 0.750000
O O6 0.610741 0.470549 0.591546
O O7 0.478423 0.216663 0.695852
O O8 0.047376 0.386454 0.053950
O O9 0.963046 0.363891 0.722941
O O10 0.702858 0.146687 0.933177
O O11 0.390366 0.345344 0.156907
O O12 0.570544 0.305427 0.101940
O O13 0.500000 0.500000 0.000000
O O14 0.500000 0.621214 0.750000
O O15 0.576029 0.012691 0.279197
O O16 0.000000 0.995169 0.750000
O O17 0.500000 0.945122 0.250000
#
# Coordination Sequence:
#
# PCOD9233512 Si02
#       7
#     4   4   4   4   4   4   4
#     4  11  24  45  68  99 139 176 221 278 340 400
#     4   9  20  41  62  92 131 171 222 273 334 395
#     4  11  24  41  64 100 136 169 232 281 323 413
#     4  11  23  43  69  99 138 177 224 283 334 399
#     4  10  21  41  65  93 131 178 217 276 340 394
#     4  12  23  43  68 101 129 180 230 273 339 404
#     4  10  22  40  66  95 130 169 219 279 324 400
#
# _framework density 20.785886999999999
#
# number of rings (size 3 to 8) (size 9 to 14) (size 15 to 20)
#    0.000    1.429    4.286    1.714    0.000    4.000 
#    5.143    0.000    0.000    0.000    0.000    0.000 
#    0.000    0.000    0.000    0.000    0.000    0.000 
#
# Total GULP energy -156212.519983 kJ/mol
# GULP energy per Si atom -5579.018571 kJ/mol
# Density = 2.073858 g / cm^3
# Si number density = 20.785887 Si / 1000 Ang^3
#
#
#
# Elastic Constant Matrix: (Units=GPa)
#
#
# Indices 1 2 3 4 5 6 
#
# 1 114.3204 28.8989 42.6051 0.0000 -7.4479 0.0000
# 2 28.8989 112.1653 29.8897 0.0000 -6.4755 0.0000
# 3 42.6051 29.8897 61.5660 0.0000 -9.4753 0.0000
# 4 0.0000 0.0000 0.0000 15.9350 0.0000 -15.4651
# 5 -7.4479 -6.4755 -9.4753 0.0000 37.2152 0.0000
# 6 0.0000 0.0000 0.0000 -15.4651 0.0000 -5.4391
#
#
#
# Elastic Compliance Matrix: (Units=1/GPa)
#
#
# Indices 1 2 3 4 5 6 
#
# 1 0.011886 -0.000995 -0.007705 0.000000 0.000244 0.000000
# 2 -0.000995 0.010334 -0.004249 0.000000 0.000517 0.000000
# 3 -0.007705 -0.004249 0.024236 0.000000 0.003889 0.000000
# 4 0.000000 0.000000 0.000000 0.016692 0.000000 -0.047462
# 5 0.000244 0.000517 0.003889 0.000000 0.028000 0.000000
# 6 0.000000 0.000000 0.000000 -0.047462 0.000000 -0.048905
#
#
# Mechanical properties :
#
#
# Convention : Reuss Voigt Hill
#
# Bulk Modulus (GPa) = 48.64147 54.53767 51.58957
# Shear Modulus (GPa) = 66.67170 21.98610 44.32890
#
# Velocity S-wave (km/s) = 5.66966 3.25582 4.62307
# Velocity P-wave (km/s) = 8.14323 6.35835 7.30550
#
# Compressibility (1/GPa) = 0.02055859
#
# Stress axis : x y z
#
# Youngs Moduli (GPa) = 84.13060 96.76918 41.26092
#
# Poissons Ratio (x) = 0.09630 0.31791
# Poissons Ratio (y) = 0.08372 0.17531
# Poissons Ratio (z) = 0.64822 0.41114
#
# Static dielectric constant tensor:
#      x y z
#    x 1.738070 0.000000 -0.009190 
#    y 0.000000 1.892170 0.000000 
#    z -0.009190 0.000000 1.733660 
# 
# From -- ./inp_files/97710.got.cif
#   From: 2010.05.17/outbox.cif.g08.bks.cpg/sg13_49_cif.got.tgz:97710.got - 2010.06.03 16:44:36.
