data_PCOD9233099
_publ_section_title
;
Structure prediction by ZEFSAII (Michael W. Deem and Ramdas Pophale) SiO2 
 PCOD9233099
Probable space group: P 2/C
;
_chemical_formula_sum "Si O2"
_cell_formula_units_Z 28
_cell_length_a 7.431248
_cell_length_b 32.560792
_cell_length_c 5.249629
_cell_angle_alpha 90.000000
_cell_angle_beta 71.111953
_cell_angle_gamma 90.000000
_cell_volume 1201.840011
_symmetry_space_group_name_H-M "P 2/C"
_symmetry_group_IT_number 13
_symmetry_cell_setting 'monoclinic'
loop_
_space_group_symop_operation_xyz
x,y,z
-x,y,1/2-z
-x,-y,-z
x,-y,1/2+z
loop_
_atom_site_type_symbol
_atom_site_label
_atom_site_fract_x
_atom_site_fract_y
_atom_site_fract_z
Si Si1 0.794453 0.679238 0.485268
Si Si2 0.123239 0.763850 0.937173
Si Si3 0.000000 0.028809 0.750000
Si Si4 0.304434 0.599897 0.211352
Si Si5 0.272915 0.853623 0.841639
Si Si6 0.728332 0.901367 0.165129
Si Si7 0.000000 0.621657 0.750000
Si Si8 0.713670 0.482696 0.964670
O O1 0.736555 0.725834 0.564200
O O2 0.671379 0.647087 0.384257
O O3 0.842023 0.652578 0.710103
O O4 0.000000 0.682796 0.250000
O O5 0.210596 0.807349 0.818214
O O6 0.000000 0.749684 0.750000
O O7 0.000000 0.770827 0.250000
O O8 0.826715 0.059082 0.748797
O O9 0.000000 0.000000 0.500000
O O10 0.500000 0.586659 0.250000
O O11 0.281785 0.566225 0.998202
O O12 0.117965 0.598710 0.476417
O O13 0.500000 0.855024 0.750000
O O14 0.212988 0.885179 0.643305
O O15 0.218691 0.866761 0.151969
O O16 0.500000 0.907417 0.250000
O O17 0.802596 0.492699 0.652971
O O18 0.500000 0.500000 0.000000
#
# Coordination Sequence:
#
# PCOD9233099 Si02
#       8
#     4   4   2   4   4   4   2   4
#     4   9  21  41  61  90 132 169 216 266 325 407
#     4  11  22  39  66  97 131 178 219 275 341 386
#     4  12  26  42  66 103 136 176 243 298 338 430
#     4  11  23  41  68  95 123 175 217 266 341 401
#     4  10  22  41  63  97 134 176 227 285 333 414
#     4  10  23  43  66  95 138 183 228 286 360 406
#     4  10  22  42  62  87 130 168 217 264 318 406
#     4  10  21  39  65  94 129 160 209 278 326 394
#
# _framework density 23.297609999999999
#
# number of rings (size 3 to 8) (size 9 to 14) (size 15 to 20)
#    0.000    1.714    2.143    1.714    5.000    1.143 
#    2.571    1.429    0.000    0.000    0.000    0.000 
#    0.000    0.000    0.000    0.000    0.000    0.000 
#
# Total GULP energy -156211.368770 kJ/mol
# GULP energy per Si atom -5578.977456 kJ/mol
# Density = 2.324458 g / cm^3
# Si number density = 23.297610 Si / 1000 Ang^3
#
#
#
# Elastic Constant Matrix: (Units=GPa)
#
#
# Indices 1 2 3 4 5 6 
#
# 1 97.0941 41.4823 38.9863 0.0000 -0.4163 0.0000
# 2 41.4823 156.1198 16.4797 0.0000 11.0586 0.0000
# 3 38.9863 16.4797 76.1302 0.0000 31.9767 0.0000
# 4 0.0000 0.0000 0.0000 67.6825 0.0000 38.0923
# 5 -0.4163 11.0586 31.9767 0.0000 39.5158 0.0000
# 6 0.0000 0.0000 0.0000 38.0923 0.0000 39.5489
#
#
#
# Elastic Compliance Matrix: (Units=1/GPa)
#
#
# Indices 1 2 3 4 5 6 
#
# 1 0.017263 -0.004058 -0.012900 0.000000 0.011756 0.000000
# 2 -0.004058 0.007537 0.002046 0.000000 -0.003808 0.000000
# 3 -0.012900 0.002046 0.029686 0.000000 -0.024731 0.000000
# 4 0.000000 0.000000 0.000000 0.032265 0.000000 -0.031077
# 5 0.011756 -0.003808 -0.024731 0.000000 0.046508 0.000000
# 6 0.000000 0.000000 0.000000 -0.031077 0.000000 0.055217
#
#
# Mechanical properties :
#
#
# Convention : Reuss Voigt Hill
#
# Bulk Modulus (GPa) = 40.54762 58.13786 49.34274
# Shear Modulus (GPa) = 22.07277 44.84248 33.45763
#
# Velocity S-wave (km/s) = 3.08137 4.39198 3.79370
# Velocity P-wave (km/s) = 5.48651 7.12235 6.35727
#
# Compressibility (1/GPa) = 0.02466236
#
# Stress axis : x y z
#
# Youngs Moduli (GPa) = 57.92658 132.67274 33.68544
#
# Poissons Ratio (x) = 0.53839 0.43455
# Poissons Ratio (y) = 0.23507 -0.06891
# Poissons Ratio (z) = 0.74726 -0.27143
#
# Static dielectric constant tensor:
#      x y z
#    x 1.963880 0.000000 0.035400 
#    y 0.000000 1.883100 0.000000 
#    z 0.035400 0.000000 1.949320 
# 
# From -- ./inp_files/2689.got.cif
#   From: 2010.05.17/outbox.cif.g08.bks.cpg/sg13_2_cif.got.tgz:2689.got - 2010.06.03 16:44:36.
