data_PCOD9233303
_publ_section_title
;
Structure prediction by ZEFSAII (Michael W. Deem and Ramdas Pophale) SiO2 
 PCOD9233303
Probable space group: P 2/C
;
_chemical_formula_sum "Si O2"
_cell_formula_units_Z 22
_cell_length_a 12.374458
_cell_length_b 12.276365
_cell_length_c 14.095999
_cell_angle_alpha 90.000000
_cell_angle_beta 29.911469
_cell_angle_gamma 90.000000
_cell_volume 1067.818564
_symmetry_space_group_name_H-M "P 2/C"
_symmetry_group_IT_number 13
_symmetry_cell_setting 'monoclinic'
loop_
_space_group_symop_operation_xyz
x,y,z
-x,y,1/2-z
-x,-y,-z
x,-y,1/2+z
loop_
_atom_site_type_symbol
_atom_site_label
_atom_site_fract_x
_atom_site_fract_y
_atom_site_fract_z
Si Si1 0.194622 0.619807 0.027241
Si Si2 0.077435 0.150428 0.082595
Si Si3 0.981405 0.392890 0.377694
Si Si4 0.500000 0.005167 0.750000
Si Si5 0.632669 0.669620 0.795326
Si Si6 0.627932 0.906412 0.846068
O O1 0.153179 0.502949 0.008482
O O2 0.000000 0.644172 0.250000
O O3 0.411951 0.617970 0.924682
O O4 0.235003 0.695787 0.903963
O O5 0.108345 0.274633 0.022755
O O6 0.000000 0.156638 0.250000
O O7 0.884194 0.091185 0.172613
O O8 0.294573 0.082668 0.918187
O O9 0.000000 0.386971 0.250000
O O10 0.211942 0.400692 0.255253
O O11 0.555894 0.930276 0.795192
O O12 0.576566 0.778349 0.898427
O O13 0.500000 0.000000 0.000000
#
# Coordination Sequence:
#
# PCOD9233303 Si02
#       6
#     4   4   4   2   4   4
#     4  10  21  40  64  96 123 169 208 254 318 373
#     4  10  21  41  61  93 127 164 213 264 310 379
#     4   9  20  38  64  90 130 167 209 258 315 375
#     4  12  22  38  66  92 122 164 214 262 322 370
#     4  10  22  42  62  89 135 162 212 265 306 377
#     4  11  23  44  64  90 127 172 209 267 320 367
#
# _framework density 20.602751999999999
#
# number of rings (size 3 to 8) (size 9 to 14) (size 15 to 20)
#    0.000    1.818    1.818    2.182    0.000    4.364 
#   13.091    0.000    0.000    0.000    0.000    0.000 
#    0.000    0.000    0.000    0.000    0.000    0.000 
#
# Total GULP energy -122587.211323 kJ/mol
# GULP energy per Si atom -5572.145969 kJ/mol
# Density = 2.055586 g / cm^3
# Si number density = 20.602752 Si / 1000 Ang^3
#
#
#
# Elastic Constant Matrix: (Units=GPa)
#
#
# Indices 1 2 3 4 5 6 
#
# 1 157.6185 24.4206 46.1238 0.0000 -29.6804 0.0000
# 2 24.4206 87.1499 24.6717 0.0000 -26.1265 0.0000
# 3 46.1238 24.6717 71.8380 0.0000 -27.3518 0.0000
# 4 0.0000 0.0000 0.0000 38.0733 0.0000 -1.7625
# 5 -29.6804 -26.1265 -27.3518 0.0000 40.5736 0.0000
# 6 0.0000 0.0000 0.0000 -1.7625 0.0000 43.1886
#
#
#
# Elastic Compliance Matrix: (Units=1/GPa)
#
#
# Indices 1 2 3 4 5 6 
#
# 1 0.008124 -0.000217 -0.003945 0.000000 0.003144 0.000000
# 2 -0.000217 0.014416 -0.001799 0.000000 0.007911 0.000000
# 3 -0.003945 -0.001799 0.020894 0.000000 0.010041 0.000000
# 4 0.000000 0.000000 0.000000 0.026315 0.000000 0.001074
# 5 0.003144 0.007911 0.010041 0.000000 0.038810 0.000000
# 6 0.000000 0.000000 0.000000 0.001074 0.000000 0.023198
#
#
# Mechanical properties :
#
#
# Convention : Reuss Voigt Hill
#
# Bulk Modulus (GPa) = 31.73402 56.33762 44.03582
# Shear Modulus (GPa) = 32.42878 39.12646 35.77762
#
# Velocity S-wave (km/s) = 3.97167 4.36258 4.17171
# Velocity P-wave (km/s) = 6.03892 7.26500 6.68015
#
# Compressibility (1/GPa) = 0.03151193
#
# Stress axis : x y z
#
# Youngs Moduli (GPa) = 123.08504 69.36515 47.86101
#
# Poissons Ratio (x) = 0.01507 0.18879
# Poissons Ratio (y) = 0.02675 0.08613
# Poissons Ratio (z) = 0.48552 0.12482
#
# Static dielectric constant tensor:
#      x y z
#    x 1.723910 0.000000 0.026180 
#    y 0.000000 1.830540 0.000000 
#    z 0.026180 0.000000 1.735640 
# 
# From -- ./inp_files/51092.got.cif
#   From: 2010.05.17/outbox.cif.g08.bks.cpg/sg13_26_cif.got.tgz:51092.got - 2010.06.03 16:44:36.
