data_PCOD9233714
_publ_section_title
;
Structure prediction by ZEFSAII (Michael W. Deem and Ramdas Pophale) SiO2 
 PCOD9233714
Probable space group: P 2/C
;
_chemical_formula_sum "Si O2"
_cell_formula_units_Z 24
_cell_length_a 7.912218
_cell_length_b 20.200046
_cell_length_c 9.959831
_cell_angle_alpha 90.000000
_cell_angle_beta 50.301159
_cell_angle_gamma 90.000000
_cell_volume 1224.790464
_symmetry_space_group_name_H-M "P 2/C"
_symmetry_group_IT_number 13
_symmetry_cell_setting 'monoclinic'
loop_
_space_group_symop_operation_xyz
x,y,z
-x,y,1/2-z
-x,-y,-z
x,-y,1/2+z
loop_
_atom_site_type_symbol
_atom_site_label
_atom_site_fract_x
_atom_site_fract_y
_atom_site_fract_z
Si Si1 0.224821 0.349940 0.552799
Si Si2 0.000000 0.990093 0.750000
Si Si3 0.615848 0.633977 0.052810
Si Si4 0.162680 0.505215 0.041061
Si Si5 0.239602 0.778821 0.869652
Si Si6 0.000000 0.719171 0.750000
Si Si7 0.765220 0.072820 0.106257
O O1 0.443546 0.341929 0.529320
O O2 0.265149 0.422307 0.470034
O O3 0.183852 0.286827 0.481569
O O4 0.000000 0.357127 0.750000
O O5 0.860437 0.950270 0.705141
O O6 0.150892 0.032546 0.568277
O O7 0.500000 0.650798 0.250000
O O8 0.667837 0.555288 0.029121
O O9 0.843593 0.671604 0.916154
O O10 0.000000 0.502511 0.250000
O O11 0.000000 0.500000 0.000000
O O12 0.500000 0.782933 0.750000
O O13 0.151093 0.764052 0.766803
O O14 0.158524 0.851064 0.954445
O O15 0.500000 0.068405 0.250000
#
# Coordination Sequence:
#
# PCOD9233714 Si02
#       7
#     4   2   4   4   4   2   4
#     4  11  24  41  62  91 128 167 219 269 331 397
#     4  10  21  42  68 101 132 178 210 270 318 369
#     4  12  24  42  66  91 123 171 221 280 334 395
#     4  11  23  41  63  92 122 168 220 281 338 395
#     4  11  23  41  64  94 130 175 210 266 326 389
#     4  12  23  44  64  91 134 166 224 268 334 391
#     4  10  22  40  68  99 137 171 220 260 320 386
#
# _framework density 19.595188
#
# number of rings (size 3 to 8) (size 9 to 14) (size 15 to 20)
#    0.000    1.000    2.500    5.500    1.167    0.667 
#    0.000    0.000    0.000    0.000    0.000    0.000 
#    0.000    0.000    0.000    0.000    0.000    0.000 
#
# Total GULP energy -133818.722539 kJ/mol
# GULP energy per Si atom -5575.780106 kJ/mol
# Density = 1.955059 g / cm^3
# Si number density = 19.595188 Si / 1000 Ang^3
#
#
#
# Elastic Constant Matrix: (Units=GPa)
#
#
# Indices 1 2 3 4 5 6 
#
# 1 127.0817 51.6495 40.8853 0.0000 19.5659 0.0000
# 2 51.6495 92.3743 29.1236 0.0000 7.1174 0.0000
# 3 40.8853 29.1236 95.9756 0.0000 6.1816 0.0000
# 4 0.0000 0.0000 0.0000 22.8610 0.0000 -11.2018
# 5 19.5659 7.1174 6.1816 0.0000 38.1511 0.0000
# 6 0.0000 0.0000 0.0000 -11.2018 0.0000 -13.7263
#
#
#
# Elastic Compliance Matrix: (Units=1/GPa)
#
#
# Indices 1 2 3 4 5 6 
#
# 1 0.011678 -0.005202 -0.003105 0.000000 -0.004515 0.000000
# 2 -0.005202 0.014394 -0.002173 0.000000 0.000335 0.000000
# 3 -0.003105 -0.002173 0.012402 0.000000 -0.000012 0.000000
# 4 0.000000 0.000000 0.000000 0.031247 0.000000 -0.025501
# 5 -0.004515 0.000335 -0.000012 0.000000 0.028467 0.000000
# 6 0.000000 0.000000 0.000000 -0.025501 0.000000 -0.052042
#
#
# Mechanical properties :
#
#
# Convention : Reuss Voigt Hill
#
# Bulk Modulus (GPa) = 57.10298 62.08315 59.59307
# Shear Modulus (GPa) = 68.54581 22.37536 45.46059
#
# Velocity S-wave (km/s) = 5.92089 3.38284 4.82185
# Velocity P-wave (km/s) = 8.71476 6.85637 7.84082
#
# Compressibility (1/GPa) = 0.01751222
#
# Stress axis : x y z
#
# Youngs Moduli (GPa) = 85.63459 69.47489 80.63051
#
# Poissons Ratio (x) = 0.36144 0.25037
# Poissons Ratio (y) = 0.44551 0.17522
# Poissons Ratio (z) = 0.26590 0.15098
#
# Static dielectric constant tensor:
#      x y z
#    x 1.645250 0.000000 -0.005810 
#    y 0.000000 1.738990 0.000000 
#    z -0.005810 0.000000 1.688430 
# 
# From -- ./inp_files/13464.got.cif
#   From: 2010.05.17/outbox.cif.g08.bks.cpg/sg13_7_cif.got.tgz:13464.got - 2010.06.03 16:44:36.
