data_PCOD9233613
_publ_section_title
;
Structure prediction by ZEFSAII (Michael W. Deem and Ramdas Pophale) SiO2 
 PCOD9233613
Probable space group: P 2/C
;
_chemical_formula_sum "Si O2"
_cell_formula_units_Z 24
_cell_length_a 15.177879
_cell_length_b 4.954657
_cell_length_c 31.682945
_cell_angle_alpha 90.000000
_cell_angle_beta 26.863503
_cell_angle_gamma 90.000000
_cell_volume 1076.614976
_symmetry_space_group_name_H-M "P 2/C"
_symmetry_group_IT_number 13
_symmetry_cell_setting 'monoclinic'
loop_
_space_group_symop_operation_xyz
x,y,z
-x,y,1/2-z
-x,-y,-z
x,-y,1/2+z
loop_
_atom_site_type_symbol
_atom_site_label
_atom_site_fract_x
_atom_site_fract_y
_atom_site_fract_z
Si Si1 0.064108 0.756557 0.943771
Si Si2 0.139330 0.726852 0.770925
Si Si3 0.468789 0.518083 0.856436
Si Si4 0.744317 0.025679 0.520126
Si Si5 0.097178 0.236774 0.626264
Si Si6 0.500000 0.585995 0.750000
Si Si7 0.000000 0.544656 0.250000
O O1 0.294045 0.743422 0.835413
O O2 0.000000 0.500000 0.000000
O O3 0.938980 0.828693 0.955195
O O4 0.000000 0.000000 0.000000
O O5 0.333038 0.644780 0.711398
O O6 0.964932 0.533074 0.862625
O O7 0.131180 0.635723 0.725213
O O8 0.088899 0.038433 0.796435
O O9 0.414128 0.257853 0.906684
O O10 0.484530 0.430206 0.800884
O O11 0.312742 0.761333 0.927935
O O12 0.755927 0.905362 0.468063
O O13 0.130669 0.279463 0.661815
#
# Coordination Sequence:
#
# PCOD9233613 Si02
#       7
#     4   4   4   4   4   2   2
#     4  12  25  46  67 101 142 184 241 298 345 421
#     4  10  21  42  68  99 132 178 241 278 353 439
#     4  12  26  42  68 103 141 187 237 291 356 426
#     4  12  24  45  64 103 145 179 235 300 354 414
#     4  10  21  41  71  93 135 178 230 288 354 425
#     4  12  26  46  74 100 144 196 240 288 358 416
#     4   8  22  40  72 100 128 178 244 284 358 440
#
# _framework density 22.292090000000002
#
# number of rings (size 3 to 8) (size 9 to 14) (size 15 to 20)
#    1.000    0.000    3.333    3.500    0.000    4.000 
#    0.000    1.667    0.000    0.000    0.000    0.000 
#    0.000    0.000    0.000    0.000    0.000    0.000 
#
# Total GULP energy -133815.033400 kJ/mol
# GULP energy per Si atom -5575.626392 kJ/mol
# Density = 2.224135 g / cm^3
# Si number density = 22.292090 Si / 1000 Ang^3
#
#
#
# Elastic Constant Matrix: (Units=GPa)
#
#
# Indices 1 2 3 4 5 6 
#
# 1 78.3612 -2.5498 12.7121 0.0000 28.9858 0.0000
# 2 -2.5498 97.7283 15.0634 0.0000 13.2582 0.0000
# 3 12.7121 15.0634 81.5072 0.0000 19.4040 0.0000
# 4 0.0000 0.0000 0.0000 24.5082 0.0000 8.3811
# 5 28.9858 13.2582 19.4040 0.0000 38.3372 0.0000
# 6 0.0000 0.0000 0.0000 8.3811 0.0000 31.1621
#
#
#
# Elastic Compliance Matrix: (Units=1/GPa)
#
#
# Indices 1 2 3 4 5 6 
#
# 1 0.018269 0.002447 0.000214 0.000000 -0.014767 0.000000
# 2 0.002447 0.011177 -0.001236 0.000000 -0.005090 0.000000
# 3 0.000214 -0.001236 0.014100 0.000000 -0.006871 0.000000
# 4 0.000000 0.000000 0.000000 0.044935 0.000000 -0.012085
# 5 -0.014767 -0.005090 -0.006871 0.000000 0.042487 0.000000
# 6 0.000000 0.000000 0.000000 -0.012085 0.000000 0.035341
#
#
# Mechanical properties :
#
#
# Convention : Reuss Voigt Hill
#
# Bulk Modulus (GPa) = 21.55332 34.22757 27.89044
# Shear Modulus (GPa) = 27.94491 34.29289 31.11890
#
# Velocity S-wave (km/s) = 3.54443 3.92643 3.74031
# Velocity P-wave (km/s) = 5.14201 5.99527 5.58496
#
# Compressibility (1/GPa) = 0.04639658
#
# Stress axis : x y z
#
# Youngs Moduli (GPa) = 54.73857 89.46710 70.92434
#
# Poissons Ratio (x) = -0.21893 -0.01518
# Poissons Ratio (y) = -0.13395 0.08763
# Poissons Ratio (z) = -0.01172 0.11054
#
# Static dielectric constant tensor:
#      x y z
#    x 1.834980 0.000000 0.035710 
#    y 0.000000 1.782900 0.000000 
#    z 0.035710 0.000000 1.874110 
# 
# From -- ./inp_files/96836.got.cif
#   From: 2010.05.17/outbox.cif.g08.bks.cpg/sg13_49_cif.got.tgz:96836.got - 2010.06.03 16:44:36.
