data_PCOD9233502
_publ_section_title
;
Structure prediction by ZEFSAII (Michael W. Deem and Ramdas Pophale) SiO2 
 PCOD9233502
Probable space group: P 2/C
;
_chemical_formula_sum "Si O2"
_cell_formula_units_Z 32
_cell_length_a 21.608121
_cell_length_b 8.806058
_cell_length_c 14.494114
_cell_angle_alpha 90.000000
_cell_angle_beta 147.914675
_cell_angle_gamma 90.000000
_cell_volume 1464.985186
_symmetry_space_group_name_H-M "P 2/C"
_symmetry_group_IT_number 13
_symmetry_cell_setting 'monoclinic'
loop_
_space_group_symop_operation_xyz
x,y,z
-x,y,1/2-z
-x,-y,-z
x,-y,1/2+z
loop_
_atom_site_type_symbol
_atom_site_label
_atom_site_fract_x
_atom_site_fract_y
_atom_site_fract_z
Si Si1 0.890781 0.099078 0.831053
Si Si2 0.496558 0.934487 0.641622
Si Si3 0.693920 0.523463 0.505769
Si Si4 0.305460 0.285969 0.825276
Si Si5 0.290015 0.143317 0.392977
Si Si6 0.896972 0.678384 0.180412
Si Si7 0.720310 0.166558 0.333158
Si Si8 0.390997 0.501485 0.793271
O O1 0.813447 0.194328 0.806989
O O2 0.935867 0.227742 0.818494
O O3 0.792802 0.983676 0.665365
O O4 0.000000 0.000000 0.000000
O O5 0.500000 0.867460 0.750000
O O6 0.413340 0.829377 0.473980
O O7 0.623530 0.942600 0.756964
O O8 0.424328 0.089168 0.561801
O O9 0.675901 0.409864 0.569253
O O10 0.717490 0.690918 0.573780
O O11 0.806261 0.449287 0.597376
O O12 0.598362 0.525228 0.302652
O O13 0.308640 0.372602 0.732902
O O14 0.252470 0.136713 0.238379
O O15 0.000000 0.612470 0.250000
O O16 0.832298 0.805712 0.036682
O O17 0.659824 0.331433 0.259148
O O18 0.500000 0.500000 0.000000
#
# Coordination Sequence:
#
# PCOD9233502 Si02
#       8
#     4   4   4   4   4   4   4   4
#     4  10  22  44  65  92 124 170 215 266 334 395
#     4  11  22  39  60  91 131 173 210 258 323 399
#     4  10  23  42  63  94 131 165 218 275 326 383
#     4  10  21  41  65  88 128 173 212 261 331 394
#     4  11  23  41  60  94 132 165 213 271 330 384
#     4  10  22  45  69  91 123 173 225 269 330 397
#     4  11  21  39  65  92 127 173 217 260 327 403
#     4  11  21  37  62  96 127 171 219 264 323 388
#
# _framework density 21.843225
#
# number of rings (size 3 to 8) (size 9 to 14) (size 15 to 20)
#    0.000    1.500    2.500    4.125    0.000    1.000 
#   15.750    1.875    0.000    0.000    0.000    0.000 
#    0.000    0.000    0.000    0.000    0.000    0.000 
#
# Total GULP energy -178756.236921 kJ/mol
# GULP energy per Si atom -5586.132404 kJ/mol
# Density = 2.179351 g / cm^3
# Si number density = 21.843225 Si / 1000 Ang^3
#
#
#
# Elastic Constant Matrix: (Units=GPa)
#
#
# Indices 1 2 3 4 5 6 
#
# 1 101.5158 30.4605 26.7356 0.0000 -2.7833 0.0000
# 2 30.4605 101.0837 13.8776 0.0000 -3.2872 0.0000
# 3 26.7356 13.8776 60.0851 0.0000 -1.1810 0.0000
# 4 0.0000 0.0000 0.0000 17.5337 0.0000 -2.0802
# 5 -2.7833 -3.2872 -1.1810 0.0000 32.5083 0.0000
# 6 0.0000 0.0000 0.0000 -2.0802 0.0000 31.0444
#
#
#
# Elastic Compliance Matrix: (Units=1/GPa)
#
#
# Indices 1 2 3 4 5 6 
#
# 1 0.011973 -0.002953 -0.004634 0.000000 0.000558 0.000000
# 2 -0.002953 0.010975 -0.001205 0.000000 0.000813 0.000000
# 3 -0.004634 -0.001205 0.018987 0.000000 0.000171 0.000000
# 4 0.000000 0.000000 0.000000 0.057490 0.000000 0.003852
# 5 0.000558 0.000813 0.000171 0.000000 0.030898 0.000000
# 6 0.000000 0.000000 0.000000 0.003852 0.000000 0.032470
#
#
# Mechanical properties :
#
#
# Convention : Reuss Voigt Hill
#
# Bulk Modulus (GPa) = 41.06888 44.98134 43.02511
# Shear Modulus (GPa) = 26.52620 28.99133 27.75877
#
# Velocity S-wave (km/s) = 3.48859 3.64709 3.56872
# Velocity P-wave (km/s) = 5.92195 6.19456 6.05979
#
# Compressibility (1/GPa) = 0.02434934
#
# Stress axis : x y z
#
# Youngs Moduli (GPa) = 83.52343 91.11940 52.66843
#
# Poissons Ratio (x) = 0.26912 0.24408
# Poissons Ratio (y) = 0.24668 0.06344
# Poissons Ratio (z) = 0.38707 0.10976
#
# Static dielectric constant tensor:
#      x y z
#    x 1.862660 0.000000 -0.003560 
#    y 0.000000 1.795650 0.000000 
#    z -0.003560 0.000000 1.841250 
# 
# From -- ./inp_files/58838.got.cif
#   From: 2010.05.17/outbox.cif.g08.bks.cpg/sg13_30_cif.got.tgz:58838.got - 2010.06.03 16:44:36.
