data_PCOD9233548
_publ_section_title
;
Structure prediction by ZEFSAII (Michael W. Deem and Ramdas Pophale) SiO2 
 PCOD9233548
Probable space group: P 2/C
;
_chemical_formula_sum "Si O2"
_cell_formula_units_Z 32
_cell_length_a 7.560789
_cell_length_b 19.463798
_cell_length_c 12.164826
_cell_angle_alpha 90.000000
_cell_angle_beta 55.656354
_cell_angle_gamma 90.000000
_cell_volume 1478.109035
_symmetry_space_group_name_H-M "P 2/C"
_symmetry_group_IT_number 13
_symmetry_cell_setting 'monoclinic'
loop_
_space_group_symop_operation_xyz
x,y,z
-x,y,1/2-z
-x,-y,-z
x,-y,1/2+z
loop_
_atom_site_type_symbol
_atom_site_label
_atom_site_fract_x
_atom_site_fract_y
_atom_site_fract_z
Si Si1 0.453614 0.774393 0.493392
Si Si2 0.986465 0.262308 0.444851
Si Si3 0.747275 0.549999 0.156922
Si Si4 0.276363 0.691345 0.261106
Si Si5 0.424928 0.079446 0.899602
Si Si6 0.822456 0.967187 0.406667
Si Si7 0.312763 0.150125 0.390376
Si Si8 0.022114 0.591755 0.871208
O O1 0.217665 0.739883 0.567776
O O2 0.644902 0.728042 0.376320
O O3 0.414381 0.839907 0.427452
O O4 0.546427 0.803647 0.574345
O O5 0.884894 0.266780 0.603817
O O6 0.148321 0.198899 0.382756
O O7 0.106381 0.334578 0.382397
O O8 0.500000 0.537433 0.250000
O O9 0.805955 0.613063 0.217846
O O10 0.852884 0.477238 0.142385
O O11 0.805381 0.580449 0.016898
O O12 0.500000 0.686922 0.250000
O O13 0.500000 0.066925 0.750000
O O14 0.612447 0.051748 0.911034
O O15 0.217293 0.037207 0.011829
O O16 0.826929 0.904891 0.492516
O O17 0.000000 0.971780 0.250000
O O18 0.500000 0.116186 0.250000
O O19 0.000000 0.594133 0.750000
#
# Coordination Sequence:
#
# PCOD9233548 Si02
#       8
#     4   4   4   4   4   4   4   4
#     4  10  22  41  67  97 126 165 222 263 324 391
#     4  10  22  40  64  89 127 169 204 270 332 375
#     4   9  19  40  61  89 123 165 208 262 323 384
#     4   8  16  36  64  92 122 158 212 266 316 386
#     4  10  21  41  66  97 131 164 215 271 318 390
#     4  10  24  43  64  94 131 172 217 264 322 386
#     4  11  26  42  61  94 131 168 216 273 322 384
#     4  10  22  39  60  91 128 162 214 264 321 402
#
# _framework density 21.649283
#
# number of rings (size 3 to 8) (size 9 to 14) (size 15 to 20)
#    0.000    2.250    0.000    2.250    7.000    1.500 
#   13.500    0.000    0.000    0.000    0.000    0.000 
#    0.000    0.000    0.000    0.000    0.000    0.000 
#
# Total GULP energy -178504.604627 kJ/mol
# GULP energy per Si atom -5578.268895 kJ/mol
# Density = 2.160001 g / cm^3
# Si number density = 21.649283 Si / 1000 Ang^3
#
#
#
# Elastic Constant Matrix: (Units=GPa)
#
#
# Indices 1 2 3 4 5 6 
#
# 1 41.9876 12.1961 9.6437 0.0000 -1.0058 0.0000
# 2 12.1961 94.1254 51.1788 0.0000 -9.9224 0.0000
# 3 9.6437 51.1788 117.7295 0.0000 -11.6261 0.0000
# 4 0.0000 0.0000 0.0000 11.8332 0.0000 1.3633
# 5 -1.0058 -9.9224 -11.6261 0.0000 31.9411 0.0000
# 6 0.0000 0.0000 0.0000 1.3633 0.0000 23.5863
#
#
#
# Elastic Compliance Matrix: (Units=1/GPa)
#
#
# Indices 1 2 3 4 5 6 
#
# 1 0.024815 -0.002790 -0.000859 0.000000 -0.000398 0.000000
# 2 -0.002790 0.014377 -0.005797 0.000000 0.002268 0.000000
# 3 -0.000859 -0.005797 0.011311 0.000000 0.002289 0.000000
# 4 0.000000 0.000000 0.000000 0.085075 0.000000 -0.004917
# 5 -0.000398 0.002268 0.002289 0.000000 0.032833 0.000000
# 6 0.000000 0.000000 0.000000 -0.004917 0.000000 0.042682
#
#
# Mechanical properties :
#
#
# Convention : Reuss Voigt Hill
#
# Bulk Modulus (GPa) = 31.63636 44.43108 38.03372
# Shear Modulus (GPa) = 20.78820 25.52704 23.15762
#
# Velocity S-wave (km/s) = 3.10211 3.43755 3.27413
# Velocity P-wave (km/s) = 5.24172 6.02689 5.64797
#
# Compressibility (1/GPa) = 0.03160920
#
# Stress axis : x y z
#
# Youngs Moduli (GPa) = 40.29858 69.55575 88.41231
#
# Poissons Ratio (x) = 0.19408 0.07595
# Poissons Ratio (y) = 0.11244 0.51256
# Poissons Ratio (z) = 0.03462 0.40324
#
# Static dielectric constant tensor:
#      x y z
#    x 1.785800 0.000000 -0.022070 
#    y 0.000000 1.856980 0.000000 
#    z -0.022070 0.000000 1.847830 
# 
# From -- ./inp_files/30795.got.cif
#   From: 2010.05.17/outbox.cif.g08.bks.cpg/sg13_16_cif.got.tgz:30795.got - 2010.06.03 16:44:36.
