data_PCOD9233808
_publ_section_title
;
Structure prediction by ZEFSAII (Michael W. Deem and Ramdas Pophale) SiO2 
 PCOD9233808
Probable space group: P 2/C
;
_chemical_formula_sum "Si O2"
_cell_formula_units_Z 20
_cell_length_a 5.016282
_cell_length_b 8.013109
_cell_length_c 20.248585
_cell_angle_alpha 90.000000
_cell_angle_beta 83.539853
_cell_angle_gamma 90.000000
_cell_volume 808.744361
_symmetry_space_group_name_H-M "P 2/C"
_symmetry_group_IT_number 13
_symmetry_cell_setting 'monoclinic'
loop_
_space_group_symop_operation_xyz
x,y,z
-x,y,1/2-z
-x,-y,-z
x,-y,1/2+z
loop_
_atom_site_type_symbol
_atom_site_label
_atom_site_fract_x
_atom_site_fract_y
_atom_site_fract_z
Si Si1 0.974164 0.663448 0.365697
Si Si2 0.528330 0.828384 0.582483
Si Si3 0.713949 0.030606 0.689091
Si Si4 0.435218 0.662224 0.456458
Si Si5 0.026679 0.299422 0.347307
O O1 0.063667 0.828578 0.325077
O O2 0.150230 0.660033 0.428192
O O3 0.044193 0.490871 0.326731
O O4 0.665185 0.663161 0.394507
O O5 0.462501 0.813134 0.507929
O O6 0.799035 0.724527 0.590392
O O7 0.277529 0.747535 0.628171
O O8 0.583607 0.999701 0.620106
O O9 0.500000 0.074879 0.750000
O O10 0.833427 0.845612 0.699307
O O11 0.500000 0.500000 0.500000
#
# Coordination Sequence:
#
# PCOD9233808 Si02
#       5
#     4   4   4   4   4
#     4  12  24  40  72 101 132 175 220 272 342 400
#     4  10  22  41  67  93 132 176 206 266 345 387
#     4  10  27  47  66  94 137 175 235 282 319 387
#     4  12  21  40  69 102 140 167 211 281 336 414
#     4  10  21  43  64  98 128 173 218 260 342 391
#
# _framework density 24.729695
#
# number of rings (size 3 to 8) (size 9 to 14) (size 15 to 20)
#    1.200    0.000    4.000    1.800    2.800    3.200 
#    0.000    0.000    4.400    0.000    0.000    0.000 
#    0.000    0.000    0.000    0.000    0.000    0.000 
#
# Total GULP energy -111822.163228 kJ/mol
# GULP energy per Si atom -5591.108161 kJ/mol
# Density = 2.467341 g / cm^3
# Si number density = 24.729695 Si / 1000 Ang^3
#
#
#
# Elastic Constant Matrix: (Units=GPa)
#
#
# Indices 1 2 3 4 5 6 
#
# 1 82.6927 7.0275 -2.5836 0.0000 7.7571 0.0000
# 2 7.0275 110.9886 10.4467 0.0000 -23.5700 0.0000
# 3 -2.5836 10.4467 80.8940 0.0000 -3.4772 0.0000
# 4 0.0000 0.0000 0.0000 -153.9594 0.0000 -106.8858
# 5 7.7571 -23.5700 -3.4772 0.0000 49.3320 0.0000
# 6 0.0000 0.0000 0.0000 -106.8858 0.0000 -35.2658
#
#
#
# Elastic Compliance Matrix: (Units=1/GPa)
#
#
# Indices 1 2 3 4 5 6 
#
# 1 0.012468 -0.001383 0.000466 0.000000 -0.002588 0.000000
# 2 -0.001383 0.010278 -0.001155 0.000000 0.005047 0.000000
# 3 0.000466 -0.001155 0.012537 0.000000 0.000259 0.000000
# 4 0.000000 0.000000 0.000000 0.005882 0.000000 -0.017829
# 5 -0.002588 0.005047 0.000259 0.000000 0.023107 0.000000
# 6 0.000000 0.000000 0.000000 -0.017829 0.000000 0.025681
#
#
# Mechanical properties :
#
#
# Convention : Reuss Voigt Hill
#
# Bulk Modulus (GPa) = 32.11424 33.81737 32.96580
# Shear Modulus (GPa) = 47.85741 -10.66634 18.59553
#
# Velocity S-wave (km/s) = 4.40389 -2.07907 2.74515
# Velocity P-wave (km/s) = 6.23484 2.81800 4.83810
#
# Compressibility (1/GPa) = 0.03113884
#
# Stress axis : x y z
#
# Youngs Moduli (GPa) = 80.20630 97.29603 79.76422
#
# Poissons Ratio (x) = 0.13455 -0.03713
# Poissons Ratio (y) = 0.11092 0.09209
# Poissons Ratio (z) = -0.03734 0.11233
#
# Static dielectric constant tensor:
#      x y z
#    x 1.936740 0.000000 0.081230 
#    y 0.000000 2.037620 0.000000 
#    z 0.081230 0.000000 1.905950 
# 
# From -- ./inp_files/90045.got.cif
#   From: 2010.05.17/outbox.cif.g08.bks.cpg/sg13_46_cif.got.tgz:90045.got - 2010.06.03 16:44:36.
