data_PCOD9233117
_publ_section_title
;
Structure prediction by ZEFSAII (Michael W. Deem and Ramdas Pophale) SiO2 
 PCOD9233117
Probable space group: P 2/C
;
_chemical_formula_sum "Si O2"
_cell_formula_units_Z 22
_cell_length_a 25.469741
_cell_length_b 7.130192
_cell_length_c 15.198477
_cell_angle_alpha 90.000000
_cell_angle_beta 16.736110
_cell_angle_gamma 90.000000
_cell_volume 794.811608
_symmetry_space_group_name_H-M "P 2/C"
_symmetry_group_IT_number 13
_symmetry_cell_setting 'monoclinic'
loop_
_space_group_symop_operation_xyz
x,y,z
-x,y,1/2-z
-x,-y,-z
x,-y,1/2+z
loop_
_atom_site_type_symbol
_atom_site_label
_atom_site_fract_x
_atom_site_fract_y
_atom_site_fract_z
Si Si1 0.311114 0.132845 0.597756
Si Si2 0.217378 0.814001 0.058073
Si Si3 0.403416 0.302616 0.620281
Si Si4 0.699897 0.299034 0.351171
Si Si5 0.287410 0.390387 0.979343
Si Si6 0.000000 0.225856 0.750000
O O1 0.500000 0.200877 0.250000
O O2 0.194620 0.119339 0.694886
O O3 0.280217 0.269023 0.730289
O O4 0.336766 0.923569 0.592381
O O5 0.074946 0.883423 0.214215
O O6 0.420866 0.825316 0.688114
O O7 0.201358 0.587751 0.092442
O O8 0.500000 0.500000 0.500000
O O9 0.287430 0.256615 0.894250
O O10 0.504642 0.395705 0.654049
O O11 0.787973 0.334729 0.304708
O O12 0.833366 0.342145 0.056933
#
# Coordination Sequence:
#
# PCOD9233117 Si02
#       6
#     4   4   4   4   4   2
#     4  10  21  39  66 103 127 172 226 280 332 398
#     4  10  23  39  69  96 136 175 225 278 338 397
#     4   9  19  36  67 102 123 165 228 284 320 383
#     4  11  24  40  66 100 136 174 223 281 341 398
#     4  10  21  40  66  98 126 174 233 285 308 397
#     4  12  26  44  62  96 144 186 216 278 352 404
#
# _framework density 27.679514000000001
#
# number of rings (size 3 to 8) (size 9 to 14) (size 15 to 20)
#    0.000    1.818    3.636    0.000   12.727    3.636 
#    0.000    0.000    0.000    3.273    0.000    0.000 
#    0.000    0.000    0.000    0.000    0.000    0.000 
#
# Total GULP energy -122790.615278 kJ/mol
# GULP energy per Si atom -5581.391604 kJ/mol
# Density = 2.761651 g / cm^3
# Si number density = 27.679514 Si / 1000 Ang^3
#
#
#
# Elastic Constant Matrix: (Units=GPa)
#
#
# Indices 1 2 3 4 5 6 
#
# 1 290.8210 34.3805 42.5538 0.0000 20.9820 0.0000
# 2 34.3805 108.4846 8.9103 0.0000 -4.6005 0.0000
# 3 42.5538 8.9103 89.4172 0.0000 11.1375 0.0000
# 4 0.0000 0.0000 0.0000 15.7682 0.0000 2.0316
# 5 20.9820 -4.6005 11.1375 0.0000 55.0870 0.0000
# 6 0.0000 0.0000 0.0000 2.0316 0.0000 22.7098
#
#
#
# Elastic Compliance Matrix: (Units=1/GPa)
#
#
# Indices 1 2 3 4 5 6 
#
# 1 0.003898 -0.001159 -0.001582 0.000000 -0.001262 0.000000
# 2 -0.001159 0.009691 -0.000585 0.000000 0.001369 0.000000
# 3 -0.001582 -0.000585 0.012234 0.000000 -0.001920 0.000000
# 4 0.000000 0.000000 0.000000 0.064158 0.000000 -0.005740
# 5 -0.001262 0.001369 -0.001920 0.000000 0.019136 0.000000
# 6 0.000000 0.000000 0.000000 -0.005740 0.000000 0.044547
#
#
# Mechanical properties :
#
#
# Convention : Reuss Voigt Hill
#
# Bulk Modulus (GPa) = 52.16174 73.37912 62.77043
# Shear Modulus (GPa) = 29.99265 45.57155 37.78210
#
# Velocity S-wave (km/s) = 3.29533 4.06199 3.69858
# Velocity P-wave (km/s) = 5.77622 6.96904 6.40048
#
# Compressibility (1/GPa) = 0.01917114
#
# Stress axis : x y z
#
# Youngs Moduli (GPa) = 256.53378 103.18584 81.73941
#
# Poissons Ratio (x) = 0.11958 0.12935
# Poissons Ratio (y) = 0.29730 0.04779
# Poissons Ratio (z) = 0.40596 0.06033
#
# Static dielectric constant tensor:
#      x y z
#    x 2.354140 0.000000 0.020750 
#    y 0.000000 2.194410 0.000000 
#    z 0.020750 0.000000 2.277050 
# 
# From -- ./inp_files/58619.got.cif
#   From: 2010.05.17/outbox.cif.g08.bks.cpg/sg13_30_cif.got.tgz:58619.got - 2010.06.03 16:44:36.
