data_PCOD9233875
_publ_section_title
;
Structure prediction by ZEFSAII (Michael W. Deem and Ramdas Pophale) SiO2 
 PCOD9233875
Probable space group: P 2/C
;
_chemical_formula_sum "Si O2"
_cell_formula_units_Z 14
_cell_length_a 6.514751
_cell_length_b 16.832309
_cell_length_c 5.308833
_cell_angle_alpha 90.000000
_cell_angle_beta 101.424542
_cell_angle_gamma 90.000000
_cell_volume 570.622986
_symmetry_space_group_name_H-M "P 2/C"
_symmetry_group_IT_number 13
_symmetry_cell_setting 'monoclinic'
loop_
_space_group_symop_operation_xyz
x,y,z
-x,y,1/2-z
-x,-y,-z
x,-y,1/2+z
loop_
_atom_site_type_symbol
_atom_site_label
_atom_site_fract_x
_atom_site_fract_y
_atom_site_fract_z
Si Si1 0.500000 0.170447 0.250000
Si Si2 0.131490 0.273135 0.031610
Si Si3 0.237746 0.026268 0.121119
Si Si4 0.248167 0.453723 0.170966
O O1 0.357033 0.230553 0.055269
O O2 0.313059 0.107650 0.273343
O O3 0.169508 0.366791 0.077449
O O4 0.000000 0.247787 0.250000
O O5 0.000000 0.256804 0.750000
O O6 0.316189 0.965543 0.353467
O O7 0.000000 0.000000 0.000000
O O8 0.500000 0.448381 0.250000
O O9 0.191666 0.484474 0.435674
#
# Coordination Sequence:
#
# PCOD9233875 Si02
#       4
#     2   4   4   4
#     4  12  28  50  76 104 160 182 234 316 366 420
#     4  12  29  46  72 111 147 196 245 295 375 426
#     4  10  24  45  75 105 134 186 244 282 358 442
#     4  10  21  43  72 101 144 196 248 295 350 424
#
# _framework density 24.534587999999999
#
# number of rings (size 3 to 8) (size 9 to 14) (size 15 to 20)
#    0.000    1.143    1.429    2.571    8.000    6.857 
#    0.000    0.000    0.000    0.000    0.000    0.000 
#    0.000    0.000    0.000    0.000    0.000    0.000 
#
# Total GULP energy -77945.631973 kJ/mol
# GULP energy per Si atom -5567.545141 kJ/mol
# Density = 2.447875 g / cm^3
# Si number density = 24.534588 Si / 1000 Ang^3
#
#
#
# Elastic Constant Matrix: (Units=GPa)
#
#
# Indices 1 2 3 4 5 6 
#
# 1 135.7062 35.0499 77.7856 0.0000 19.0091 0.0000
# 2 35.0499 120.5035 38.2179 0.0000 24.8310 0.0000
# 3 77.7856 38.2179 239.4128 0.0000 25.7044 0.0000
# 4 0.0000 0.0000 0.0000 -0.3780 0.0000 26.7201
# 5 19.0091 24.8310 25.7044 0.0000 67.9987 0.0000
# 6 0.0000 0.0000 0.0000 26.7201 0.0000 49.8218
#
#
#
# Elastic Compliance Matrix: (Units=1/GPa)
#
#
# Indices 1 2 3 4 5 6 
#
# 1 0.009501 -0.001696 -0.002707 0.000000 -0.001013 0.000000
# 2 -0.001696 0.009578 -0.000681 0.000000 -0.002766 0.000000
# 3 -0.002707 -0.000681 0.005271 0.000000 -0.000987 0.000000
# 4 0.000000 0.000000 0.000000 -0.067989 0.000000 0.036463
# 5 -0.001013 -0.002766 -0.000987 0.000000 0.016373 0.000000
# 6 0.000000 0.000000 0.000000 0.036463 0.000000 0.000516
#
#
# Mechanical properties :
#
#
# Convention : Reuss Voigt Hill
#
# Bulk Modulus (GPa) = 70.51594 88.63658 79.57626
# Shear Modulus (GPa) = -421.74081 46.45978 -187.64051
#
# Velocity S-wave (km/s) = -13.12515 4.35632 -8.75477
# Velocity P-wave (km/s) = 14.17353 7.84277 8.34805
#
# Compressibility (1/GPa) = 0.01418119
#
# Stress axis : x y z
#
# Youngs Moduli (GPa) = 105.25666 104.40893 189.71198
#
# Poissons Ratio (x) = 0.17708 0.51360
# Poissons Ratio (y) = 0.17851 0.12918
# Poissons Ratio (z) = 0.28496 0.07109
#
# Static dielectric constant tensor:
#      x y z
#    x 2.412030 0.000000 -0.121150 
#    y 0.000000 1.954600 0.000000 
#    z -0.121150 0.000000 1.917530 
# 
# From -- ./inp_files/1041.got.cif
#   From: 2010.05.17/outbox.cif.g08.bks.cpg/sg13_1_cif.got.tgz:1041.got - 2010.06.03 16:44:36.
