data_PCOD9233360
_publ_section_title
;
Structure prediction by ZEFSAII (Michael W. Deem and Ramdas Pophale) SiO2 
 PCOD9233360
Probable space group: P 2/C
;
_chemical_formula_sum "Si O2"
_cell_formula_units_Z 32
_cell_length_a 25.229122
_cell_length_b 5.198021
_cell_length_c 14.349504
_cell_angle_alpha 90.000000
_cell_angle_beta 129.807262
_cell_angle_gamma 90.000000
_cell_volume 1445.615207
_symmetry_space_group_name_H-M "P 2/C"
_symmetry_group_IT_number 13
_symmetry_cell_setting 'monoclinic'
loop_
_space_group_symop_operation_xyz
x,y,z
-x,y,1/2-z
-x,-y,-z
x,-y,1/2+z
loop_
_atom_site_type_symbol
_atom_site_label
_atom_site_fract_x
_atom_site_fract_y
_atom_site_fract_z
Si Si1 0.358226 0.163867 0.907694
Si Si2 0.779697 0.056739 0.320583
Si Si3 0.063915 0.435055 0.388316
Si Si4 0.934141 0.065957 0.488115
Si Si5 0.558381 0.466610 0.645801
Si Si6 0.783770 0.554818 0.451287
Si Si7 0.548284 0.123543 0.869867
Si Si8 0.648273 0.521714 0.907347
O O1 0.287370 0.010110 0.815382
O O2 0.380346 0.321412 0.841448
O O3 0.356066 0.325745 0.000878
O O4 0.423743 0.985316 0.002155
O O5 0.855913 0.038939 0.359709
O O6 0.778503 0.835940 0.398933
O O7 0.773956 0.337365 0.360410
O O8 0.062885 0.145930 0.426484
O O9 0.138261 0.477155 0.424714
O O10 0.000000 0.478455 0.250000
O O11 0.060254 0.645074 0.466643
O O12 0.000000 0.000000 0.500000
O O13 0.500000 0.500000 0.500000
O O14 0.508682 0.328942 0.664120
O O15 0.605368 0.637279 0.770294
O O16 0.726172 0.511718 0.463085
O O17 0.500000 0.945853 0.750000
O O18 0.614554 0.245325 0.894424
#
# Coordination Sequence:
#
# PCOD9233360 Si02
#       8
#     4   4   4   4   4   4   4   4
#     4  12  25  40  68  92 127 178 225 280 339 414
#     4  10  24  43  67  97 131 184 219 264 346 401
#     4  10  21  40  66  99 132 180 220 265 336 396
#     4  10  21  41  66  99 137 174 222 277 323 395
#     4  11  23  43  65  87 127 173 215 283 349 397
#     4  10  23  44  66  92 140 175 218 275 334 400
#     4  10  25  41  59  95 123 160 226 278 334 400
#     4  11  25  42  62  95 128 165 226 280 327 405
#
# _framework density 22.135905000000001
#
# number of rings (size 3 to 8) (size 9 to 14) (size 15 to 20)
#    0.000    1.500    2.500    1.125    7.000    1.000 
#    2.250    0.000    0.000    0.000    0.000    0.000 
#    0.000    0.000    0.000    0.000    0.000    0.000 
#
# Total GULP energy -178368.268705 kJ/mol
# GULP energy per Si atom -5574.008397 kJ/mol
# Density = 2.208552 g / cm^3
# Si number density = 22.135905 Si / 1000 Ang^3
#
#
#
# Elastic Constant Matrix: (Units=GPa)
#
#
# Indices 1 2 3 4 5 6 
#
# 1 147.7072 -3.0703 35.0502 0.0000 22.5554 0.0000
# 2 -3.0703 33.6325 -2.2464 0.0000 -0.8280 0.0000
# 3 35.0502 -2.2464 129.1226 0.0000 23.4802 0.0000
# 4 0.0000 0.0000 0.0000 20.3351 0.0000 7.1871
# 5 22.5554 -0.8280 23.4802 0.0000 32.3485 0.0000
# 6 0.0000 0.0000 0.0000 7.1871 0.0000 18.4890
#
#
#
# Elastic Compliance Matrix: (Units=1/GPa)
#
#
# Indices 1 2 3 4 5 6 
#
# 1 0.007769 0.000513 -0.001287 0.000000 -0.004469 0.000000
# 2 0.000513 0.029807 0.000352 0.000000 0.000150 0.000000
# 3 -0.001287 0.000352 0.009142 0.000000 -0.005729 0.000000
# 4 0.000000 0.000000 0.000000 0.057008 0.000000 -0.022160
# 5 -0.004469 0.000150 -0.005729 0.000000 0.038192 0.000000
# 6 0.000000 0.000000 0.000000 -0.022160 0.000000 0.062700
#
#
# Mechanical properties :
#
#
# Convention : Reuss Voigt Hill
#
# Bulk Modulus (GPa) = 21.79876 41.10323 31.45100
# Shear Modulus (GPa) = 22.64970 32.94978 27.79974
#
# Velocity S-wave (km/s) = 3.20224 3.86232 3.54766
# Velocity P-wave (km/s) = 4.85196 6.20475 5.56958
#
# Compressibility (1/GPa) = 0.04587417
#
# Stress axis : x y z
#
# Youngs Moduli (GPa) = 128.72080 33.54890 109.38631
#
# Poissons Ratio (x) = -0.01722 0.14080
# Poissons Ratio (y) = -0.06606 -0.03851
# Poissons Ratio (z) = 0.16568 -0.01181
#
# Static dielectric constant tensor:
#      x y z
#    x 1.790050 0.000000 -0.036400 
#    y 0.000000 1.949680 0.000000 
#    z -0.036400 0.000000 1.918300 
# 
# From -- ./inp_files/58223.got.cif
#   From: 2010.05.17/outbox.cif.g08.bks.cpg/sg13_30_cif.got.tgz:58223.got - 2010.06.03 16:44:36.
