data_PCOD9233107
_publ_section_title
;
Structure prediction by ZEFSAII (Michael W. Deem and Ramdas Pophale) SiO2 
 PCOD9233107
Probable space group: P 2/C
;
_chemical_formula_sum "Si O2"
_cell_formula_units_Z 28
_cell_length_a 15.774017
_cell_length_b 5.578893
_cell_length_c 14.462608
_cell_angle_alpha 90.000000
_cell_angle_beta 69.492948
_cell_angle_gamma 90.000000
_cell_volume 1192.077767
_symmetry_space_group_name_H-M "P 2/C"
_symmetry_group_IT_number 13
_symmetry_cell_setting 'monoclinic'
loop_
_space_group_symop_operation_xyz
x,y,z
-x,y,1/2-z
-x,-y,-z
x,-y,1/2+z
loop_
_atom_site_type_symbol
_atom_site_label
_atom_site_fract_x
_atom_site_fract_y
_atom_site_fract_z
Si Si1 0.289866 0.019217 0.035983
Si Si2 0.116110 0.479543 0.046967
Si Si3 0.803387 0.388825 0.305437
Si Si4 0.345062 0.283128 0.685692
Si Si5 0.522757 0.749860 0.044517
Si Si6 0.789395 0.114320 0.610979
Si Si7 0.937586 0.776531 0.600994
O O1 0.370567 0.208920 0.979868
O O2 0.247183 0.938366 0.955532
O O3 0.216163 0.151731 0.127999
O O4 0.329666 0.819687 0.088196
O O5 0.155485 0.559177 0.130208
O O6 0.039514 0.273586 0.093113
O O7 0.191423 0.356211 0.953247
O O8 0.069614 0.677989 0.000946
O O9 0.706805 0.464609 0.300085
O O10 0.874556 0.367661 0.196672
O O11 0.452431 0.268442 0.656869
O O12 0.286313 0.139565 0.782448
O O13 0.500000 0.500000 0.000000
O O14 0.500000 0.000000 0.000000
O O15 0.884600 0.028064 0.617180
#
# Coordination Sequence:
#
# PCOD9233107 Si02
#       7
#     4   4   4   4   4   4   4
#     4  10  22  39  60  88 121 163 204 259 316 386
#     4  10  23  37  58  86 118 160 202 266 314 388
#     4  11  20  37  61  85 117 159 206 249 323 386
#     4  11  21  38  63  87 124 162 208 259 324 386
#     4  10  21  39  65  95 129 170 210 265 323 384
#     4  11  22  38  61  88 119 161 212 256 320 384
#     4  11  21  39  59  84 123 156 207 261 323 378
#
# _framework density 23.488399000000001
#
# number of rings (size 3 to 8) (size 9 to 14) (size 15 to 20)
#    0.000    1.429    4.286    1.714    0.000    0.571 
#    0.000    0.000    0.000    1.714    0.000    0.000 
#    0.000    0.000    0.000    0.000    0.000    0.000 
#
# Total GULP energy -156119.027435 kJ/mol
# GULP energy per Si atom -5575.679551 kJ/mol
# Density = 2.343494 g / cm^3
# Si number density = 23.488399 Si / 1000 Ang^3
#
#
#
# Elastic Constant Matrix: (Units=GPa)
#
#
# Indices 1 2 3 4 5 6 
#
# 1 92.5193 10.4028 39.4040 0.0000 -21.8453 0.0000
# 2 10.4028 54.8935 20.2599 0.0000 -3.2508 0.0000
# 3 39.4040 20.2599 119.2049 0.0000 -22.3852 0.0000
# 4 0.0000 0.0000 0.0000 25.5868 0.0000 -5.3199
# 5 -21.8453 -3.2508 -22.3852 0.0000 44.6346 0.0000
# 6 0.0000 0.0000 0.0000 -5.3199 0.0000 35.5094
#
#
#
# Elastic Compliance Matrix: (Units=1/GPa)
#
#
# Indices 1 2 3 4 5 6 
#
# 1 0.013507 -0.001025 -0.003382 0.000000 0.004840 0.000000
# 2 -0.001025 0.019517 -0.003097 0.000000 -0.000633 0.000000
# 3 -0.003382 -0.003097 0.010686 0.000000 0.003479 0.000000
# 4 0.000000 0.000000 0.000000 0.040339 0.000000 0.006044
# 5 0.004840 -0.000633 0.003479 0.000000 0.026471 0.000000
# 6 0.000000 0.000000 0.000000 0.006044 0.000000 0.029067
#
#
# Mechanical properties :
#
#
# Convention : Reuss Voigt Hill
#
# Bulk Modulus (GPa) = 34.84020 45.19458 40.01739
# Shear Modulus (GPa) = 30.45753 34.24957 32.35355
#
# Velocity S-wave (km/s) = 3.60489 3.82271 3.71540
# Velocity P-wave (km/s) = 5.67381 6.22633 5.95648
#
# Compressibility (1/GPa) = 0.02870247
#
# Stress axis : x y z
#
# Youngs Moduli (GPa) = 74.03654 51.23762 93.57654
#
# Poissons Ratio (x) = 0.05251 0.31645
# Poissons Ratio (y) = 0.07588 0.28983
# Poissons Ratio (z) = 0.25037 0.15869
#
# Static dielectric constant tensor:
#      x y z
#    x 2.001140 0.000000 -0.004580 
#    y 0.000000 2.034910 0.000000 
#    z -0.004580 0.000000 1.876700 
# 
# From -- ./inp_files/54398.got.cif
#   From: 2010.05.17/outbox.cif.g08.bks.cpg/sg13_28_cif.got.tgz:54398.got - 2010.06.03 16:44:36.
