data_PCOD9233956
_publ_section_title
;
Structure prediction by ZEFSAII (Michael W. Deem and Ramdas Pophale) SiO2 
 PCOD9233956
Probable space group: P 2/C
;
_chemical_formula_sum "Si O2"
_cell_formula_units_Z 20
_cell_length_a 9.398771
_cell_length_b 7.161110
_cell_length_c 27.377396
_cell_angle_alpha 90.000000
_cell_angle_beta 27.755944
_cell_angle_gamma 90.000000
_cell_volume 858.135148
_symmetry_space_group_name_H-M "P 2/C"
_symmetry_group_IT_number 13
_symmetry_cell_setting 'monoclinic'
loop_
_space_group_symop_operation_xyz
x,y,z
-x,y,1/2-z
-x,-y,-z
x,-y,1/2+z
loop_
_atom_site_type_symbol
_atom_site_label
_atom_site_fract_x
_atom_site_fract_y
_atom_site_fract_z
Si Si1 0.304001 0.175034 0.542342
Si Si2 0.677586 0.325929 0.862165
Si Si3 0.509455 0.704721 0.622381
Si Si4 0.361315 0.984824 0.244175
Si Si5 0.853275 0.205323 0.540240
O O1 0.323380 0.330637 0.579054
O O2 0.416390 0.231888 0.455067
O O3 0.500000 0.000000 0.500000
O O4 0.960339 0.101660 0.645451
O O5 0.674345 0.514774 0.830798
O O6 0.353740 0.234548 0.944624
O O7 0.000000 0.226579 0.750000
O O8 0.351433 0.864515 0.703136
O O9 0.844183 0.671619 0.544891
O O10 0.500000 0.081682 0.250000
O O11 0.588672 0.813498 0.161295
O O12 0.000000 0.000000 0.500000
#
# Coordination Sequence:
#
# PCOD9233956 Si02
#       5
#     4   4   4   4   4
#     4  12  26  43  75 103 144 186 242 292 357 430
#     4  12  26  45  70 108 153 180 229 311 369 416
#     4  11  26  45  72 105 147 189 237 295 363 428
#     4  11  23  45  74 106 136 194 252 290 345 432
#     4  10  21  45  73  97 135 192 238 280 348 434
#
# _framework density 23.306352
#
# number of rings (size 3 to 8) (size 9 to 14) (size 15 to 20)
#    0.000    0.800    4.000    3.600    5.600    0.000 
#    0.000    1.000    0.000    0.000    0.000    0.000 
#    0.000    0.000    0.000    0.000    0.000    0.000 
#
# Total GULP energy -111655.669961 kJ/mol
# GULP energy per Si atom -5582.783498 kJ/mol
# Density = 2.325331 g / cm^3
# Si number density = 23.306352 Si / 1000 Ang^3
#
#
#
# Elastic Constant Matrix: (Units=GPa)
#
#
# Indices 1 2 3 4 5 6 
#
# 1 159.6449 28.9442 34.8477 0.0000 2.8980 0.0000
# 2 28.9442 46.7168 -4.8051 0.0000 -3.4992 0.0000
# 3 34.8477 -4.8051 61.7804 0.0000 -10.5640 0.0000
# 4 0.0000 0.0000 0.0000 27.0317 0.0000 3.2957
# 5 2.8980 -3.4992 -10.5640 0.0000 60.0866 0.0000
# 6 0.0000 0.0000 0.0000 3.2957 0.0000 36.2645
#
#
#
# Elastic Compliance Matrix: (Units=1/GPa)
#
#
# Indices 1 2 3 4 5 6 
#
# 1 0.008624 -0.006055 -0.005636 0.000000 -0.001759 0.000000
# 2 -0.006055 0.025979 0.005922 0.000000 0.002846 0.000000
# 3 -0.005636 0.005922 0.020549 0.000000 0.004230 0.000000
# 4 0.000000 0.000000 0.000000 0.037408 0.000000 -0.003400
# 5 -0.001759 0.002846 0.004230 0.000000 0.017637 0.000000
# 6 0.000000 0.000000 0.000000 -0.003400 0.000000 0.027884
#
#
# Mechanical properties :
#
#
# Convention : Reuss Voigt Hill
#
# Bulk Modulus (GPa) = 22.92756 42.90175 32.91465
# Shear Modulus (GPa) = 30.45877 38.62022 34.53950
#
# Velocity S-wave (km/s) = 3.61901 4.07513 3.85382
# Velocity P-wave (km/s) = 5.22703 6.37102 5.82717
#
# Compressibility (1/GPa) = 0.04361564
#
# Stress axis : x y z
#
# Youngs Moduli (GPa) = 115.95818 38.49253 48.66353
#
# Poissons Ratio (x) = 0.23305 0.27427
# Poissons Ratio (y) = 0.70207 -0.28820
# Poissons Ratio (z) = 0.65355 -0.22797
#
# Static dielectric constant tensor:
#      x y z
#    x 1.889650 0.000000 0.078980 
#    y 0.000000 1.976190 0.000000 
#    z 0.078980 0.000000 1.711740 
# 
# From -- ./inp_files/91187.got.cif
#   From: 2010.05.17/outbox.cif.g08.bks.cpg/sg13_46_cif.got.tgz:91187.got - 2010.06.03 16:44:36.
