data_PCOD9233059
_publ_section_title
;
Structure prediction by ZEFSAII (Michael W. Deem and Ramdas Pophale) SiO2 
 PCOD9233059
Probable space group: P 2/C
;
_chemical_formula_sum "Si O2"
_cell_formula_units_Z 18
_cell_length_a 10.269891
_cell_length_b 16.263183
_cell_length_c 5.317266
_cell_angle_alpha 90.000000
_cell_angle_beta 77.239882
_cell_angle_gamma 90.000000
_cell_volume 866.162700
_symmetry_space_group_name_H-M "P 2/C"
_symmetry_group_IT_number 13
_symmetry_cell_setting 'monoclinic'
loop_
_space_group_symop_operation_xyz
x,y,z
-x,y,1/2-z
-x,-y,-z
x,-y,1/2+z
loop_
_atom_site_type_symbol
_atom_site_label
_atom_site_fract_x
_atom_site_fract_y
_atom_site_fract_z
Si Si1 0.631131 0.197387 0.081365
Si Si2 0.763365 0.322959 0.418474
Si Si3 0.500000 0.675013 0.250000
Si Si4 0.136632 0.171341 0.848783
Si Si5 0.000000 0.056656 0.250000
Si Si6 0.000000 0.445343 0.250000
O O1 0.500000 0.152627 0.250000
O O2 0.712175 0.254120 0.243384
O O3 0.562472 0.264279 0.929085
O O4 0.736883 0.145279 0.874330
O O5 0.629380 0.367618 0.577275
O O6 0.835759 0.266202 0.596246
O O7 0.870629 0.387314 0.282306
O O8 0.000000 0.164832 0.750000
O O9 0.117527 0.119054 0.112884
O O10 0.000000 0.000000 0.500000
O O11 0.000000 0.500000 0.500000
#
# Coordination Sequence:
#
# PCOD9233059 Si02
#       6
#     4   4   2   4   2   2
#     4   9  18  35  63  96 120 153 207 270 312 361
#     4  10  21  39  64  90 123 156 216 253 312 370
#     4   8  18  34  64  88 116 154 202 268 302 366
#     4  11  21  37  66  95 121 166 209 263 306 362
#     4  12  25  40  57  92 134 170 208 252 307 372
#     4  12  29  42  59  90 130 170 202 258 317 366
#
# _framework density 20.781313999999998
#
# number of rings (size 3 to 8) (size 9 to 14) (size 15 to 20)
#    0.000    1.778    1.111    3.333    7.778    0.000 
#    0.000    1.111    0.000    1.333    0.000    0.000 
#    0.000    0.000    0.000    0.000    0.000    0.000 
#
# Total GULP energy -100246.631123 kJ/mol
# GULP energy per Si atom -5569.257285 kJ/mol
# Density = 2.073402 g / cm^3
# Si number density = 20.781314 Si / 1000 Ang^3
#
#
#
# Elastic Constant Matrix: (Units=GPa)
#
#
# Indices 1 2 3 4 5 6 
#
# 1 145.9645 46.7799 71.1331 0.0000 -37.7358 0.0000
# 2 46.7799 59.8054 38.1339 0.0000 -21.9820 0.0000
# 3 71.1331 38.1339 133.5722 0.0000 -36.5128 0.0000
# 4 0.0000 0.0000 0.0000 28.5390 0.0000 -7.1748
# 5 -37.7358 -21.9820 -36.5128 0.0000 66.6032 0.0000
# 6 0.0000 0.0000 0.0000 -7.1748 0.0000 -1.2205
#
#
#
# Elastic Compliance Matrix: (Units=1/GPa)
#
#
# Indices 1 2 3 4 5 6 
#
# 1 0.010981 -0.005363 -0.003646 0.000000 0.002453 0.000000
# 2 -0.005363 0.024097 -0.003153 0.000000 0.003186 0.000000
# 3 -0.003646 -0.003153 0.011150 0.000000 0.003006 0.000000
# 4 0.000000 0.000000 0.000000 0.014141 0.000000 -0.083129
# 5 0.002453 0.003186 0.003006 0.000000 0.019104 0.000000
# 6 0.000000 0.000000 0.000000 -0.083129 0.000000 -0.330660
#
#
# Mechanical properties :
#
#
# Convention : Reuss Voigt Hill
#
# Bulk Modulus (GPa) = 45.65225 72.38179 59.01702
# Shear Modulus (GPa) = -22.77255 31.00402 4.11573
#
# Velocity S-wave (km/s) = -3.31391 3.86673 1.40883
# Velocity P-wave (km/s) = 2.71532 7.40549 5.57738
#
# Compressibility (1/GPa) = 0.02190473
#
# Stress axis : x y z
#
# Youngs Moduli (GPa) = 91.06947 41.49900 89.68414
#
# Poissons Ratio (x) = 0.22254 0.32701
# Poissons Ratio (y) = 0.48837 0.28274
# Poissons Ratio (z) = 0.33206 0.13083
#
# Static dielectric constant tensor:
#      x y z
#    x 1.537550 0.000000 -0.169740 
#    y 0.000000 1.712080 0.000000 
#    z -0.169740 0.000000 1.814470 
# 
# From -- ./inp_files/1561.got.cif
#   From: 2010.05.17/outbox.cif.g08.bks.cpg/sg13_1_cif.got.tgz:1561.got - 2010.06.03 16:44:36.
