data_PCOD9233580
_publ_section_title
;
Structure prediction by ZEFSAII (Michael W. Deem and Ramdas Pophale) SiO2 
 PCOD9233580
Probable space group: P 2/C
;
_chemical_formula_sum "Si O2"
_cell_formula_units_Z 24
_cell_length_a 18.199352
_cell_length_b 9.338895
_cell_length_c 17.434184
_cell_angle_alpha 90.000000
_cell_angle_beta 156.138803
_cell_angle_gamma 90.000000
_cell_volume 1198.658686
_symmetry_space_group_name_H-M "P 2/C"
_symmetry_group_IT_number 13
_symmetry_cell_setting 'monoclinic'
loop_
_space_group_symop_operation_xyz
x,y,z
-x,y,1/2-z
-x,-y,-z
x,-y,1/2+z
loop_
_atom_site_type_symbol
_atom_site_label
_atom_site_fract_x
_atom_site_fract_y
_atom_site_fract_z
Si Si1 0.500000 0.528041 0.250000
Si Si2 0.155336 0.350906 0.336891
Si Si3 0.668806 0.718244 0.807514
Si Si4 0.500000 0.049812 0.250000
Si Si5 0.623355 0.810294 0.098614
Si Si6 0.355062 0.104160 0.463331
Si Si7 0.952406 0.401519 0.882291
O O1 0.656983 0.618933 0.439599
O O2 0.407442 0.424465 0.224608
O O3 0.195732 0.219213 0.318722
O O4 0.103068 0.493027 0.240021
O O5 0.000000 0.318140 0.250000
O O6 0.643605 0.845523 0.844959
O O7 0.538346 0.759895 0.612495
O O8 0.872344 0.689606 0.975204
O O9 0.596566 0.957329 0.407184
O O10 0.786172 0.700317 0.245814
O O11 0.684589 0.967631 0.128516
O O12 0.532797 0.822796 0.095429
O O13 0.000000 0.500000 0.000000
#
# Coordination Sequence:
#
# PCOD9233580 Si02
#       7
#     2   4   4   2   4   4   4
#     4  11  21  40  66  92 136 168 212 276 320 390
#     4  12  25  40  64 102 133 166 219 274 334 382
#     4  10  21  41  68  96 124 175 219 268 327 385
#     4   9  21  42  68  92 124 174 228 264 328 386
#     4  10  23  46  66  90 134 176 223 262 327 400
#     4  10  23  42  66  93 129 178 214 274 329 384
#     4  12  26  40  66 102 131 171 219 268 327 396
#
# _framework density 20.022379000000001
#
# number of rings (size 3 to 8) (size 9 to 14) (size 15 to 20)
#    0.000    1.333    3.333    1.500    2.333    4.000 
#    0.000   11.667    0.000    0.000    0.000    0.000 
#    0.000    0.000    0.000    0.000    0.000    0.000 
#
# Total GULP energy -134225.381496 kJ/mol
# GULP energy per Si atom -5592.724229 kJ/mol
# Density = 1.997681 g / cm^3
# Si number density = 20.022379 Si / 1000 Ang^3
#
#
#
# Elastic Constant Matrix: (Units=GPa)
#
#
# Indices 1 2 3 4 5 6 
#
# 1 112.6303 50.9259 58.1148 0.0000 27.4349 0.0000
# 2 50.9259 109.5055 54.5470 0.0000 30.3862 0.0000
# 3 58.1148 54.5470 110.0751 0.0000 21.4108 0.0000
# 4 0.0000 0.0000 0.0000 -35.6211 0.0000 13.5189
# 5 27.4349 30.3862 21.4108 0.0000 31.7849 0.0000
# 6 0.0000 0.0000 0.0000 13.5189 0.0000 25.7225
#
#
#
# Elastic Compliance Matrix: (Units=1/GPa)
#
#
# Indices 1 2 3 4 5 6 
#
# 1 0.014106 -0.002184 -0.005067 0.000000 -0.006675 0.000000
# 2 -0.002184 0.014976 -0.004431 0.000000 -0.009447 0.000000
# 3 -0.005067 -0.004431 0.014133 0.000000 -0.000911 0.000000
# 4 0.000000 0.000000 0.000000 -0.023405 0.000000 0.012301
# 5 -0.006675 -0.009447 -0.000911 0.000000 0.046868 0.000000
# 6 0.000000 0.000000 0.000000 0.012301 0.000000 0.032412
#
#
# Mechanical properties :
#
#
# Convention : Reuss Voigt Hill
#
# Bulk Modulus (GPa) = 50.37336 73.26516 61.81926
# Shear Modulus (GPa) = 38.73856 15.61881 27.17868
#
# Velocity S-wave (km/s) = 4.40337 2.79600 3.68831
# Velocity P-wave (km/s) = 7.14605 6.86255 7.00573
#
# Compressibility (1/GPa) = 0.01985176
#
# Stress axis : x y z
#
# Youngs Moduli (GPa) = 70.88959 66.77258 70.75872
#
# Poissons Ratio (x) = 0.14584 0.35853
# Poissons Ratio (y) = 0.15484 0.31350
# Poissons Ratio (z) = 0.35919 0.29584
#
# Static dielectric constant tensor:
#      x y z
#    x 1.711950 0.000000 -0.019120 
#    y 0.000000 1.719020 0.000000 
#    z -0.019120 0.000000 1.667940 
# 
# From -- ./inp_files/81738.got.cif
#   From: 2010.05.17/outbox.cif.g08.bks.cpg/sg13_41_cif.got.tgz:81738.got - 2010.06.03 16:44:36.
