data_PCOD9233560
_publ_section_title
;
Structure prediction by ZEFSAII (Michael W. Deem and Ramdas Pophale) SiO2 
 PCOD9233560
Probable space group: P 2/C
;
_chemical_formula_sum "Si O2"
_cell_formula_units_Z 18
_cell_length_a 7.165691
_cell_length_b 6.967543
_cell_length_c 16.576300
_cell_angle_alpha 90.000000
_cell_angle_beta 84.163488
_cell_angle_gamma 90.000000
_cell_volume 823.319006
_symmetry_space_group_name_H-M "P 2/C"
_symmetry_group_IT_number 13
_symmetry_cell_setting 'monoclinic'
loop_
_space_group_symop_operation_xyz
x,y,z
-x,y,1/2-z
-x,-y,-z
x,-y,1/2+z
loop_
_atom_site_type_symbol
_atom_site_label
_atom_site_fract_x
_atom_site_fract_y
_atom_site_fract_z
Si Si1 0.733331 0.670411 0.935207
Si Si2 0.070123 0.521734 0.833069
Si Si3 0.565425 0.372498 0.616884
Si Si4 0.616890 0.979969 0.814559
Si Si5 0.000000 0.846834 0.250000
O O1 0.614569 0.495688 0.901400
O O2 0.951333 0.629905 0.906054
O O3 0.658932 0.857160 0.891883
O O4 0.683231 0.675510 0.031034
O O5 0.291712 0.500826 0.836236
O O6 0.000000 0.604529 0.750000
O O7 0.009240 0.298323 0.825672
O O8 0.493875 0.176102 0.659448
O O9 0.500000 0.875191 0.750000
O O10 0.814356 0.033469 0.766484
#
# Coordination Sequence:
#
# PCOD9233560 Si02
#       5
#     4   4   4   4   2
#     4  11  26  39  69  98 129 171 222 267 335 395
#     4  10  21  41  67  91 130 171 209 267 321 384
#     4  11  23  47  63  95 135 171 212 279 331 388
#     4  12  24  41  67  96 130 175 222 272 326 391
#     4  10  22  38  64  90 126 164 216 270 316 376
#
# _framework density 21.862729000000002
#
# number of rings (size 3 to 8) (size 9 to 14) (size 15 to 20)
#    0.667    0.444    4.444    1.333    4.667    0.000 
#    0.000    1.111    0.000    0.000    0.000    0.000 
#    0.000    0.000    0.000    0.000    0.000    0.000 
#
# Total GULP energy -100563.100880 kJ/mol
# GULP energy per Si atom -5586.838938 kJ/mol
# Density = 2.181297 g / cm^3
# Si number density = 21.862729 Si / 1000 Ang^3
#
#
#
# Elastic Constant Matrix: (Units=GPa)
#
#
# Indices 1 2 3 4 5 6 
#
# 1 96.0031 32.0641 31.6280 0.0000 -9.9589 0.0000
# 2 32.0641 74.5423 34.8373 0.0000 -8.7032 0.0000
# 3 31.6280 34.8373 76.5669 0.0000 -5.4594 0.0000
# 4 0.0000 0.0000 0.0000 19.8620 0.0000 -8.8688
# 5 -9.9589 -8.7032 -5.4594 0.0000 33.1842 0.0000
# 6 0.0000 0.0000 0.0000 -8.8688 0.0000 0.8538
#
#
#
# Elastic Compliance Matrix: (Units=1/GPa)
#
#
# Indices 1 2 3 4 5 6 
#
# 1 0.013062 -0.003682 -0.003551 0.000000 0.002370 0.000000
# 2 -0.003682 0.018426 -0.006675 0.000000 0.002629 0.000000
# 3 -0.003551 -0.006675 0.017570 0.000000 0.000074 0.000000
# 4 0.000000 0.000000 0.000000 -0.013838 0.000000 -0.143747
# 5 0.002370 0.002629 0.000074 0.000000 0.031548 0.000000
# 6 0.000000 0.000000 0.000000 -0.143747 0.000000 -0.321926
#
#
# Mechanical properties :
#
#
# Convention : Reuss Voigt Hill
#
# Bulk Modulus (GPa) = 47.07989 49.35235 48.21612
# Shear Modulus (GPa) = -22.70019 20.68553 -1.00733
#
# Velocity S-wave (km/s) = -3.22577 3.07930 -0.67952
# Velocity P-wave (km/s) = 2.77614 5.93848 4.63532
#
# Compressibility (1/GPa) = 0.02124049
#
# Stress axis : x y z
#
# Youngs Moduli (GPa) = 76.55831 54.27235 56.91593
#
# Poissons Ratio (x) = 0.19984 0.20212
# Poissons Ratio (y) = 0.28190 0.37991
# Poissons Ratio (z) = 0.27188 0.36227
#
# Static dielectric constant tensor:
#      x y z
#    x 1.820300 0.000000 0.040900 
#    y 0.000000 1.778350 0.000000 
#    z 0.040900 0.000000 1.804550 
# 
# From -- ./inp_files/60655.got.cif
#   From: 2010.05.17/outbox.cif.g08.bks.cpg/sg13_31_cif.got.tgz:60655.got - 2010.06.03 16:44:36.
