data_PCOD9233883
_publ_section_title
;
Structure prediction by ZEFSAII (Michael W. Deem and Ramdas Pophale) SiO2 
 PCOD9233883
Probable space group: P 2/C
;
_chemical_formula_sum "Si O2"
_cell_formula_units_Z 26
_cell_length_a 8.283675
_cell_length_b 8.532870
_cell_length_c 16.770641
_cell_angle_alpha 90.000000
_cell_angle_beta 83.192767
_cell_angle_gamma 90.000000
_cell_volume 1177.051500
_symmetry_space_group_name_H-M "P 2/C"
_symmetry_group_IT_number 13
_symmetry_cell_setting 'monoclinic'
loop_
_space_group_symop_operation_xyz
x,y,z
-x,y,1/2-z
-x,-y,-z
x,-y,1/2+z
loop_
_atom_site_type_symbol
_atom_site_label
_atom_site_fract_x
_atom_site_fract_y
_atom_site_fract_z
Si Si1 0.695523 0.999135 0.253508
Si Si2 0.219493 0.734171 0.857401
Si Si3 0.719510 0.688990 0.334586
Si Si4 0.500000 0.548936 0.750000
Si Si5 0.662758 0.149227 0.996276
Si Si6 0.073646 0.547224 0.581700
Si Si7 0.297801 0.842952 0.577774
O O1 0.500000 0.989032 0.250000
O O2 0.758698 0.825042 0.268919
O O3 0.780647 0.089730 0.176321
O O4 0.729136 0.106907 0.329273
O O5 0.374474 0.653099 0.807538
O O6 0.235975 0.742400 0.951482
O O7 0.059088 0.634005 0.855083
O O8 0.604820 0.560652 0.301570
O O9 0.628693 0.780171 0.411511
O O10 0.863355 0.600619 0.371616
O O11 0.490856 0.143385 0.051382
O O12 0.756838 0.986388 0.975778
O O13 0.218232 0.676389 0.563424
O O14 0.000000 0.500000 0.500000
#
# Coordination Sequence:
#
# PCOD9233883 Si02
#       7
#     4   4   4   2   4   4   4
#     4  11  21  45  74 103 133 182 249 299 347 420
#     4  12  24  45  72 101 145 197 233 292 358 443
#     4  11  25  44  70 108 141 181 241 302 358 422
#     4  12  26  42  76 106 146 186 242 302 372 414
#     4  10  21  43  73 101 132 189 253 290 334 427
#     4  12  27  47  68 108 154 187 230 295 375 430
#     4  10  23  41  73 102 137 183 243 293 353 420
#
# _framework density 22.089092999999998
#
# number of rings (size 3 to 8) (size 9 to 14) (size 15 to 20)
#    0.000    0.923    4.615    1.846    2.154    4.308 
#    0.000    3.077    0.000    0.000    0.000    0.000 
#    0.000    0.000    0.000    0.000    0.000    0.000 
#
# Total GULP energy -145261.487008 kJ/mol
# GULP energy per Si atom -5586.980270 kJ/mol
# Density = 2.203882 g / cm^3
# Si number density = 22.089093 Si / 1000 Ang^3
#
#
#
# Elastic Constant Matrix: (Units=GPa)
#
#
# Indices 1 2 3 4 5 6 
#
# 1 56.6084 42.5989 22.5572 0.0000 12.3554 0.0000
# 2 42.5989 129.2087 41.6207 0.0000 17.3886 0.0000
# 3 22.5572 41.6207 75.7348 0.0000 13.7604 0.0000
# 4 0.0000 0.0000 0.0000 24.8337 0.0000 7.7980
# 5 12.3554 17.3886 13.7604 0.0000 27.6350 0.0000
# 6 0.0000 0.0000 0.0000 7.7980 0.0000 21.1599
#
#
#
# Elastic Compliance Matrix: (Units=1/GPa)
#
#
# Indices 1 2 3 4 5 6 
#
# 1 0.024951 -0.006567 -0.002800 0.000000 -0.005629 0.000000
# 2 -0.006567 0.011485 -0.003932 0.000000 -0.002333 0.000000
# 3 -0.002800 -0.003932 0.017066 0.000000 -0.004772 0.000000
# 4 0.000000 0.000000 0.000000 0.045538 0.000000 -0.016782
# 5 -0.005629 -0.002333 -0.004772 0.000000 0.042547 0.000000
# 6 0.000000 0.000000 0.000000 -0.016782 0.000000 0.053444
#
#
# Mechanical properties :
#
#
# Convention : Reuss Voigt Hill
#
# Bulk Modulus (GPa) = 37.16827 52.78952 44.97889
# Shear Modulus (GPa) = 21.68300 25.04405 23.36352
#
# Velocity S-wave (km/s) = 3.13647 3.37081 3.25575
# Velocity P-wave (km/s) = 5.47537 6.25301 5.87707
#
# Compressibility (1/GPa) = 0.02690467
#
# Stress axis : x y z
#
# Youngs Moduli (GPa) = 40.07826 87.07110 58.59696
#
# Poissons Ratio (x) = 0.57177 0.16407
# Poissons Ratio (y) = 0.26318 0.23040
# Poissons Ratio (z) = 0.11222 0.34236
#
# Static dielectric constant tensor:
#      x y z
#    x 1.826290 0.000000 0.024680 
#    y 0.000000 1.877380 0.000000 
#    z 0.024680 0.000000 1.793140 
# 
# From -- ./inp_files/63762.got.cif
#   From: 2010.05.17/outbox.cif.g08.bks.cpg/sg13_32_cif.got.tgz:63762.got - 2010.06.03 16:44:36.
