data_PCOD9233936
_publ_section_title
;
Structure prediction by ZEFSAII (Michael W. Deem and Ramdas Pophale) SiO2 
 PCOD9233936
Probable space group: P 2/C
;
_chemical_formula_sum "Si O2"
_cell_formula_units_Z 18
_cell_length_a 9.192450
_cell_length_b 16.845062
_cell_length_c 11.273072
_cell_angle_alpha 90.000000
_cell_angle_beta 28.034689
_cell_angle_gamma 90.000000
_cell_volume 820.445270
_symmetry_space_group_name_H-M "P 2/C"
_symmetry_group_IT_number 13
_symmetry_cell_setting 'monoclinic'
loop_
_space_group_symop_operation_xyz
x,y,z
-x,y,1/2-z
-x,-y,-z
x,-y,1/2+z
loop_
_atom_site_type_symbol
_atom_site_label
_atom_site_fract_x
_atom_site_fract_y
_atom_site_fract_z
Si Si1 0.500000 0.514726 0.250000
Si Si2 0.383721 0.340974 0.666207
Si Si3 0.000000 0.586837 0.250000
Si Si4 0.814132 0.182364 0.600716
Si Si5 0.000000 0.762332 0.750000
Si Si6 0.839492 0.964354 0.236698
O O1 0.608190 0.574925 0.274647
O O2 0.207091 0.465456 0.510163
O O3 0.256476 0.359391 0.629159
O O4 0.163306 0.274908 0.882282
O O5 0.710687 0.297452 0.449510
O O6 0.500000 0.167138 0.750000
O O7 0.829068 0.127620 0.703033
O O8 0.057152 0.177868 0.319308
O O9 0.000000 0.973546 0.250000
O O10 0.500000 0.000000 0.500000
O O11 0.000000 0.000000 0.000000
#
# Coordination Sequence:
#
# PCOD9233936 Si02
#       6
#     2   4   2   4   2   4
#     4  12  24  46  66  98 134 194 234 304 368 446
#     4  11  24  44  68 100 137 189 241 301 363 438
#     4  12  29  40  70 101 142 176 248 308 373 420
#     4  10  23  43  75 101 144 194 244 293 363 434
#     4  10  21  44  76  97 142 192 252 284 367 434
#     4  12  28  50  77 114 154 192 240 297 363 435
#
# _framework density 21.939308
#
# number of rings (size 3 to 8) (size 9 to 14) (size 15 to 20)
#    0.000    0.889    3.333    4.000   12.444    0.000 
#    0.000    0.000    0.000    0.000    0.000    0.000 
#    0.000    0.000    0.000    0.000    0.000    0.000 
#
# Total GULP energy -100278.250739 kJ/mol
# GULP energy per Si atom -5571.013930 kJ/mol
# Density = 2.188937 g / cm^3
# Si number density = 21.939308 Si / 1000 Ang^3
#
#
#
# Elastic Constant Matrix: (Units=GPa)
#
#
# Indices 1 2 3 4 5 6 
#
# 1 171.0838 48.5144 46.0295 0.0000 -1.1590 0.0000
# 2 48.5144 57.2539 37.9283 0.0000 1.6160 0.0000
# 3 46.0295 37.9283 113.1377 0.0000 17.2113 0.0000
# 4 0.0000 0.0000 0.0000 27.6215 0.0000 12.1410
# 5 -1.1590 1.6160 17.2113 0.0000 25.2021 0.0000
# 6 0.0000 0.0000 0.0000 12.1410 0.0000 40.9074
#
#
#
# Elastic Compliance Matrix: (Units=1/GPa)
#
#
# Indices 1 2 3 4 5 6 
#
# 1 0.007898 -0.005698 -0.001578 0.000000 0.001806 0.000000
# 2 -0.005698 0.026955 -0.007159 0.000000 0.002899 0.000000
# 3 -0.001578 -0.007159 0.013193 0.000000 -0.008623 0.000000
# 4 0.000000 0.000000 0.000000 0.041635 0.000000 -0.012357
# 5 0.001806 0.002899 -0.008623 0.000000 0.045465 0.000000
# 6 0.000000 0.000000 0.000000 -0.012357 0.000000 0.028113
#
#
# Mechanical properties :
#
#
# Convention : Reuss Voigt Hill
#
# Bulk Modulus (GPa) = 52.14974 67.37998 59.76486
# Shear Modulus (GPa) = 25.18636 32.67973 28.93304
#
# Velocity S-wave (km/s) = 3.39189 3.86366 3.63544
# Velocity P-wave (km/s) = 6.25792 7.11916 6.70239
#
# Compressibility (1/GPa) = 0.01917555
#
# Stress axis : x y z
#
# Youngs Moduli (GPa) = 126.62173 37.09879 75.80045
#
# Poissons Ratio (x) = 0.21138 0.11959
# Poissons Ratio (y) = 0.72147 0.54268
# Poissons Ratio (z) = 0.19977 0.26560
#
# Static dielectric constant tensor:
#      x y z
#    x 1.929220 0.000000 0.108380 
#    y 0.000000 1.835390 0.000000 
#    z 0.108380 0.000000 2.010800 
# 
# From -- ./inp_files/30696.got.cif
#   From: 2010.05.17/outbox.cif.g08.bks.cpg/sg13_16_cif.got.tgz:30696.got - 2010.06.03 16:44:36.
