data_PCOD9233807
_publ_section_title
;
Structure prediction by ZEFSAII (Michael W. Deem and Ramdas Pophale) SiO2 
 PCOD9233807
Probable space group: P 2/C
;
_chemical_formula_sum "Si O2"
_cell_formula_units_Z 16
_cell_length_a 9.979730
_cell_length_b 12.298845
_cell_length_c 8.253526
_cell_angle_alpha 90.000000
_cell_angle_beta 138.646343
_cell_angle_gamma 90.000000
_cell_volume 669.314435
_symmetry_space_group_name_H-M "P 2/C"
_symmetry_group_IT_number 13
_symmetry_cell_setting 'monoclinic'
loop_
_space_group_symop_operation_xyz
x,y,z
-x,y,1/2-z
-x,-y,-z
x,-y,1/2+z
loop_
_atom_site_type_symbol
_atom_site_label
_atom_site_fract_x
_atom_site_fract_y
_atom_site_fract_z
Si Si1 0.155375 0.460094 0.278551
Si Si2 0.259838 0.067650 0.552524
Si Si3 0.298156 0.657050 0.635132
Si Si4 0.932699 0.857721 0.962586
O O1 0.240682 0.560773 0.458414
O O2 0.327553 0.396123 0.339980
O O3 0.000000 0.392022 0.250000
O O4 0.000000 0.500000 0.000000
O O5 0.500000 0.061065 0.750000
O O6 0.178411 0.118735 0.310796
O O7 0.168572 0.133982 0.624047
O O8 0.160717 0.950450 0.505400
O O9 0.500000 0.710683 0.750000
O O10 0.125366 0.743910 0.513359
#
# Coordination Sequence:
#
# PCOD9233807 Si02
#       4
#     4   4   4   4
#     4   9  21  43  63  92 128 170 220 283 333 406
#     4  10  21  43  64  96 144 180 228 279 334 396
#     4  11  22  42  68  96 136 176 227 281 349 402
#     4  10  23  41  66 101 137 179 230 280 331 407
#
# _framework density 23.905059000000001
#
# number of rings (size 3 to 8) (size 9 to 14) (size 15 to 20)
#    0.000    2.000    0.000    2.250    3.500    0.000 
#   40.500    1.250    0.000    0.000    0.000    0.000 
#    0.000    0.000    0.000    0.000    0.000    0.000 
#
# Total GULP energy -89292.138699 kJ/mol
# GULP energy per Si atom -5580.758669 kJ/mol
# Density = 2.385065 g / cm^3
# Si number density = 23.905059 Si / 1000 Ang^3
#
#
#
# Elastic Constant Matrix: (Units=GPa)
#
#
# Indices 1 2 3 4 5 6 
#
# 1 237.1056 65.0995 59.6199 0.0000 23.0969 0.0000
# 2 65.0995 110.4677 6.4175 0.0000 -3.6775 0.0000
# 3 59.6199 6.4175 56.9284 0.0000 -0.6601 0.0000
# 4 0.0000 0.0000 0.0000 16.0378 0.0000 0.7957
# 5 23.0969 -3.6775 -0.6601 0.0000 47.4180 0.0000
# 6 0.0000 0.0000 0.0000 0.7957 0.0000 37.2585
#
#
#
# Elastic Compliance Matrix: (Units=1/GPa)
#
#
# Indices 1 2 3 4 5 6 
#
# 1 0.007714 -0.004241 -0.007649 0.000000 -0.004193 0.000000
# 2 -0.004241 0.011467 0.003184 0.000000 0.002999 0.000000
# 3 -0.007649 0.003184 0.025268 0.000000 0.004324 0.000000
# 4 0.000000 0.000000 0.000000 0.062419 0.000000 -0.001333
# 5 -0.004193 0.002999 0.004324 0.000000 0.023424 0.000000
# 6 0.000000 0.000000 0.000000 -0.001333 0.000000 0.026868
#
#
# Mechanical properties :
#
#
# Convention : Reuss Voigt Hill
#
# Bulk Modulus (GPa) = 36.98846 74.08618 55.53732
# Shear Modulus (GPa) = 27.23565 38.36716 32.80141
#
# Velocity S-wave (km/s) = 3.37905 4.01057 3.70828
# Velocity P-wave (km/s) = 5.54352 7.24606 6.45120
#
# Compressibility (1/GPa) = 0.02703546
#
# Stress axis : x y z
#
# Youngs Moduli (GPa) = 129.64080 87.21038 39.57624
#
# Poissons Ratio (x) = 0.36985 0.30271
# Poissons Ratio (y) = 0.54980 -0.12599
# Poissons Ratio (z) = 0.99160 -0.27764
#
# Static dielectric constant tensor:
#      x y z
#    x 1.994880 0.000000 0.018380 
#    y 0.000000 1.990520 0.000000 
#    z 0.018380 0.000000 2.003410 
# 
# From -- ./inp_files/11493.got.cif
#   From: 2010.05.17/outbox.cif.g08.bks.cpg/sg13_6_cif.got.tgz:11493.got - 2010.06.03 16:44:36.
