data_PCOD9233387
_publ_section_title
;
Structure prediction by ZEFSAII (Michael W. Deem and Ramdas Pophale) SiO2 
 PCOD9233387
Probable space group: P 2/C
;
_chemical_formula_sum "Si O2"
_cell_formula_units_Z 22
_cell_length_a 11.608410
_cell_length_b 5.662269
_cell_length_c 21.734845
_cell_angle_alpha 90.000000
_cell_angle_beta 145.396788
_cell_angle_gamma 90.000000
_cell_volume 811.304566
_symmetry_space_group_name_H-M "P 2/C"
_symmetry_group_IT_number 13
_symmetry_cell_setting 'monoclinic'
loop_
_space_group_symop_operation_xyz
x,y,z
-x,y,1/2-z
-x,-y,-z
x,-y,1/2+z
loop_
_atom_site_type_symbol
_atom_site_label
_atom_site_fract_x
_atom_site_fract_y
_atom_site_fract_z
Si Si1 0.710266 0.790070 0.554298
Si Si2 0.252107 0.851172 0.133380
Si Si3 0.000000 0.557494 0.250000
Si Si4 0.313579 0.639047 0.618875
Si Si5 0.528550 0.143119 0.104381
Si Si6 0.904878 0.096127 0.803422
O O1 0.862970 0.582404 0.640244
O O2 0.563980 0.787830 0.549711
O O3 0.565106 0.876626 0.435137
O O4 0.872813 0.005035 0.616893
O O5 0.500000 0.862549 0.250000
O O6 0.208812 0.615639 0.075307
O O7 0.140953 0.809870 0.149462
O O8 0.202204 0.114784 0.087227
O O9 0.142901 0.715565 0.270072
O O10 0.500000 0.625848 0.750000
O O11 0.399416 0.682863 0.588568
O O12 0.752426 0.123426 0.230372
#
# Coordination Sequence:
#
# PCOD9233387 Si02
#       6
#     4   4   2   4   4   4
#     4  11  26  43  68 104 134 187 230 300 359 427
#     4  10  22  37  69  99 133 191 234 283 359 417
#     4  12  24  40  70  98 140 184 236 298 366 420
#     4  10  21  40  68 103 130 188 233 286 350 423
#     4  11  22  47  69  98 143 178 243 287 361 434
#     4  12  23  45  66 103 142 180 241 295 359 432
#
# _framework density 27.116819
#
# number of rings (size 3 to 8) (size 9 to 14) (size 15 to 20)
#    0.000    1.091    7.273    0.000    7.636    0.727 
#    3.273    1.818    0.000    0.000    0.000    0.000 
#    0.000    0.000    0.000    0.000    0.000    0.000 
#
# Total GULP energy -122963.656200 kJ/mol
# GULP energy per Si atom -5589.257100 kJ/mol
# Density = 2.705510 g / cm^3
# Si number density = 27.116819 Si / 1000 Ang^3
#
#
#
# Elastic Constant Matrix: (Units=GPa)
#
#
# Indices 1 2 3 4 5 6 
#
# 1 186.8000 81.4650 19.8917 0.0000 -7.2997 0.0000
# 2 81.4650 168.5560 16.1837 0.0000 14.8382 0.0000
# 3 19.8917 16.1837 77.7591 0.0000 14.2831 0.0000
# 4 0.0000 0.0000 0.0000 24.9375 0.0000 -11.7803
# 5 -7.2997 14.8382 14.2831 0.0000 24.4176 0.0000
# 6 0.0000 0.0000 0.0000 -11.7803 0.0000 21.8578
#
#
#
# Elastic Compliance Matrix: (Units=1/GPa)
#
#
# Indices 1 2 3 4 5 6 
#
# 1 0.007547 -0.003960 -0.002199 0.000000 0.005949 0.000000
# 2 -0.003960 0.008378 0.000473 0.000000 -0.006552 0.000000
# 3 -0.002199 0.000473 0.015123 0.000000 -0.009791 0.000000
# 4 0.000000 0.000000 0.000000 0.053797 0.000000 0.028994
# 5 0.005949 -0.006552 -0.009791 0.000000 0.052441 0.000000
# 6 0.000000 0.000000 0.000000 0.028994 0.000000 0.061376
#
#
# Mechanical properties :
#
#
# Convention : Reuss Voigt Hill
#
# Bulk Modulus (GPa) = 50.82613 74.24399 62.53506
# Shear Modulus (GPa) = 23.08470 35.28090 29.18280
#
# Velocity S-wave (km/s) = 2.92088 3.61095 3.28409
# Velocity P-wave (km/s) = 5.49176 6.69507 6.12305
#
# Compressibility (1/GPa) = 0.01967492
#
# Stress axis : x y z
#
# Youngs Moduli (GPa) = 132.50270 119.35920 66.12520
#
# Poissons Ratio (x) = 0.47268 0.14542
# Poissons Ratio (y) = 0.52473 -0.03126
# Poissons Ratio (z) = 0.29140 -0.05643
#
# Static dielectric constant tensor:
#      x y z
#    x 2.150880 0.000000 0.079640 
#    y 0.000000 2.164410 0.000000 
#    z 0.079640 0.000000 2.212970 
# 
# From -- ./inp_files/85923.got.cif
#   From: 2010.05.17/outbox.cif.g08.bks.cpg/sg13_43_cif.got.tgz:85923.got - 2010.06.03 16:44:36.
