data_PCOD9233543
_publ_section_title
;
Structure prediction by ZEFSAII (Michael W. Deem and Ramdas Pophale) SiO2 
 PCOD9233543
Probable space group: P 2/C
;
_chemical_formula_sum "Si O2"
_cell_formula_units_Z 22
_cell_length_a 9.846691
_cell_length_b 8.047140
_cell_length_c 10.600226
_cell_angle_alpha 90.000000
_cell_angle_beta 94.963100
_cell_angle_gamma 90.000000
_cell_volume 836.788295
_symmetry_space_group_name_H-M "P 2/C"
_symmetry_group_IT_number 13
_symmetry_cell_setting 'monoclinic'
loop_
_space_group_symop_operation_xyz
x,y,z
-x,y,1/2-z
-x,-y,-z
x,-y,1/2+z
loop_
_atom_site_type_symbol
_atom_site_label
_atom_site_fract_x
_atom_site_fract_y
_atom_site_fract_z
Si Si1 0.000000 0.650583 0.750000
Si Si2 0.751245 0.426442 0.060693
Si Si3 0.123531 0.275610 0.661950
Si Si4 0.382221 0.121006 0.329485
Si Si5 0.144782 0.908776 0.602321
Si Si6 0.326676 0.778215 0.393039
O O1 0.860431 0.567880 0.685280
O O2 0.960817 0.771945 0.861229
O O3 0.664310 0.257745 0.072618
O O4 0.656526 0.590791 0.053466
O O5 0.842790 0.410211 0.942294
O O6 0.261797 0.254349 0.751835
O O7 0.000000 0.300070 0.750000
O O8 0.093310 0.096609 0.596630
O O9 0.500000 0.191563 0.250000
O O10 0.255405 0.096471 0.224983
O O11 0.424652 0.937295 0.382879
O O12 0.216024 0.856562 0.479389
#
# Coordination Sequence:
#
# PCOD9233543 Si02
#       6
#     2   4   4   4   4   4
#     4  10  22  38  66  96 134 182 212 264 338 396
#     4  11  25  43  66 100 138 174 224 275 330 402
#     4  11  23  39  67  99 137 180 220 261 333 409
#     4  10  24  47  71  94 129 178 229 281 335 387
#     4  10  21  41  66  95 134 175 219 274 328 396
#     4  11  25  42  64  99 135 173 223 274 333 395
#
# _framework density 26.290997999999998
#
# number of rings (size 3 to 8) (size 9 to 14) (size 15 to 20)
#    0.000    1.455    2.727    1.091    6.364    4.364 
#    0.000    0.909    0.000    0.000    0.000    0.000 
#    0.000    0.000    0.000    0.000    0.000    0.000 
#
# Total GULP energy -123061.843498 kJ/mol
# GULP energy per Si atom -5593.720159 kJ/mol
# Density = 2.623116 g / cm^3
# Si number density = 26.290998 Si / 1000 Ang^3
#
#
#
# Elastic Constant Matrix: (Units=GPa)
#
#
# Indices 1 2 3 4 5 6 
#
# 1 40.2705 26.1888 8.7887 0.0000 3.9097 0.0000
# 2 26.1888 169.8119 35.0772 0.0000 -3.0218 0.0000
# 3 8.7887 35.0772 131.2789 0.0000 -9.7043 0.0000
# 4 0.0000 0.0000 0.0000 53.3928 0.0000 -23.2128
# 5 3.9097 -3.0218 -9.7043 0.0000 47.0415 0.0000
# 6 0.0000 0.0000 0.0000 -23.2128 0.0000 47.2124
#
#
#
# Elastic Compliance Matrix: (Units=1/GPa)
#
#
# Indices 1 2 3 4 5 6 
#
# 1 0.028028 -0.004172 -0.000968 0.000000 -0.002797 0.000000
# 2 -0.004172 0.006854 -0.001517 0.000000 0.000474 0.000000
# 3 -0.000968 -0.001517 0.008212 0.000000 0.001677 0.000000
# 4 0.000000 0.000000 0.000000 0.023821 0.000000 0.011712
# 5 -0.002797 0.000474 0.001677 0.000000 0.021867 0.000000
# 6 0.000000 0.000000 0.000000 0.011712 0.000000 0.026939
#
#
# Mechanical properties :
#
#
# Convention : Reuss Voigt Hill
#
# Bulk Modulus (GPa) = 33.58125 53.49676 43.53900
# Shear Modulus (GPa) = 35.98093 47.61645 41.79869
#
# Velocity S-wave (km/s) = 3.70343 4.26036 3.99162
# Velocity P-wave (km/s) = 5.57564 6.67780 6.15145
#
# Compressibility (1/GPa) = 0.02977852
#
# Stress axis : x y z
#
# Youngs Moduli (GPa) = 35.67818 145.89723 121.78034
#
# Poissons Ratio (x) = 0.60873 0.11793
# Poissons Ratio (y) = 0.14886 0.18474
# Poissons Ratio (z) = 0.03455 0.22133
#
# Static dielectric constant tensor:
#      x y z
#    x 2.032790 0.000000 0.025970 
#    y 0.000000 2.249580 0.000000 
#    z 0.025970 0.000000 2.136370 
# 
# From -- ./inp_files/32491.got.cif
#   From: 2010.05.17/outbox.cif.g08.bks.cpg/sg13_17_cif.got.tgz:32491.got - 2010.06.03 16:44:36.
