data_PCOD9233203
_publ_section_title
;
Structure prediction by ZEFSAII (Michael W. Deem and Ramdas Pophale) SiO2 
 PCOD9233203
Probable space group: P 2/C
;
_chemical_formula_sum "Si O2"
_cell_formula_units_Z 26
_cell_length_a 10.874126
_cell_length_b 9.531194
_cell_length_c 15.356613
_cell_angle_alpha 90.000000
_cell_angle_beta 63.833811
_cell_angle_gamma 90.000000
_cell_volume 1428.501304
_symmetry_space_group_name_H-M "P 2/C"
_symmetry_group_IT_number 13
_symmetry_cell_setting 'monoclinic'
loop_
_space_group_symop_operation_xyz
x,y,z
-x,y,1/2-z
-x,-y,-z
x,-y,1/2+z
loop_
_atom_site_type_symbol
_atom_site_label
_atom_site_fract_x
_atom_site_fract_y
_atom_site_fract_z
Si Si1 0.000000 0.899759 0.250000
Si Si2 0.195505 0.649300 0.251677
Si Si3 0.290475 0.234084 0.894841
Si Si4 0.500000 0.981832 0.250000
Si Si5 0.860229 0.148488 0.392999
Si Si6 0.000000 0.599397 0.750000
Si Si7 0.443285 0.115848 0.084373
Si Si8 0.472565 0.354409 0.553832
O O1 0.114167 0.791462 0.250052
O O2 0.056667 0.008460 0.159352
O O3 0.226600 0.661528 0.344402
O O4 0.335621 0.647689 0.153207
O O5 0.111290 0.508588 0.254906
O O6 0.372953 0.117438 0.814703
O O7 0.402741 0.307812 0.922151
O O8 0.181112 0.163001 0.993361
O O9 0.466026 0.070972 0.175586
O O10 0.935523 0.291553 0.339651
O O11 0.716879 0.139421 0.384806
O O12 0.529318 0.248713 0.026729
O O13 0.500000 0.000000 0.000000
O O14 0.500000 0.500000 0.500000
#
# Coordination Sequence:
#
# PCOD9233203 Si02
#       8
#     2   4   4   2   4   2   4   4
#     4  10  22  36  62  84 118 164 204 234 296 364
#     4  11  21  39  61  88 117 162 209 243 297 375
#     4  11  21  37  66  88 123 150 200 261 314 355
#     4  12  20  36  62 104 118 156 190 256 332 360
#     4  10  21  40  59  87 121 163 194 253 302 359
#     4  10  24  42  60  78 124 174 204 240 294 362
#     4  11  20  38  65  91 123 155 199 254 316 362
#     4  11  22  40  62  89 122 160 197 258 320 354
#
# _framework density 18.200894000000002
#
# number of rings (size 3 to 8) (size 9 to 14) (size 15 to 20)
#    0.000    1.231    4.615    3.692    0.000    1.231 
#    5.538    0.000    0.000    0.000    0.000    0.000 
#    0.000    0.000    0.000    0.000    0.000    0.000 
#
# Total GULP energy -145109.713311 kJ/mol
# GULP energy per Si atom -5581.142820 kJ/mol
# Density = 1.815947 g / cm^3
# Si number density = 18.200894 Si / 1000 Ang^3
#
#
#
# Elastic Constant Matrix: (Units=GPa)
#
#
# Indices 1 2 3 4 5 6 
#
# 1 48.8016 43.9074 40.4389 0.0000 1.4324 0.0000
# 2 43.9074 137.1067 68.4274 0.0000 -3.5610 0.0000
# 3 40.4389 68.4274 149.1854 0.0000 1.7690 0.0000
# 4 0.0000 0.0000 0.0000 2.6431 0.0000 -17.7143
# 5 1.4324 -3.5610 1.7690 0.0000 36.8954 0.0000
# 6 0.0000 0.0000 0.0000 -17.7143 0.0000 20.2337
#
#
#
# Elastic Compliance Matrix: (Units=1/GPa)
#
#
# Indices 1 2 3 4 5 6 
#
# 1 0.031598 -0.007651 -0.005035 0.000000 -0.001724 0.000000
# 2 -0.007651 0.011358 -0.003154 0.000000 0.001544 0.000000
# 3 -0.005035 -0.003154 0.009521 0.000000 -0.000565 0.000000
# 4 0.000000 0.000000 0.000000 -0.077727 0.000000 -0.068049
# 5 -0.001724 0.001544 -0.000565 0.000000 0.027347 0.000000
# 6 0.000000 0.000000 0.000000 -0.068049 0.000000 -0.010153
#
#
# Mechanical properties :
#
#
# Convention : Reuss Voigt Hill
#
# Bulk Modulus (GPa) = 48.08457 71.18234 59.63346
# Shear Modulus (GPa) = 163.63288 24.10910 93.87099
#
# Velocity S-wave (km/s) = 9.49205 3.64347 7.18936
# Velocity P-wave (km/s) = 12.10818 7.54281 10.08717
#
# Compressibility (1/GPa) = 0.02079669
#
# Stress axis : x y z
#
# Youngs Moduli (GPa) = 31.64802 88.04465 105.02669
#
# Poissons Ratio (x) = 0.67359 0.52886
# Poissons Ratio (y) = 0.24212 0.33126
# Poissons Ratio (z) = 0.15936 0.27770
#
# Static dielectric constant tensor:
#      x y z
#    x 1.598350 0.000000 -0.039600 
#    y 0.000000 1.617620 0.000000 
#    z -0.039600 0.000000 1.590390 
# 
# From -- ./inp_files/49799.got.cif
#   From: 2010.05.17/outbox.cif.g08.bks.cpg/sg13_25_cif.got.tgz:49799.got - 2010.06.03 16:44:36.
