data_PCOD9233802
_publ_section_title
;
Structure prediction by ZEFSAII (Michael W. Deem and Ramdas Pophale) SiO2 
 PCOD9233802
Probable space group: P 2/C
;
_chemical_formula_sum "Si O2"
_cell_formula_units_Z 24
_cell_length_a 14.305433
_cell_length_b 5.864158
_cell_length_c 14.434282
_cell_angle_alpha 90.000000
_cell_angle_beta 73.828512
_cell_angle_gamma 90.000000
_cell_volume 1162.970395
_symmetry_space_group_name_H-M "P 2/C"
_symmetry_group_IT_number 13
_symmetry_cell_setting 'monoclinic'
loop_
_space_group_symop_operation_xyz
x,y,z
-x,y,1/2-z
-x,-y,-z
x,-y,1/2+z
loop_
_atom_site_type_symbol
_atom_site_label
_atom_site_fract_x
_atom_site_fract_y
_atom_site_fract_z
Si Si1 0.748006 0.909076 0.044937
Si Si2 0.613944 0.646553 0.231866
Si Si3 0.900135 0.392276 0.740196
Si Si4 0.753084 0.744331 0.694447
Si Si5 0.270478 0.879002 0.143247
Si Si6 0.049077 0.246973 0.967077
O O1 0.672503 0.783580 0.135058
O O2 0.845823 0.758805 0.009771
O O3 0.778873 0.134294 0.092502
O O4 0.706680 0.998717 0.959397
O O5 0.500000 0.673298 0.250000
O O6 0.651497 0.388310 0.212238
O O7 0.649148 0.728171 0.324591
O O8 0.833372 0.568136 0.704410
O O9 0.829417 0.268525 0.833004
O O10 0.931950 0.226979 0.648591
O O11 0.000000 0.494190 0.750000
O O12 0.747623 0.925243 0.777192
O O13 0.000000 0.500000 0.000000
O O14 0.000000 0.000000 0.000000
#
# Coordination Sequence:
#
# PCOD9233802 Si02
#       6
#     4   4   4   4   4   4
#     4  11  23  44  67  96 142 175 231 291 347 426
#     4  10  23  44  69  97 130 173 230 294 364 425
#     4  11  23  39  60  94 135 182 231 281 334 419
#     4  10  21  43  64  90 136 174 224 285 354 409
#     4  10  23  42  66  94 133 176 225 285 355 419
#     4  12  25  40  65 100 137 188 236 281 348 411
#
# _framework density 20.636811000000002
#
# number of rings (size 3 to 8) (size 9 to 14) (size 15 to 20)
#    0.000    1.333    5.000    2.000    2.333    6.667 
#    0.000    1.667    0.000    0.000    0.000    0.000 
#    0.000    0.000    0.000    0.000    0.000    0.000 
#
# Total GULP energy -133836.251321 kJ/mol
# GULP energy per Si atom -5576.510472 kJ/mol
# Density = 2.058984 g / cm^3
# Si number density = 20.636811 Si / 1000 Ang^3
#
#
#
# Elastic Constant Matrix: (Units=GPa)
#
#
# Indices 1 2 3 4 5 6 
#
# 1 141.2391 35.4438 16.2905 0.0000 -12.3734 0.0000
# 2 35.4438 84.4175 15.3592 0.0000 -12.7873 0.0000
# 3 16.2905 15.3592 76.3156 0.0000 13.2248 0.0000
# 4 0.0000 0.0000 0.0000 18.2114 0.0000 -5.9430
# 5 -12.3734 -12.7873 13.2248 0.0000 22.1191 0.0000
# 6 0.0000 0.0000 0.0000 -5.9430 0.0000 12.9130
#
#
#
# Elastic Compliance Matrix: (Units=1/GPa)
#
#
# Indices 1 2 3 4 5 6 
#
# 1 0.008323 -0.002441 -0.002061 0.000000 0.004477 0.000000
# 2 -0.002441 0.015148 -0.004249 0.000000 0.009932 0.000000
# 3 -0.002061 -0.004249 0.016760 0.000000 -0.013630 0.000000
# 4 0.000000 0.000000 0.000000 0.064615 0.000000 0.029738
# 5 0.004477 0.009932 -0.013630 0.000000 0.061605 0.000000
# 6 0.000000 0.000000 0.000000 0.029738 0.000000 0.091127
#
#
# Mechanical properties :
#
#
# Convention : Reuss Voigt Hill
#
# Bulk Modulus (GPa) = 43.99575 48.46214 46.22894
# Shear Modulus (GPa) = 17.68924 26.30730 21.99827
#
# Velocity S-wave (km/s) = 2.93092 3.57427 3.26847
# Velocity P-wave (km/s) = 5.72879 6.36932 6.05753
#
# Compressibility (1/GPa) = 0.02272947
#
# Stress axis : x y z
#
# Youngs Moduli (GPa) = 120.15286 66.01350 59.66419
#
# Poissons Ratio (x) = 0.16116 0.12297
# Poissons Ratio (y) = 0.29333 0.25350
# Poissons Ratio (z) = 0.24763 0.28048
#
# Static dielectric constant tensor:
#      x y z
#    x 1.776600 0.000000 -0.007370 
#    y 0.000000 1.799470 0.000000 
#    z -0.007370 0.000000 1.745400 
# 
# From -- ./inp_files/51840.got.cif
#   From: 2010.05.17/outbox.cif.g08.bks.cpg/sg13_26_cif.got.tgz:51840.got - 2010.06.03 16:44:36.
