data_PCOD9233225
_publ_section_title
;
Structure prediction by ZEFSAII (Michael W. Deem and Ramdas Pophale) SiO2 
 PCOD9233225
Probable space group: P 2/C
;
_chemical_formula_sum "Si O2"
_cell_formula_units_Z 16
_cell_length_a 10.552981
_cell_length_b 5.515278
_cell_length_c 20.709731
_cell_angle_alpha 90.000000
_cell_angle_beta 29.358450
_cell_angle_gamma 90.000000
_cell_volume 590.954394
_symmetry_space_group_name_H-M "P 2/C"
_symmetry_group_IT_number 13
_symmetry_cell_setting 'monoclinic'
loop_
_space_group_symop_operation_xyz
x,y,z
-x,y,1/2-z
-x,-y,-z
x,-y,1/2+z
loop_
_atom_site_type_symbol
_atom_site_label
_atom_site_fract_x
_atom_site_fract_y
_atom_site_fract_z
Si Si1 0.147748 0.019102 0.253384
Si Si2 0.697038 0.293040 0.108387
Si Si3 0.292126 0.512654 0.149243
Si Si4 0.188653 0.202359 0.979415
O O1 0.315356 0.262959 0.177503
O O2 0.000000 0.013468 0.250000
O O3 0.946744 0.071500 0.399439
O O4 0.293369 0.762890 0.188253
O O5 0.500000 0.389508 0.250000
O O6 0.975528 0.248676 0.018360
O O7 0.730432 0.517747 0.043641
O O8 0.621837 0.012819 0.127296
O O9 0.000000 0.507363 0.250000
O O10 0.500000 0.500000 0.000000
#
# Coordination Sequence:
#
# PCOD9233225 Si02
#       4
#     4   4   4   4
#     4  10  21  40  61  91 126 165 204 254 315 387
#     4  10  21  40  63  90 117 158 211 261 313 363
#     4  10  21  40  61  86 129 170 208 252 304 375
#     4  10  21  40  63  87 124 158 205 258 311 374
#
# _framework density 27.074846000000001
#
# number of rings (size 3 to 8) (size 9 to 14) (size 15 to 20)
#    0.000    2.000    0.000    3.000    0.000    0.000 
#   27.000    0.000    0.000    0.000    0.000    0.000 
#    0.000    0.000    0.000    0.000    0.000    0.000 
#
# Total GULP energy -89496.090076 kJ/mol
# GULP energy per Si atom -5593.505630 kJ/mol
# Density = 2.701322 g / cm^3
# Si number density = 27.074846 Si / 1000 Ang^3
#
#
#
# Elastic Constant Matrix: (Units=GPa)
#
#
# Indices 1 2 3 4 5 6 
#
# 1 81.9710 69.8140 -8.2339 0.0000 -5.6419 0.0000
# 2 69.8140 281.0003 51.4097 0.0000 -7.2395 0.0000
# 3 -8.2339 51.4097 151.2894 0.0000 22.9003 0.0000
# 4 0.0000 0.0000 0.0000 52.3601 0.0000 -4.6042
# 5 -5.6419 -7.2395 22.9003 0.0000 41.0294 0.0000
# 6 0.0000 0.0000 0.0000 -4.6042 0.0000 19.9752
#
#
#
# Elastic Compliance Matrix: (Units=1/GPa)
#
#
# Indices 1 2 3 4 5 6 
#
# 1 0.016256 -0.004473 0.002387 0.000000 0.000114 0.000000
# 2 -0.004473 0.005114 -0.002211 0.000000 0.001522 0.000000
# 3 0.002387 -0.002211 0.008193 0.000000 -0.004635 0.000000
# 4 0.000000 0.000000 0.000000 0.019494 0.000000 0.004493
# 5 0.000114 0.001522 -0.004635 0.000000 0.027244 0.000000
# 6 0.000000 0.000000 0.000000 0.004493 0.000000 0.051098
#
#
# Mechanical properties :
#
#
# Convention : Reuss Voigt Hill
#
# Bulk Modulus (GPa) = 47.68827 82.24892 64.96860
# Shear Modulus (GPa) = 34.96959 49.42434 42.19697
#
# Velocity S-wave (km/s) = 3.59777 4.27719 3.95211
# Velocity P-wave (km/s) = 5.90850 7.40518 6.69877
#
# Compressibility (1/GPa) = 0.02096952
#
# Stress axis : x y z
#
# Youngs Moduli (GPa) = 61.51387 195.55097 122.05838
#
# Poissons Ratio (x) = 0.87465 -0.29141
# Poissons Ratio (y) = 0.27514 0.26993
# Poissons Ratio (z) = -0.14686 0.43245
#
# Static dielectric constant tensor:
#      x y z
#    x 2.096410 0.000000 -0.026850 
#    y 0.000000 2.144920 0.000000 
#    z -0.026850 0.000000 2.101060 
# 
# From -- ./inp_files/31018.got.cif
#   From: 2010.05.17/outbox.cif.g08.bks.cpg/sg13_16_cif.got.tgz:31018.got - 2010.06.03 16:44:36.
