data_PCOD9233821
_publ_section_title
;
Structure prediction by ZEFSAII (Michael W. Deem and Ramdas Pophale) SiO2 
 PCOD9233821
Probable space group: P 2/C
;
_chemical_formula_sum "Si O2"
_cell_formula_units_Z 26
_cell_length_a 16.417945
_cell_length_b 17.298254
_cell_length_c 8.298067
_cell_angle_alpha 90.000000
_cell_angle_beta 149.410033
_cell_angle_gamma 90.000000
_cell_volume 1199.285283
_symmetry_space_group_name_H-M "P 2/C"
_symmetry_group_IT_number 13
_symmetry_cell_setting 'monoclinic'
loop_
_space_group_symop_operation_xyz
x,y,z
-x,y,1/2-z
-x,-y,-z
x,-y,1/2+z
loop_
_atom_site_type_symbol
_atom_site_label
_atom_site_fract_x
_atom_site_fract_y
_atom_site_fract_z
Si Si1 0.861891 0.765666 0.280371
Si Si2 0.522180 0.253293 0.101573
Si Si3 0.181617 0.974838 0.757022
Si Si4 0.000000 0.359081 0.250000
Si Si5 0.336681 0.397863 0.692899
Si Si6 0.000000 0.867329 0.250000
Si Si7 0.500000 0.494531 0.250000
Si Si8 0.310047 0.113370 0.785646
O O1 0.939221 0.693287 0.498181
O O2 0.978061 0.815396 0.368789
O O3 0.800207 0.820192 0.321350
O O4 0.712854 0.743372 0.910274
O O5 0.500000 0.278390 0.250000
O O6 0.410404 0.310750 0.808796
O O7 0.466356 0.163711 0.006842
O O8 0.150520 0.921751 0.546832
O O9 0.294649 0.045061 0.892257
O O10 0.249466 0.925266 0.018873
O O11 0.000000 0.000000 0.500000
O O12 0.156526 0.400679 0.449426
O O13 0.361780 0.447418 0.575103
O O14 0.443523 0.440547 0.009401
#
# Coordination Sequence:
#
# PCOD9233821 Si02
#       8
#     4   4   4   2   4   2   2   4
#     4  11  23  40  62  95 124 167 220 271 325 387
#     4  10  21  43  66  90 127 172 213 258 325 389
#     4  12  21  36  59  89 123 165 218 277 333 379
#     4  12  22  39  74  99 132 170 220 262 324 377
#     4  11  22  43  70 101 133 179 206 266 311 396
#     4  12  24  35  60  87 130 166 212 288 328 371
#     4  10  24  44  70 100 144 168 212 246 330 384
#     4  11  21  39  64  84 120 173 219 267 328 388
#
# _framework density 21.679579
#
# number of rings (size 3 to 8) (size 9 to 14) (size 15 to 20)
#    0.000    0.923    6.923    0.923    0.000    1.846 
#    0.000   12.308    0.000    0.000    0.000    0.000 
#    0.000    0.000    0.000    0.000    0.000    0.000 
#
# Total GULP energy -145117.725779 kJ/mol
# GULP energy per Si atom -5581.450991 kJ/mol
# Density = 2.163024 g / cm^3
# Si number density = 21.679579 Si / 1000 Ang^3
#
#
#
# Elastic Constant Matrix: (Units=GPa)
#
#
# Indices 1 2 3 4 5 6 
#
# 1 36.6319 30.7717 13.8339 0.0000 0.3788 0.0000
# 2 30.7717 74.7941 24.0884 0.0000 11.8249 0.0000
# 3 13.8339 24.0884 60.5569 0.0000 11.7164 0.0000
# 4 0.0000 0.0000 0.0000 -7.9100 0.0000 33.8322
# 5 0.3788 11.8249 11.7164 0.0000 32.7185 0.0000
# 6 0.0000 0.0000 0.0000 33.8322 0.0000 -0.2539
#
#
#
# Elastic Compliance Matrix: (Units=1/GPa)
#
#
# Indices 1 2 3 4 5 6 
#
# 1 0.043836 -0.017809 -0.004380 0.000000 0.007498 0.000000
# 2 -0.017809 0.022977 -0.003765 0.000000 -0.006750 0.000000
# 3 -0.004380 -0.003765 0.020134 0.000000 -0.005798 0.000000
# 4 0.000000 0.000000 0.000000 0.000222 0.000000 0.029610
# 5 0.007498 -0.006750 -0.005798 0.000000 0.034993 0.000000
# 6 0.000000 0.000000 0.000000 0.029610 0.000000 0.006923
#
#
# Mechanical properties :
#
#
# Convention : Reuss Voigt Hill
#
# Bulk Modulus (GPa) = 28.54221 34.37455 31.45838
# Shear Modulus (GPa) = 25.95066 11.79685 18.87376
#
# Velocity S-wave (km/s) = 3.46354 2.33522 2.95376
# Velocity P-wave (km/s) = 5.40267 4.81261 5.11615
#
# Compressibility (1/GPa) = 0.03503583
#
# Stress axis : x y z
#
# Youngs Moduli (GPa) = 22.81246 43.52183 49.66790
#
# Poissons Ratio (x) = 0.77510 0.21757
# Poissons Ratio (y) = 0.40628 0.18702
# Poissons Ratio (z) = 0.09993 0.16388
#
# Static dielectric constant tensor:
#      x y z
#    x 1.814150 0.000000 0.055630 
#    y 0.000000 1.810740 0.000000 
#    z 0.055630 0.000000 1.887760 
# 
# From -- ./inp_files/22068.got.cif
#   From: 2010.05.17/outbox.cif.g08.bks.cpg/sg13_12_cif.got.tgz:22068.got - 2010.06.03 16:44:36.
