data_PCOD9233105
_publ_section_title
;
Structure prediction by ZEFSAII (Michael W. Deem and Ramdas Pophale) SiO2 
 PCOD9233105
Probable space group: P 2/C
;
_chemical_formula_sum "Si O2"
_cell_formula_units_Z 20
_cell_length_a 12.396651
_cell_length_b 5.680955
_cell_length_c 20.591908
_cell_angle_alpha 90.000000
_cell_angle_beta 34.742448
_cell_angle_gamma 90.000000
_cell_volume 826.441610
_symmetry_space_group_name_H-M "P 2/C"
_symmetry_group_IT_number 13
_symmetry_cell_setting 'monoclinic'
loop_
_space_group_symop_operation_xyz
x,y,z
-x,y,1/2-z
-x,-y,-z
x,-y,1/2+z
loop_
_atom_site_type_symbol
_atom_site_label
_atom_site_fract_x
_atom_site_fract_y
_atom_site_fract_z
Si Si1 0.571679 0.592862 0.276027
Si Si2 0.089803 0.238616 0.402621
Si Si3 0.804019 0.622473 0.516446
Si Si4 0.319600 0.960760 0.180349
Si Si5 0.363293 0.700296 0.035127
O O1 0.500000 0.740959 0.250000
O O2 0.772304 0.468566 0.173260
O O3 0.415643 0.390568 0.355953
O O4 0.567408 0.756656 0.339133
O O5 0.106871 0.199300 0.473108
O O6 0.172160 0.063689 0.306671
O O7 0.891511 0.361593 0.484386
O O8 0.790677 0.654611 0.445719
O O9 0.253168 0.837502 0.146923
O O10 0.474415 0.144557 0.079518
O O11 0.500000 0.500000 0.000000
#
# Coordination Sequence:
#
# PCOD9233105 Si02
#       5
#     4   4   4   4   4
#     4  10  21  39  65  95 128 171 219 280 338 390
#     4  10  22  42  65 101 128 176 232 278 334 406
#     4  10  21  43  67  90 143 176 215 290 342 388
#     4  11  22  39  68  95 127 174 235 269 334 424
#     4  11  22  41  65  92 133 179 217 276 348 402
#
# _framework density 24.200133999999998
#
# number of rings (size 3 to 8) (size 9 to 14) (size 15 to 20)
#    0.000    1.600    4.000    0.000    2.800    0.000 
#    3.600    9.000    0.000    0.000    0.000    0.000 
#    0.000    0.000    0.000    0.000    0.000    0.000 
#
# Total GULP energy -111396.560136 kJ/mol
# GULP energy per Si atom -5569.828007 kJ/mol
# Density = 2.414505 g / cm^3
# Si number density = 24.200134 Si / 1000 Ang^3
#
#
#
# Elastic Constant Matrix: (Units=GPa)
#
#
# Indices 1 2 3 4 5 6 
#
# 1 194.5915 44.4994 46.0282 0.0000 59.5698 0.0000
# 2 44.4994 30.9627 23.0975 0.0000 24.5643 0.0000
# 3 46.0282 23.0975 114.0103 0.0000 27.8500 0.0000
# 4 0.0000 0.0000 0.0000 48.3936 0.0000 24.7718
# 5 59.5698 24.5643 27.8500 0.0000 48.1536 0.0000
# 6 0.0000 0.0000 0.0000 24.7718 0.0000 31.1793
#
#
#
# Elastic Compliance Matrix: (Units=1/GPa)
#
#
# Indices 1 2 3 4 5 6 
#
# 1 0.009103 -0.006746 -0.000464 0.000000 -0.007552 0.000000
# 2 -0.006746 0.061738 -0.004809 0.000000 -0.020368 0.000000
# 3 -0.000464 -0.004809 0.010706 0.000000 -0.003165 0.000000
# 4 0.000000 0.000000 0.000000 0.034828 0.000000 -0.027671
# 5 -0.007552 -0.020368 -0.003165 0.000000 0.042330 0.000000
# 6 0.000000 0.000000 0.000000 -0.027671 0.000000 0.054057
#
#
# Mechanical properties :
#
#
# Convention : Reuss Voigt Hill
#
# Bulk Modulus (GPa) = 17.38817 62.97941 40.18379
# Shear Modulus (GPa) = 19.53371 40.60793 30.07082
#
# Velocity S-wave (km/s) = 2.84416 4.10079 3.52886
# Velocity P-wave (km/s) = 4.24104 6.96440 5.76582
#
# Compressibility (1/GPa) = 0.05751037
#
# Stress axis : x y z
#
# Youngs Moduli (GPa) = 109.85247 16.19749 93.40810
#
# Poissons Ratio (x) = 0.10926 0.04332
# Poissons Ratio (y) = 0.74103 0.44918
# Poissons Ratio (z) = 0.05094 0.07789
#
# Static dielectric constant tensor:
#      x y z
#    x 2.012530 0.000000 0.111330 
#    y 0.000000 1.971620 0.000000 
#    z 0.111330 0.000000 1.962460 
# 
# From -- ./inp_files/77093.got.cif
#   From: 2010.05.17/outbox.cif.g08.bks.cpg/sg13_39_cif.got.tgz:77093.got - 2010.06.03 16:44:36.
