data_PCOD9233926
_publ_section_title
;
Structure prediction by ZEFSAII (Michael W. Deem and Ramdas Pophale) SiO2 
 PCOD9233926
Probable space group: P 2/C
;
_chemical_formula_sum "Si O2"
_cell_formula_units_Z 24
_cell_length_a 11.085749
_cell_length_b 7.469483
_cell_length_c 16.677298
_cell_angle_alpha 90.000000
_cell_angle_beta 49.689435
_cell_angle_gamma 90.000000
_cell_volume 1053.050162
_symmetry_space_group_name_H-M "P 2/C"
_symmetry_group_IT_number 13
_symmetry_cell_setting 'monoclinic'
loop_
_space_group_symop_operation_xyz
x,y,z
-x,y,1/2-z
-x,-y,-z
x,-y,1/2+z
loop_
_atom_site_type_symbol
_atom_site_label
_atom_site_fract_x
_atom_site_fract_y
_atom_site_fract_z
Si Si1 0.581110 0.815782 0.434849
Si Si2 0.118713 0.316790 0.769847
Si Si3 0.262321 0.372594 0.309905
Si Si4 0.380075 0.830461 0.374928
Si Si5 0.030111 0.792147 0.478086
Si Si6 0.429988 0.753119 0.886788
O O1 0.754243 0.826287 0.319638
O O2 0.460099 0.749720 0.419448
O O3 0.598849 0.705445 0.508918
O O4 0.500000 0.000000 0.500000
O O5 0.228659 0.470037 0.761825
O O6 0.017127 0.251986 0.889653
O O7 0.000000 0.371706 0.750000
O O8 0.382305 0.240079 0.212074
O O9 0.353183 0.384324 0.356680
O O10 0.091496 0.307038 0.412073
O O11 0.500000 0.805921 0.250000
O O12 0.209546 0.755899 0.426746
O O13 0.364978 0.047055 0.395580
O O14 0.000000 0.000000 0.500000
#
# Coordination Sequence:
#
# PCOD9233926 Si02
#       6
#     4   4   4   4   4   4
#     4  10  24  42  70 106 137 183 240 298 350 421
#     4  12  28  46  68 104 149 183 236 300 367 427
#     4  11  24  43  71 101 144 194 230 287 369 435
#     4  11  19  40  70 108 138 179 244 294 356 425
#     4  12  24  43  75 102 136 190 243 293 359 430
#     4  10  21  44  72  98 145 185 237 297 357 421
#
# _framework density 22.790939000000002
#
# number of rings (size 3 to 8) (size 9 to 14) (size 15 to 20)
#    0.000    1.000    5.000    1.500    4.667    4.667 
#    0.000    0.833    0.000    0.000    0.000    0.000 
#    0.000    0.000    0.000    0.000    0.000    0.000 
#
# Total GULP energy -134092.872302 kJ/mol
# GULP energy per Si atom -5587.203013 kJ/mol
# Density = 2.273907 g / cm^3
# Si number density = 22.790939 Si / 1000 Ang^3
#
#
#
# Elastic Constant Matrix: (Units=GPa)
#
#
# Indices 1 2 3 4 5 6 
#
# 1 164.4182 29.3882 47.0187 0.0000 10.7829 0.0000
# 2 29.3882 63.5693 25.8998 0.0000 1.2969 0.0000
# 3 47.0187 25.8998 110.0444 0.0000 -13.0956 0.0000
# 4 0.0000 0.0000 0.0000 26.7106 0.0000 -5.8968
# 5 10.7829 1.2969 -13.0956 0.0000 51.2081 0.0000
# 6 0.0000 0.0000 0.0000 -5.8968 0.0000 30.2549
#
#
#
# Elastic Compliance Matrix: (Units=1/GPa)
#
#
# Indices 1 2 3 4 5 6 
#
# 1 0.007466 -0.002207 -0.002941 0.000000 -0.002268 0.000000
# 2 -0.002207 0.018170 -0.003437 0.000000 -0.000874 0.000000
# 3 -0.002941 -0.003437 0.011589 0.000000 0.003670 0.000000
# 4 0.000000 0.000000 0.000000 0.039122 0.000000 0.007625
# 5 -0.002268 -0.000874 0.003670 0.000000 0.020966 0.000000
# 6 0.000000 0.000000 0.000000 0.007625 0.000000 0.034539
#
#
# Mechanical properties :
#
#
# Convention : Reuss Voigt Hill
#
# Bulk Modulus (GPa) = 49.86301 60.29391 55.07846
# Shear Modulus (GPa) = 32.11157 37.34975 34.73066
#
# Velocity S-wave (km/s) = 3.75769 4.05260 3.90793
# Velocity P-wave (km/s) = 6.38380 6.95778 6.67696
#
# Compressibility (1/GPa) = 0.02005495
#
# Stress axis : x y z
#
# Youngs Moduli (GPa) = 133.93597 55.03695 86.28602
#
# Poissons Ratio (x) = 0.12149 0.25373
# Poissons Ratio (y) = 0.29564 0.29659
# Poissons Ratio (z) = 0.39384 0.18918
#
# Static dielectric constant tensor:
#      x y z
#    x 1.858140 0.000000 -0.008680 
#    y 0.000000 1.951870 0.000000 
#    z -0.008680 0.000000 1.885620 
# 
# From -- ./inp_files/65926.got.cif
#   From: 2010.05.17/outbox.cif.g08.bks.cpg/sg13_33_cif.got.tgz:65926.got - 2010.06.03 16:44:36.
