data_PCOD9233949
_publ_section_title
;
Structure prediction by ZEFSAII (Michael W. Deem and Ramdas Pophale) SiO2 
 PCOD9233949
Probable space group: P 2/C
;
_chemical_formula_sum "Si O2"
_cell_formula_units_Z 28
_cell_length_a 12.858271
_cell_length_b 5.197543
_cell_length_c 19.995322
_cell_angle_alpha 90.000000
_cell_angle_beta 124.396194
_cell_angle_gamma 90.000000
_cell_volume 1102.662263
_symmetry_space_group_name_H-M "P 2/C"
_symmetry_group_IT_number 13
_symmetry_cell_setting 'monoclinic'
loop_
_space_group_symop_operation_xyz
x,y,z
-x,y,1/2-z
-x,-y,-z
x,-y,1/2+z
loop_
_atom_site_type_symbol
_atom_site_label
_atom_site_fract_x
_atom_site_fract_y
_atom_site_fract_z
Si Si1 0.729532 0.173784 0.328181
Si Si2 0.010260 0.139031 0.391687
Si Si3 0.500000 0.219082 0.750000
Si Si4 0.507002 0.719633 0.399297
Si Si5 0.818161 0.496135 0.613487
Si Si6 0.347300 0.761537 0.849359
Si Si7 0.000000 0.144562 0.750000
Si Si8 0.730841 0.879925 0.978554
O O1 0.702940 0.298370 0.244750
O O2 0.707786 0.253189 0.398119
O O3 0.879036 0.128483 0.381684
O O4 0.627502 0.945070 0.289069
O O5 0.069286 0.415927 0.395014
O O6 0.127080 0.989869 0.466902
O O7 0.981168 0.018116 0.309145
O O8 0.486870 0.361204 0.676376
O O9 0.448367 0.458644 0.407468
O O10 0.407821 0.955721 0.372522
O O11 0.636913 0.879026 0.457536
O O12 0.759283 0.731921 0.632895
O O13 0.723853 0.330900 0.534267
O O14 0.879527 0.320599 0.692456
#
# Coordination Sequence:
#
# PCOD9233949 Si02
#       8
#     4   4   2   4   4   4   2   4
#     4  10  21  45  70 105 141 188 249 302 372 436
#     4  11  23  42  70 101 144 194 242 307 375 440
#     4   8  20  40  68 100 142 180 248 304 358 422
#     4  10  24  44  69 107 142 195 241 308 360 442
#     4  11  25  42  66 106 139 197 241 310 368 449
#     4  11  25  43  76 104 143 194 254 299 370 426
#     4  10  22  40  66  94 142 180 252 300 358 448
#     4  10  25  45  68 103 153 186 245 305 379 442
#
# _framework density 25.393089
#
# number of rings (size 3 to 8) (size 9 to 14) (size 15 to 20)
#    0.000    1.714    0.000    2.571   10.000    5.143 
#    5.143    0.000    0.000    0.000    0.000    0.000 
#    0.000    0.000    0.000    0.000    0.000    0.000 
#
# Total GULP energy -156424.200935 kJ/mol
# GULP energy per Si atom -5586.578605 kJ/mol
# Density = 2.533529 g / cm^3
# Si number density = 25.393089 Si / 1000 Ang^3
#
#
#
# Elastic Constant Matrix: (Units=GPa)
#
#
# Indices 1 2 3 4 5 6 
#
# 1 108.8076 29.8463 20.1071 0.0000 25.7602 0.0000
# 2 29.8463 76.2659 10.0522 0.0000 14.0071 0.0000
# 3 20.1071 10.0522 125.3224 0.0000 -1.9259 0.0000
# 4 0.0000 0.0000 0.0000 13.7479 0.0000 31.9868
# 5 25.7602 14.0071 -1.9259 0.0000 40.9295 0.0000
# 6 0.0000 0.0000 0.0000 31.9868 0.0000 41.2554
#
#
#
# Elastic Compliance Matrix: (Units=1/GPa)
#
#
# Indices 1 2 3 4 5 6 
#
# 1 0.011942 -0.003251 -0.001755 0.000000 -0.006486 0.000000
# 2 -0.003251 0.015058 -0.000735 0.000000 -0.003142 0.000000
# 3 -0.001755 -0.000735 0.008347 0.000000 0.001749 0.000000
# 4 0.000000 0.000000 0.000000 -0.090476 0.000000 0.070150
# 5 -0.006486 -0.003142 0.001749 0.000000 0.029672 0.000000
# 6 0.000000 0.000000 0.000000 0.070150 0.000000 -0.030150
#
#
# Mechanical properties :
#
#
# Convention : Reuss Voigt Hill
#
# Bulk Modulus (GPa) = 41.90021 47.82301 44.86161
# Shear Modulus (GPa) = -138.23061 35.87925 -51.17568
#
# Velocity S-wave (km/s) = -7.38610 3.76301 -4.49412
# Velocity P-wave (km/s) = 7.49686 6.14445 3.03715
#
# Compressibility (1/GPa) = 0.02386623
#
# Stress axis : x y z
#
# Youngs Moduli (GPa) = 83.73670 66.40950 119.80667
#
# Poissons Ratio (x) = 0.21589 0.21026
# Poissons Ratio (y) = 0.27222 0.08800
# Poissons Ratio (z) = 0.14695 0.04878
#
# Static dielectric constant tensor:
#      x y z
#    x -26.687410 0.000000 -3.241850 
#    y 0.000000 1.994920 0.000000 
#    z -3.241850 0.000000 1.654360 
# 
# From -- ./inp_files/77637.got.cif
#   From: 2010.05.17/outbox.cif.g08.bks.cpg/sg13_39_cif.got.tgz:77637.got - 2010.06.03 16:44:36.
