data_PCOD9233088
_publ_section_title
;
Structure prediction by ZEFSAII (Michael W. Deem and Ramdas Pophale) SiO2 
 PCOD9233088
Probable space group: P 2/C
;
_chemical_formula_sum "Si O2"
_cell_formula_units_Z 20
_cell_length_a 10.863101
_cell_length_b 16.244864
_cell_length_c 5.234151
_cell_angle_alpha 90.000000
_cell_angle_beta 91.623346
_cell_angle_gamma 90.000000
_cell_volume 923.297815
_symmetry_space_group_name_H-M "P 2/C"
_symmetry_group_IT_number 13
_symmetry_cell_setting 'monoclinic'
loop_
_space_group_symop_operation_xyz
x,y,z
-x,y,1/2-z
-x,-y,-z
x,-y,1/2+z
loop_
_atom_site_type_symbol
_atom_site_label
_atom_site_fract_x
_atom_site_fract_y
_atom_site_fract_z
Si Si1 0.137953 0.466238 0.560309
Si Si2 0.500000 0.555917 0.250000
Si Si3 0.641703 0.766403 0.748315
Si Si4 0.728389 0.942704 0.764332
Si Si5 0.000000 0.056641 0.250000
Si Si6 0.271485 0.319297 0.745665
O O1 0.195790 0.475019 0.282007
O O2 0.152476 0.374784 0.671191
O O3 0.000000 0.500000 0.500000
O O4 0.500000 0.500000 0.500000
O O5 0.618628 0.614439 0.257255
O O6 0.500000 0.735829 0.750000
O O7 0.641130 0.864670 0.777557
O O8 0.700807 0.743641 0.480671
O O9 0.718794 0.725352 0.982662
O O10 0.866477 0.902538 0.755932
O O11 0.714997 0.998809 0.510911
O O12 0.000000 0.000000 0.500000
#
# Coordination Sequence:
#
# PCOD9233088 Si02
#       6
#     4   2   4   4   2   4
#     4  10  21  40  64  88 120 162 204 258 315 368
#     4  12  22  36  62  86 110 156 212 250 296 368
#     4  12  24  41  60  91 136 169 204 268 326 373
#     4  10  21  39  65  91 120 166 217 261 313 383
#     4   8  16  34  58  84 112 142 198 264 298 350
#     4  12  23  41  60  90 127 165 209 259 323 372
#
# _framework density 21.661483
#
# number of rings (size 3 to 8) (size 9 to 14) (size 15 to 20)
#    0.000    1.200    2.000    4.800    0.000    0.800 
#    0.000    6.000    0.000    0.000    0.000    0.000 
#    0.000    0.000    0.000    0.000    0.000    0.000 
#
# Total GULP energy -111663.783943 kJ/mol
# GULP energy per Si atom -5583.189197 kJ/mol
# Density = 2.161218 g / cm^3
# Si number density = 21.661483 Si / 1000 Ang^3
#
#
#
# Elastic Constant Matrix: (Units=GPa)
#
#
# Indices 1 2 3 4 5 6 
#
# 1 67.7629 16.2551 3.1226 0.0000 15.0377 0.0000
# 2 16.2551 95.7187 41.0886 0.0000 14.8684 0.0000
# 3 3.1226 41.0886 182.9538 0.0000 8.5008 0.0000
# 4 0.0000 0.0000 0.0000 36.8914 0.0000 -1.9647
# 5 15.0377 14.8684 8.5008 0.0000 17.6457 0.0000
# 6 0.0000 0.0000 0.0000 -1.9647 0.0000 34.5889
#
#
#
# Elastic Compliance Matrix: (Units=1/GPa)
#
#
# Indices 1 2 3 4 5 6 
#
# 1 0.018314 -0.001042 0.000620 0.000000 -0.015028 0.000000
# 2 -0.001042 0.013088 -0.002506 0.000000 -0.008933 0.000000
# 3 0.000620 -0.002506 0.006081 0.000000 -0.001345 0.000000
# 4 0.000000 0.000000 0.000000 0.027189 0.000000 0.001544
# 5 -0.015028 -0.008933 -0.001345 0.000000 0.077653 0.000000
# 6 0.000000 0.000000 0.000000 0.001544 0.000000 0.028999
#
#
# Mechanical properties :
#
#
# Convention : Reuss Voigt Hill
#
# Bulk Modulus (GPa) = 31.62072 51.92979 41.77526
# Shear Modulus (GPa) = 26.63531 36.88980 31.76255
#
# Velocity S-wave (km/s) = 3.51039 4.13124 3.83340
# Velocity P-wave (km/s) = 5.57314 6.83970 6.23864
#
# Compressibility (1/GPa) = 0.03162483
#
# Stress axis : x y z
#
# Youngs Moduli (GPa) = 54.60436 76.40789 164.45440
#
# Poissons Ratio (x) = 0.07960 -0.10190
# Poissons Ratio (y) = 0.05688 0.41220
# Poissons Ratio (z) = -0.03383 0.19151
#
# Static dielectric constant tensor:
#      x y z
#    x 1.966210 0.000000 -0.018690 
#    y 0.000000 1.750690 0.000000 
#    z -0.018690 0.000000 1.809510 
# 
# From -- ./inp_files/3230.got.cif
#   From: 2010.05.17/outbox.cif.g08.bks.cpg/sg13_2_cif.got.tgz:3230.got - 2010.06.03 16:44:36.
