data_PCOD9233902
_publ_section_title
;
Structure prediction by ZEFSAII (Michael W. Deem and Ramdas Pophale) SiO2 
 PCOD9233902
Probable space group: P 2/C
;
_chemical_formula_sum "Si O2"
_cell_formula_units_Z 20
_cell_length_a 20.214082
_cell_length_b 8.812435
_cell_length_c 8.356010
_cell_angle_alpha 90.000000
_cell_angle_beta 151.095957
_cell_angle_gamma 90.000000
_cell_volume 719.457882
_symmetry_space_group_name_H-M "P 2/C"
_symmetry_group_IT_number 13
_symmetry_cell_setting 'monoclinic'
loop_
_space_group_symop_operation_xyz
x,y,z
-x,y,1/2-z
-x,-y,-z
x,-y,1/2+z
loop_
_atom_site_type_symbol
_atom_site_label
_atom_site_fract_x
_atom_site_fract_y
_atom_site_fract_z
Si Si1 0.296196 0.035155 0.921224
Si Si2 0.368915 0.228074 0.766281
Si Si3 0.000000 0.052543 0.250000
Si Si4 0.500000 0.458150 0.250000
Si Si5 0.868193 0.727050 0.257858
Si Si6 0.205050 0.571776 0.711213
O O1 0.342861 0.131370 0.869993
O O2 0.260026 0.157701 0.984052
O O3 0.144451 0.970633 0.556948
O O4 0.390555 0.898548 0.177195
O O5 0.236711 0.323434 0.431008
O O6 0.481813 0.349782 0.056290
O O7 0.009687 0.164173 0.424145
O O8 0.640562 0.547956 0.531499
O O9 0.849585 0.588895 0.343484
O O10 0.877496 0.649768 0.106156
#
# Coordination Sequence:
#
# PCOD9233902 Si02
#       6
#     4   4   2   2   4   4
#     4  10  23  47  64 102 138 172 231 275 332 403
#     4  12  25  44  70  99 138 179 229 281 328 408
#     4   8  22  44  70  94 140 178 220 278 340 400
#     4  12  24  44  72 100 134 184 222 276 348 392
#     4  10  21  44  67 101 140 170 231 275 333 410
#     4  12  23  43  71 102 137 178 225 284 332 406
#
# _framework density 27.798708999999999
#
# number of rings (size 3 to 8) (size 9 to 14) (size 15 to 20)
#    1.200    0.000    4.000    1.800    0.000    2.400 
#    0.000    2.000    0.000    0.000    0.000    0.000 
#    0.000    0.000    0.000    0.000    0.000    0.000 
#
# Total GULP energy -112059.288939 kJ/mol
# GULP energy per Si atom -5602.964447 kJ/mol
# Density = 2.773544 g / cm^3
# Si number density = 27.798709 Si / 1000 Ang^3
#
#
#
# Elastic Constant Matrix: (Units=GPa)
#
#
# Indices 1 2 3 4 5 6 
#
# 1 96.6957 32.3343 19.4366 0.0000 -11.0787 0.0000
# 2 32.3343 141.7542 28.9944 0.0000 -18.3035 0.0000
# 3 19.4366 28.9944 109.6365 0.0000 -17.3240 0.0000
# 4 0.0000 0.0000 0.0000 33.8258 0.0000 -14.7735
# 5 -11.0787 -18.3035 -17.3240 0.0000 41.4204 0.0000
# 6 0.0000 0.0000 0.0000 -14.7735 0.0000 49.8990
#
#
#
# Elastic Compliance Matrix: (Units=1/GPa)
#
#
# Indices 1 2 3 4 5 6 
#
# 1 0.011494 -0.002166 -0.001210 0.000000 0.001611 0.000000
# 2 -0.002166 0.008147 -0.001385 0.000000 0.002442 0.000000
# 3 -0.001210 -0.001385 0.010230 0.000000 0.003343 0.000000
# 4 0.000000 0.000000 0.000000 0.033954 0.000000 0.010053
# 5 0.001611 0.002442 0.003343 0.000000 0.027051 0.000000
# 6 0.000000 0.000000 0.000000 0.010053 0.000000 0.023017
#
#
# Mechanical properties :
#
#
# Convention : Reuss Voigt Hill
#
# Bulk Modulus (GPa) = 49.14337 56.62411 52.88374
# Shear Modulus (GPa) = 38.40314 42.85043 40.62679
#
# Velocity S-wave (km/s) = 3.72085 3.93039 3.82706
# Velocity P-wave (km/s) = 6.01467 6.40397 6.21237
#
# Compressibility (1/GPa) = 0.02034863
#
# Stress axis : x y z
#
# Youngs Moduli (GPa) = 87.00247 122.74326 97.75107
#
# Poissons Ratio (x) = 0.26589 0.11830
# Poissons Ratio (y) = 0.18847 0.13536
# Poissons Ratio (z) = 0.10529 0.16997
#
# Static dielectric constant tensor:
#      x y z
#    x 2.152190 0.000000 -0.034410 
#    y 0.000000 2.166760 0.000000 
#    z -0.034410 0.000000 2.161080 
# 
# From -- ./inp_files/23981.got.cif
#   From: 2010.05.17/outbox.cif.g08.bks.cpg/sg13_12_cif.got.tgz:23981.got - 2010.06.03 16:44:36.
