data_PCOD9233619
_publ_section_title
;
Structure prediction by ZEFSAII (Michael W. Deem and Ramdas Pophale) SiO2 
 PCOD9233619
Probable space group: P 2/C
;
_chemical_formula_sum "Si O2"
_cell_formula_units_Z 18
_cell_length_a 12.107750
_cell_length_b 6.952982
_cell_length_c 10.255359
_cell_angle_alpha 90.000000
_cell_angle_beta 45.280966
_cell_angle_gamma 90.000000
_cell_volume 613.464867
_symmetry_space_group_name_H-M "P 2/C"
_symmetry_group_IT_number 13
_symmetry_cell_setting 'monoclinic'
loop_
_space_group_symop_operation_xyz
x,y,z
-x,y,1/2-z
-x,-y,-z
x,-y,1/2+z
loop_
_atom_site_type_symbol
_atom_site_label
_atom_site_fract_x
_atom_site_fract_y
_atom_site_fract_z
Si Si1 0.615125 0.106160 0.307610
Si Si2 0.724141 0.286075 0.606792
Si Si3 0.000000 0.299959 0.750000
Si Si4 0.662128 0.623527 0.460254
Si Si5 0.953503 0.781902 0.572619
O O1 0.670704 0.425489 0.535450
O O2 0.502147 0.282217 0.372447
O O3 0.662470 0.934657 0.167406
O O4 0.771065 0.190105 0.243848
O O5 0.684975 0.371791 0.783831
O O6 0.500000 0.000000 0.000000
O O7 0.812401 0.252478 0.886269
O O8 0.978133 0.343719 0.921962
O O9 0.911637 0.272236 0.439185
O O10 0.000000 0.000000 0.500000
#
# Coordination Sequence:
#
# PCOD9233619 Si02
#       5
#     4   4   2   4   4
#     4   9  19  41  75 109 147 207 271 325 394 483
#     4   9  20  42  73 110 152 207 266 324 399 480
#     4  10  22  40  68 100 146 202 252 312 394 472
#     4  10  21  41  72 109 155 204 261 328 395 475
#     4   9  19  40  70 101 141 197 260 317 384 471
#
# _framework density 29.341535
#
# number of rings (size 3 to 8) (size 9 to 14) (size 15 to 20)
#    0.000    2.667    0.000    1.333    0.000    4.444 
#    0.000   18.889    0.000   25.333    0.000    0.000 
#    0.000    1.778    0.000    0.000    0.000    0.000 
#
# Total GULP energy -100373.241448 kJ/mol
# GULP energy per Si atom -5576.291192 kJ/mol
# Density = 2.927475 g / cm^3
# Si number density = 29.341535 Si / 1000 Ang^3
#
#
#
# Elastic Constant Matrix: (Units=GPa)
#
#
# Indices 1 2 3 4 5 6 
#
# 1 250.1438 95.8118 109.8553 0.0000 -67.8785 0.0000
# 2 95.8118 207.1683 92.3363 0.0000 -15.1598 0.0000
# 3 109.8553 92.3363 208.7419 0.0000 -18.5042 0.0000
# 4 0.0000 0.0000 0.0000 19.8032 0.0000 3.0253
# 5 -67.8785 -15.1598 -18.5042 0.0000 89.2212 0.0000
# 6 0.0000 0.0000 0.0000 3.0253 0.0000 59.9960
#
#
#
# Elastic Compliance Matrix: (Units=1/GPa)
#
#
# Indices 1 2 3 4 5 6 
#
# 1 0.007003 -0.001799 -0.002490 0.000000 0.004506 0.000000
# 2 -0.001799 0.006495 -0.001986 0.000000 -0.000677 0.000000
# 3 -0.002490 -0.001986 0.006909 0.000000 -0.000799 0.000000
# 4 0.000000 0.000000 0.000000 0.050889 0.000000 -0.002566
# 5 0.004506 -0.000677 -0.000799 0.000000 0.014355 0.000000
# 6 0.000000 0.000000 0.000000 -0.002566 0.000000 0.016797
#
#
# Mechanical properties :
#
#
# Convention : Reuss Voigt Hill
#
# Bulk Modulus (GPa) = 127.29713 140.22898 133.76305
# Shear Modulus (GPa) = 42.51060 58.34079 50.42569
#
# Velocity S-wave (km/s) = 3.81047 4.46391 4.15007
# Velocity P-wave (km/s) = 7.92706 8.62928 8.28561
#
# Compressibility (1/GPa) = 0.00785564
#
# Stress axis : x y z
#
# Youngs Moduli (GPa) = 142.79238 153.97043 144.74126
#
# Poissons Ratio (x) = 0.27702 0.36045
# Poissons Ratio (y) = 0.25691 0.28747
# Poissons Ratio (z) = 0.35560 0.30580
#
# Static dielectric constant tensor:
#      x y z
#    x 2.344800 0.000000 0.002220 
#    y 0.000000 2.406420 0.000000 
#    z 0.002220 0.000000 2.304380 
# 
# From -- ./inp_files/32093.got.cif
#   From: 2010.05.17/outbox.cif.g08.bks.cpg/sg13_17_cif.got.tgz:32093.got - 2010.06.03 16:44:36.
