data_PCOD9233335
_publ_section_title
;
Structure prediction by ZEFSAII (Michael W. Deem and Ramdas Pophale) SiO2 
 PCOD9233335
Probable space group: P 2/C
;
_chemical_formula_sum "Si O2"
_cell_formula_units_Z 24
_cell_length_a 8.740386
_cell_length_b 14.462667
_cell_length_c 20.527096
_cell_angle_alpha 90.000000
_cell_angle_beta 26.045071
_cell_angle_gamma 90.000000
_cell_volume 1139.326571
_symmetry_space_group_name_H-M "P 2/C"
_symmetry_group_IT_number 13
_symmetry_cell_setting 'monoclinic'
loop_
_space_group_symop_operation_xyz
x,y,z
-x,y,1/2-z
-x,-y,-z
x,-y,1/2+z
loop_
_atom_site_type_symbol
_atom_site_label
_atom_site_fract_x
_atom_site_fract_y
_atom_site_fract_z
Si Si1 0.903921 0.587671 0.578546
Si Si2 0.289148 0.257366 0.441092
Si Si3 0.021818 0.629948 0.672358
Si Si4 0.271702 0.257051 0.596559
Si Si5 0.407340 0.061347 0.213459
Si Si6 0.586975 0.068845 0.525310
O O1 0.500000 0.581514 0.750000
O O2 0.938719 0.682238 0.522854
O O3 0.000000 0.500000 0.500000
O O4 0.082738 0.580626 0.580437
O O5 0.143239 0.251695 0.570716
O O6 0.368912 0.153788 0.386560
O O7 0.665420 0.310370 0.300423
O O8 0.356804 0.694043 0.550786
O O9 0.000000 0.577250 0.750000
O O10 0.369172 0.159803 0.592703
O O11 0.000000 0.303503 0.750000
O O12 0.500000 0.027625 0.250000
O O13 0.999940 0.087613 0.366601
O O14 0.484727 0.983056 0.130690
O O15 0.500000 0.000000 0.500000
#
# Coordination Sequence:
#
# PCOD9233335 Si02
#       6
#     4   4   4   4   4   4
#     4  10  22  42  68  98 126 162 209 264 332 399
#     4  10  21  40  66  88 124 173 209 257 327 400
#     4   9  19  39  65  91 118 167 212 249 316 399
#     4  11  22  38  58  92 127 164 220 267 316 373
#     4  12  24  41  62  92 131 173 227 273 323 382
#     4  12  24  39  62  92 127 175 222 275 318 373
#
# _framework density 21.065076000000001
#
# number of rings (size 3 to 8) (size 9 to 14) (size 15 to 20)
#    0.000    1.333    3.333    3.500    0.000    1.333 
#    0.000    8.333    0.000    0.000    0.000    0.000 
#    0.000    0.000    0.000    0.000    0.000    0.000 
#
# Total GULP energy -133965.115710 kJ/mol
# GULP energy per Si atom -5581.879821 kJ/mol
# Density = 2.101713 g / cm^3
# Si number density = 21.065076 Si / 1000 Ang^3
#
#
#
# Elastic Constant Matrix: (Units=GPa)
#
#
# Indices 1 2 3 4 5 6 
#
# 1 130.6757 38.1622 41.6121 0.0000 55.9339 0.0000
# 2 38.1622 57.4900 26.6191 0.0000 29.2186 0.0000
# 3 41.6121 26.6191 89.0015 0.0000 40.9386 0.0000
# 4 0.0000 0.0000 0.0000 23.3009 0.0000 15.8345
# 5 55.9339 29.2186 40.9386 0.0000 53.4078 0.0000
# 6 0.0000 0.0000 0.0000 15.8345 0.0000 16.7933
#
#
#
# Elastic Compliance Matrix: (Units=1/GPa)
#
#
# Indices 1 2 3 4 5 6 
#
# 1 0.014155 -0.002630 0.000503 0.000000 -0.013771 0.000000
# 2 -0.002630 0.024763 -0.001872 0.000000 -0.009358 0.000000
# 3 0.000503 -0.001872 0.017503 0.000000 -0.012919 0.000000
# 4 0.000000 0.000000 0.000000 0.119469 0.000000 -0.112648
# 5 -0.013771 -0.009358 -0.012919 0.000000 0.048169 0.000000
# 6 0.000000 0.000000 0.000000 -0.112648 0.000000 0.165764
#
#
# Mechanical properties :
#
#
# Convention : Reuss Voigt Hill
#
# Bulk Modulus (GPa) = 20.65144 54.43933 37.54539
# Shear Modulus (GPa) = 12.07841 30.08529 21.08185
#
# Velocity S-wave (km/s) = 2.39714 3.78326 3.16697
# Velocity P-wave (km/s) = 4.18171 6.70698 5.58884
#
# Compressibility (1/GPa) = 0.04842277
#
# Stress axis : x y z
#
# Youngs Moduli (GPa) = 70.64624 40.38257 57.13293
#
# Poissons Ratio (x) = 0.10621 -0.02874
# Poissons Ratio (y) = 0.18580 0.10696
# Poissons Ratio (z) = -0.03553 0.07560
#
# Static dielectric constant tensor:
#      x y z
#    x 1.852910 0.000000 0.037600 
#    y 0.000000 1.735990 0.000000 
#    z 0.037600 0.000000 1.793200 
# 
# From -- ./inp_files/12481.got.cif
#   From: 2010.05.17/outbox.cif.g08.bks.cpg/sg13_7_cif.got.tgz:12481.got - 2010.06.03 16:44:36.
