data_PCOD9233975
_publ_section_title
;
Structure prediction by ZEFSAII (Michael W. Deem and Ramdas Pophale) SiO2 
 PCOD9233975
Probable space group: P 2/C
;
_chemical_formula_sum "Si O2"
_cell_formula_units_Z 20
_cell_length_a 14.385723
_cell_length_b 6.911570
_cell_length_c 14.948105
_cell_angle_alpha 90.000000
_cell_angle_beta 143.973106
_cell_angle_gamma 90.000000
_cell_volume 874.165517
_symmetry_space_group_name_H-M "P 2/C"
_symmetry_group_IT_number 13
_symmetry_cell_setting 'monoclinic'
loop_
_space_group_symop_operation_xyz
x,y,z
-x,y,1/2-z
-x,-y,-z
x,-y,1/2+z
loop_
_atom_site_type_symbol
_atom_site_label
_atom_site_fract_x
_atom_site_fract_y
_atom_site_fract_z
Si Si1 0.768947 0.150374 0.534434
Si Si2 0.500000 0.651459 0.750000
Si Si3 0.186533 0.012159 0.130975
Si Si4 0.238096 0.214480 0.346126
Si Si5 0.000000 0.498382 0.750000
Si Si6 0.558443 0.711826 0.200901
O O1 0.589141 0.220800 0.391649
O O2 0.795900 0.060312 0.458839
O O3 0.799790 0.991201 0.634001
O O4 0.869494 0.346326 0.615470
O O5 0.395829 0.500195 0.726654
O O6 0.248915 0.168333 0.250361
O O7 0.095650 0.361305 0.257524
O O8 0.000000 0.000000 0.000000
O O9 0.294887 0.178211 0.727987
O O10 0.403560 0.287962 0.517484
O O11 0.500000 0.807021 0.250000
#
# Coordination Sequence:
#
# PCOD9233975 Si02
#       6
#     4   2   4   4   2   4
#     4  12  24  47  73 101 144 191 235 290 368 419
#     4  10  22  44  78 100 136 196 242 288 354 424
#     4  12  26  44  75 109 141 188 238 297 359 421
#     4  12  25  46  72 103 147 190 236 292 359 427
#     4  12  24  44  70 106 144 190 234 296 354 428
#     4  10  21  47  73  97 147 187 232 297 351 415
#
# _framework density 22.878962000000001
#
# number of rings (size 3 to 8) (size 9 to 14) (size 15 to 20)
#    0.600    0.000    4.000    4.800    2.800    0.800 
#    3.600    2.000    0.000    0.000    0.000    0.000 
#    0.000    0.000    0.000    0.000    0.000    0.000 
#
# Total GULP energy -111702.805036 kJ/mol
# GULP energy per Si atom -5585.140252 kJ/mol
# Density = 2.282689 g / cm^3
# Si number density = 22.878962 Si / 1000 Ang^3
#
#
#
# Elastic Constant Matrix: (Units=GPa)
#
#
# Indices 1 2 3 4 5 6 
#
# 1 80.1694 23.3338 7.6245 0.0000 6.6239 0.0000
# 2 23.3338 103.7985 4.4016 0.0000 10.4164 0.0000
# 3 7.6245 4.4016 57.0381 0.0000 8.0676 0.0000
# 4 0.0000 0.0000 0.0000 20.1818 0.0000 18.2234
# 5 6.6239 10.4164 8.0676 0.0000 29.5511 0.0000
# 6 0.0000 0.0000 0.0000 18.2234 0.0000 -0.5722
#
#
#
# Elastic Compliance Matrix: (Units=1/GPa)
#
#
# Indices 1 2 3 4 5 6 
#
# 1 0.013563 -0.002823 -0.001358 0.000000 -0.001674 0.000000
# 2 -0.002823 0.010579 -0.000001 0.000000 -0.003096 0.000000
# 3 -0.001358 -0.000001 0.018380 0.000000 -0.004713 0.000000
# 4 0.000000 0.000000 0.000000 0.001665 0.000000 0.053030
# 5 -0.001674 -0.003096 -0.004713 0.000000 0.036593 0.000000
# 6 0.000000 0.000000 0.000000 0.053030 0.000000 -0.058730
#
#
# Mechanical properties :
#
#
# Convention : Reuss Voigt Hill
#
# Bulk Modulus (GPa) = 29.27636 34.63619 31.95628
# Shear Modulus (GPa) = 119.61031 23.54190 71.57610
#
# Velocity S-wave (km/s) = 7.23831 3.21125 5.59934
# Velocity P-wave (km/s) = 9.09293 5.37784 7.47003
#
# Compressibility (1/GPa) = 0.03415725
#
# Stress axis : x y z
#
# Youngs Moduli (GPa) = 73.73095 94.52272 54.40572
#
# Poissons Ratio (x) = 0.26687 0.07390
# Poissons Ratio (y) = 0.20816 0.00006
# Poissons Ratio (z) = 0.10015 0.00010
#
# Static dielectric constant tensor:
#      x y z
#    x 1.919880 0.000000 0.083540 
#    y 0.000000 1.929700 0.000000 
#    z 0.083540 0.000000 1.874020 
# 
# From -- ./inp_files/38692.got.cif
#   From: 2010.05.17/outbox.cif.g08.bks.cpg/sg13_20_cif.got.tgz:38692.got - 2010.06.03 16:44:36.
