data_PCOD9233931
_publ_section_title
;
Structure prediction by ZEFSAII (Michael W. Deem and Ramdas Pophale) SiO2 
 PCOD9233931
Probable space group: P 2/C
;
_chemical_formula_sum "Si O2"
_cell_formula_units_Z 20
_cell_length_a 7.658226
_cell_length_b 23.397005
_cell_length_c 5.333026
_cell_angle_alpha 90.000000
_cell_angle_beta 65.230139
_cell_angle_gamma 90.000000
_cell_volume 867.654926
_symmetry_space_group_name_H-M "P 2/C"
_symmetry_group_IT_number 13
_symmetry_cell_setting 'monoclinic'
loop_
_space_group_symop_operation_xyz
x,y,z
-x,y,1/2-z
-x,-y,-z
x,-y,1/2+z
loop_
_atom_site_type_symbol
_atom_site_label
_atom_site_fract_x
_atom_site_fract_y
_atom_site_fract_z
Si Si1 0.000000 0.037873 0.750000
Si Si2 0.500000 0.405293 0.750000
Si Si3 0.784143 0.748321 0.276739
Si Si4 0.000000 0.205593 0.250000
Si Si5 0.717819 0.864526 0.544168
Si Si6 0.500000 0.333756 0.250000
Si Si7 0.920065 0.564340 0.049948
O O1 0.182373 0.080130 0.630452
O O2 0.000000 0.000000 0.500000
O O3 0.558758 0.371720 0.457987
O O4 0.308143 0.439003 0.798801
O O5 0.701648 0.811569 0.364835
O O6 0.655492 0.705341 0.510472
O O7 0.000000 0.745156 0.250000
O O8 0.834476 0.750650 0.953018
O O9 0.872333 0.162613 0.152030
O O10 0.500000 0.877684 0.750000
O O11 0.000000 0.594371 0.250000
O O12 0.000000 0.592405 0.750000
O O13 0.000000 0.500000 0.000000
#
# Coordination Sequence:
#
# PCOD9233931 Si02
#       7
#     2   2   4   2   4   2   4
#     4  12  27  48  68 106 152 184 238 323 388 426
#     4  12  28  46  69 112 162 193 240 326 368 428
#     4  10  23  43  70 105 137 197 249 299 359 458
#     4  10  21  44  74 104 140 182 256 313 342 436
#     4  11  23  44  73 102 135 187 252 299 359 460
#     4  12  28  44  71 110 156 199 242 304 394 442
#     4  10  23  45  78 109 143 198 257 299 362 437
#
# _framework density 23.050637999999999
#
# number of rings (size 3 to 8) (size 9 to 14) (size 15 to 20)
#    0.000    1.200    4.000    1.800    5.600    7.200 
#    0.000    0.000    0.000    0.000    0.000    0.000 
#    0.000    0.000    0.000    0.000    0.000    0.000 
#
# Total GULP energy -111492.583540 kJ/mol
# GULP energy per Si atom -5574.629177 kJ/mol
# Density = 2.299817 g / cm^3
# Si number density = 23.050638 Si / 1000 Ang^3
#
#
#
# Elastic Constant Matrix: (Units=GPa)
#
#
# Indices 1 2 3 4 5 6 
#
# 1 114.1206 37.6302 67.3780 0.0000 -29.8474 0.0000
# 2 37.6302 91.0126 53.1940 0.0000 -18.8962 0.0000
# 3 67.3780 53.1940 171.9603 0.0000 -13.6970 0.0000
# 4 0.0000 0.0000 0.0000 -15.7558 0.0000 11.5029
# 5 -29.8474 -18.8962 -13.6970 0.0000 65.3228 0.0000
# 6 0.0000 0.0000 0.0000 11.5029 0.0000 -4.4089
#
#
#
# Elastic Compliance Matrix: (Units=1/GPa)
#
#
# Indices 1 2 3 4 5 6 
#
# 1 0.013050 -0.002053 -0.004119 0.000000 0.004505 0.000000
# 2 -0.002053 0.014365 -0.003441 0.000000 0.002496 0.000000
# 3 -0.004119 -0.003441 0.008405 0.000000 -0.001115 0.000000
# 4 0.000000 0.000000 0.000000 0.070148 0.000000 0.183017
# 5 0.004505 0.002496 -0.001115 0.000000 0.017855 0.000000
# 6 0.000000 0.000000 0.000000 0.183017 0.000000 0.250682
#
#
# Mechanical properties :
#
#
# Convention : Reuss Voigt Hill
#
# Bulk Modulus (GPa) = 60.25984 77.05533 68.65759
# Shear Modulus (GPa) = 12.52308 23.62438 18.07373
#
# Velocity S-wave (km/s) = 2.33338 3.20486 2.80320
# Velocity P-wave (km/s) = 5.78435 6.86995 6.35039
#
# Compressibility (1/GPa) = 0.01659480
#
# Stress axis : x y z
#
# Youngs Moduli (GPa) = 76.62845 69.61170 118.97787
#
# Poissons Ratio (x) = 0.14288 0.49013
# Poissons Ratio (y) = 0.15728 0.40937
# Poissons Ratio (z) = 0.31567 0.23951
#
# Static dielectric constant tensor:
#      x y z
#    x 2.006320 0.000000 0.114660 
#    y 0.000000 1.796270 0.000000 
#    z 0.114660 0.000000 2.079630 
# 
# From -- ./inp_files/2385.got.cif
#   From: 2010.05.17/outbox.cif.g08.bks.cpg/sg13_2_cif.got.tgz:2385.got - 2010.06.03 16:44:36.
