data_PCOD9233304
_publ_section_title
;
Structure prediction by ZEFSAII (Michael W. Deem and Ramdas Pophale) SiO2 
 PCOD9233304
Probable space group: P 2/C
;
_chemical_formula_sum "Si O2"
_cell_formula_units_Z 24
_cell_length_a 9.213469
_cell_length_b 5.146889
_cell_length_c 22.696706
_cell_angle_alpha 90.000000
_cell_angle_beta 110.581429
_cell_angle_gamma 90.000000
_cell_volume 1007.597704
_symmetry_space_group_name_H-M "P 2/C"
_symmetry_group_IT_number 13
_symmetry_cell_setting 'monoclinic'
loop_
_space_group_symop_operation_xyz
x,y,z
-x,y,1/2-z
-x,-y,-z
x,-y,1/2+z
loop_
_atom_site_type_symbol
_atom_site_label
_atom_site_fract_x
_atom_site_fract_y
_atom_site_fract_z
Si Si1 0.500000 0.995969 0.250000
Si Si2 0.000000 0.060385 0.750000
Si Si3 0.576159 0.826547 0.629127
Si Si4 0.814670 0.934600 0.825906
Si Si5 0.013458 0.772057 0.447666
Si Si6 0.771737 0.328804 0.626467
Si Si7 0.765051 0.343721 0.428425
O O1 0.446773 0.133957 0.303419
O O2 0.335103 0.880068 0.205462
O O3 0.893229 0.884851 0.775687
O O4 0.894623 0.236752 0.693137
O O5 0.695063 0.597290 0.633999
O O6 0.410714 0.724764 0.579976
O O7 0.642700 0.094847 0.610563
O O8 0.943913 0.047346 0.887256
O O9 0.762127 0.693641 0.857280
O O10 0.142136 0.626857 0.423770
O O11 0.124307 0.849387 0.517875
O O12 0.866233 0.604265 0.449613
#
# Coordination Sequence:
#
# PCOD9233304 Si02
#       7
#     2   2   4   4   4   4   4
#     4  10  22  40  68  96 136 174 224 274 344 406
#     4  10  22  40  68  96 136 174 224 274 344 406
#     4  11  26  45  68 103 140 182 228 284 350 411
#     4  10  21  40  64  96 133 172 224 278 338 406
#     4  10  24  43  68  98 133 182 233 285 340 410
#     4  11  26  45  68 103 140 182 228 284 350 411
#     4  10  24  43  68  98 133 182 233 285 340 410
#
# _framework density 23.819027999999999
#
# number of rings (size 3 to 8) (size 9 to 14) (size 15 to 20)
#    0.000    1.667    1.667    0.500    9.333    8.000 
#    0.000    0.000    0.000    0.000    0.000    0.000 
#    0.000    0.000    0.000    0.000    0.000    0.000 
#
# Total GULP energy -133611.493737 kJ/mol
# GULP energy per Si atom -5567.145572 kJ/mol
# Density = 2.376481 g / cm^3
# Si number density = 23.819028 Si / 1000 Ang^3
#
#
#
# Elastic Constant Matrix: (Units=GPa)
#
#
# Indices 1 2 3 4 5 6 
#
# 1 109.6514 8.6910 43.5104 0.0000 0.1692 0.0000
# 2 8.6910 66.9199 -0.5594 0.0000 -7.9381 0.0000
# 3 43.5104 -0.5594 105.9244 0.0000 6.8727 0.0000
# 4 0.0000 0.0000 0.0000 9.6267 0.0000 17.2217
# 5 0.1692 -7.9381 6.8727 0.0000 37.5443 0.0000
# 6 0.0000 0.0000 0.0000 17.2217 0.0000 1.3956
#
#
#
# Elastic Compliance Matrix: (Units=1/GPa)
#
#
# Indices 1 2 3 4 5 6 
#
# 1 0.011047 -0.001415 -0.004577 0.000000 0.000489 0.000000
# 2 -0.001415 0.015511 0.000455 0.000000 0.003202 0.000000
# 3 -0.004577 0.000455 0.011452 0.000000 -0.001979 0.000000
# 4 0.000000 0.000000 0.000000 -0.004929 0.000000 0.060821
# 5 0.000489 0.003202 -0.001979 0.000000 0.027672 0.000000
# 6 0.000000 0.000000 0.000000 0.060821 0.000000 -0.033998
#
#
# Mechanical properties :
#
#
# Convention : Reuss Voigt Hill
#
# Bulk Modulus (GPa) = 37.12467 42.86441 39.99454
# Shear Modulus (GPa) = 106.81967 25.10355 65.96161
#
# Velocity S-wave (km/s) = 6.70401 3.24995 5.26811
# Velocity P-wave (km/s) = 8.69166 5.66726 7.33699
#
# Compressibility (1/GPa) = 0.02693626
#
# Stress axis : x y z
#
# Youngs Moduli (GPa) = 90.51857 64.47159 87.32345
#
# Poissons Ratio (x) = 0.09123 0.39969
# Poissons Ratio (y) = 0.12809 -0.03977
# Poissons Ratio (z) = 0.41432 -0.02936
#
# Static dielectric constant tensor:
#      x y z
#    x 2.044110 0.000000 -0.008630 
#    y 0.000000 2.022010 0.000000 
#    z -0.008630 0.000000 1.948710 
# 
# From -- ./inp_files/84307.got.cif
#   From: 2010.05.17/outbox.cif.g08.bks.cpg/sg13_43_cif.got.tgz:84307.got - 2010.06.03 16:44:36.
