data_PCOD9233473
_publ_section_title
;
Structure prediction by ZEFSAII (Michael W. Deem and Ramdas Pophale) SiO2 
 PCOD9233473
Probable space group: P 2/C
;
_chemical_formula_sum "Si O2"
_cell_formula_units_Z 26
_cell_length_a 13.108689
_cell_length_b 6.446242
_cell_length_c 24.433767
_cell_angle_alpha 90.000000
_cell_angle_beta 35.148935
_cell_angle_gamma 90.000000
_cell_volume 1188.653828
_symmetry_space_group_name_H-M "P 2/C"
_symmetry_group_IT_number 13
_symmetry_cell_setting 'monoclinic'
loop_
_space_group_symop_operation_xyz
x,y,z
-x,y,1/2-z
-x,-y,-z
x,-y,1/2+z
loop_
_atom_site_type_symbol
_atom_site_label
_atom_site_fract_x
_atom_site_fract_y
_atom_site_fract_z
Si Si1 0.166250 0.299619 0.034859
Si Si2 0.925911 0.359981 0.842121
Si Si3 0.500000 0.011640 0.250000
Si Si4 0.464751 0.670204 0.172205
Si Si5 0.696909 0.983434 0.434922
Si Si6 0.783594 0.035793 0.778304
Si Si7 0.221820 0.715818 0.817463
O O1 0.076356 0.446598 0.118972
O O2 0.246446 0.110804 0.036215
O O3 0.989166 0.271429 0.075640
O O4 0.338379 0.403838 0.931212
O O5 0.000000 0.408251 0.750000
O O6 0.043479 0.169147 0.812242
O O7 0.732871 0.260510 0.926444
O O8 0.504150 0.855688 0.197299
O O9 0.667948 0.160944 0.184808
O O10 0.367457 0.788888 0.164790
O O11 0.328521 0.500027 0.257698
O O12 0.500000 0.000000 0.500000
O O13 0.799818 0.040518 0.333422
O O14 0.758495 0.850544 0.747061
#
# Coordination Sequence:
#
# PCOD9233473 Si02
#       7
#     4   4   2   4   4   4   4
#     4  12  25  39  71 103 134 179 225 269 329 394
#     4  10  23  38  58  94 138 184 220 260 313 382
#     4  10  26  50  72  92 130 166 218 288 354 406
#     4  11  24  45  69 102 127 167 226 284 334 399
#     4  11  23  38  58  97 142 183 220 260 312 388
#     4  10  21  41  63  90 141 180 220 263 318 388
#     4  11  24  45  72  94 131 178 216 279 347 397
#
# _framework density 21.873481999999999
#
# number of rings (size 3 to 8) (size 9 to 14) (size 15 to 20)
#    0.000    1.231    4.615    0.462    4.308    1.231 
#    0.000    3.077    0.000    0.000    0.000    0.000 
#    0.000    0.000    0.000    0.000    0.000    0.000 
#
# Total GULP energy -144839.656511 kJ/mol
# GULP energy per Si atom -5570.756020 kJ/mol
# Density = 2.182370 g / cm^3
# Si number density = 21.873482 Si / 1000 Ang^3
#
#
#
# Elastic Constant Matrix: (Units=GPa)
#
#
# Indices 1 2 3 4 5 6 
#
# 1 76.4905 15.6139 17.5656 0.0000 -27.6378 0.0000
# 2 15.6139 45.7319 23.0845 0.0000 -10.6286 0.0000
# 3 17.5656 23.0845 95.3080 0.0000 -43.1717 0.0000
# 4 0.0000 0.0000 0.0000 19.2815 0.0000 -4.6033
# 5 -27.6378 -10.6286 -43.1717 0.0000 38.3462 0.0000
# 6 0.0000 0.0000 0.0000 -4.6033 0.0000 37.2899
#
#
#
# Elastic Compliance Matrix: (Units=1/GPa)
#
#
# Indices 1 2 3 4 5 6 
#
# 1 0.020191 -0.005624 0.007197 0.000000 0.021097 0.000000
# 2 -0.005624 0.026480 -0.007935 0.000000 -0.005648 0.000000
# 3 0.007197 -0.007935 0.025389 0.000000 0.031571 0.000000
# 4 0.000000 0.000000 0.000000 0.053438 0.000000 0.006597
# 5 0.021097 -0.005648 0.031571 0.000000 0.075262 0.000000
# 6 0.000000 0.000000 0.000000 0.006597 0.000000 0.027631
#
#
# Mechanical properties :
#
#
# Convention : Reuss Voigt Hill
#
# Bulk Modulus (GPa) = 16.85322 36.67315 26.76319
# Shear Modulus (GPa) = 19.16486 29.73461 24.44974
#
# Velocity S-wave (km/s) = 2.96323 3.69099 3.34695
# Velocity P-wave (km/s) = 4.40786 5.91329 5.21518
#
# Compressibility (1/GPa) = 0.05933584
#
# Stress axis : x y z
#
# Youngs Moduli (GPa) = 49.52593 37.76497 39.38754
#
# Poissons Ratio (x) = 0.21237 -0.28347
# Poissons Ratio (y) = 0.27851 0.31255
# Poissons Ratio (z) = -0.35643 0.29968
#
# Static dielectric constant tensor:
#      x y z
#    x 1.897270 0.000000 -0.079350 
#    y 0.000000 1.807280 0.000000 
#    z -0.079350 0.000000 1.935450 
# 
# From -- ./inp_files/96841.got.cif
#   From: 2010.05.17/outbox.cif.g08.bks.cpg/sg13_49_cif.got.tgz:96841.got - 2010.06.03 16:44:36.
