data_PCOD9233753
_publ_section_title
;
Structure prediction by ZEFSAII (Michael W. Deem and Ramdas Pophale) SiO2 
 PCOD9233753
Probable space group: P 2/C
;
_chemical_formula_sum "Si O2"
_cell_formula_units_Z 24
_cell_length_a 13.290163
_cell_length_b 8.743800
_cell_length_c 7.573523
_cell_angle_alpha 90.000000
_cell_angle_beta 116.236345
_cell_angle_gamma 90.000000
_cell_volume 789.423995
_symmetry_space_group_name_H-M "P 2/C"
_symmetry_group_IT_number 13
_symmetry_cell_setting 'monoclinic'
loop_
_space_group_symop_operation_xyz
x,y,z
-x,y,1/2-z
-x,-y,-z
x,-y,1/2+z
loop_
_atom_site_type_symbol
_atom_site_label
_atom_site_fract_x
_atom_site_fract_y
_atom_site_fract_z
Si Si1 0.121806 0.491164 0.455800
Si Si2 0.346830 0.797337 0.483957
Si Si3 0.888888 0.819590 0.049914
Si Si4 0.648665 0.141403 0.101392
Si Si5 0.119514 0.847273 0.937930
Si Si6 0.617406 0.589446 0.323637
O O1 0.117051 0.654523 0.552127
O O2 0.116236 0.319560 0.524243
O O3 0.260569 0.484582 0.527779
O O4 0.000000 0.500870 0.250000
O O5 0.213004 0.806890 0.394119
O O6 0.628451 0.803722 0.786239
O O7 0.371645 0.665199 0.362026
O O8 0.383756 0.963574 0.438372
O O9 0.000000 0.824263 0.250000
O O10 0.874876 0.989615 0.959849
O O11 0.773686 0.152411 0.109898
O O12 0.594597 0.269628 0.938164
O O13 0.000000 0.851818 0.750000
O O14 0.500000 0.496413 0.250000
#
# Coordination Sequence:
#
# PCOD9233753 Si02
#       6
#     4   4   4   4   4   4
#     4   9  19  43  75 107 157 203 254 321 387 460
#     4  11  22  44  70 110 155 203 260 324 387 465
#     4   9  19  40  68 111 151 200 260 317 382 463
#     4  10  21  42  70 104 155 204 257 317 392 458
#     4   8  16  35  67 104 152 198 249 313 377 453
#     4  11  25  46  74 108 154 204 259 325 392 462
#
# _framework density 30.401913
#
# number of rings (size 3 to 8) (size 9 to 14) (size 15 to 20)
#    0.000    2.333    1.667    0.000    0.000    1.333 
#   18.000    5.833    0.000    4.000    0.000    0.000 
#    0.000    0.000    0.000    0.000    0.000    0.000 
#
# Total GULP energy -133889.424665 kJ/mol
# GULP energy per Si atom -5578.726028 kJ/mol
# Density = 3.033272 g / cm^3
# Si number density = 30.401913 Si / 1000 Ang^3
#
#
#
# Elastic Constant Matrix: (Units=GPa)
#
#
# Indices 1 2 3 4 5 6 
#
# 1 231.8031 50.0557 84.6453 0.0000 45.6021 0.0000
# 2 50.0557 295.7665 55.4680 0.0000 -20.7030 0.0000
# 3 84.6453 55.4680 166.0479 0.0000 4.6297 0.0000
# 4 0.0000 0.0000 0.0000 28.7691 0.0000 -6.5937
# 5 45.6021 -20.7030 4.6297 0.0000 74.1107 0.0000
# 6 0.0000 0.0000 0.0000 -6.5937 0.0000 36.8094
#
#
#
# Elastic Compliance Matrix: (Units=1/GPa)
#
#
# Indices 1 2 3 4 5 6 
#
# 1 0.006293 -0.000809 -0.002828 0.000000 -0.003922 0.000000
# 2 -0.000809 0.003800 -0.000902 0.000000 0.001616 0.000000
# 3 -0.002828 -0.000902 0.007737 0.000000 0.001005 0.000000
# 4 0.000000 0.000000 0.000000 0.036248 0.000000 0.006493
# 5 -0.003922 0.001616 0.001005 0.000000 0.016295 0.000000
# 6 0.000000 0.000000 0.000000 0.006493 0.000000 0.028330
#
#
# Mechanical properties :
#
#
# Convention : Reuss Voigt Hill
#
# Bulk Modulus (GPa) = 114.26342 119.32838 116.79590
# Shear Modulus (GPa) = 45.16727 61.50109 53.33418
#
# Velocity S-wave (km/s) = 3.85862 4.50258 4.19298
# Velocity P-wave (km/s) = 7.58405 8.14656 7.87034
#
# Compressibility (1/GPa) = 0.00875171
#
# Stress axis : x y z
#
# Youngs Moduli (GPa) = 158.90666 263.14003 129.24157
#
# Poissons Ratio (x) = 0.21291 0.36554
# Poissons Ratio (y) = 0.12857 0.11658
# Poissons Ratio (z) = 0.44944 0.23737
#
# Static dielectric constant tensor:
#      x y z
#    x 2.407210 0.000000 0.084360 
#    y 0.000000 2.275980 0.000000 
#    z 0.084360 0.000000 2.408220 
# 
# From -- ./inp_files/52651.got.cif
#   From: 2010.05.17/outbox.cif.g08.bks.cpg/sg13_27_cif.got.tgz:52651.got - 2010.06.03 16:44:36.
