data_PCOD9233594
_publ_section_title
;
Structure prediction by ZEFSAII (Michael W. Deem and Ramdas Pophale) SiO2 
 PCOD9233594
Probable space group: P 2/C
;
_chemical_formula_sum "Si O2"
_cell_formula_units_Z 16
_cell_length_a 5.556698
_cell_length_b 8.833773
_cell_length_c 19.990318
_cell_angle_alpha 90.000000
_cell_angle_beta 135.570261
_cell_angle_gamma 90.000000
_cell_volume 686.913293
_symmetry_space_group_name_H-M "P 2/C"
_symmetry_group_IT_number 13
_symmetry_cell_setting 'monoclinic'
loop_
_space_group_symop_operation_xyz
x,y,z
-x,y,1/2-z
-x,-y,-z
x,-y,1/2+z
loop_
_atom_site_type_symbol
_atom_site_label
_atom_site_fract_x
_atom_site_fract_y
_atom_site_fract_z
Si Si1 0.713015 0.821015 0.604934
Si Si2 0.046247 0.640002 0.460915
Si Si3 0.110910 0.472081 0.197783
Si Si4 0.657407 0.899553 0.438269
O O1 0.379335 0.722766 0.556532
O O2 0.667320 0.844919 0.516623
O O3 0.028334 0.708291 0.678265
O O4 0.663695 0.984213 0.630419
O O5 0.000000 0.500000 0.500000
O O6 0.098578 0.571949 0.397646
O O7 0.728633 0.758331 0.403707
O O8 0.500000 0.492696 0.250000
O O9 0.000000 0.519879 0.250000
O O10 0.000000 0.000000 0.500000
#
# Coordination Sequence:
#
# PCOD9233594 Si02
#       4
#     4   4   4   4
#     4  10  21  41  69  96 128 178 235 281 328 410
#     4  11  21  40  72 100 127 173 234 287 331 402
#     4  12  27  41  67 101 145 179 223 285 362 411
#     4   9  20  37  71  96 124 163 238 281 329 389
#
# _framework density 23.292601999999999
#
# number of rings (size 3 to 8) (size 9 to 14) (size 15 to 20)
#    0.000    1.500    2.500    2.250    7.000    0.000 
#    0.000    0.000   16.500    0.000    0.000    0.000 
#    0.000    0.000    0.000    0.000    0.000    0.000 
#
# Total GULP energy -89331.363307 kJ/mol
# GULP energy per Si atom -5583.210207 kJ/mol
# Density = 2.323959 g / cm^3
# Si number density = 23.292602 Si / 1000 Ang^3
#
#
#
# Elastic Constant Matrix: (Units=GPa)
#
#
# Indices 1 2 3 4 5 6 
#
# 1 116.9798 55.6368 26.5264 0.0000 -15.8055 0.0000
# 2 55.6368 128.4898 20.0567 0.0000 -17.2374 0.0000
# 3 26.5264 20.0567 47.8102 0.0000 -8.2222 0.0000
# 4 0.0000 0.0000 0.0000 22.1714 0.0000 4.7228
# 5 -15.8055 -17.2374 -8.2222 0.0000 42.2695 0.0000
# 6 0.0000 0.0000 0.0000 4.7228 0.0000 58.9872
#
#
#
# Elastic Compliance Matrix: (Units=1/GPa)
#
#
# Indices 1 2 3 4 5 6 
#
# 1 0.011792 -0.004159 -0.004481 0.000000 0.001841 0.000000
# 2 -0.004159 0.010131 -0.001551 0.000000 0.002274 0.000000
# 3 -0.004481 -0.001551 0.024475 0.000000 0.002453 0.000000
# 4 0.000000 0.000000 0.000000 0.045886 0.000000 -0.003674
# 5 0.001841 0.002274 0.002453 0.000000 0.025751 0.000000
# 6 0.000000 0.000000 0.000000 -0.003674 0.000000 0.017247
#
#
# Mechanical properties :
#
#
# Convention : Reuss Voigt Hill
#
# Bulk Modulus (GPa) = 38.43989 55.30219 46.87104
# Shear Modulus (GPa) = 30.42569 37.42294 33.92432
#
# Velocity S-wave (km/s) = 3.61811 4.01265 3.82048
# Velocity P-wave (km/s) = 5.83037 6.72773 6.29506
#
# Compressibility (1/GPa) = 0.02601464
#
# Stress axis : x y z
#
# Youngs Moduli (GPa) = 84.80636 98.70702 40.85871
#
# Poissons Ratio (x) = 0.41056 0.18308
# Poissons Ratio (y) = 0.35274 0.06338
# Poissons Ratio (z) = 0.37999 0.15311
#
# Static dielectric constant tensor:
#      x y z
#    x 1.721120 0.000000 0.079270 
#    y 0.000000 1.538900 0.000000 
#    z 0.079270 0.000000 1.925290 
# 
# From -- ./inp_files/43200.got.cif
#   From: 2010.05.17/outbox.cif.g08.bks.cpg/sg13_22_cif.got.tgz:43200.got - 2010.06.03 16:44:36.
