data_PCOD9233154
_publ_section_title
;
Structure prediction by ZEFSAII (Michael W. Deem and Ramdas Pophale) SiO2 
 PCOD9233154
Probable space group: P 2/C
;
_chemical_formula_sum "Si O2"
_cell_formula_units_Z 24
_cell_length_a 22.166061
_cell_length_b 9.712101
_cell_length_c 16.459700
_cell_angle_alpha 90.000000
_cell_angle_beta 19.845109
_cell_angle_gamma 90.000000
_cell_volume 1202.917921
_symmetry_space_group_name_H-M "P 2/C"
_symmetry_group_IT_number 13
_symmetry_cell_setting 'monoclinic'
loop_
_space_group_symop_operation_xyz
x,y,z
-x,y,1/2-z
-x,-y,-z
x,-y,1/2+z
loop_
_atom_site_type_symbol
_atom_site_label
_atom_site_fract_x
_atom_site_fract_y
_atom_site_fract_z
Si Si1 0.355554 0.307730 0.000245
Si Si2 0.980294 0.945143 0.367644
Si Si3 0.683074 0.176367 0.968666
Si Si4 0.192052 0.441057 0.781047
Si Si5 0.991264 0.273081 0.355873
Si Si6 0.633164 0.946465 0.900097
O O1 0.322048 0.429485 0.107294
O O2 0.172953 0.285489 0.179354
O O3 0.418249 0.172307 0.970247
O O4 0.500000 0.345688 0.750000
O O5 0.953563 0.109959 0.403582
O O6 0.000000 0.900539 0.250000
O O7 0.160877 0.897835 0.179988
O O8 0.811133 0.890244 0.631061
O O9 0.744539 0.326975 0.863554
O O10 0.665289 0.081773 0.912389
O O11 0.500000 0.179279 0.250000
O O12 0.000000 0.500000 0.000000
O O13 0.158080 0.362562 0.908771
O O14 0.000000 0.315354 0.250000
O O15 0.500000 0.000000 0.000000
#
# Coordination Sequence:
#
# PCOD9233154 Si02
#       6
#     4   4   4   4   4   4
#     4  11  24  42  65  95 133 173 217 272 334 401
#     4  11  22  39  65  97 131 170 218 275 339 394
#     4  12  23  41  67  99 132 170 220 283 335 396
#     4  10  22  43  65  94 132 179 220 266 334 402
#     4  10  21  39  67  93 127 174 219 268 332 399
#     4  12  25  41  65  98 130 173 224 279 333 396
#
# _framework density 19.951485999999999
#
# number of rings (size 3 to 8) (size 9 to 14) (size 15 to 20)
#    0.000    1.000    3.333    4.500    4.667    0.000 
#    0.000   14.167    0.000    0.000    0.000    0.000 
#    0.000    0.000    0.000    0.000    0.000    0.000 
#
# Total GULP energy -133996.324404 kJ/mol
# GULP energy per Si atom -5583.180184 kJ/mol
# Density = 1.990608 g / cm^3
# Si number density = 19.951486 Si / 1000 Ang^3
#
#
#
# Elastic Constant Matrix: (Units=GPa)
#
#
# Indices 1 2 3 4 5 6 
#
# 1 134.8471 22.3315 33.6267 0.0000 0.1949 0.0000
# 2 22.3315 82.8080 16.2784 0.0000 4.0047 0.0000
# 3 33.6267 16.2784 121.1128 0.0000 16.1979 0.0000
# 4 0.0000 0.0000 0.0000 56.6594 0.0000 52.7786
# 5 0.1949 4.0047 16.1979 0.0000 28.7370 0.0000
# 6 0.0000 0.0000 0.0000 52.7786 0.0000 91.2506
#
#
#
# Elastic Compliance Matrix: (Units=1/GPa)
#
#
# Indices 1 2 3 4 5 6 
#
# 1 0.008282 -0.001863 -0.002246 0.000000 0.001469 0.000000
# 2 -0.001863 0.012842 -0.001050 0.000000 -0.001185 0.000000
# 3 -0.002246 -0.001050 0.009734 0.000000 -0.005325 0.000000
# 4 0.000000 0.000000 0.000000 0.038266 0.000000 -0.022133
# 5 0.001469 -0.001185 -0.005325 0.000000 0.037955 0.000000
# 6 0.000000 0.000000 0.000000 -0.022133 0.000000 0.023760
#
#
# Mechanical properties :
#
#
# Convention : Reuss Voigt Hill
#
# Bulk Modulus (GPa) = 48.68546 53.69344 51.18945
# Shear Modulus (GPa) = 33.78274 53.09814 43.44044
#
# Velocity S-wave (km/s) = 4.11937 5.16444 4.67122
# Velocity P-wave (km/s) = 6.86152 7.90774 7.40313
#
# Compressibility (1/GPa) = 0.02054001
#
# Stress axis : x y z
#
# Youngs Moduli (GPa) = 120.74054 77.86730 102.73707
#
# Poissons Ratio (x) = 0.14508 0.23071
# Poissons Ratio (y) = 0.22496 0.10791
# Poissons Ratio (z) = 0.27114 0.08178
#
# Static dielectric constant tensor:
#      x y z
#    x 1.676800 0.000000 -0.004900 
#    y 0.000000 1.702150 0.000000 
#    z -0.004900 0.000000 1.706030 
# 
# From -- ./inp_files/57657.got.cif
#   From: 2010.05.17/outbox.cif.g08.bks.cpg/sg13_29_cif.got.tgz:57657.got - 2010.06.03 16:44:36.
