data_PCOD9233196
_publ_section_title
;
Structure prediction by ZEFSAII (Michael W. Deem and Ramdas Pophale) SiO2 
 PCOD9233196
Probable space group: P 2/C
;
_chemical_formula_sum "Si O2"
_cell_formula_units_Z 22
_cell_length_a 12.649168
_cell_length_b 16.046282
_cell_length_c 5.334492
_cell_angle_alpha 90.000000
_cell_angle_beta 81.353968
_cell_angle_gamma 90.000000
_cell_volume 1070.448644
_symmetry_space_group_name_H-M "P 2/C"
_symmetry_group_IT_number 13
_symmetry_cell_setting 'monoclinic'
loop_
_space_group_symop_operation_xyz
x,y,z
-x,y,1/2-z
-x,-y,-z
x,-y,1/2+z
loop_
_atom_site_type_symbol
_atom_site_label
_atom_site_fract_x
_atom_site_fract_y
_atom_site_fract_z
Si Si1 0.000000 0.556393 0.250000
Si Si2 0.399436 0.328278 0.398613
Si Si3 0.678481 0.827901 0.842743
Si Si4 0.500000 0.795555 0.250000
Si Si5 0.874384 0.945106 0.797933
Si Si6 0.767345 0.555002 0.292736
Si Si7 0.500000 0.945847 0.750000
O O1 0.883938 0.598534 0.282381
O O2 0.000000 0.500000 0.500000
O O3 0.500000 0.380174 0.250000
O O4 0.327545 0.268757 0.243742
O O5 0.465728 0.262390 0.535554
O O6 0.325679 0.381926 0.604724
O O7 0.795122 0.866542 0.820754
O O8 0.604913 0.887588 0.696371
O O9 0.608869 0.838136 0.121623
O O10 0.000000 0.921596 0.750000
O O11 0.854616 0.001452 0.557640
O O12 0.760651 0.484831 0.517342
O O13 0.500000 0.000000 0.500000
#
# Coordination Sequence:
#
# PCOD9233196 Si02
#       7
#     2   4   4   2   4   4   2
#     4   8  16  36  60  84 116 144 188 252 298 336
#     4  10  23  39  59  85 127 165 197 249 312 361
#     4  11  22  39  60  88 125 161 201 255 303 365
#     4  10  21  40  58  83 128 164 196 252 311 352
#     4  10  23  42  64  89 123 163 203 255 308 361
#     4  10  22  39  64  91 118 158 204 251 300 363
#     4  12  23  34  58  91 112 150 204 242 293 350
#
# _framework density 20.552132
#
# number of rings (size 3 to 8) (size 9 to 14) (size 15 to 20)
#    0.000    1.818    2.727    1.636    7.636    0.727 
#    0.000    1.818    2.000    0.000    0.000    0.000 
#    0.000    0.000    0.000    0.000    0.000    0.000 
#
# Total GULP energy -122555.806907 kJ/mol
# GULP energy per Si atom -5570.718496 kJ/mol
# Density = 2.050535 g / cm^3
# Si number density = 20.552132 Si / 1000 Ang^3
#
#
#
# Elastic Constant Matrix: (Units=GPa)
#
#
# Indices 1 2 3 4 5 6 
#
# 1 94.6703 13.6705 1.8310 0.0000 -26.8009 0.0000
# 2 13.6705 20.9736 -4.3366 0.0000 -9.5617 0.0000
# 3 1.8310 -4.3366 91.4778 0.0000 -1.3103 0.0000
# 4 0.0000 0.0000 0.0000 -6.6382 0.0000 -38.4996
# 5 -26.8009 -9.5617 -1.3103 0.0000 32.2757 0.0000
# 6 0.0000 0.0000 0.0000 -38.4996 0.0000 5.9114
#
#
#
# Elastic Compliance Matrix: (Units=1/GPa)
#
#
# Indices 1 2 3 4 5 6 
#
# 1 0.014174 -0.004569 -0.000351 0.000000 0.010402 0.000000
# 2 -0.004569 0.057349 0.003001 0.000000 0.013317 0.000000
# 3 -0.000351 0.003001 0.011096 0.000000 0.001048 0.000000
# 4 0.000000 0.000000 0.000000 -0.003885 0.000000 -0.025304
# 5 0.010402 0.013317 0.001048 0.000000 0.043609 0.000000
# 6 0.000000 0.000000 0.000000 -0.025304 0.000000 0.004363
#
#
# Mechanical properties :
#
#
# Convention : Reuss Voigt Hill
#
# Bulk Modulus (GPa) = 12.69358 25.49462 19.09410
# Shear Modulus (GPa) = 31.88677 19.37356 25.63017
#
# Velocity S-wave (km/s) = 3.94319 3.07360 3.53523
# Velocity P-wave (km/s) = 5.18858 5.00278 5.09653
#
# Compressibility (1/GPa) = 0.07877999
#
# Stress axis : x y z
#
# Youngs Moduli (GPa) = 70.54968 17.43711 90.12323
#
# Poissons Ratio (x) = 0.07967 0.03166
# Poissons Ratio (y) = 0.32236 -0.27045
# Poissons Ratio (z) = 0.02479 -0.05233
#
# Static dielectric constant tensor:
#      x y z
#    x 1.767470 0.000000 -0.020840 
#    y 0.000000 1.774370 0.000000 
#    z -0.020840 0.000000 1.860230 
# 
# From -- ./inp_files/3282.got.cif
#   From: 2010.05.17/outbox.cif.g08.bks.cpg/sg13_2_cif.got.tgz:3282.got - 2010.06.03 16:44:36.
