data_PCOD9233156
_publ_section_title
;
Structure prediction by ZEFSAII (Michael W. Deem and Ramdas Pophale) SiO2 
 PCOD9233156
Probable space group: P 2/C
;
_chemical_formula_sum "Si O2"
_cell_formula_units_Z 16
_cell_length_a 6.950526
_cell_length_b 11.811483
_cell_length_c 11.445368
_cell_angle_alpha 90.000000
_cell_angle_beta 136.415149
_cell_angle_gamma 90.000000
_cell_volume 647.799802
_symmetry_space_group_name_H-M "P 2/C"
_symmetry_group_IT_number 13
_symmetry_cell_setting 'monoclinic'
loop_
_space_group_symop_operation_xyz
x,y,z
-x,y,1/2-z
-x,-y,-z
x,-y,1/2+z
loop_
_atom_site_type_symbol
_atom_site_label
_atom_site_fract_x
_atom_site_fract_y
_atom_site_fract_z
Si Si1 0.951035 0.867432 0.474482
Si Si2 0.603104 0.232601 0.645626
Si Si3 0.165853 0.523647 0.197860
Si Si4 0.279964 0.720765 0.790574
O O1 0.671694 0.827082 0.420773
O O2 0.869252 0.833772 0.308196
O O3 0.193175 0.795827 0.642612
O O4 0.000000 0.000000 0.500000
O O5 0.657973 0.360566 0.716650
O O6 0.531391 0.234529 0.478620
O O7 0.340558 0.409105 0.288700
O O8 0.000000 0.529983 0.250000
O O9 0.000000 0.500000 0.000000
O O10 0.000000 0.719325 0.750000
#
# Coordination Sequence:
#
# PCOD9233156 Si02
#       4
#     4   4   4   4
#     4  10  21  39  67  95 138 190 249 298 352 429
#     4  10  21  41  67  98 139 188 232 305 373 419
#     4  11  22  41  72 111 148 186 235 302 371 454
#     4   9  19  38  65 101 139 178 230 297 362 438
#
# _framework density 24.698989999999998
#
# number of rings (size 3 to 8) (size 9 to 14) (size 15 to 20)
#    0.000    2.000    2.500    0.750    3.500    1.000 
#    0.000    8.750    0.000    0.000    0.000    0.000 
#    0.000    0.000    0.000    0.000    0.000    0.000 
#
# Total GULP energy -89378.378484 kJ/mol
# GULP energy per Si atom -5586.148655 kJ/mol
# Density = 2.464277 g / cm^3
# Si number density = 24.698990 Si / 1000 Ang^3
#
#
#
# Elastic Constant Matrix: (Units=GPa)
#
#
# Indices 1 2 3 4 5 6 
#
# 1 151.1769 38.2409 48.7091 0.0000 -16.4011 0.0000
# 2 38.2409 232.6090 108.6778 0.0000 7.9245 0.0000
# 3 48.7091 108.6778 267.3423 0.0000 -14.0232 0.0000
# 4 0.0000 0.0000 0.0000 -134.9090 0.0000 -23.4366
# 5 -16.4011 7.9245 -14.0232 0.0000 40.7730 0.0000
# 6 0.0000 0.0000 0.0000 -23.4366 0.0000 20.7222
#
#
#
# Elastic Compliance Matrix: (Units=1/GPa)
#
#
# Indices 1 2 3 4 5 6 
#
# 1 0.007430 -0.000936 -0.000822 0.000000 0.002888 0.000000
# 2 -0.000936 0.005559 -0.002205 0.000000 -0.002215 0.000000
# 3 -0.000822 -0.002205 0.004880 0.000000 0.001776 0.000000
# 4 0.000000 0.000000 0.000000 -0.006195 0.000000 -0.007007
# 5 0.002888 -0.002215 0.001776 0.000000 0.026729 0.000000
# 6 0.000000 0.000000 0.000000 -0.007007 0.000000 0.040333
#
#
# Mechanical properties :
#
#
# Convention : Reuss Voigt Hill
#
# Bulk Modulus (GPa) = 100.58056 115.82040 108.20048
# Shear Modulus (GPa) = 55.57073 15.68392 35.62732
#
# Velocity S-wave (km/s) = 4.74848 2.52266 3.80209
# Velocity P-wave (km/s) = 8.41873 7.44847 7.94842
#
# Compressibility (1/GPa) = 0.00994228
#
# Stress axis : x y z
#
# Youngs Moduli (GPa) = 134.59739 179.89552 204.92046
#
# Poissons Ratio (x) = 0.16836 0.16839
# Poissons Ratio (y) = 0.12597 0.45193
# Poissons Ratio (z) = 0.11060 0.39674
#
# Static dielectric constant tensor:
#      x y z
#    x 2.161540 0.000000 -0.034920 
#    y 0.000000 1.868980 0.000000 
#    z -0.034920 0.000000 1.983790 
# 
# From -- ./inp_files/28811.got.cif
#   From: 2010.05.17/outbox.cif.g08.bks.cpg/sg13_15_cif.got.tgz:28811.got - 2010.06.03 16:44:36.
