data_PCOD9233270
_publ_section_title
;
Structure prediction by ZEFSAII (Michael W. Deem and Ramdas Pophale) SiO2 
 PCOD9233270
Probable space group: P 2/C
;
_chemical_formula_sum "Si O2"
_cell_formula_units_Z 24
_cell_length_a 10.754731
_cell_length_b 9.509391
_cell_length_c 22.136331
_cell_angle_alpha 90.000000
_cell_angle_beta 31.992442
_cell_angle_gamma 90.000000
_cell_volume 1199.432771
_symmetry_space_group_name_H-M "P 2/C"
_symmetry_group_IT_number 13
_symmetry_cell_setting 'monoclinic'
loop_
_space_group_symop_operation_xyz
x,y,z
-x,y,1/2-z
-x,-y,-z
x,-y,1/2+z
loop_
_atom_site_type_symbol
_atom_site_label
_atom_site_fract_x
_atom_site_fract_y
_atom_site_fract_z
Si Si1 0.454462 0.651476 0.438419
Si Si2 0.683650 0.166812 0.274635
Si Si3 0.132291 0.870309 0.256958
Si Si4 0.854503 0.138171 0.987990
Si Si5 0.928078 0.807897 0.979041
Si Si6 0.253462 0.389705 0.153376
O O1 0.671787 0.755879 0.338950
O O2 0.254875 0.697518 0.473263
O O3 0.560456 0.494989 0.392917
O O4 0.349669 0.661309 0.549225
O O5 0.406092 0.188027 0.389550
O O6 0.786587 0.259569 0.286231
O O7 0.821123 0.207820 0.157482
O O8 0.741204 0.005140 0.265888
O O9 0.000000 0.909676 0.250000
O O10 0.944713 0.820952 0.384571
O O11 0.032740 0.194054 0.965520
O O12 0.849300 0.967487 0.994943
O O13 0.000000 0.463112 0.250000
#
# Coordination Sequence:
#
# PCOD9233270 Si02
#       6
#     4   4   4   4   4   4
#     4  11  23  41  62  92 126 166 210 256 314 382
#     4  11  21  38  64  92 125 162 214 264 311 369
#     4  11  23  37  63  95 127 160 209 267 318 376
#     4  10  22  38  64  95 126 164 208 263 318 373
#     4  10  21  40  63  92 126 167 212 257 317 377
#     4  11  23  39  64  92 129 168 207 258 317 369
#
# _framework density 20.009460000000001
#
# number of rings (size 3 to 8) (size 9 to 14) (size 15 to 20)
#    0.000    1.333    3.333    2.500    2.333    3.333 
#    0.000    0.833    3.667    0.000    0.000    0.000 
#    0.000    0.000    0.000    0.000    0.000    0.000 
#
# Total GULP energy -134063.815035 kJ/mol
# GULP energy per Si atom -5585.992293 kJ/mol
# Density = 1.996392 g / cm^3
# Si number density = 20.009460 Si / 1000 Ang^3
#
#
#
# Elastic Constant Matrix: (Units=GPa)
#
#
# Indices 1 2 3 4 5 6 
#
# 1 89.3248 7.6939 35.2210 0.0000 -4.1459 0.0000
# 2 7.6939 30.6026 11.5691 0.0000 -8.8816 0.0000
# 3 35.2210 11.5691 96.9273 0.0000 -5.9311 0.0000
# 4 0.0000 0.0000 0.0000 19.2314 0.0000 -6.2080
# 5 -4.1459 -8.8816 -5.9311 0.0000 30.2443 0.0000
# 6 0.0000 0.0000 0.0000 -6.2080 0.0000 30.7794
#
#
#
# Elastic Compliance Matrix: (Units=1/GPa)
#
#
# Indices 1 2 3 4 5 6 
#
# 1 0.013145 -0.001435 -0.004576 0.000000 0.000483 0.000000
# 2 -0.001435 0.037213 -0.003303 0.000000 0.010084 0.000000
# 3 -0.004576 -0.003303 0.012425 0.000000 0.000839 0.000000
# 4 0.000000 0.000000 0.000000 0.055620 0.000000 0.011218
# 5 0.000483 0.010084 0.000839 0.000000 0.036256 0.000000
# 6 0.000000 0.000000 0.000000 0.011218 0.000000 0.034752
#
#
# Mechanical properties :
#
#
# Convention : Reuss Voigt Hill
#
# Bulk Modulus (GPa) = 22.64706 36.20252 29.42479
# Shear Modulus (GPa) = 22.44587 26.87572 24.66079
#
# Velocity S-wave (km/s) = 3.35291 3.66888 3.51444
# Velocity P-wave (km/s) = 5.13148 6.00662 5.58621
#
# Compressibility (1/GPa) = 0.04415584
#
# Stress axis : x y z
#
# Youngs Moduli (GPa) = 76.07219 26.87235 80.48019
#
# Poissons Ratio (x) = 0.03856 0.36827
# Poissons Ratio (y) = 0.10915 0.26585
# Poissons Ratio (z) = 0.34810 0.08877
#
# Static dielectric constant tensor:
#      x y z
#    x 1.698480 0.000000 -0.018430 
#    y 0.000000 1.689140 0.000000 
#    z -0.018430 0.000000 1.709080 
# 
# From -- ./inp_files/39233.got.cif
#   From: 2010.05.17/outbox.cif.g08.bks.cpg/sg13_20_cif.got.tgz:39233.got - 2010.06.03 16:44:36.
