data_PCOD9233958
_publ_section_title
;
Structure prediction by ZEFSAII (Michael W. Deem and Ramdas Pophale) SiO2 
 PCOD9233958
Probable space group: P 2/C
;
_chemical_formula_sum "Si O2"
_cell_formula_units_Z 20
_cell_length_a 8.219104
_cell_length_b 7.387327
_cell_length_c 11.931026
_cell_angle_alpha 90.000000
_cell_angle_beta 105.548247
_cell_angle_gamma 90.000000
_cell_volume 697.908556
_symmetry_space_group_name_H-M "P 2/C"
_symmetry_group_IT_number 13
_symmetry_cell_setting 'monoclinic'
loop_
_space_group_symop_operation_xyz
x,y,z
-x,y,1/2-z
-x,-y,-z
x,-y,1/2+z
loop_
_atom_site_type_symbol
_atom_site_label
_atom_site_fract_x
_atom_site_fract_y
_atom_site_fract_z
Si Si1 0.721452 0.248957 0.854362
Si Si2 0.280093 0.132586 0.266001
Si Si3 0.959719 0.249523 0.090823
Si Si4 0.478387 0.785372 0.510329
Si Si5 0.162189 0.366671 0.837806
O O1 0.405339 0.295376 0.567891
O O2 0.730722 0.393532 0.757254
O O3 0.000000 0.270023 0.750000
O O4 0.680268 0.062218 0.781074
O O5 0.154672 0.222314 0.153309
O O6 0.438192 0.236447 0.351997
O O7 0.154227 0.119634 0.351345
O O8 0.906107 0.449536 0.121157
O O9 0.897875 0.224055 0.953655
O O10 0.290239 0.724306 0.447898
O O11 0.500000 0.000000 0.500000
#
# Coordination Sequence:
#
# PCOD9233958 Si02
#       5
#     4   4   4   4   4
#     4  11  25  45  84 107 155 213 262 326 398 459
#     4  10  21  45  74 110 157 197 268 321 383 476
#     4  10  24  48  70 121 156 202 264 320 400 470
#     4  11  25  48  78 114 151 204 269 327 391 474
#     4  12  26  48  76 116 166 203 261 330 399 481
#
# _framework density 28.657052
#
# number of rings (size 3 to 8) (size 9 to 14) (size 15 to 20)
#    0.000    1.200    4.000    1.200    2.800    5.600 
#    3.600    0.000    0.000    0.000    0.000    0.000 
#    0.000    0.000    0.000    0.000    0.000    0.000 
#
# Total GULP energy -112060.803500 kJ/mol
# GULP energy per Si atom -5603.040175 kJ/mol
# Density = 2.859183 g / cm^3
# Si number density = 28.657052 Si / 1000 Ang^3
#
#
#
# Elastic Constant Matrix: (Units=GPa)
#
#
# Indices 1 2 3 4 5 6 
#
# 1 128.1428 48.3579 114.5466 0.0000 42.0102 0.0000
# 2 48.3579 115.7931 56.5865 0.0000 27.8861 0.0000
# 3 114.5466 56.5865 298.0849 0.0000 30.4993 0.0000
# 4 0.0000 0.0000 0.0000 40.2840 0.0000 16.3334
# 5 42.0102 27.8861 30.4993 0.0000 96.7911 0.0000
# 6 0.0000 0.0000 0.0000 16.3334 0.0000 28.8314
#
#
#
# Elastic Compliance Matrix: (Units=1/GPa)
#
#
# Indices 1 2 3 4 5 6 
#
# 1 0.014177 -0.002765 -0.004521 0.000000 -0.003932 0.000000
# 2 -0.002765 0.010555 -0.000778 0.000000 -0.001596 0.000000
# 3 -0.004521 -0.000778 0.005183 0.000000 0.000553 0.000000
# 4 0.000000 0.000000 0.000000 0.032226 0.000000 -0.018256
# 5 -0.003932 -0.001596 0.000553 0.000000 0.012324 0.000000
# 6 0.000000 0.000000 0.000000 -0.018256 0.000000 0.045027
#
#
# Mechanical properties :
#
#
# Convention : Reuss Voigt Hill
#
# Bulk Modulus (GPa) = 72.52271 109.00032 90.76152
# Shear Modulus (GPa) = 35.65932 54.68328 45.17130
#
# Velocity S-wave (km/s) = 3.53136 4.37303 3.97454
# Velocity P-wave (km/s) = 6.47992 7.97600 7.26656
#
# Compressibility (1/GPa) = 0.01378878
#
# Stress axis : x y z
#
# Youngs Moduli (GPa) = 70.53444 94.73987 192.93361
#
# Poissons Ratio (x) = 0.26191 0.87223
# Poissons Ratio (y) = 0.19499 0.15012
# Poissons Ratio (z) = 0.31888 0.07372
#
# Static dielectric constant tensor:
#      x y z
#    x 2.388940 0.000000 0.031290 
#    y 0.000000 2.242300 0.000000 
#    z 0.031290 0.000000 2.173390 
# 
# From -- ./inp_files/63011.got.cif
#   From: 2010.05.17/outbox.cif.g08.bks.cpg/sg13_32_cif.got.tgz:63011.got - 2010.06.03 16:44:36.
