data_PCOD9233052
_publ_section_title
;
Structure prediction by ZEFSAII (Michael W. Deem and Ramdas Pophale) SiO2 
 PCOD9233052
Probable space group: P 2/C
;
_chemical_formula_sum "Si O2"
_cell_formula_units_Z 18
_cell_length_a 17.920528
_cell_length_b 5.675873
_cell_length_c 14.071549
_cell_angle_alpha 90.000000
_cell_angle_beta 149.736080
_cell_angle_gamma 90.000000
_cell_volume 721.343265
_symmetry_space_group_name_H-M "P 2/C"
_symmetry_group_IT_number 13
_symmetry_cell_setting 'monoclinic'
loop_
_space_group_symop_operation_xyz
x,y,z
-x,y,1/2-z
-x,-y,-z
x,-y,1/2+z
loop_
_atom_site_type_symbol
_atom_site_label
_atom_site_fract_x
_atom_site_fract_y
_atom_site_fract_z
Si Si1 0.000000 0.117438 0.250000
Si Si2 0.108958 0.741816 0.513062
Si Si3 0.283904 0.579446 0.059269
Si Si4 0.424005 0.247280 0.889670
Si Si5 0.208282 0.467514 0.785036
O O1 0.857459 0.262953 0.121998
O O2 0.944273 0.975171 0.096992
O O3 0.218240 0.620443 0.556714
O O4 0.189828 0.706806 0.702924
O O5 0.953714 0.605478 0.356846
O O6 0.321681 0.476251 0.998071
O O7 0.392206 0.734743 0.242303
O O8 0.269942 0.275211 0.778201
O O9 0.500000 0.500000 0.000000
O O10 0.500000 0.000000 0.000000
#
# Coordination Sequence:
#
# PCOD9233052 Si02
#       5
#     2   4   4   4   4
#     4  12  20  36  72 106 148 170 230 310 384 434
#     4  10  21  39  64 110 144 171 231 303 376 449
#     4  11  23  44  70 108 146 183 241 311 375 447
#     4  11  29  51  72 102 149 202 259 305 344 439
#     4  10  21  44  70  99 145 190 235 296 383 430
#
# _framework density 24.953447000000001
#
# number of rings (size 3 to 8) (size 9 to 14) (size 15 to 20)
#    0.000    1.333    4.444    0.000    6.222    3.556 
#    0.000    2.222    0.000    0.000    0.000    0.000 
#    0.000    0.000    0.000    0.000    0.000    0.000 
#
# Total GULP energy -100558.628189 kJ/mol
# GULP energy per Si atom -5586.590455 kJ/mol
# Density = 2.489665 g / cm^3
# Si number density = 24.953447 Si / 1000 Ang^3
#
#
#
# Elastic Constant Matrix: (Units=GPa)
#
#
# Indices 1 2 3 4 5 6 
#
# 1 81.6140 -6.8991 25.4165 0.0000 -27.3539 0.0000
# 2 -6.8991 75.2286 30.6273 0.0000 0.5079 0.0000
# 3 25.4165 30.6273 113.4638 0.0000 -32.5550 0.0000
# 4 0.0000 0.0000 0.0000 49.5702 0.0000 1.9788
# 5 -27.3539 0.5079 -32.5550 0.0000 52.9159 0.0000
# 6 0.0000 0.0000 0.0000 1.9788 0.0000 18.9031
#
#
#
# Elastic Compliance Matrix: (Units=1/GPa)
#
#
# Indices 1 2 3 4 5 6 
#
# 1 0.015314 0.002234 -0.002147 0.000000 0.006574 0.000000
# 2 0.002234 0.015716 -0.005409 0.000000 -0.002324 0.000000
# 3 -0.002147 -0.005409 0.012691 0.000000 0.006750 0.000000
# 4 0.000000 0.000000 0.000000 0.020258 0.000000 -0.002121
# 5 0.006574 -0.002324 0.006750 0.000000 0.026471 0.000000
# 6 0.000000 0.000000 0.000000 -0.002121 0.000000 0.053123
#
#
# Mechanical properties :
#
#
# Convention : Reuss Voigt Hill
#
# Bulk Modulus (GPa) = 30.23380 40.95508 35.59444
# Shear Modulus (GPa) = 30.25847 39.02195 34.64021
#
# Velocity S-wave (km/s) = 3.48601 3.95877 3.72989
# Velocity P-wave (km/s) = 5.32404 6.11098 5.73103
#
# Compressibility (1/GPa) = 0.03307556
#
# Stress axis : x y z
#
# Youngs Moduli (GPa) = 65.30140 63.63061 78.79474
#
# Poissons Ratio (x) = -0.14217 0.16920
# Poissons Ratio (y) = -0.14590 0.42623
# Poissons Ratio (z) = 0.14022 0.34420
#
# Static dielectric constant tensor:
#      x y z
#    x 2.165270 0.000000 -0.122420 
#    y 0.000000 2.008680 0.000000 
#    z -0.122420 0.000000 2.173190 
# 
# From -- ./inp_files/52001.got.cif
#   From: 2010.05.17/outbox.cif.g08.bks.cpg/sg13_27_cif.got.tgz:52001.got - 2010.06.03 16:44:36.
