data_PCOD9233047
_publ_section_title
;
Structure prediction by ZEFSAII (Michael W. Deem and Ramdas Pophale) SiO2 
 PCOD9233047
Probable space group: P 2/C
;
_chemical_formula_sum "Si O2"
_cell_formula_units_Z 32
_cell_length_a 11.348189
_cell_length_b 9.169374
_cell_length_c 26.048057
_cell_angle_alpha 90.000000
_cell_angle_beta 148.760673
_cell_angle_gamma 90.000000
_cell_volume 1405.677893
_symmetry_space_group_name_H-M "P 2/C"
_symmetry_group_IT_number 13
_symmetry_cell_setting 'monoclinic'
loop_
_space_group_symop_operation_xyz
x,y,z
-x,y,1/2-z
-x,-y,-z
x,-y,1/2+z
loop_
_atom_site_type_symbol
_atom_site_label
_atom_site_fract_x
_atom_site_fract_y
_atom_site_fract_z
Si Si1 0.046714 0.175235 0.709532
Si Si2 0.451774 0.224138 0.133561
Si Si3 0.131781 0.303936 0.157753
Si Si4 0.139603 0.474880 0.880386
Si Si5 0.004972 0.178477 0.502575
Si Si6 0.213681 0.075535 0.435695
Si Si7 0.410651 0.711139 0.927640
Si Si8 0.450635 0.898948 0.135626
O O1 0.296644 0.151064 0.780793
O O2 0.000000 0.120050 0.750000
O O3 0.017066 0.347845 0.698645
O O4 0.866042 0.085792 0.608222
O O5 0.608180 0.323816 0.228043
O O6 0.178532 0.241140 0.025632
O O7 0.571405 0.231189 0.123031
O O8 0.468336 0.062389 0.163777
O O9 0.093840 0.251837 0.085793
O O10 0.979208 0.441752 0.116780
O O11 0.017602 0.170512 0.147175
O O12 0.209529 0.597773 0.865488
O O13 0.366893 0.387154 0.980076
O O14 0.277493 0.200562 0.604237
O O15 0.000000 0.000000 0.500000
O O16 0.370967 0.156269 0.452533
O O17 0.331424 0.086409 0.535022
#
# Coordination Sequence:
#
# PCOD9233047 Si02
#       8
#     4   4   4   4   4   4   4   4
#     4  12  23  35  62  97 133 172 215 272 338 388
#     4  11  20  37  68  94 122 170 217 265 327 396
#     4  10  21  40  64  92 130 164 218 269 324 401
#     4  10  24  40  59  93 134 179 213 266 330 400
#     4   9  21  41  68  95 120 160 217 274 329 376
#     4  10  21  39  63  95 133 168 215 279 331 388
#     4  10  22  41  64  91 132 177 218 264 328 397
#     4  10  21  39  63  98 130 160 213 280 331 382
#
# _framework density 22.764817000000001
#
# number of rings (size 3 to 8) (size 9 to 14) (size 15 to 20)
#    0.000    1.750    1.250    2.625    1.750    3.500 
#    0.000    0.625    2.750    0.000    0.000    0.000 
#    0.000    0.000    0.000    0.000    0.000    0.000 
#
# Total GULP energy -178613.305988 kJ/mol
# GULP energy per Si atom -5581.665812 kJ/mol
# Density = 2.271300 g / cm^3
# Si number density = 22.764817 Si / 1000 Ang^3
#
#
#
# Elastic Constant Matrix: (Units=GPa)
#
#
# Indices 1 2 3 4 5 6 
#
# 1 76.3695 31.7719 17.4449 0.0000 19.6686 0.0000
# 2 31.7719 88.0047 24.0329 0.0000 14.6279 0.0000
# 3 17.4449 24.0329 76.1403 0.0000 34.4027 0.0000
# 4 0.0000 0.0000 0.0000 13.0241 0.0000 3.4796
# 5 19.6686 14.6279 34.4027 0.0000 36.9971 0.0000
# 6 0.0000 0.0000 0.0000 3.4796 0.0000 13.4238
#
#
#
# Elastic Compliance Matrix: (Units=1/GPa)
#
#
# Indices 1 2 3 4 5 6 
#
# 1 0.017077 -0.005181 0.001551 0.000000 -0.008472 0.000000
# 2 -0.005181 0.014110 -0.003433 0.000000 0.000367 0.000000
# 3 0.001551 -0.003433 0.023491 0.000000 -0.021310 0.000000
# 4 0.000000 0.000000 0.000000 0.082493 0.000000 -0.021383
# 5 -0.008472 0.000367 -0.021310 0.000000 0.051204 0.000000
# 6 0.000000 0.000000 0.000000 -0.021383 0.000000 0.080037
#
#
# Mechanical properties :
#
#
# Convention : Reuss Voigt Hill
#
# Bulk Modulus (GPa) = 24.65943 43.00155 33.83049
# Shear Modulus (GPa) = 16.88877 23.83999 20.36438
#
# Velocity S-wave (km/s) = 2.72670 3.23960 2.99416
# Velocity P-wave (km/s) = 4.55730 5.73793 5.18135
#
# Compressibility (1/GPa) = 0.04055244
#
# Stress axis : x y z
#
# Youngs Moduli (GPa) = 58.55737 70.87336 42.57015
#
# Poissons Ratio (x) = 0.36716 -0.06601
# Poissons Ratio (y) = 0.30336 0.14613
# Poissons Ratio (z) = -0.09080 0.24328
#
# Static dielectric constant tensor:
#      x y z
#    x 1.894180 0.000000 0.044080 
#    y 0.000000 1.812170 0.000000 
#    z 0.044080 0.000000 1.915960 
# 
# From -- ./inp_files/96713.got.cif
#   From: 2010.05.17/outbox.cif.g08.bks.cpg/sg13_49_cif.got.tgz:96713.got - 2010.06.03 16:44:36.
