data_PCOD9233278
_publ_section_title
;
Structure prediction by ZEFSAII (Michael W. Deem and Ramdas Pophale) SiO2 
 PCOD9233278
Probable space group: P 2/C
;
_chemical_formula_sum "Si O2"
_cell_formula_units_Z 22
_cell_length_a 16.400730
_cell_length_b 12.092956
_cell_length_c 13.963554
_cell_angle_alpha 90.000000
_cell_angle_beta 22.212454
_cell_angle_gamma 90.000000
_cell_volume 1046.963895
_symmetry_space_group_name_H-M "P 2/C"
_symmetry_group_IT_number 13
_symmetry_cell_setting 'monoclinic'
loop_
_space_group_symop_operation_xyz
x,y,z
-x,y,1/2-z
-x,-y,-z
x,-y,1/2+z
loop_
_atom_site_type_symbol
_atom_site_label
_atom_site_fract_x
_atom_site_fract_y
_atom_site_fract_z
Si Si1 0.258221 0.079437 0.341663
Si Si2 0.634380 0.831129 0.303347
Si Si3 0.558006 0.394171 0.796629
Si Si4 0.500000 0.199139 0.250000
Si Si5 0.815611 0.559816 0.641192
Si Si6 0.107227 0.761486 0.290440
O O1 0.392111 0.123620 0.286458
O O2 0.016268 0.125997 0.602636
O O3 0.260358 0.947462 0.338937
O O4 0.398856 0.130711 0.100280
O O5 0.620155 0.735040 0.240448
O O6 0.778918 0.777829 0.230985
O O7 0.500000 0.417892 0.750000
O O8 0.734121 0.479773 0.645900
O O9 0.368236 0.411270 0.081453
O O10 0.305071 0.267766 0.506498
O O11 0.000000 0.500000 0.500000
O O12 0.921539 0.671194 0.487492
#
# Coordination Sequence:
#
# PCOD9233278 Si02
#       6
#     4   4   4   2   4   4
#     4  10  21  40  63  99 136 173 215 269 337 394
#     4  10  21  40  69  95 133 175 215 272 335 402
#     4  11  25  46  70 103 130 174 230 277 336 409
#     4  10  24  38  62 102 130 174 230 266 324 398
#     4  11  24  48  68  93 139 178 220 281 341 392
#     4  11  21  44  67  94 133 177 222 273 328 394
#
# _framework density 21.013141000000001
#
# number of rings (size 3 to 8) (size 9 to 14) (size 15 to 20)
#    0.000    1.455    3.636    1.091    1.273    0.727 
#    9.818    1.818    0.000    0.000    0.000    1.273 
#    0.000    0.000    0.000    0.000    0.000    0.000 
#
# Total GULP energy -122930.740933 kJ/mol
# GULP energy per Si atom -5587.760951 kJ/mol
# Density = 2.096531 g / cm^3
# Si number density = 21.013141 Si / 1000 Ang^3
#
#
#
# Elastic Constant Matrix: (Units=GPa)
#
#
# Indices 1 2 3 4 5 6 
#
# 1 121.5055 46.7564 27.8940 0.0000 1.5788 0.0000
# 2 46.7564 111.1447 24.0725 0.0000 -3.3418 0.0000
# 3 27.8940 24.0725 77.6093 0.0000 -12.8340 0.0000
# 4 0.0000 0.0000 0.0000 17.3936 0.0000 -8.4945
# 5 1.5788 -3.3418 -12.8340 0.0000 21.4764 0.0000
# 6 0.0000 0.0000 0.0000 -8.4945 0.0000 11.0677
#
#
#
# Elastic Compliance Matrix: (Units=1/GPa)
#
#
# Indices 1 2 3 4 5 6 
#
# 1 0.010456 -0.003823 -0.003104 0.000000 -0.003219 0.000000
# 2 -0.003823 0.011045 -0.001910 0.000000 0.000858 0.000000
# 3 -0.003104 -0.001910 0.016181 0.000000 0.009601 0.000000
# 4 0.000000 0.000000 0.000000 0.091961 0.000000 0.070580
# 5 -0.003219 0.000858 0.009601 0.000000 0.052670 0.000000
# 6 0.000000 0.000000 0.000000 0.070580 0.000000 0.144523
#
#
# Mechanical properties :
#
#
# Convention : Reuss Voigt Hill
#
# Bulk Modulus (GPa) = 49.98249 56.41167 53.19708
# Shear Modulus (GPa) = 14.23772 24.08999 19.16385
#
# Velocity S-wave (km/s) = 2.60583 3.38956 3.02320
# Velocity P-wave (km/s) = 5.73513 6.49793 6.12841
#
# Compressibility (1/GPa) = 0.02000700
#
# Stress axis : x y z
#
# Youngs Moduli (GPa) = 95.64192 90.53895 61.80142
#
# Poissons Ratio (x) = 0.34612 0.19186
# Poissons Ratio (y) = 0.36563 0.11804
# Poissons Ratio (z) = 0.29691 0.17292
#
# Static dielectric constant tensor:
#      x y z
#    x 1.806140 0.000000 0.098520 
#    y 0.000000 1.873840 0.000000 
#    z 0.098520 0.000000 1.876830 
# 
# From -- ./inp_files/55623.got.cif
#   From: 2010.05.17/outbox.cif.g08.bks.cpg/sg13_28_cif.got.tgz:55623.got - 2010.06.03 16:44:36.
