data_PCOD9233847
_publ_section_title
;
Structure prediction by ZEFSAII (Michael W. Deem and Ramdas Pophale) SiO2 
 PCOD9233847
Probable space group: P 2/C
;
_chemical_formula_sum "Si O2"
_cell_formula_units_Z 22
_cell_length_a 8.965795
_cell_length_b 7.768477
_cell_length_c 20.582171
_cell_angle_alpha 90.000000
_cell_angle_beta 133.632380
_cell_angle_gamma 90.000000
_cell_volume 1037.584938
_symmetry_space_group_name_H-M "P 2/C"
_symmetry_group_IT_number 13
_symmetry_cell_setting 'monoclinic'
loop_
_space_group_symop_operation_xyz
x,y,z
-x,y,1/2-z
-x,-y,-z
x,-y,1/2+z
loop_
_atom_site_type_symbol
_atom_site_label
_atom_site_fract_x
_atom_site_fract_y
_atom_site_fract_z
Si Si1 0.260007 0.539426 0.918460
Si Si2 0.175609 0.943730 0.103120
Si Si3 0.206426 0.596657 0.040777
Si Si4 0.946592 0.234085 0.806072
Si Si5 0.500000 0.198382 0.250000
Si Si6 0.648772 0.550328 0.694217
O O1 0.244347 0.610811 0.840688
O O2 0.132745 0.361419 0.882491
O O3 0.500000 0.500000 0.000000
O O4 0.189525 0.646843 0.959655
O O5 0.246400 0.759453 0.097679
O O6 0.093920 0.906788 0.151360
O O7 0.361607 0.077799 0.162730
O O8 0.000000 0.000000 0.000000
O O9 0.405939 0.476614 0.108393
O O10 0.000000 0.500000 0.000000
O O11 0.754478 0.367552 0.742468
O O12 0.000000 0.167544 0.750000
O O13 0.346006 0.317936 0.245156
#
# Coordination Sequence:
#
# PCOD9233847 Si02
#       6
#     4   4   4   4   2   4
#     4   9  20  37  69  96 118 157 231 275 312 374
#     4  12  26  40  62  98 140 172 210 272 341 395
#     4  11  20  40  69  92 124 173 229 267 313 394
#     4  10  21  43  68  93 127 175 229 272 321 388
#     4  12  26  42  60 102 138 172 216 268 344 402
#     4  10  22  41  69  92 126 171 225 275 316 389
#
# _framework density 21.203085000000002
#
# number of rings (size 3 to 8) (size 9 to 14) (size 15 to 20)
#    0.000    1.455    1.818    3.273    5.091    0.000 
#    3.273    0.909    0.000    0.000    0.000    0.000 
#    0.000    0.000    0.000    0.000    0.000    0.000 
#
# Total GULP energy -122896.222947 kJ/mol
# GULP energy per Si atom -5586.191952 kJ/mol
# Density = 2.115483 g / cm^3
# Si number density = 21.203085 Si / 1000 Ang^3
#
#
#
# Elastic Constant Matrix: (Units=GPa)
#
#
# Indices 1 2 3 4 5 6 
#
# 1 128.7602 34.0929 37.5685 0.0000 -22.0987 0.0000
# 2 34.0929 43.6241 7.1804 0.0000 -14.0122 0.0000
# 3 37.5685 7.1804 92.3653 0.0000 5.3425 0.0000
# 4 0.0000 0.0000 0.0000 39.8805 0.0000 -11.7030
# 5 -22.0987 -14.0122 5.3425 0.0000 55.8057 0.0000
# 6 0.0000 0.0000 0.0000 -11.7030 0.0000 13.5302
#
#
#
# Elastic Compliance Matrix: (Units=1/GPa)
#
#
# Indices 1 2 3 4 5 6 
#
# 1 0.011476 -0.007257 -0.004285 0.000000 0.003132 0.000000
# 2 -0.007257 0.030025 0.000350 0.000000 0.004632 0.000000
# 3 -0.004285 0.000350 0.012705 0.000000 -0.002825 0.000000
# 4 0.000000 0.000000 0.000000 0.033604 0.000000 0.029066
# 5 0.003132 0.004632 -0.002825 0.000000 0.020593 0.000000
# 6 0.000000 0.000000 0.000000 0.029066 0.000000 0.099050
#
#
# Mechanical properties :
#
#
# Convention : Reuss Voigt Hill
#
# Bulk Modulus (GPa) = 31.42478 46.93702 39.18090
# Shear Modulus (GPa) = 20.79486 34.23715 27.51600
#
# Velocity S-wave (km/s) = 3.13509 4.02272 3.60632
# Velocity P-wave (km/s) = 5.28754 6.61524 5.98830
#
# Compressibility (1/GPa) = 0.03182202
#
# Stress axis : x y z
#
# Youngs Moduli (GPa) = 87.14165 33.30592 78.70610
#
# Poissons Ratio (x) = 0.24170 0.33722
# Poissons Ratio (y) = 0.63239 -0.02752
# Poissons Ratio (z) = 0.37336 -0.01165
#
# Static dielectric constant tensor:
#      x y z
#    x 1.797170 0.000000 -0.037950 
#    y 0.000000 1.746310 0.000000 
#    z -0.037950 0.000000 1.810150 
# 
# From -- ./inp_files/75868.got.cif
#   From: 2010.05.17/outbox.cif.g08.bks.cpg/sg13_38_cif.got.tgz:75868.got - 2010.06.03 16:44:36.
