data_PCOD9233279
_publ_section_title
;
Structure prediction by ZEFSAII (Michael W. Deem and Ramdas Pophale) SiO2 
 PCOD9233279
Probable space group: P 2/C
;
_chemical_formula_sum "Si O2"
_cell_formula_units_Z 18
_cell_length_a 15.746537
_cell_length_b 4.765457
_cell_length_c 13.556692
_cell_angle_alpha 90.000000
_cell_angle_beta 142.117800
_cell_angle_gamma 90.000000
_cell_volume 624.654718
_symmetry_space_group_name_H-M "P 2/C"
_symmetry_group_IT_number 13
_symmetry_cell_setting 'monoclinic'
loop_
_space_group_symop_operation_xyz
x,y,z
-x,y,1/2-z
-x,-y,-z
x,-y,1/2+z
loop_
_atom_site_type_symbol
_atom_site_label
_atom_site_fract_x
_atom_site_fract_y
_atom_site_fract_z
Si Si1 0.443546 0.115658 0.054364
Si Si2 0.862753 0.488988 0.507586
Si Si3 0.806561 0.552276 0.676166
Si Si4 0.835425 0.001287 0.864129
Si Si5 0.500000 0.599204 0.250000
O O1 0.437604 0.838925 0.117758
O O2 0.534146 0.359141 0.195703
O O3 0.302007 0.298464 0.914534
O O4 0.500000 0.000000 0.000000
O O5 0.813510 0.607240 0.565581
O O6 0.815314 0.175334 0.445542
O O7 0.803161 0.684941 0.366898
O O8 0.030068 0.481145 0.656207
O O9 0.779251 0.809625 0.724462
O O10 0.000000 0.000000 0.000000
#
# Coordination Sequence:
#
# PCOD9233279 Si02
#       5
#     4   4   4   4   2
#     4  11  25  49  79 111 148 200 260 330 403 468
#     4  10  23  40  66 111 155 192 245 303 373 470
#     4  10  23  42  73 107 150 204 248 305 391 470
#     4  10  21  40  64 105 155 193 239 301 369 466
#     4  10  26  50  74 112 150 188 268 340 390 462
#
# _framework density 28.815919000000001
#
# number of rings (size 3 to 8) (size 9 to 14) (size 15 to 20)
#    0.000    1.778    0.000    3.333    0.000   17.778 
#    0.000    8.889    0.000    0.000    0.000    4.667 
#    0.000    0.000    0.000    0.000    0.000    0.889 
#
# Total GULP energy -100470.988074 kJ/mol
# GULP energy per Si atom -5581.721560 kJ/mol
# Density = 2.875033 g / cm^3
# Si number density = 28.815919 Si / 1000 Ang^3
#
#
#
# Elastic Constant Matrix: (Units=GPa)
#
#
# Indices 1 2 3 4 5 6 
#
# 1 184.6651 90.9463 121.9506 0.0000 -7.6314 0.0000
# 2 90.9463 237.8810 87.1773 0.0000 -0.0255 0.0000
# 3 121.9506 87.1773 137.3354 0.0000 -19.9376 0.0000
# 4 0.0000 0.0000 0.0000 65.1529 0.0000 -12.0581
# 5 -7.6314 -0.0255 -19.9376 0.0000 68.7066 0.0000
# 6 0.0000 0.0000 0.0000 -12.0581 0.0000 57.0827
#
#
#
# Elastic Compliance Matrix: (Units=1/GPa)
#
#
# Indices 1 2 3 4 5 6 
#
# 1 0.013498 -0.000869 -0.011709 0.000000 -0.001899 0.000000
# 2 -0.000869 0.005608 -0.002925 0.000000 -0.000943 0.000000
# 3 -0.011709 -0.002925 0.020198 0.000000 0.004559 0.000000
# 4 0.000000 0.000000 0.000000 0.015973 0.000000 0.003374
# 5 -0.001899 -0.000943 0.004559 0.000000 0.015666 0.000000
# 6 0.000000 0.000000 0.000000 0.003374 0.000000 0.018231
#
#
# Mechanical properties :
#
#
# Convention : Reuss Voigt Hill
#
# Bulk Modulus (GPa) = 120.53844 128.89221 124.71532
# Shear Modulus (GPa) = 40.66826 55.50892 48.08859
#
# Velocity S-wave (km/s) = 3.76082 4.39376 4.08955
# Velocity P-wave (km/s) = 7.79613 8.40040 8.10390
#
# Compressibility (1/GPa) = 0.00829611
#
# Stress axis : x y z
#
# Youngs Moduli (GPa) = 74.08692 178.32023 49.51102
#
# Poissons Ratio (x) = 0.15503 0.57974
# Poissons Ratio (y) = 0.06441 0.14480
# Poissons Ratio (z) = 0.86751 0.52153
#
# Static dielectric constant tensor:
#      x y z
#    x 2.198880 0.000000 0.011940 
#    y 0.000000 2.097240 0.000000 
#    z 0.011940 0.000000 2.591260 
# 
# From -- ./inp_files/52419.got.cif
#   From: 2010.05.17/outbox.cif.g08.bks.cpg/sg13_27_cif.got.tgz:52419.got - 2010.06.03 16:44:36.
