data_PCOD9233060
_publ_section_title
;
Structure prediction by ZEFSAII (Michael W. Deem and Ramdas Pophale) SiO2 
 PCOD9233060
Probable space group: P 2/C
;
_chemical_formula_sum "Si O2"
_cell_formula_units_Z 32
_cell_length_a 12.498532
_cell_length_b 14.324137
_cell_length_c 17.960325
_cell_angle_alpha 90.000000
_cell_angle_beta 147.788426
_cell_angle_gamma 90.000000
_cell_volume 1713.986236
_symmetry_space_group_name_H-M "P 2/C"
_symmetry_group_IT_number 13
_symmetry_cell_setting 'monoclinic'
loop_
_space_group_symop_operation_xyz
x,y,z
-x,y,1/2-z
-x,-y,-z
x,-y,1/2+z
loop_
_atom_site_type_symbol
_atom_site_label
_atom_site_fract_x
_atom_site_fract_y
_atom_site_fract_z
Si Si1 0.369376 0.872222 0.830447
Si Si2 0.336018 0.694098 0.714747
Si Si3 0.038282 0.984232 0.184451
Si Si4 0.604956 0.458191 0.450727
Si Si5 0.951837 0.428406 0.537594
Si Si6 0.405860 0.969556 0.118761
Si Si7 0.613175 0.843349 0.121936
Si Si8 0.651566 0.376636 0.639722
O O1 0.311299 0.773825 0.761054
O O2 0.180736 0.927480 0.752356
O O3 0.466975 0.938227 0.825888
O O4 0.535312 0.862527 0.992585
O O5 0.500000 0.724576 0.750000
O O6 0.427806 0.601566 0.807675
O O7 0.138036 0.663965 0.554350
O O8 0.000000 0.976517 0.250000
O O9 0.171598 0.894073 0.239989
O O10 0.827044 0.001393 0.019097
O O11 0.780650 0.464737 0.493503
O O12 0.668337 0.400604 0.561779
O O13 0.524648 0.557883 0.431192
O O14 0.000000 0.500000 0.500000
O O15 0.147006 0.406922 0.700201
O O16 0.500000 0.931382 0.250000
O O17 0.456588 0.895215 0.084035
O O18 0.618303 0.732589 0.133876
#
# Coordination Sequence:
#
# PCOD9233060 Si02
#       8
#     4   4   4   4   4   4   4   4
#     4  11  21  40  65  92 126 164 214 261 310 382
#     4  10  21  39  64  91 122 163 208 255 314 367
#     4  11  21  40  67  88 124 171 207 253 319 377
#     4  10  22  42  64  88 127 170 207 264 318 375
#     4  11  23  41  63  94 127 165 210 263 323 378
#     4  11  24  42  61  94 132 164 206 265 322 373
#     4  11  23  40  66  96 123 167 220 261 312 383
#     4  11  23  41  66  93 129 166 220 264 313 383
#
# _framework density 18.669927999999999
#
# number of rings (size 3 to 8) (size 9 to 14) (size 15 to 20)
#    0.000    1.250    5.000    1.500    0.000    7.000 
#    4.500    0.000    2.750    0.000    0.000    0.000 
#    0.000    0.000    0.000    0.000    0.000    0.000 
#
# Total GULP energy -178708.507451 kJ/mol
# GULP energy per Si atom -5584.640858 kJ/mol
# Density = 1.862743 g / cm^3
# Si number density = 18.669928 Si / 1000 Ang^3
#
#
#
# Elastic Constant Matrix: (Units=GPa)
#
#
# Indices 1 2 3 4 5 6 
#
# 1 73.2782 46.9961 25.5241 0.0000 -2.6309 0.0000
# 2 46.9961 108.6254 16.5845 0.0000 12.7883 0.0000
# 3 25.5241 16.5845 103.0910 0.0000 0.3955 0.0000
# 4 0.0000 0.0000 0.0000 18.9322 0.0000 -12.5235
# 5 -2.6309 12.7883 0.3955 0.0000 31.6597 0.0000
# 6 0.0000 0.0000 0.0000 -12.5235 0.0000 17.8398
#
#
#
# Elastic Compliance Matrix: (Units=1/GPa)
#
#
# Indices 1 2 3 4 5 6 
#
# 1 0.021036 -0.009176 -0.003753 0.000000 0.005501 0.000000
# 2 -0.009176 0.013919 0.000057 0.000000 -0.006385 0.000000
# 3 -0.003753 0.000057 0.010622 0.000000 -0.000468 0.000000
# 4 0.000000 0.000000 0.000000 0.098613 0.000000 0.069226
# 5 0.005501 -0.006385 -0.000468 0.000000 0.034628 0.000000
# 6 0.000000 0.000000 0.000000 0.069226 0.000000 0.104651
#
#
# Mechanical properties :
#
#
# Convention : Reuss Voigt Hill
#
# Bulk Modulus (GPa) = 50.42049 51.46713 50.94381
# Shear Modulus (GPa) = 15.83159 26.74565 21.28862
#
# Velocity S-wave (km/s) = 2.91516 3.78901 3.38044
# Velocity P-wave (km/s) = 6.19643 6.83878 6.52551
#
# Compressibility (1/GPa) = 0.01983321
#
# Stress axis : x y z
#
# Youngs Moduli (GPa) = 47.53686 71.84506 94.14390
#
# Poissons Ratio (x) = 0.65924 0.35335
# Poissons Ratio (y) = 0.43619 -0.00538
# Poissons Ratio (z) = 0.17842 -0.00411
#
# Static dielectric constant tensor:
#      x y z
#    x 1.645110 0.000000 -0.008440 
#    y 0.000000 1.631210 0.000000 
#    z -0.008440 0.000000 1.637700 
# 
# From -- ./inp_files/66931.got.cif
#   From: 2010.05.17/outbox.cif.g08.bks.cpg/sg13_34_cif.got.tgz:66931.got - 2010.06.03 16:44:36.
