data_PCOD9233555
_publ_section_title
;
Structure prediction by ZEFSAII (Michael W. Deem and Ramdas Pophale) SiO2 
 PCOD9233555
Probable space group: P 2/C
;
_chemical_formula_sum "Si O2"
_cell_formula_units_Z 28
_cell_length_a 24.982148
_cell_length_b 9.546721
_cell_length_c 8.637481
_cell_angle_alpha 90.000000
_cell_angle_beta 39.832072
_cell_angle_gamma 90.000000
_cell_volume 1319.523515
_symmetry_space_group_name_H-M "P 2/C"
_symmetry_group_IT_number 13
_symmetry_cell_setting 'monoclinic'
loop_
_space_group_symop_operation_xyz
x,y,z
-x,y,1/2-z
-x,-y,-z
x,-y,1/2+z
loop_
_atom_site_type_symbol
_atom_site_label
_atom_site_fract_x
_atom_site_fract_y
_atom_site_fract_z
Si Si1 0.710440 0.305561 0.183194
Si Si2 0.752859 0.422738 0.425277
Si Si3 0.050055 0.379511 0.479091
Si Si4 0.169819 0.078361 0.711608
Si Si5 0.312149 0.858872 0.329324
Si Si6 0.596981 0.923308 0.063266
Si Si7 0.929870 0.106104 0.276786
O O1 0.727893 0.373830 0.310279
O O2 0.632147 0.201141 0.374662
O O3 0.710516 0.430981 0.061954
O O4 0.787472 0.205495 0.970398
O O5 0.853855 0.427695 0.208595
O O6 0.717764 0.300389 0.615790
O O7 0.054740 0.241688 0.361635
O O8 0.000000 0.500000 0.500000
O O9 0.000000 0.351828 0.750000
O O10 0.232554 0.946684 0.568629
O O11 0.091546 0.024882 0.784321
O O12 0.149607 0.121207 0.931246
O O13 0.381203 0.876745 0.311273
O O14 0.349867 0.938035 0.097923
O O15 0.500000 0.946203 0.250000
O O16 0.000000 0.084699 0.250000
#
# Coordination Sequence:
#
# PCOD9233555 Si02
#       7
#     4   4   4   4   4   4   4
#     4  10  25  40  69  93 131 174 221 263 334 387
#     4  11  23  43  65  90 127 174 226 269 317 404
#     4  12  28  45  67  94 134 176 229 285 342 384
#     4  11  24  46  63  96 125 178 223 279 326 406
#     4  10  21  41  69  94 126 173 218 260 327 392
#     4  10  21  41  67 104 137 164 208 268 329 400
#     4  12  27  42  67  92 131 172 225 285 348 385
#
# _framework density 21.219781000000001
#
# number of rings (size 3 to 8) (size 9 to 14) (size 15 to 20)
#    0.000    1.143    1.429    4.714    8.000    1.714 
#    0.000    3.571    0.000    0.000    0.000    0.000 
#    0.000    0.000    0.000    0.000    0.000    0.000 
#
# Total GULP energy -156636.953830 kJ/mol
# GULP energy per Si atom -5594.176923 kJ/mol
# Density = 2.117148 g / cm^3
# Si number density = 21.219781 Si / 1000 Ang^3
#
#
#
# Elastic Constant Matrix: (Units=GPa)
#
#
# Indices 1 2 3 4 5 6 
#
# 1 44.4545 -10.6636 21.6151 0.0000 0.7478 0.0000
# 2 -10.6636 109.6769 40.6170 0.0000 15.0977 0.0000
# 3 21.6151 40.6170 100.7071 0.0000 9.8388 0.0000
# 4 0.0000 0.0000 0.0000 24.8284 0.0000 12.7335
# 5 0.7478 15.0977 9.8388 0.0000 39.3052 0.0000
# 6 0.0000 0.0000 0.0000 12.7335 0.0000 33.9838
#
#
#
# Elastic Compliance Matrix: (Units=1/GPa)
#
#
# Indices 1 2 3 4 5 6 
#
# 1 0.027961 0.005894 -0.008308 0.000000 -0.000716 0.000000
# 2 0.005894 0.012346 -0.005915 0.000000 -0.003374 0.000000
# 3 -0.008308 -0.005915 0.014209 0.000000 -0.001127 0.000000
# 4 0.000000 0.000000 0.000000 0.049857 0.000000 -0.018681
# 5 -0.000716 -0.003374 -0.001127 0.000000 0.027033 0.000000
# 6 0.000000 0.000000 0.000000 -0.018681 0.000000 0.036426
#
#
# Mechanical properties :
#
#
# Convention : Reuss Voigt Hill
#
# Bulk Modulus (GPa) = 26.41546 39.77506 33.09526
# Shear Modulus (GPa) = 25.36678 33.17482 29.27080
#
# Velocity S-wave (km/s) = 3.46125 3.95826 3.71807
# Velocity P-wave (km/s) = 5.33378 6.29885 5.83630
#
# Compressibility (1/GPa) = 0.03785662
#
# Stress axis : x y z
#
# Youngs Moduli (GPa) = 35.76455 81.00087 70.37978
#
# Poissons Ratio (x) = -0.47742 0.58475
# Poissons Ratio (y) = -0.21080 0.41627
# Poissons Ratio (z) = 0.29715 0.47909
#
# Static dielectric constant tensor:
#      x y z
#    x 1.778280 0.000000 -0.007180 
#    y 0.000000 1.749560 0.000000 
#    z -0.007180 0.000000 1.833860 
# 
# From -- ./inp_files/24508.got.cif
#   From: 2010.05.17/outbox.cif.g08.bks.cpg/sg13_13_cif.got.tgz:24508.got - 2010.06.03 16:44:36.
