data_PCOD9233637
_publ_section_title
;
Structure prediction by ZEFSAII (Michael W. Deem and Ramdas Pophale) SiO2 
 PCOD9233637
Probable space group: P 2/C
;
_chemical_formula_sum "Si O2"
_cell_formula_units_Z 20
_cell_length_a 5.215605
_cell_length_b 13.004971
_cell_length_c 16.662304
_cell_angle_alpha 90.000000
_cell_angle_beta 56.877772
_cell_angle_gamma 90.000000
_cell_volume 946.536733
_symmetry_space_group_name_H-M "P 2/C"
_symmetry_group_IT_number 13
_symmetry_cell_setting 'monoclinic'
loop_
_space_group_symop_operation_xyz
x,y,z
-x,y,1/2-z
-x,-y,-z
x,-y,1/2+z
loop_
_atom_site_type_symbol
_atom_site_label
_atom_site_fract_x
_atom_site_fract_y
_atom_site_fract_z
Si Si1 0.877636 0.193060 0.929457
Si Si2 0.141665 0.992958 0.811571
Si Si3 0.780464 0.578697 0.956418
Si Si4 0.194428 0.400059 0.854496
Si Si5 0.177018 0.804996 0.547808
O O1 0.085971 0.096444 0.871159
O O2 0.983178 0.300860 0.871802
O O3 0.528800 0.169282 0.965053
O O4 0.940686 0.204210 0.013886
O O5 0.500000 0.968754 0.750000
O O6 0.000000 0.016858 0.750000
O O7 0.954549 0.896043 0.876664
O O8 0.779861 0.692337 0.919777
O O9 0.046401 0.512237 0.869442
O O10 0.500000 0.500000 0.000000
O O11 0.784946 0.600971 0.051653
O O12 0.500000 0.390598 0.750000
#
# Coordination Sequence:
#
# PCOD9233637 Si02
#       5
#     4   4   4   4   4
#     4  11  22  42  67  92 125 170 218 270 318 387
#     4  12  25  42  63  97 133 163 218 272 324 391
#     4  10  21  42  61  91 132 166 213 268 317 397
#     4  10  22  39  64  95 125 169 218 269 329 378
#     4  11  23  42  68  88 130 175 214 257 335 388
#
# _framework density 21.129663000000001
#
# number of rings (size 3 to 8) (size 9 to 14) (size 15 to 20)
#    0.000    1.200    2.000    4.200    0.000    3.200 
#    3.600    0.000    0.000    0.000    0.000    0.000 
#    0.000    0.000    0.000    0.000    0.000    0.000 
#
# Total GULP energy -111540.915470 kJ/mol
# GULP energy per Si atom -5577.045773 kJ/mol
# Density = 2.108157 g / cm^3
# Si number density = 21.129663 Si / 1000 Ang^3
#
#
#
# Elastic Constant Matrix: (Units=GPa)
#
#
# Indices 1 2 3 4 5 6 
#
# 1 64.0786 3.6813 11.6480 0.0000 -17.7259 0.0000
# 2 3.6813 151.0961 45.0131 0.0000 -14.9045 0.0000
# 3 11.6480 45.0131 95.2830 0.0000 -19.8945 0.0000
# 4 0.0000 0.0000 0.0000 19.4964 0.0000 -7.8028
# 5 -17.7259 -14.9045 -19.8945 0.0000 45.4702 0.0000
# 6 0.0000 0.0000 0.0000 -7.8028 0.0000 33.2026
#
#
#
# Elastic Compliance Matrix: (Units=1/GPa)
#
#
# Indices 1 2 3 4 5 6 
#
# 1 0.017581 0.000526 -0.001024 0.000000 0.006578 0.000000
# 2 0.000526 0.007762 -0.003474 0.000000 0.001229 0.000000
# 3 -0.001024 -0.003474 0.013141 0.000000 0.004211 0.000000
# 4 0.000000 0.000000 0.000000 0.056616 0.000000 0.013305
# 5 0.006578 0.001229 0.004211 0.000000 0.026802 0.000000
# 6 0.000000 0.000000 0.000000 0.013305 0.000000 0.033245
#
#
# Mechanical properties :
#
#
# Convention : Reuss Voigt Hill
#
# Bulk Modulus (GPa) = 32.74573 47.90472 40.32523
# Shear Modulus (GPa) = 28.85621 36.30823 32.58222
#
# Velocity S-wave (km/s) = 3.69951 4.14980 3.93111
# Velocity P-wave (km/s) = 5.81203 6.75885 6.30324
#
# Compressibility (1/GPa) = 0.03053833
#
# Stress axis : x y z
#
# Youngs Moduli (GPa) = 56.87806 128.83612 76.09809
#
# Poissons Ratio (x) = -0.06772 0.07793
# Poissons Ratio (y) = -0.02990 0.26440
# Poissons Ratio (z) = 0.05825 0.44763
#
# Static dielectric constant tensor:
#      x y z
#    x 2.238290 0.000000 0.143320 
#    y 0.000000 1.861930 0.000000 
#    z 0.143320 0.000000 1.793320 
# 
# From -- ./inp_files/43518.got.cif
#   From: 2010.05.17/outbox.cif.g08.bks.cpg/sg13_22_cif.got.tgz:43518.got - 2010.06.03 16:44:36.
