data_PCOD9233689
_publ_section_title
;
Structure prediction by ZEFSAII (Michael W. Deem and Ramdas Pophale) SiO2 
 PCOD9233689
Probable space group: P 2/C
;
_chemical_formula_sum "Si O2"
_cell_formula_units_Z 20
_cell_length_a 10.636581
_cell_length_b 5.870896
_cell_length_c 25.141276
_cell_angle_alpha 90.000000
_cell_angle_beta 30.993272
_cell_angle_gamma 90.000000
_cell_volume 808.440767
_symmetry_space_group_name_H-M "P 2/C"
_symmetry_group_IT_number 13
_symmetry_cell_setting 'monoclinic'
loop_
_space_group_symop_operation_xyz
x,y,z
-x,y,1/2-z
-x,-y,-z
x,-y,1/2+z
loop_
_atom_site_type_symbol
_atom_site_label
_atom_site_fract_x
_atom_site_fract_y
_atom_site_fract_z
Si Si1 0.787091 0.397164 0.864736
Si Si2 0.792382 0.193456 0.569629
Si Si3 0.393303 0.160665 0.192713
Si Si4 0.697347 0.503772 0.009358
Si Si5 0.500000 0.483005 0.250000
Si Si6 0.000000 0.842318 0.750000
O O1 0.520658 0.343728 0.938789
O O2 0.822573 0.375267 0.914450
O O3 0.810682 0.667585 0.846664
O O4 0.000000 0.294921 0.750000
O O5 0.837900 0.336188 0.499339
O O6 0.715887 0.366082 0.644630
O O7 0.538386 0.062109 0.655197
O O8 0.000000 0.000000 0.500000
O O9 0.373672 0.321686 0.251415
O O10 0.568759 0.313248 0.091815
O O11 0.843736 0.911798 0.754739
#
# Coordination Sequence:
#
# PCOD9233689 Si02
#       6
#     4   4   4   4   2   2
#     4   8  16  35  64  91 128 173 209 261 337 404
#     4  11  25  43  63 104 133 178 232 275 331 405
#     4  10  21  42  66  96 137 171 226 280 330 403
#     4   9  19  38  62  94 131 171 219 265 336 394
#     4  10  24  44  72  94 132 188 224 274 342 400
#     4   8  18  36  64  94 122 174 208 270 336 382
#
# _framework density 24.738977999999999
#
# number of rings (size 3 to 8) (size 9 to 14) (size 15 to 20)
#    0.600    2.000    0.000    0.600    0.000    8.000 
#    1.800   10.000    0.000    0.000    0.000    0.000 
#    0.000    0.000    0.000    0.000    0.000    0.000 
#
# Total GULP energy -111485.337474 kJ/mol
# GULP energy per Si atom -5574.266874 kJ/mol
# Density = 2.468267 g / cm^3
# Si number density = 24.738978 Si / 1000 Ang^3
#
#
#
# Elastic Constant Matrix: (Units=GPa)
#
#
# Indices 1 2 3 4 5 6 
#
# 1 173.4994 88.6939 82.7449 0.0000 15.0235 0.0000
# 2 88.6939 83.0251 41.6408 0.0000 11.9357 0.0000
# 3 82.7449 41.6408 150.7549 0.0000 39.7750 0.0000
# 4 0.0000 0.0000 0.0000 13.5023 0.0000 -4.6815
# 5 15.0235 11.9357 39.7750 0.0000 47.6400 0.0000
# 6 0.0000 0.0000 0.0000 -4.6815 0.0000 40.9645
#
#
#
# Elastic Compliance Matrix: (Units=1/GPa)
#
#
# Indices 1 2 3 4 5 6 
#
# 1 0.015177 -0.014012 -0.005288 0.000000 0.003140 0.000000
# 2 -0.014012 0.026923 0.001113 0.000000 -0.003256 0.000000
# 3 -0.005288 0.001113 0.011365 0.000000 -0.008100 0.000000
# 4 0.000000 0.000000 0.000000 0.077117 0.000000 0.008813
# 5 0.003140 -0.003256 -0.008100 0.000000 0.027580 0.000000
# 6 0.000000 0.000000 0.000000 0.008813 0.000000 0.025419
#
#
# Mechanical properties :
#
#
# Convention : Reuss Voigt Hill
#
# Bulk Modulus (GPa) = 58.50820 92.60428 75.55624
# Shear Modulus (GPa) = 22.15795 33.36801 27.76298
#
# Velocity S-wave (km/s) = 2.99602 3.67659 3.35361
# Velocity P-wave (km/s) = 5.97241 7.45231 6.75302
#
# Compressibility (1/GPa) = 0.01709162
#
# Stress axis : x y z
#
# Youngs Moduli (GPa) = 65.88864 37.14236 87.98593
#
# Poissons Ratio (x) = 0.52046 0.46528
# Poissons Ratio (y) = 0.92326 -0.09797
# Poissons Ratio (z) = 0.34843 -0.04136
#
# Static dielectric constant tensor:
#      x y z
#    x 2.077750 0.000000 -0.028080 
#    y 0.000000 2.098970 0.000000 
#    z -0.028080 0.000000 2.029210 
# 
# From -- ./inp_files/85511.got.cif
#   From: 2010.05.17/outbox.cif.g08.bks.cpg/sg13_43_cif.got.tgz:85511.got - 2010.06.03 16:44:36.
