data_PCOD9233079
_publ_section_title
;
Structure prediction by ZEFSAII (Michael W. Deem and Ramdas Pophale) SiO2 
 PCOD9233079
Probable space group: P 2/C
;
_chemical_formula_sum "Si O2"
_cell_formula_units_Z 22
_cell_length_a 16.154102
_cell_length_b 10.648743
_cell_length_c 15.732271
_cell_angle_alpha 90.000000
_cell_angle_beta 18.583940
_cell_angle_gamma 90.000000
_cell_volume 862.473934
_symmetry_space_group_name_H-M "P 2/C"
_symmetry_group_IT_number 13
_symmetry_cell_setting 'monoclinic'
loop_
_space_group_symop_operation_xyz
x,y,z
-x,y,1/2-z
-x,-y,-z
x,-y,1/2+z
loop_
_atom_site_type_symbol
_atom_site_label
_atom_site_fract_x
_atom_site_fract_y
_atom_site_fract_z
Si Si1 0.109040 0.882105 0.559199
Si Si2 0.438860 0.709386 0.950073
Si Si3 0.902141 0.518578 0.750334
Si Si4 0.428508 0.871664 0.519348
Si Si5 0.388678 0.463519 0.700598
Si Si6 0.500000 0.912688 0.750000
O O1 0.350542 0.841060 0.265426
O O2 0.000000 0.812681 0.750000
O O3 0.254664 0.004735 0.458278
O O4 0.854941 0.892634 0.746329
O O5 0.183972 0.620996 0.197733
O O6 0.415516 0.823051 0.908805
O O7 0.637695 0.600571 0.726865
O O8 0.539023 0.764280 0.941245
O O9 0.000000 0.514845 0.750000
O O10 0.102752 0.585230 0.491186
O O11 0.631853 0.595895 0.010873
O O12 0.500000 0.000000 0.500000
O O13 0.500000 0.500000 0.500000
#
# Coordination Sequence:
#
# PCOD9233079 Si02
#       6
#     4   4   4   4   4   2
#     4  12  24  42  59  84 130 172 216 272 324 380
#     4  10  25  36  67  94 130 165 216 267 332 386
#     4  10  21  39  64  98 126 162 204 264 324 383
#     4  12  24  39  61  90 126 169 217 259 327 395
#     4  10  22  40  63  92 131 162 202 264 332 382
#     4  12  22  42  60 100 126 174 216 286 334 384
#
# _framework density 25.508016999999999
#
# number of rings (size 3 to 8) (size 9 to 14) (size 15 to 20)
#    1.091    0.000    3.636    2.727    2.545    3.636 
#    0.000    0.000    0.000    6.545    0.000    0.000 
#    0.000    0.000    0.000    0.000    0.000    0.000 
#
# Total GULP energy -122752.172735 kJ/mol
# GULP energy per Si atom -5579.644215 kJ/mol
# Density = 2.544996 g / cm^3
# Si number density = 25.508017 Si / 1000 Ang^3
#
#
#
# Elastic Constant Matrix: (Units=GPa)
#
#
# Indices 1 2 3 4 5 6 
#
# 1 180.7929 44.4033 78.7554 0.0000 -26.8578 0.0000
# 2 44.4033 116.0872 37.9210 0.0000 -15.5393 0.0000
# 3 78.7554 37.9210 221.0281 0.0000 -26.7869 0.0000
# 4 0.0000 0.0000 0.0000 28.9163 0.0000 -5.4932
# 5 -26.8578 -15.5393 -26.7869 0.0000 56.2250 0.0000
# 6 0.0000 0.0000 0.0000 -5.4932 0.0000 22.3314
#
#
#
# Elastic Compliance Matrix: (Units=1/GPa)
#
#
# Indices 1 2 3 4 5 6 
#
# 1 0.007137 -0.001816 -0.001994 0.000000 0.001957 0.000000
# 2 -0.001816 0.009780 -0.000858 0.000000 0.001427 0.000000
# 3 -0.001994 -0.000858 0.005559 0.000000 0.001459 0.000000
# 4 0.000000 0.000000 0.000000 0.036278 0.000000 0.008924
# 5 0.001957 0.001427 0.001459 0.000000 0.019810 0.000000
# 6 0.000000 0.000000 0.000000 0.008924 0.000000 0.046975
#
#
# Mechanical properties :
#
#
# Convention : Reuss Voigt Hill
#
# Bulk Modulus (GPa) = 76.10945 93.34083 84.72514
# Shear Modulus (GPa) = 35.90543 45.28312 40.59427
#
# Velocity S-wave (km/s) = 3.75589 4.21794 3.99360
# Velocity P-wave (km/s) = 6.97934 7.77133 7.38596
#
# Compressibility (1/GPa) = 0.01313897
#
# Stress axis : x y z
#
# Youngs Moduli (GPa) = 140.12114 102.24759 179.89520
#
# Poissons Ratio (x) = 0.18572 0.35873
# Poissons Ratio (y) = 0.25452 0.15432
# Poissons Ratio (z) = 0.27941 0.08771
#
# Static dielectric constant tensor:
#      x y z
#    x 2.104750 0.000000 0.141330 
#    y 0.000000 2.128480 0.000000 
#    z 0.141330 0.000000 2.500740 
# 
# From -- ./inp_files/53898.got.cif
#   From: 2010.05.17/outbox.cif.g08.bks.cpg/sg13_27_cif.got.tgz:53898.got - 2010.06.03 16:44:36.
