data_PCOD9233206
_publ_section_title
;
Structure prediction by ZEFSAII (Michael W. Deem and Ramdas Pophale) SiO2 
 PCOD9233206
Probable space group: P 2/C
;
_chemical_formula_sum "Si O2"
_cell_formula_units_Z 30
_cell_length_a 11.132287
_cell_length_b 12.229495
_cell_length_c 10.917317
_cell_angle_alpha 90.000000
_cell_angle_beta 74.968220
_cell_angle_gamma 90.000000
_cell_volume 1435.449769
_symmetry_space_group_name_H-M "P 2/C"
_symmetry_group_IT_number 13
_symmetry_cell_setting 'monoclinic'
loop_
_space_group_symop_operation_xyz
x,y,z
-x,y,1/2-z
-x,-y,-z
x,-y,1/2+z
loop_
_atom_site_type_symbol
_atom_site_label
_atom_site_fract_x
_atom_site_fract_y
_atom_site_fract_z
Si Si1 0.158854 0.741832 0.532200
Si Si2 0.856294 0.902886 0.749753
Si Si3 0.692264 0.476335 0.273315
Si Si4 0.119604 0.310596 0.386309
Si Si5 0.233478 0.142144 0.775496
Si Si6 0.500000 0.244119 0.750000
Si Si7 0.391831 0.416667 0.947090
Si Si8 0.138485 0.335330 0.661167
O O1 0.195988 0.830912 0.624088
O O2 0.149631 0.810267 0.408767
O O3 0.261090 0.650022 0.485281
O O4 0.027833 0.686489 0.600724
O O5 0.851991 0.818146 0.638036
O O6 0.000000 0.925130 0.750000
O O7 0.788555 0.015216 0.740401
O O8 0.790698 0.378926 0.225722
O O9 0.600896 0.455176 0.413388
O O10 0.628405 0.498773 0.159318
O O11 0.772144 0.581633 0.291495
O O12 0.139003 0.355576 0.516925
O O13 0.375538 0.173290 0.769932
O O14 0.189024 0.213831 0.672601
O O15 0.487250 0.325376 0.870470
O O16 0.000000 0.347052 0.750000
#
# Coordination Sequence:
#
# PCOD9233206 Si02
#       8
#     4   4   4   4   4   2   4   4
#     4  10  21  40  59  94 134 168 204 250 329 389
#     4  10  23  37  66  96 130 167 204 262 321 391
#     4  12  23  38  66  95 136 167 215 256 325 392
#     4  11  23  37  60  99 137 167 197 262 324 393
#     4  11  23  43  64  89 121 172 219 264 316 382
#     4  10  24  48  66  84 128 170 224 270 324 366
#     4  11  23  42  63  94 126 175 216 270 316 377
#     4  12  23  37  62  99 134 166 208 258 320 396
#
# _framework density 20.899370999999999
#
# number of rings (size 3 to 8) (size 9 to 14) (size 15 to 20)
#    0.000    1.067    6.667    0.400    3.733    2.667 
#    0.000    2.667    0.000    0.800    0.000    0.000 
#    0.000    0.000    0.000    0.000    0.000    0.000 
#
# Total GULP energy -167678.205733 kJ/mol
# GULP energy per Si atom -5589.273524 kJ/mol
# Density = 2.085180 g / cm^3
# Si number density = 20.899371 Si / 1000 Ang^3
#
#
#
# Elastic Constant Matrix: (Units=GPa)
#
#
# Indices 1 2 3 4 5 6 
#
# 1 86.9555 46.4357 44.8321 0.0000 -7.5094 0.0000
# 2 46.4357 102.4425 33.0313 0.0000 -3.2937 0.0000
# 3 44.8321 33.0313 144.5819 0.0000 0.3321 0.0000
# 4 0.0000 0.0000 0.0000 23.5108 0.0000 -3.3278
# 5 -7.5094 -3.2937 0.3321 0.0000 39.4686 0.0000
# 6 0.0000 0.0000 0.0000 -3.3278 0.0000 4.7177
#
#
#
# Elastic Compliance Matrix: (Units=1/GPa)
#
#
# Indices 1 2 3 4 5 6 
#
# 1 0.017173 -0.006452 -0.003857 0.000000 0.002761 0.000000
# 2 -0.006452 0.012994 -0.000968 0.000000 -0.000135 0.000000
# 3 -0.003857 -0.000968 0.008336 0.000000 -0.000885 0.000000
# 4 0.000000 0.000000 0.000000 0.047251 0.000000 0.033330
# 5 0.002761 -0.000135 -0.000885 0.000000 0.025858 0.000000
# 6 0.000000 0.000000 0.000000 0.033330 0.000000 0.235478
#
#
# Mechanical properties :
#
#
# Convention : Reuss Voigt Hill
#
# Bulk Modulus (GPa) = 62.70082 64.73089 63.71586
# Shear Modulus (GPa) = 13.33481 27.51815 20.42648
#
# Velocity S-wave (km/s) = 2.52870 3.63257 3.12969
# Velocity P-wave (km/s) = 6.21226 6.97381 6.60402
#
# Compressibility (1/GPa) = 0.01594875
#
# Stress axis : x y z
#
# Youngs Moduli (GPa) = 58.23231 76.96056 119.96609
#
# Poissons Ratio (x) = 0.49652 0.46275
# Poissons Ratio (y) = 0.37569 0.11609
# Poissons Ratio (z) = 0.22462 0.07448
#
# Static dielectric constant tensor:
#      x y z
#    x 1.780330 0.000000 0.017050 
#    y 0.000000 1.724990 0.000000 
#    z 0.017050 0.000000 1.806530 
# 
# From -- ./inp_files/33807.got.cif
#   From: 2010.05.17/outbox.cif.g08.bks.cpg/sg13_17_cif.got.tgz:33807.got - 2010.06.03 16:44:36.
