data_PCOD9233175
_publ_section_title
;
Structure prediction by ZEFSAII (Michael W. Deem and Ramdas Pophale) SiO2 
 PCOD9233175
Probable space group: P 2/C
;
_chemical_formula_sum "Si O2"
_cell_formula_units_Z 28
_cell_length_a 16.022359
_cell_length_b 5.487205
_cell_length_c 18.050088
_cell_angle_alpha 90.000000
_cell_angle_beta 119.638150
_cell_angle_gamma 90.000000
_cell_volume 1379.302811
_symmetry_space_group_name_H-M "P 2/C"
_symmetry_group_IT_number 13
_symmetry_cell_setting 'monoclinic'
loop_
_space_group_symop_operation_xyz
x,y,z
-x,y,1/2-z
-x,-y,-z
x,-y,1/2+z
loop_
_atom_site_type_symbol
_atom_site_label
_atom_site_fract_x
_atom_site_fract_y
_atom_site_fract_z
Si Si1 0.455387 0.698985 0.924874
Si Si2 0.032897 0.946051 0.340153
Si Si3 0.194494 0.572373 0.397168
Si Si4 0.254234 0.650497 0.779652
Si Si5 0.829733 0.849710 0.324168
Si Si6 0.641911 0.939570 0.000439
Si Si7 0.192181 0.797639 0.011131
O O1 0.369225 0.617886 0.834412
O O2 0.548195 0.810844 0.925367
O O3 0.500000 0.500000 0.000000
O O4 0.402564 0.892225 0.955263
O O5 0.096784 0.716792 0.341335
O O6 0.000000 0.077942 0.250000
O O7 0.938855 0.873887 0.344065
O O8 0.104596 0.090146 0.425215
O O9 0.212076 0.360421 0.345272
O O10 0.285699 0.749003 0.429704
O O11 0.195772 0.477262 0.481958
O O12 0.211476 0.406850 0.723784
O O13 0.224341 0.906848 0.729641
O O14 0.824172 0.836639 0.410235
O O15 0.708023 0.082716 0.971815
#
# Coordination Sequence:
#
# PCOD9233175 Si02
#       7
#     4   4   4   4   4   4   4
#     4  11  21  38  74 103 131 176 240 300 348 411
#     4  11  24  42  70 106 133 185 238 290 337 420
#     4  11  22  41  72 100 137 180 240 294 342 414
#     4  12  25  46  69 104 137 188 236 295 345 417
#     4  12  29  46  69 101 153 188 229 285 361 427
#     4  10  21  39  69 102 133 174 236 294 353 408
#     4  11  25  44  70  97 145 188 228 288 362 420
#
# _framework density 20.300111999999999
#
# number of rings (size 3 to 8) (size 9 to 14) (size 15 to 20)
#    0.000    0.857    4.286    2.143    8.000    1.143 
#    0.000    0.714    0.000    0.000    0.000    0.000 
#    0.000    0.000    0.000    0.000    0.000    0.000 
#
# Total GULP energy -156414.873336 kJ/mol
# GULP energy per Si atom -5586.245476 kJ/mol
# Density = 2.025391 g / cm^3
# Si number density = 20.300112 Si / 1000 Ang^3
#
#
#
# Elastic Constant Matrix: (Units=GPa)
#
#
# Indices 1 2 3 4 5 6 
#
# 1 144.9824 36.2668 75.8233 0.0000 25.4200 0.0000
# 2 36.2668 92.8300 41.3367 0.0000 13.1318 0.0000
# 3 75.8233 41.3367 95.1269 0.0000 4.6767 0.0000
# 4 0.0000 0.0000 0.0000 27.7944 0.0000 5.4210
# 5 25.4200 13.1318 4.6767 0.0000 49.6960 0.0000
# 6 0.0000 0.0000 0.0000 5.4210 0.0000 28.4489
#
#
#
# Elastic Compliance Matrix: (Units=1/GPa)
#
#
# Indices 1 2 3 4 5 6 
#
# 1 0.013333 0.000285 -0.010461 0.000000 -0.005911 0.000000
# 2 0.000285 0.013823 -0.006075 0.000000 -0.003227 0.000000
# 3 -0.010461 -0.006075 0.021247 0.000000 0.004957 0.000000
# 4 0.000000 0.000000 0.000000 0.037367 0.000000 -0.007120
# 5 -0.005911 -0.003227 0.004957 0.000000 0.023532 0.000000
# 6 0.000000 0.000000 0.000000 -0.007120 0.000000 0.036508
#
#
# Mechanical properties :
#
#
# Convention : Reuss Voigt Hill
#
# Bulk Modulus (GPa) = 62.89020 71.08812 66.98916
# Shear Modulus (GPa) = 27.23127 33.15536 30.19332
#
# Velocity S-wave (km/s) = 3.66653 4.04575 3.86080
# Velocity P-wave (km/s) = 6.99801 7.54445 7.27636
#
# Compressibility (1/GPa) = 0.01590073
#
# Stress axis : x y z
#
# Youngs Moduli (GPa) = 74.99966 72.34483 47.06566
#
# Poissons Ratio (x) = -0.02065 0.49236
# Poissons Ratio (y) = -0.02140 0.28594
# Poissons Ratio (z) = 0.78458 0.43952
#
# Static dielectric constant tensor:
#      x y z
#    x 1.695360 0.000000 0.019970 
#    y 0.000000 1.803740 0.000000 
#    z 0.019970 0.000000 1.745510 
# 
# From -- ./inp_files/67619.got.cif
#   From: 2010.05.17/outbox.cif.g08.bks.cpg/sg13_34_cif.got.tgz:67619.got - 2010.06.03 16:44:36.
