data_PCOD9233368
_publ_section_title
;
Structure prediction by ZEFSAII (Michael W. Deem and Ramdas Pophale) SiO2 
 PCOD9233368
Probable space group: P 2/C
;
_chemical_formula_sum "Si O2"
_cell_formula_units_Z 28
_cell_length_a 8.165567
_cell_length_b 26.881574
_cell_length_c 5.445760
_cell_angle_alpha 90.000000
_cell_angle_beta 82.865945
_cell_angle_gamma 90.000000
_cell_volume 1186.108117
_symmetry_space_group_name_H-M "P 2/C"
_symmetry_group_IT_number 13
_symmetry_cell_setting 'monoclinic'
loop_
_space_group_symop_operation_xyz
x,y,z
-x,y,1/2-z
-x,-y,-z
x,-y,1/2+z
loop_
_atom_site_type_symbol
_atom_site_label
_atom_site_fract_x
_atom_site_fract_y
_atom_site_fract_z
Si Si1 0.816989 0.135904 0.578190
Si Si2 0.000000 0.316909 0.750000
Si Si3 0.195685 0.827952 0.915744
Si Si4 0.211428 0.631658 0.569583
Si Si5 0.810874 0.482252 0.478148
Si Si6 0.711732 0.720792 0.580878
Si Si7 0.303624 0.030365 0.778339
Si Si8 0.500000 0.320899 0.750000
O O1 0.740045 0.138243 0.319473
O O2 0.807333 0.079225 0.667366
O O3 0.001599 0.158418 0.497507
O O4 0.734404 0.165131 0.822097
O O5 0.153486 0.282534 0.663208
O O6 0.956171 0.351441 0.529888
O O7 0.238846 0.772730 0.811311
O O8 0.200556 0.573723 0.622058
O O9 0.259509 0.671158 0.767575
O O10 0.349940 0.642734 0.338403
O O11 0.737404 0.485469 0.767577
O O12 0.000000 0.500000 0.500000
O O13 0.539714 0.714248 0.473705
O O14 0.500000 0.043750 0.750000
O O15 0.272919 0.004759 0.520647
#
# Coordination Sequence:
#
# PCOD9233368 Si02
#       8
#     4   2   4   4   4   4   4   2
#     4  10  21  41  63 100 138 174 218 293 343 409
#     4  10  22  34  68 100 128 168 230 282 340 392
#     4  10  23  39  64  91 140 171 221 278 357 409
#     4  11  24  42  69 100 137 176 232 284 340 418
#     4  10  23  40  66 100 137 168 215 282 350 415
#     4  11  24  42  69  96 134 188 231 286 342 423
#     4  10  21  40  67  94 132 185 238 277 331 409
#     4  10  26  46  66  94 138 178 244 278 338 410
#
# _framework density 23.606615000000001
#
# number of rings (size 3 to 8) (size 9 to 14) (size 15 to 20)
#    0.000    1.714    0.000    3.429   16.000    0.000 
#    1.286    9.286    0.000    0.000    0.000    0.000 
#    0.000    0.000    0.000    0.000    0.000    0.000 
#
# Total GULP energy -156142.542244 kJ/mol
# GULP energy per Si atom -5576.519366 kJ/mol
# Density = 2.355289 g / cm^3
# Si number density = 23.606615 Si / 1000 Ang^3
#
#
#
# Elastic Constant Matrix: (Units=GPa)
#
#
# Indices 1 2 3 4 5 6 
#
# 1 52.2973 29.9781 6.2180 0.0000 -1.0593 0.0000
# 2 29.9781 139.1252 32.7527 0.0000 0.3040 0.0000
# 3 6.2180 32.7527 166.4796 0.0000 12.6616 0.0000
# 4 0.0000 0.0000 0.0000 40.6189 0.0000 2.8782
# 5 -1.0593 0.3040 12.6616 0.0000 27.3466 0.0000
# 6 0.0000 0.0000 0.0000 2.8782 0.0000 1.5807
#
#
#
# Elastic Compliance Matrix: (Units=1/GPa)
#
#
# Indices 1 2 3 4 5 6 
#
# 1 0.021838 -0.004718 0.000046 0.000000 0.000877 0.000000
# 2 -0.004718 0.008567 -0.001542 0.000000 0.000436 0.000000
# 3 0.000046 -0.001542 0.006537 0.000000 -0.003008 0.000000
# 4 0.000000 0.000000 0.000000 0.028266 0.000000 -0.051468
# 5 0.000877 0.000436 -0.003008 0.000000 0.037989 0.000000
# 6 0.000000 0.000000 0.000000 -0.051468 0.000000 0.726335
#
#
# Mechanical properties :
#
#
# Convention : Reuss Voigt Hill
#
# Bulk Modulus (GPa) = 40.79519 55.08888 47.94204
# Shear Modulus (GPa) = 5.88143 33.17279 19.52711
#
# Velocity S-wave (km/s) = 1.58014 3.75271 2.87921
# Velocity P-wave (km/s) = 4.54400 6.49338 5.60410
#
# Compressibility (1/GPa) = 0.02451270
#
# Stress axis : x y z
#
# Youngs Moduli (GPa) = 45.79082 116.73239 152.97034
#
# Poissons Ratio (x) = 0.55079 -0.00702
# Poissons Ratio (y) = 0.21606 0.23593
# Poissons Ratio (z) = -0.00210 0.18004
#
# Static dielectric constant tensor:
#      x y z
#    x 2.138930 0.000000 -0.053600 
#    y 0.000000 1.929230 0.000000 
#    z -0.053600 0.000000 2.104290 
# 
# From -- ./inp_files/2584.got.cif
#   From: 2010.05.17/outbox.cif.g08.bks.cpg/sg13_2_cif.got.tgz:2584.got - 2010.06.03 16:44:36.
