data_PCOD9233839
_publ_section_title
;
Structure prediction by ZEFSAII (Michael W. Deem and Ramdas Pophale) SiO2 
 PCOD9233839
Probable space group: P 2/C
;
_chemical_formula_sum "Si O2"
_cell_formula_units_Z 20
_cell_length_a 12.065792
_cell_length_b 9.469421
_cell_length_c 15.196605
_cell_angle_alpha 90.000000
_cell_angle_beta 143.871435
_cell_angle_gamma 90.000000
_cell_volume 1023.723456
_symmetry_space_group_name_H-M "P 2/C"
_symmetry_group_IT_number 13
_symmetry_cell_setting 'monoclinic'
loop_
_space_group_symop_operation_xyz
x,y,z
-x,y,1/2-z
-x,-y,-z
x,-y,1/2+z
loop_
_atom_site_type_symbol
_atom_site_label
_atom_site_fract_x
_atom_site_fract_y
_atom_site_fract_z
Si Si1 0.000000 0.762398 0.750000
Si Si2 0.656638 0.331429 0.407398
Si Si3 0.876862 0.102006 0.985131
Si Si4 0.500000 0.071782 0.250000
Si Si5 0.278500 0.506222 0.882151
Si Si6 0.046888 0.641609 0.081188
O O1 0.950192 0.856646 0.630967
O O2 0.829224 0.656067 0.671691
O O3 0.500000 0.413787 0.250000
O O4 0.729252 0.425644 0.531221
O O5 0.844698 0.291693 0.476074
O O6 0.541742 0.187484 0.354341
O O7 0.679354 0.024423 0.862610
O O8 0.853307 0.248727 0.918200
O O9 0.000000 0.000000 0.000000
O O10 0.167825 0.410653 0.740876
O O11 0.500000 0.500000 0.000000
O O12 0.000000 0.500000 0.000000
#
# Coordination Sequence:
#
# PCOD9233839 Si02
#       6
#     2   4   4   2   4   4
#     4  12  28  46  70 112 144 186 254 300 360 448
#     4  10  21  43  67  98 142 185 244 287 354 435
#     4  12  26  49  72 102 148 189 239 302 364 433
#     4  10  26  44  68 100 142 192 238 288 358 440
#     4  12  25  42  71 108 145 186 241 306 368 424
#     4  12  22  44  72 100 144 188 235 306 366 421
#
# _framework density 19.536528000000001
#
# number of rings (size 3 to 8) (size 9 to 14) (size 15 to 20)
#    0.600    0.000    6.000    1.200    5.600    1.600 
#    1.800    2.000    0.000    0.000    0.000    0.000 
#    0.000    0.000    0.000    0.000    0.000    0.000 
#
# Total GULP energy -111371.043495 kJ/mol
# GULP energy per Si atom -5568.552175 kJ/mol
# Density = 1.949206 g / cm^3
# Si number density = 19.536528 Si / 1000 Ang^3
#
#
#
# Elastic Constant Matrix: (Units=GPa)
#
#
# Indices 1 2 3 4 5 6 
#
# 1 72.1812 37.2400 58.4531 0.0000 2.6921 0.0000
# 2 37.2400 123.5175 62.6818 0.0000 -7.3259 0.0000
# 3 58.4531 62.6818 168.7509 0.0000 -5.2958 0.0000
# 4 0.0000 0.0000 0.0000 48.8809 0.0000 5.7574
# 5 2.6921 -7.3259 -5.2958 0.0000 43.7985 0.0000
# 6 0.0000 0.0000 0.0000 5.7574 0.0000 31.2163
#
#
#
# Elastic Compliance Matrix: (Units=1/GPa)
#
#
# Indices 1 2 3 4 5 6 
#
# 1 0.020464 -0.003305 -0.005940 0.000000 -0.002529 0.000000
# 2 -0.003305 0.010576 -0.002732 0.000000 0.001642 0.000000
# 3 -0.005940 -0.002732 0.009030 0.000000 0.001000 0.000000
# 4 0.000000 0.000000 0.000000 0.020912 0.000000 -0.003857
# 5 -0.002529 0.001642 0.001000 0.000000 0.023383 0.000000
# 6 0.000000 0.000000 0.000000 -0.003857 0.000000 0.032746
#
#
# Mechanical properties :
#
#
# Convention : Reuss Voigt Hill
#
# Bulk Modulus (GPa) = 62.05400 75.68883 68.87142
# Shear Modulus (GPa) = 34.14421 38.51745 36.33083
#
# Velocity S-wave (km/s) = 4.18510 4.44504 4.31703
# Velocity P-wave (km/s) = 7.42869 8.07285 7.75746
#
# Compressibility (1/GPa) = 0.01611500
#
# Stress axis : x y z
#
# Youngs Moduli (GPa) = 48.86632 94.54985 110.74611
#
# Poissons Ratio (x) = 0.31252 0.65784
# Poissons Ratio (y) = 0.16152 0.30257
# Poissons Ratio (z) = 0.29027 0.25832
#
# Static dielectric constant tensor:
#      x y z
#    x 1.776470 0.000000 -0.025900 
#    y 0.000000 1.694300 0.000000 
#    z -0.025900 0.000000 1.628390 
# 
# From -- ./inp_files/67854.got.cif
#   From: 2010.05.17/outbox.cif.g08.bks.cpg/sg13_34_cif.got.tgz:67854.got - 2010.06.03 16:44:36.
