data_PCOD9233027
_publ_section_title
;
Structure prediction by ZEFSAII (Michael W. Deem and Ramdas Pophale) SiO2 
 PCOD9233027
Probable space group: P 2/C
;
_chemical_formula_sum "Si O2"
_cell_formula_units_Z 30
_cell_length_a 14.808285
_cell_length_b 5.309815
_cell_length_c 26.042189
_cell_angle_alpha 90.000000
_cell_angle_beta 136.707089
_cell_angle_gamma 90.000000
_cell_volume 1404.150684
_symmetry_space_group_name_H-M "P 2/C"
_symmetry_group_IT_number 13
_symmetry_cell_setting 'monoclinic'
loop_
_space_group_symop_operation_xyz
x,y,z
-x,y,1/2-z
-x,-y,-z
x,-y,1/2+z
loop_
_atom_site_type_symbol
_atom_site_label
_atom_site_fract_x
_atom_site_fract_y
_atom_site_fract_z
Si Si1 0.399334 0.469532 0.857420
Si Si2 0.898581 0.290427 0.477868
Si Si3 0.349674 0.695785 0.560219
Si Si4 0.225501 0.031866 0.277558
Si Si5 0.580423 0.127711 0.988334
Si Si6 0.000000 0.256670 0.250000
Si Si7 0.956503 0.065846 0.394765
Si Si8 0.841771 0.621745 0.590083
O O1 0.520697 0.537456 0.870053
O O2 0.316684 0.724694 0.826222
O O3 0.493286 0.377454 0.942430
O O4 0.303631 0.231036 0.811390
O O5 0.747958 0.317616 0.432037
O O6 0.897170 0.123436 0.425999
O O7 0.000000 0.500000 0.500000
O O8 0.962838 0.181953 0.556772
O O9 0.254586 0.580981 0.475967
O O10 0.403844 0.956207 0.557120
O O11 0.157360 0.045846 0.193716
O O12 0.106108 0.074096 0.267419
O O13 0.731047 0.183073 0.064493
O O14 0.500000 0.000000 0.000000
O O15 0.934172 0.424799 0.177517
O O16 0.065428 0.255524 0.415586
#
# Coordination Sequence:
#
# PCOD9233027 Si02
#       8
#     4   4   4   4   4   2   4   4
#     4  11  25  44  68  95 141 184 228 278 343 413
#     4  11  22  42  72 103 130 175 234 297 352 410
#     4  11  23  41  72  98 137 181 235 287 344 413
#     4  11  25  46  69 101 142 187 226 287 346 419
#     4  11  23  40  68  97 136 185 231 281 336 417
#     4  10  24  42  64 100 142 180 234 282 352 408
#     4  10  23  40  69 101 135 176 226 296 354 413
#     4  10  21  39  62  99 132 176 227 284 345 416
#
# _framework density 21.365227999999998
#
# number of rings (size 3 to 8) (size 9 to 14) (size 15 to 20)
#    0.000    1.333    4.000    0.800    3.733    1.600 
#    0.000    0.667    2.933    0.000    0.000    0.000 
#    0.000    0.000    0.000    0.000    0.000    0.000 
#
# Total GULP energy -167001.937513 kJ/mol
# GULP energy per Si atom -5566.731250 kJ/mol
# Density = 2.131660 g / cm^3
# Si number density = 21.365228 Si / 1000 Ang^3
#
#
#
# Elastic Constant Matrix: (Units=GPa)
#
#
# Indices 1 2 3 4 5 6 
#
# 1 157.9725 47.2650 50.2756 0.0000 31.0654 0.0000
# 2 47.2650 87.5557 38.4661 0.0000 17.4593 0.0000
# 3 50.2756 38.4661 107.9363 0.0000 12.9106 0.0000
# 4 0.0000 0.0000 0.0000 27.7229 0.0000 10.7634
# 5 31.0654 17.4593 12.9106 0.0000 39.6214 0.0000
# 6 0.0000 0.0000 0.0000 10.7634 0.0000 22.3731
#
#
#
# Elastic Compliance Matrix: (Units=1/GPa)
#
#
# Indices 1 2 3 4 5 6 
#
# 1 0.008945 -0.002688 -0.002613 0.000000 -0.004977 0.000000
# 2 -0.002688 0.015195 -0.003761 0.000000 -0.003363 0.000000
# 3 -0.002613 -0.003761 0.011840 0.000000 -0.000152 0.000000
# 4 0.000000 0.000000 0.000000 0.044356 0.000000 -0.021339
# 5 -0.004977 -0.003363 -0.000152 0.000000 0.030673 0.000000
# 6 0.000000 0.000000 0.000000 -0.021339 0.000000 0.054962
#
#
# Mechanical properties :
#
#
# Convention : Reuss Voigt Hill
#
# Bulk Modulus (GPa) = 56.00297 69.49756 62.75026
# Shear Modulus (GPa) = 26.30909 32.44066 29.37488
#
# Velocity S-wave (km/s) = 3.51293 3.90087 3.71198
# Velocity P-wave (km/s) = 6.53631 7.27242 6.91417
#
# Compressibility (1/GPa) = 0.01785620
#
# Stress axis : x y z
#
# Youngs Moduli (GPa) = 111.79507 65.80984 84.45674
#
# Poissons Ratio (x) = 0.17691 0.22069
# Poissons Ratio (y) = 0.30053 0.31763
# Poissons Ratio (z) = 0.29213 0.24751
#
# Static dielectric constant tensor:
#      x y z
#    x 3.607220 0.000000 1.042060 
#    y 0.000000 1.990260 0.000000 
#    z 1.042060 0.000000 2.371250 
# 
# From -- ./inp_files/92674.got.cif
#   From: 2010.05.17/outbox.cif.g08.bks.cpg/sg13_47_cif.got.tgz:92674.got - 2010.06.03 16:44:36.
