data_PCOD9233554
_publ_section_title
;
Structure prediction by ZEFSAII (Michael W. Deem and Ramdas Pophale) SiO2 
 PCOD9233554
Probable space group: P 2/C
;
_chemical_formula_sum "Si O2"
_cell_formula_units_Z 28
_cell_length_a 14.631406
_cell_length_b 18.115122
_cell_length_c 8.515207
_cell_angle_alpha 90.000000
_cell_angle_beta 146.155836
_cell_angle_gamma 90.000000
_cell_volume 1256.978385
_symmetry_space_group_name_H-M "P 2/C"
_symmetry_group_IT_number 13
_symmetry_cell_setting 'monoclinic'
loop_
_space_group_symop_operation_xyz
x,y,z
-x,y,1/2-z
-x,-y,-z
x,-y,1/2+z
loop_
_atom_site_type_symbol
_atom_site_label
_atom_site_fract_x
_atom_site_fract_y
_atom_site_fract_z
Si Si1 0.165627 0.309791 0.073319
Si Si2 0.170000 0.525614 0.668254
Si Si3 0.486767 0.281431 0.041645
Si Si4 0.622152 0.035592 0.542793
Si Si5 0.168477 0.767701 0.899542
Si Si6 0.622717 0.438368 0.736913
Si Si7 0.160185 0.068391 0.382265
O O1 0.167274 0.399397 0.060476
O O2 0.325652 0.266313 0.240302
O O3 0.170456 0.291976 0.264441
O O4 0.000000 0.284435 0.750000
O O5 0.219495 0.452965 0.644364
O O6 0.000000 0.500000 0.500000
O O7 0.310504 0.545217 0.995798
O O8 0.500000 0.283020 0.250000
O O9 0.333737 0.238006 0.742517
O O10 0.453848 0.361068 0.916138
O O11 0.741249 0.982709 0.603826
O O12 0.500000 0.000000 0.500000
O O13 0.500000 0.075432 0.250000
O O14 0.732114 0.083788 0.809652
O O15 0.142119 0.849898 0.787428
O O16 0.000000 0.754209 0.750000
O O17 0.500000 0.500000 0.500000
O O18 0.000000 0.037245 0.250000
#
# Coordination Sequence:
#
# PCOD9233554 Si02
#       7
#     4   4   4   4   4   4   4
#     4  12  26  46  66  94 132 174 231 282 345 415
#     4  12  26  41  62  95 122 168 215 285 351 411
#     4  12  26  44  68  95 129 179 224 287 344 411
#     4   9  19  36  64 101 138 175 222 272 320 389
#     4  11  26  46  70  98 138 182 229 280 344 411
#     4  12  24  41  63  92 127 159 223 278 349 414
#     4  10  21  41  67 102 138 180 222 274 335 398
#
# _framework density 22.275642000000001
#
# number of rings (size 3 to 8) (size 9 to 14) (size 15 to 20)
#    0.000    0.857    2.857    4.286    4.000    4.000 
#    0.000    7.857    0.000    0.000    0.000    0.000 
#    0.000    0.000    0.000    0.000    0.000    0.000 
#
# Total GULP energy -155909.705748 kJ/mol
# GULP energy per Si atom -5568.203777 kJ/mol
# Density = 2.222494 g / cm^3
# Si number density = 22.275642 Si / 1000 Ang^3
#
#
#
# Elastic Constant Matrix: (Units=GPa)
#
#
# Indices 1 2 3 4 5 6 
#
# 1 103.2333 10.0882 45.0116 0.0000 21.1619 0.0000
# 2 10.0882 51.1295 8.2624 0.0000 2.4443 0.0000
# 3 45.0116 8.2624 157.3580 0.0000 -1.0901 0.0000
# 4 0.0000 0.0000 0.0000 10.5307 0.0000 -5.2086
# 5 21.1619 2.4443 -1.0901 0.0000 48.8786 0.0000
# 6 0.0000 0.0000 0.0000 -5.2086 0.0000 16.3762
#
#
#
# Elastic Compliance Matrix: (Units=1/GPa)
#
#
# Indices 1 2 3 4 5 6 
#
# 1 0.012492 -0.001637 -0.003525 0.000000 -0.005405 0.000000
# 2 -0.001637 0.019990 -0.000584 0.000000 -0.000304 0.000000
# 3 -0.003525 -0.000584 0.007406 0.000000 0.001720 0.000000
# 4 0.000000 0.000000 0.000000 0.112689 0.000000 0.035842
# 5 -0.005405 -0.000304 0.001720 0.000000 0.022853 0.000000
# 6 0.000000 0.000000 0.000000 0.035842 0.000000 0.072464
#
#
# Mechanical properties :
#
#
# Convention : Reuss Voigt Hill
#
# Bulk Modulus (GPa) = 35.21454 48.71615 41.96534
# Shear Modulus (GPa) = 18.59788 31.71433 25.15611
#
# Velocity S-wave (km/s) = 2.89259 3.77732 3.36417
# Velocity P-wave (km/s) = 5.19606 6.39854 5.82839
#
# Compressibility (1/GPa) = 0.02839736
#
# Stress axis : x y z
#
# Youngs Moduli (GPa) = 80.05431 50.02518 135.03104
#
# Poissons Ratio (x) = 0.08188 0.47594
# Poissons Ratio (y) = 0.13102 0.07880
# Poissons Ratio (z) = 0.28216 0.02919
#
# Static dielectric constant tensor:
#      x y z
#    x 2.023900 0.000000 0.128520 
#    y 0.000000 1.805860 0.000000 
#    z 0.128520 0.000000 1.462510 
# 
# From -- ./inp_files/20211.got.cif
#   From: 2010.05.17/outbox.cif.g08.bks.cpg/sg13_11_cif.got.tgz:20211.got - 2010.06.03 16:44:36.
