data_PCOD9233300
_publ_section_title
;
Structure prediction by ZEFSAII (Michael W. Deem and Ramdas Pophale) SiO2 
 PCOD9233300
Probable space group: P 2/C
;
_chemical_formula_sum "Si O2"
_cell_formula_units_Z 20
_cell_length_a 19.212745
_cell_length_b 9.380771
_cell_length_c 8.833425
_cell_angle_alpha 90.000000
_cell_angle_beta 145.715633
_cell_angle_gamma 90.000000
_cell_volume 896.803543
_symmetry_space_group_name_H-M "P 2/C"
_symmetry_group_IT_number 13
_symmetry_cell_setting 'monoclinic'
loop_
_space_group_symop_operation_xyz
x,y,z
-x,y,1/2-z
-x,-y,-z
x,-y,1/2+z
loop_
_atom_site_type_symbol
_atom_site_label
_atom_site_fract_x
_atom_site_fract_y
_atom_site_fract_z
Si Si1 0.504652 0.339535 0.073448
Si Si2 0.736371 0.822402 0.850942
Si Si3 0.145188 0.334965 0.478841
Si Si4 0.127061 0.592768 0.266168
Si Si5 0.712157 0.867227 0.448307
O O1 0.500000 0.338316 0.250000
O O2 0.627641 0.275807 0.218977
O O3 0.500000 0.500000 0.000000
O O4 0.397792 0.230612 0.819097
O O5 0.720946 0.849443 0.644221
O O6 0.714731 0.969328 0.902109
O O7 0.864251 0.734617 0.115155
O O8 0.196018 0.469221 0.479220
O O9 0.193197 0.355282 0.733451
O O10 0.170050 0.198546 0.425090
O O11 0.000000 0.340009 0.250000
O O12 0.000000 0.500000 0.000000
#
# Coordination Sequence:
#
# PCOD9233300 Si02
#       5
#     4   4   4   4   4
#     4  12  25  44  71 104 140 184 232 284 347 424
#     4  12  25  44  68 101 140 184 230 289 355 423
#     4  10  21  40  64  94 129 174 227 281 338 404
#     4  10  21  40  65  94 129 174 227 281 337 403
#     4  12  25  44  68 101 142 184 230 289 355 424
#
# _framework density 22.301428000000001
#
# number of rings (size 3 to 8) (size 9 to 14) (size 15 to 20)
#    0.000    0.800    0.000    8.400    0.000    1.600 
#    0.000   12.000    0.000    0.000    0.000    0.000 
#    0.000    0.000    0.000    0.000    0.000    0.000 
#
# Total GULP energy -111461.518169 kJ/mol
# GULP energy per Si atom -5573.075908 kJ/mol
# Density = 2.225067 g / cm^3
# Si number density = 22.301428 Si / 1000 Ang^3
#
#
#
# Elastic Constant Matrix: (Units=GPa)
#
#
# Indices 1 2 3 4 5 6 
#
# 1 131.0240 70.1073 59.4584 0.0000 -26.0730 0.0000
# 2 70.1073 222.4341 73.3638 0.0000 -17.6158 0.0000
# 3 59.4584 73.3638 116.8442 0.0000 -37.0082 0.0000
# 4 0.0000 0.0000 0.0000 55.9983 0.0000 64.5812
# 5 -26.0730 -17.6158 -37.0082 0.0000 47.8296 0.0000
# 6 0.0000 0.0000 0.0000 64.5812 0.0000 314.2911
#
#
#
# Elastic Compliance Matrix: (Units=1/GPa)
#
#
# Indices 1 2 3 4 5 6 
#
# 1 0.010780 -0.002082 -0.003391 0.000000 0.002486 0.000000
# 2 -0.002082 0.006100 -0.003204 0.000000 -0.001367 0.000000
# 3 -0.003391 -0.003204 0.015016 0.000000 0.008591 0.000000
# 4 0.000000 0.000000 0.000000 0.023404 0.000000 -0.004809
# 5 0.002486 -0.001367 0.008591 0.000000 0.028406 0.000000
# 6 0.000000 0.000000 0.000000 -0.004809 0.000000 0.004170
#
#
# Mechanical properties :
#
#
# Convention : Reuss Voigt Hill
#
# Bulk Modulus (GPa) = 68.76206 97.35124 83.05665
# Shear Modulus (GPa) = 45.42263 101.44866 73.43565
#
# Velocity S-wave (km/s) = 4.51794 6.75193 5.74458
# Velocity P-wave (km/s) = 7.62337 10.22409 9.01797
#
# Compressibility (1/GPa) = 0.01454290
#
# Stress axis : x y z
#
# Youngs Moduli (GPa) = 92.76648 163.92312 66.59472
#
# Poissons Ratio (x) = 0.34135 0.22580
# Poissons Ratio (y) = 0.19318 0.21335
# Poissons Ratio (z) = 0.31454 0.52516
#
# Static dielectric constant tensor:
#      x y z
#    x 1.839770 0.000000 -0.040910 
#    y 0.000000 1.770980 0.000000 
#    z -0.040910 0.000000 2.406940 
# 
# From -- ./inp_files/22873.got.cif
#   From: 2010.05.17/outbox.cif.g08.bks.cpg/sg13_12_cif.got.tgz:22873.got - 2010.06.03 16:44:36.
