data_PCOD9233818
_publ_section_title
;
Structure prediction by ZEFSAII (Michael W. Deem and Ramdas Pophale) SiO2 
 PCOD9233818
Probable space group: P 2/C
;
_chemical_formula_sum "Si O2"
_cell_formula_units_Z 26
_cell_length_a 9.773184
_cell_length_b 20.097081
_cell_length_c 9.014059
_cell_angle_alpha 90.000000
_cell_angle_beta 51.282885
_cell_angle_gamma 90.000000
_cell_volume 1381.400701
_symmetry_space_group_name_H-M "P 2/C"
_symmetry_group_IT_number 13
_symmetry_cell_setting 'monoclinic'
loop_
_space_group_symop_operation_xyz
x,y,z
-x,y,1/2-z
-x,-y,-z
x,-y,1/2+z
loop_
_atom_site_type_symbol
_atom_site_label
_atom_site_fract_x
_atom_site_fract_y
_atom_site_fract_z
Si Si1 0.705793 0.695035 0.666570
Si Si2 0.890158 0.962019 0.452867
Si Si3 0.665000 0.154843 0.246196
Si Si4 0.000000 0.365837 0.750000
Si Si5 0.599721 0.944677 0.030080
Si Si6 0.732675 0.556256 0.223210
Si Si7 0.668590 0.581864 0.923765
O O1 0.500000 0.688754 0.750000
O O2 0.739818 0.771276 0.690974
O O3 0.723474 0.647595 0.798098
O O4 0.849102 0.674150 0.444489
O O5 0.780890 0.904910 0.604501
O O6 0.000000 0.927682 0.250000
O O7 0.780462 0.019450 0.445979
O O8 0.000000 0.000000 0.500000
O O9 0.500000 0.157040 0.250000
O O10 0.611918 0.125706 0.441114
O O11 0.890285 0.409737 0.706071
O O12 0.500000 0.936780 0.250000
O O13 0.500000 0.000000 0.000000
O O14 0.542554 0.583551 0.407207
O O15 0.719655 0.479027 0.280036
O O16 0.744768 0.568104 0.037484
#
# Coordination Sequence:
#
# PCOD9233818 Si02
#       7
#     4   4   4   2   4   4   4
#     4  11  25  45  65  94 141 176 217 273 332 407
#     4  12  22  36  62  93 126 153 203 274 321 361
#     4  11  24  43  63  91 127 176 209 256 334 393
#     4  12  24  44  70 104 124 184 232 266 332 388
#     4  12  20  40  64  90 119 164 215 258 311 393
#     4  10  22  38  72  99 133 174 227 277 326 384
#     4  10  21  43  65  99 137 175 217 278 333 383
#
# _framework density 18.821476000000001
#
# number of rings (size 3 to 8) (size 9 to 14) (size 15 to 20)
#    0.000    0.923    6.154    0.923    3.231    3.077 
#    2.769    3.077    0.000    0.000    0.000    0.000 
#    0.000    0.000    0.000    0.000    0.000    0.000 
#
# Total GULP energy -145096.003309 kJ/mol
# GULP energy per Si atom -5580.615512 kJ/mol
# Density = 1.877864 g / cm^3
# Si number density = 18.821476 Si / 1000 Ang^3
#
#
#
# Elastic Constant Matrix: (Units=GPa)
#
#
# Indices 1 2 3 4 5 6 
#
# 1 121.5534 44.7778 28.6626 0.0000 12.0002 0.0000
# 2 44.7778 126.5693 46.0934 0.0000 11.7263 0.0000
# 3 28.6626 46.0934 111.6595 0.0000 19.9622 0.0000
# 4 0.0000 0.0000 0.0000 144.4458 0.0000 -18.4522
# 5 12.0002 11.7263 19.9622 0.0000 31.3324 0.0000
# 6 0.0000 0.0000 0.0000 -18.4522 0.0000 26.2097
#
#
#
# Elastic Compliance Matrix: (Units=1/GPa)
#
#
# Indices 1 2 3 4 5 6 
#
# 1 0.009720 -0.002912 -0.000928 0.000000 -0.002042 0.000000
# 2 -0.002912 0.010209 -0.003367 0.000000 -0.000561 0.000000
# 3 -0.000928 -0.003367 0.011618 0.000000 -0.005787 0.000000
# 4 0.000000 0.000000 0.000000 0.007607 0.000000 0.005356
# 5 -0.002042 -0.000561 -0.005787 0.000000 0.036594 0.000000
# 6 0.000000 0.000000 0.000000 0.005356 0.000000 0.041924
#
#
# Mechanical properties :
#
#
# Convention : Reuss Voigt Hill
#
# Bulk Modulus (GPa) = 58.36213 66.53886 62.45049
# Shear Modulus (GPa) = 36.28531 56.41415 46.34973
#
# Velocity S-wave (km/s) = 4.39551 5.48073 4.96784
# Velocity P-wave (km/s) = 7.53898 8.68795 8.13378
#
# Compressibility (1/GPa) = 0.01713440
#
# Stress axis : x y z
#
# Youngs Moduli (GPa) = 102.88273 97.95441 86.07090
#
# Poissons Ratio (x) = 0.28520 0.07989
# Poissons Ratio (y) = 0.29954 0.28977
# Poissons Ratio (z) = 0.09549 0.32978
#
# Static dielectric constant tensor:
#      x y z
#    x 1.660100 0.000000 0.006590 
#    y 0.000000 1.689570 0.000000 
#    z 0.006590 0.000000 1.783950 
# 
# From -- ./inp_files/13638.got.cif
#   From: 2010.05.17/outbox.cif.g08.bks.cpg/sg13_7_cif.got.tgz:13638.got - 2010.06.03 16:44:36.
