data_PCOD9233961
_publ_section_title
;
Structure prediction by ZEFSAII (Michael W. Deem and Ramdas Pophale) SiO2 
 PCOD9233961
Probable space group: P 2/C
;
_chemical_formula_sum "Si O2"
_cell_formula_units_Z 26
_cell_length_a 12.806533
_cell_length_b 6.193548
_cell_length_c 28.360022
_cell_angle_alpha 90.000000
_cell_angle_beta 150.835641
_cell_angle_gamma 90.000000
_cell_volume 1096.197519
_symmetry_space_group_name_H-M "P 2/C"
_symmetry_group_IT_number 13
_symmetry_cell_setting 'monoclinic'
loop_
_space_group_symop_operation_xyz
x,y,z
-x,y,1/2-z
-x,-y,-z
x,-y,1/2+z
loop_
_atom_site_type_symbol
_atom_site_label
_atom_site_fract_x
_atom_site_fract_y
_atom_site_fract_z
Si Si1 0.906161 0.836275 0.425961
Si Si2 0.935045 0.115835 0.094862
Si Si3 0.322529 0.581664 0.772086
Si Si4 0.500000 0.372593 0.750000
Si Si5 0.245519 0.494237 0.341472
Si Si6 0.656354 0.764568 0.030265
Si Si7 0.223236 0.474024 0.012104
O O1 0.664949 0.776845 0.342691
O O2 0.038881 0.618109 0.471958
O O3 0.936397 0.947504 0.387027
O O4 0.000000 0.000000 0.500000
O O5 0.127097 0.250121 0.194932
O O6 0.804000 0.272771 0.007526
O O7 0.760894 0.995802 0.059294
O O8 0.360533 0.498787 0.733928
O O9 0.273433 0.430523 0.798131
O O10 0.565880 0.637819 0.882895
O O11 0.302681 0.683235 0.400825
O O12 0.000000 0.428886 0.250000
O O13 0.411236 0.298972 0.419567
O O14 0.786278 0.609920 0.045473
#
# Coordination Sequence:
#
# PCOD9233961 Si02
#       7
#     4   4   4   2   4   4   4
#     4  11  26  42  69 102 146 201 256 307 366 449
#     4  11  23  45  74 108 148 194 254 310 379 461
#     4  11  25  43  73 106 147 200 242 305 382 444
#     4  12  26  44  70 108 152 196 252 310 378 446
#     4  10  21  45  76 103 151 194 246 314 387 444
#     4   9  22  45  73 109 145 195 246 318 378 459
#     4  10  22  46  70 102 151 189 250 313 385 434
#
# _framework density 23.718351999999999
#
# number of rings (size 3 to 8) (size 9 to 14) (size 15 to 20)
#    0.000    1.538    1.538    1.846    6.462    1.231 
#    2.769   14.615    0.000    0.000    0.000    1.077 
#    0.000    0.000    0.000    0.000    0.000    0.000 
#
# Total GULP energy -145009.533792 kJ/mol
# GULP energy per Si atom -5577.289761 kJ/mol
# Density = 2.366437 g / cm^3
# Si number density = 23.718352 Si / 1000 Ang^3
#
#
#
# Elastic Constant Matrix: (Units=GPa)
#
#
# Indices 1 2 3 4 5 6 
#
# 1 130.3796 51.6682 58.0262 0.0000 -6.6518 0.0000
# 2 51.6682 93.1424 50.3767 0.0000 8.7996 0.0000
# 3 58.0262 50.3767 148.0780 0.0000 18.7977 0.0000
# 4 0.0000 0.0000 0.0000 17.4852 0.0000 13.0336
# 5 -6.6518 8.7996 18.7977 0.0000 53.9891 0.0000
# 6 0.0000 0.0000 0.0000 13.0336 0.0000 48.7018
#
#
#
# Elastic Compliance Matrix: (Units=1/GPa)
#
#
# Indices 1 2 3 4 5 6 
#
# 1 0.011130 -0.004778 -0.003148 0.000000 0.003246 0.000000
# 2 -0.004778 0.015228 -0.003053 0.000000 -0.002008 0.000000
# 3 -0.003148 -0.003053 0.009428 0.000000 -0.003173 0.000000
# 4 0.000000 0.000000 0.000000 0.071443 0.000000 -0.019120
# 5 0.003246 -0.002008 -0.003173 0.000000 0.020354 0.000000
# 6 0.000000 0.000000 0.000000 -0.019120 0.000000 0.025650
#
#
# Mechanical properties :
#
#
# Convention : Reuss Voigt Hill
#
# Bulk Modulus (GPa) = 72.32083 76.86025 74.59054
# Shear Modulus (GPa) = 27.80844 38.13714 32.97279
#
# Velocity S-wave (km/s) = 3.42781 4.01423 3.73256
# Velocity P-wave (km/s) = 6.79884 7.34583 7.07762
#
# Compressibility (1/GPa) = 0.01382727
#
# Stress axis : x y z
#
# Youngs Moduli (GPa) = 89.84641 65.66893 106.06341
#
# Poissons Ratio (x) = 0.31378 0.33389
# Poissons Ratio (y) = 0.42930 0.32385
# Poissons Ratio (z) = 0.28284 0.20051
#
# Static dielectric constant tensor:
#      x y z
#    x 1.930920 0.000000 -0.016950 
#    y 0.000000 1.937490 0.000000 
#    z -0.016950 0.000000 1.975880 
# 
# From -- ./inp_files/96901.got.cif
#   From: 2010.05.17/outbox.cif.g08.bks.cpg/sg13_49_cif.got.tgz:96901.got - 2010.06.03 16:44:36.
