data_PCOD9233690
_publ_section_title
;
Structure prediction by ZEFSAII (Michael W. Deem and Ramdas Pophale) SiO2 
 PCOD9233690
Probable space group: P 2/C
;
_chemical_formula_sum "Si O2"
_cell_formula_units_Z 28
_cell_length_a 9.779280
_cell_length_b 5.450261
_cell_length_c 24.393054
_cell_angle_alpha 90.000000
_cell_angle_beta 113.114349
_cell_angle_gamma 90.000000
_cell_volume 1195.769594
_symmetry_space_group_name_H-M "P 2/C"
_symmetry_group_IT_number 13
_symmetry_cell_setting 'monoclinic'
loop_
_space_group_symop_operation_xyz
x,y,z
-x,y,1/2-z
-x,-y,-z
x,-y,1/2+z
loop_
_atom_site_type_symbol
_atom_site_label
_atom_site_fract_x
_atom_site_fract_y
_atom_site_fract_z
Si Si1 0.000000 0.166095 0.750000
Si Si2 0.085566 0.182445 0.974169
Si Si3 0.291758 0.561091 0.295424
Si Si4 0.565424 0.440241 0.402464
Si Si5 0.805180 0.143690 0.304590
Si Si6 0.380799 0.944404 0.026293
Si Si7 0.142463 0.459359 0.092200
Si Si8 0.500000 0.883922 0.250000
O O1 0.916663 0.019256 0.785519
O O2 0.858783 0.318468 0.705311
O O3 0.971237 0.320314 0.916766
O O4 0.222167 0.020826 0.975427
O O5 0.137535 0.389105 0.026844
O O6 0.000000 0.000000 0.000000
O O7 0.394426 0.444645 0.357949
O O8 0.236094 0.369769 0.241455
O O9 0.409092 0.738891 0.282745
O O10 0.596721 0.157878 0.424563
O O11 0.682997 0.511515 0.372918
O O12 0.595325 0.666723 0.449296
O O13 0.888430 0.239180 0.371682
O O14 0.642861 0.034708 0.295260
O O15 0.500000 0.000000 0.000000
#
# Coordination Sequence:
#
# PCOD9233690 Si02
#       8
#     2   4   4   4   4   4   4   2
#     4  10  26  46  64  94 150 182 234 294 354 440
#     4  10  21  42  66  96 139 172 238 287 347 413
#     4  11  24  44  65 102 137 180 233 293 350 433
#     4  11  24  43  77 101 141 185 239 294 357 422
#     4  11  23  44  67  97 142 179 239 289 362 427
#     4  11  25  47  69 105 144 185 237 293 359 428
#     4  10  22  40  70 101 129 187 231 297 344 417
#     4  10  22  36  72  98 132 178 230 290 348 436
#
# _framework density 23.415880999999999
#
# number of rings (size 3 to 8) (size 9 to 14) (size 15 to 20)
#    0.000    1.429    1.429    3.000    8.000    2.286 
#    7.714    0.000    0.000    0.000    0.000    0.000 
#    0.000    0.000    0.000    0.000    0.000    0.000 
#
# Total GULP energy -156174.421823 kJ/mol
# GULP energy per Si atom -5577.657922 kJ/mol
# Density = 2.336259 g / cm^3
# Si number density = 23.415881 Si / 1000 Ang^3
#
#
#
# Elastic Constant Matrix: (Units=GPa)
#
#
# Indices 1 2 3 4 5 6 
#
# 1 157.5004 10.9144 16.3239 0.0000 27.4569 0.0000
# 2 10.9144 57.5168 12.9274 0.0000 0.0269 0.0000
# 3 16.3239 12.9274 38.6790 0.0000 21.6543 0.0000
# 4 0.0000 0.0000 0.0000 31.5582 0.0000 12.2771
# 5 27.4569 0.0269 21.6543 0.0000 23.1462 0.0000
# 6 0.0000 0.0000 0.0000 12.2771 0.0000 32.9917
#
#
#
# Elastic Compliance Matrix: (Units=1/GPa)
#
#
# Indices 1 2 3 4 5 6 
#
# 1 0.008780 -0.003159 0.006675 0.000000 -0.016656 0.000000
# 2 -0.003159 0.021764 -0.016850 0.000000 0.019485 0.000000
# 3 0.006675 -0.016850 0.069483 0.000000 -0.072903 0.000000
# 4 0.000000 0.000000 0.000000 0.037051 0.000000 -0.013788
# 5 -0.016656 0.019485 -0.072903 0.000000 0.131144 0.000000
# 6 0.000000 0.000000 0.000000 -0.013788 0.000000 0.035441
#
#
# Mechanical properties :
#
#
# Convention : Reuss Voigt Hill
#
# Bulk Modulus (GPa) = 13.63128 37.11417 25.37273
# Shear Modulus (GPa) = 14.09315 31.77459 22.93387
#
# Velocity S-wave (km/s) = 2.45595 3.68770 3.13296
# Velocity P-wave (km/s) = 3.72509 5.83237 4.89351
#
# Compressibility (1/GPa) = 0.07336067
#
# Stress axis : x y z
#
# Youngs Moduli (GPa) = 113.89621 45.94831 14.39206
#
# Poissons Ratio (x) = 0.14513 -0.09607
# Poissons Ratio (y) = 0.35976 0.24250
# Poissons Ratio (z) = -0.76030 0.77421
#
# Static dielectric constant tensor:
#      x y z
#    x 1.898790 0.000000 0.043260 
#    y 0.000000 2.035850 0.000000 
#    z 0.043260 0.000000 2.065970 
# 
# From -- ./inp_files/90817.got.cif
#   From: 2010.05.17/outbox.cif.g08.bks.cpg/sg13_46_cif.got.tgz:90817.got - 2010.06.03 16:44:36.
