data_PCOD9233940
_publ_section_title
;
Structure prediction by ZEFSAII (Michael W. Deem and Ramdas Pophale) SiO2 
 PCOD9233940
Probable space group: P 2/C
;
_chemical_formula_sum "Si O2"
_cell_formula_units_Z 24
_cell_length_a 18.547905
_cell_length_b 8.226064
_cell_length_c 17.842917
_cell_angle_alpha 90.000000
_cell_angle_beta 157.773503
_cell_angle_gamma 90.000000
_cell_volume 1029.801373
_symmetry_space_group_name_H-M "P 2/C"
_symmetry_group_IT_number 13
_symmetry_cell_setting 'monoclinic'
loop_
_space_group_symop_operation_xyz
x,y,z
-x,y,1/2-z
-x,-y,-z
x,-y,1/2+z
loop_
_atom_site_type_symbol
_atom_site_label
_atom_site_fract_x
_atom_site_fract_y
_atom_site_fract_z
Si Si1 0.500000 0.446265 0.250000
Si Si2 0.139842 0.497137 0.315284
Si Si3 0.652023 0.789838 0.777600
Si Si4 0.500000 0.953463 0.250000
Si Si5 0.557704 0.813847 0.069352
Si Si6 0.244963 0.170544 0.387080
Si Si7 0.913164 0.173156 0.830922
O O1 0.646840 0.525553 0.447609
O O2 0.359141 0.342938 0.168027
O O3 0.102385 0.322556 0.240706
O O4 0.127477 0.664628 0.257362
O O5 0.000000 0.512881 0.250000
O O6 0.525753 0.731680 0.586124
O O7 0.564088 0.940768 0.739436
O O8 0.859448 0.830790 0.945267
O O9 0.683929 0.861789 0.459416
O O10 0.432734 0.775141 0.020607
O O11 0.785303 0.803251 0.282628
O O12 0.500000 0.000000 0.000000
O O13 0.159487 0.997289 0.275732
#
# Coordination Sequence:
#
# PCOD9233940 Si02
#       7
#     2   4   4   2   4   4   4
#     4  11  21  42  66  95 135 172 221 275 320 397
#     4  12  25  42  67 101 132 172 226 272 331 390
#     4  11  21  39  73  96 125 180 224 260 334 396
#     4  11  21  40  66  97 133 174 213 275 336 379
#     4  10  21  45  65  99 133 176 219 268 332 390
#     4  11  26  43  67 102 134 170 222 275 329 392
#     4  11  23  43  72  93 132 180 213 274 328 394
#
# _framework density 23.305465000000002
#
# number of rings (size 3 to 8) (size 9 to 14) (size 15 to 20)
#    0.000    1.000    6.667    1.500    2.333    3.333 
#    0.000    0.833    0.000    0.000    0.000    0.000 
#    0.000    0.000    0.000    0.000    0.000    0.000 
#
# Total GULP energy -133822.465845 kJ/mol
# GULP energy per Si atom -5575.936077 kJ/mol
# Density = 2.325242 g / cm^3
# Si number density = 23.305465 Si / 1000 Ang^3
#
#
#
# Elastic Constant Matrix: (Units=GPa)
#
#
# Indices 1 2 3 4 5 6 
#
# 1 88.2993 14.2609 15.6930 0.0000 20.4641 0.0000
# 2 14.2609 121.1460 9.4069 0.0000 -1.2194 0.0000
# 3 15.6930 9.4069 92.6589 0.0000 26.5824 0.0000
# 4 0.0000 0.0000 0.0000 154.9999 0.0000 28.6614
# 5 20.4641 -1.2194 26.5824 0.0000 47.6518 0.0000
# 6 0.0000 0.0000 0.0000 28.6614 0.0000 30.0853
#
#
#
# Elastic Compliance Matrix: (Units=1/GPa)
#
#
# Indices 1 2 3 4 5 6 
#
# 1 0.012889 -0.001531 -0.000510 0.000000 -0.005290 0.000000
# 2 -0.001531 0.008529 -0.001021 0.000000 0.001445 0.000000
# 3 -0.000510 -0.001021 0.013009 0.000000 -0.007064 0.000000
# 4 0.000000 0.000000 0.000000 0.007831 0.000000 -0.007461
# 5 -0.005290 0.001445 -0.007064 0.000000 0.027235 0.000000
# 6 0.000000 0.000000 0.000000 -0.007461 0.000000 0.040346
#
#
# Mechanical properties :
#
#
# Convention : Reuss Voigt Hill
#
# Bulk Modulus (GPa) = 35.33273 42.31400 38.82336
# Shear Modulus (GPa) = 39.87338 64.06363 51.96850
#
# Velocity S-wave (km/s) = 4.14079 5.24865 4.72729
# Velocity P-wave (km/s) = 6.16889 7.41126 6.81843
#
# Compressibility (1/GPa) = 0.02830237
#
# Stress axis : x y z
#
# Youngs Moduli (GPa) = 77.58568 117.25309 76.87057
#
# Poissons Ratio (x) = 0.17950 0.03920
# Poissons Ratio (y) = 0.11878 0.07850
# Poissons Ratio (z) = 0.03956 0.11974
#
# Static dielectric constant tensor:
#      x y z
#    x 1.813540 0.000000 0.071730 
#    y 0.000000 2.065380 0.000000 
#    z 0.071730 0.000000 1.761250 
# 
# From -- ./inp_files/81740.got.cif
#   From: 2010.05.17/outbox.cif.g08.bks.cpg/sg13_41_cif.got.tgz:81740.got - 2010.06.03 16:44:36.
