data_PCOD9233558
_publ_section_title
;
Structure prediction by ZEFSAII (Michael W. Deem and Ramdas Pophale) SiO2 
 PCOD9233558
Probable space group: P 2/C
;
_chemical_formula_sum "Si O2"
_cell_formula_units_Z 28
_cell_length_a 10.959315
_cell_length_b 15.032642
_cell_length_c 9.865153
_cell_angle_alpha 90.000000
_cell_angle_beta 118.916786
_cell_angle_gamma 90.000000
_cell_volume 1422.626327
_symmetry_space_group_name_H-M "P 2/C"
_symmetry_group_IT_number 13
_symmetry_cell_setting 'monoclinic'
loop_
_space_group_symop_operation_xyz
x,y,z
-x,y,1/2-z
-x,-y,-z
x,-y,1/2+z
loop_
_atom_site_type_symbol
_atom_site_label
_atom_site_fract_x
_atom_site_fract_y
_atom_site_fract_z
Si Si1 0.917912 0.545287 0.335901
Si Si2 0.931709 0.257511 0.933194
Si Si3 0.781171 0.958405 0.572279
Si Si4 0.000000 0.806173 0.750000
Si Si5 0.617994 0.241017 0.701949
Si Si6 0.000000 0.888872 0.250000
Si Si7 0.415732 0.438484 0.849366
Si Si8 0.627132 0.956807 0.214363
O O1 0.952250 0.649757 0.369709
O O2 0.748956 0.533858 0.248537
O O3 0.000000 0.510500 0.250000
O O4 0.000000 0.500000 0.500000
O O5 0.764833 0.252429 0.856438
O O6 0.977498 0.175419 0.865126
O O7 0.005499 0.251336 0.117237
O O8 0.873224 0.045380 0.651347
O O9 0.654587 0.972116 0.610788
O O10 0.748716 0.955411 0.394889
O O11 0.868557 0.871886 0.660946
O O12 0.500000 0.235137 0.750000
O O13 0.590746 0.333593 0.609215
O O14 0.618817 0.141628 0.641770
O O15 0.500000 0.441705 0.750000
O O16 0.500000 0.500000 0.000000
O O17 0.500000 0.973796 0.250000
#
# Coordination Sequence:
#
# PCOD9233558 Si02
#       8
#     4   4   4   2   4   2   4   4
#     4  11  24  41  65  98 129 159 205 267 327 372
#     4  11  21  39  59  86 121 157 199 247 308 364
#     4  11  21  36  57  84 118 155 206 246 294 359
#     4  11  22  36  57  88 118 160 207 242 290 367
#     4   9  19  37  60  80 114 158 200 235 297 360
#     4  11  20  36  59  82 116 158 197 250 304 353
#     4  10  21  41  67  90 122 168 210 249 310 388
#     4  11  21  36  56  82 115 157 198 248 299 352
#
# _framework density 19.681906999999999
#
# number of rings (size 3 to 8) (size 9 to 14) (size 15 to 20)
#    0.000    1.429    3.571    2.143    1.000    2.286 
#    0.000    0.000    0.000    6.000    0.000    0.000 
#    0.000    0.000    0.000    0.000    0.000    0.000 
#
# Total GULP energy -156060.310917 kJ/mol
# GULP energy per Si atom -5573.582533 kJ/mol
# Density = 1.963711 g / cm^3
# Si number density = 19.681907 Si / 1000 Ang^3
#
#
#
# Elastic Constant Matrix: (Units=GPa)
#
#
# Indices 1 2 3 4 5 6 
#
# 1 97.3536 23.3127 32.9880 0.0000 -3.3335 0.0000
# 2 23.3127 66.3921 37.4198 0.0000 4.3463 0.0000
# 3 32.9880 37.4198 108.7288 0.0000 -13.8192 0.0000
# 4 0.0000 0.0000 0.0000 -315.9296 0.0000 -108.9016
# 5 -3.3335 4.3463 -13.8192 0.0000 25.5042 0.0000
# 6 0.0000 0.0000 0.0000 -108.9016 0.0000 -18.2021
#
#
#
# Elastic Compliance Matrix: (Units=1/GPa)
#
#
# Indices 1 2 3 4 5 6 
#
# 1 0.011819 -0.002748 -0.002561 0.000000 0.000626 0.000000
# 2 -0.002748 0.020629 -0.007258 0.000000 -0.007807 0.000000
# 3 -0.002561 -0.007258 0.013518 0.000000 0.008227 0.000000
# 4 0.000000 0.000000 0.000000 0.002980 0.000000 -0.017826
# 5 0.000626 -0.007807 0.008227 0.000000 0.045079 0.000000
# 6 0.000000 0.000000 0.000000 -0.017826 0.000000 0.051716
#
#
# Mechanical properties :
#
#
# Convention : Reuss Voigt Hill
#
# Bulk Modulus (GPa) = 48.00273 51.10171 49.55222
# Shear Modulus (GPa) = 28.11885 -49.80856 -10.84486
#
# Velocity S-wave (km/s) = 3.78387 -5.03604 -2.34990
# Velocity P-wave (km/s) = 6.59791 2.79203 4.22711
#
# Compressibility (1/GPa) = 0.02083215
#
# Stress axis : x y z
#
# Youngs Moduli (GPa) = 84.61008 48.47581 73.97752
#
# Poissons Ratio (x) = 0.13320 0.18943
# Poissons Ratio (y) = 0.23249 0.53694
# Poissons Ratio (z) = 0.21666 0.35185
#
# Static dielectric constant tensor:
#      x y z
#    x 1.654430 0.000000 0.173840 
#    y 0.000000 1.735350 0.000000 
#    z 0.173840 0.000000 1.507700 
# 
# From -- ./inp_files/16577.got.cif
#   From: 2010.05.17/outbox.cif.g08.bks.cpg/sg13_9_cif.got.tgz:16577.got - 2010.06.03 16:44:36.
