data_PCOD9233528
_publ_section_title
;
Structure prediction by ZEFSAII (Michael W. Deem and Ramdas Pophale) SiO2 
 PCOD9233528
Probable space group: P 2/C
;
_chemical_formula_sum "Si O2"
_cell_formula_units_Z 28
_cell_length_a 15.461707
_cell_length_b 8.694430
_cell_length_c 22.441782
_cell_angle_alpha 90.000000
_cell_angle_beta 27.910353
_cell_angle_gamma 90.000000
_cell_volume 1412.162878
_symmetry_space_group_name_H-M "P 2/C"
_symmetry_group_IT_number 13
_symmetry_cell_setting 'monoclinic'
loop_
_space_group_symop_operation_xyz
x,y,z
-x,y,1/2-z
-x,-y,-z
x,-y,1/2+z
loop_
_atom_site_type_symbol
_atom_site_label
_atom_site_fract_x
_atom_site_fract_y
_atom_site_fract_z
Si Si1 0.307464 0.736389 0.903109
Si Si2 0.038202 0.179643 0.462011
Si Si3 0.403965 0.031888 0.919353
Si Si4 0.365916 0.296109 0.780218
Si Si5 0.329766 0.184850 0.176839
Si Si6 0.551466 0.477149 0.083532
Si Si7 0.788145 0.264523 0.381083
O O1 0.500000 0.729969 0.750000
O O2 0.147184 0.744314 0.951527
O O3 0.316555 0.599282 0.945947
O O4 0.313213 0.896734 0.936076
O O5 0.166667 0.187189 0.325350
O O6 0.842331 0.264618 0.573779
O O7 0.000000 0.000000 0.500000
O O8 0.540607 0.135765 0.796682
O O9 0.535098 0.955225 0.889101
O O10 0.255967 0.143155 0.039702
O O11 0.500000 0.355721 0.750000
O O12 0.394459 0.417557 0.710094
O O13 0.451619 0.337008 0.112481
O O14 0.260267 0.186620 0.152154
O O15 0.664522 0.587472 0.971284
O O16 0.000000 0.309943 0.250000
#
# Coordination Sequence:
#
# PCOD9233528 Si02
#       7
#     4   4   4   4   4   4   4
#     4  11  20  42  67  98 132 163 211 264 338 387
#     4  12  23  37  70 104 131 167 217 272 332 399
#     4  10  21  41  66  90 130 170 208 275 322 380
#     4  11  23  37  61  96 135 166 209 269 333 386
#     4  11  23  43  64  92 129 175 214 259 330 386
#     4  10  24  44  63  89 131 177 208 271 322 388
#     4  11  26  42  64  92 126 174 229 264 312 380
#
# _framework density 19.827739999999999
#
# number of rings (size 3 to 8) (size 9 to 14) (size 15 to 20)
#    0.000    1.143    4.286    2.571    6.000    1.714 
#    0.000    2.857    0.000    0.000    0.000    0.000 
#    0.000    0.000    0.000    0.000    0.000    0.000 
#
# Total GULP energy -156521.048584 kJ/mol
# GULP energy per Si atom -5590.037449 kJ/mol
# Density = 1.978261 g / cm^3
# Si number density = 19.827740 Si / 1000 Ang^3
#
#
#
# Elastic Constant Matrix: (Units=GPa)
#
#
# Indices 1 2 3 4 5 6 
#
# 1 58.8679 -13.0475 14.9754 0.0000 2.2631 0.0000
# 2 -13.0475 61.4376 18.1755 0.0000 6.4440 0.0000
# 3 14.9754 18.1755 104.6161 0.0000 -4.9471 0.0000
# 4 0.0000 0.0000 0.0000 -3.5606 0.0000 -3.7955
# 5 2.2631 6.4440 -4.9471 0.0000 28.9054 0.0000
# 6 0.0000 0.0000 0.0000 -3.7955 0.0000 14.6170
#
#
#
# Elastic Compliance Matrix: (Units=1/GPa)
#
#
# Indices 1 2 3 4 5 6 
#
# 1 0.019363 0.005630 -0.003913 0.000000 -0.003441 0.000000
# 2 0.005630 0.019362 -0.004431 0.000000 -0.005516 0.000000
# 3 -0.003913 -0.004431 0.011039 0.000000 0.003183 0.000000
# 4 0.000000 0.000000 0.000000 -0.219968 0.000000 -0.057118
# 5 -0.003441 -0.005516 0.003183 0.000000 0.036639 0.000000
# 6 0.000000 0.000000 0.000000 -0.057118 0.000000 0.053582
#
#
# Mechanical properties :
#
#
# Convention : Reuss Voigt Hill
#
# Bulk Modulus (GPa) = 22.55399 29.45868 26.00634
# Shear Modulus (GPa) = -83.64299 21.64691 -30.99804
#
# Velocity S-wave (km/s) = -6.50203 3.30775 -3.95823
# Velocity P-wave (km/s) = 6.70588 5.42935 2.78308
#
# Compressibility (1/GPa) = 0.04433805
#
# Stress axis : x y z
#
# Youngs Moduli (GPa) = 51.64559 51.64842 90.58697
#
# Poissons Ratio (x) = -0.29080 0.35443
# Poissons Ratio (y) = -0.29079 0.40135
# Poissons Ratio (z) = 0.20207 0.22883
#
# Static dielectric constant tensor:
#      x y z
#    x 1.731610 0.000000 0.015510 
#    y 0.000000 1.697810 0.000000 
#    z 0.015510 0.000000 1.653880 
# 
# From -- ./inp_files/49977.got.cif
#   From: 2010.05.17/outbox.cif.g08.bks.cpg/sg13_25_cif.got.tgz:49977.got - 2010.06.03 16:44:36.
