data_PCOD9233174
_publ_section_title
;
Structure prediction by ZEFSAII (Michael W. Deem and Ramdas Pophale) SiO2 
 PCOD9233174
Probable space group: P 2/C
;
_chemical_formula_sum "Si O2"
_cell_formula_units_Z 28
_cell_length_a 13.420673
_cell_length_b 8.858878
_cell_length_c 12.395458
_cell_angle_alpha 90.000000
_cell_angle_beta 66.787896
_cell_angle_gamma 90.000000
_cell_volume 1354.427378
_symmetry_space_group_name_H-M "P 2/C"
_symmetry_group_IT_number 13
_symmetry_cell_setting 'monoclinic'
loop_
_space_group_symop_operation_xyz
x,y,z
-x,y,1/2-z
-x,-y,-z
x,-y,1/2+z
loop_
_atom_site_type_symbol
_atom_site_label
_atom_site_fract_x
_atom_site_fract_y
_atom_site_fract_z
Si Si1 0.720708 0.323969 0.239190
Si Si2 0.502769 0.332723 0.047636
Si Si3 0.295042 0.843324 0.960576
Si Si4 0.417034 0.845729 0.382414
Si Si5 0.115600 0.390796 0.149631
Si Si6 0.781589 0.651263 0.117513
Si Si7 0.124048 0.746877 0.200124
O O1 0.594426 0.320285 0.325105
O O2 0.745321 0.194711 0.142260
O O3 0.790007 0.315557 0.319179
O O4 0.753833 0.483185 0.170873
O O5 0.618501 0.288369 0.046849
O O6 0.500000 0.500000 0.000000
O O7 0.478118 0.219882 0.959880
O O8 0.357661 0.999755 0.936125
O O9 0.200093 0.839010 0.087827
O O10 0.500000 0.872530 0.250000
O O11 0.327551 0.726487 0.380303
O O12 0.126073 0.572218 0.158371
O O13 0.000000 0.348624 0.250000
O O14 0.133328 0.354168 0.017022
O O15 0.828461 0.741267 0.199619
O O16 0.000000 0.797824 0.250000
#
# Coordination Sequence:
#
# PCOD9233174 Si02
#       7
#     4   4   4   4   4   4   4
#     4  11  22  39  66  96 130 165 220 274 327 386
#     4  12  23  41  67  98 130 166 219 272 327 388
#     4  12  25  42  62  98 133 174 220 263 330 396
#     4  12  25  43  65  94 137 178 211 265 330 399
#     4  10  21  39  69 101 127 171 220 281 330 378
#     4  11  22  43  65  98 131 167 222 271 332 388
#     4  10  23  41  68  97 131 172 218 278 331 382
#
# _framework density 20.672943
#
# number of rings (size 3 to 8) (size 9 to 14) (size 15 to 20)
#    0.000    0.857    2.857    6.000    2.000    2.857 
#    0.000    1.429    0.000    0.000    0.000    0.000 
#    0.000    0.000    0.000    0.000    0.000    0.000 
#
# Total GULP energy -156748.391945 kJ/mol
# GULP energy per Si atom -5598.156855 kJ/mol
# Density = 2.062589 g / cm^3
# Si number density = 20.672943 Si / 1000 Ang^3
#
#
#
# Elastic Constant Matrix: (Units=GPa)
#
#
# Indices 1 2 3 4 5 6 
#
# 1 49.3216 -7.2860 38.4352 0.0000 -14.5685 0.0000
# 2 -7.2860 51.2675 21.5247 0.0000 2.7381 0.0000
# 3 38.4352 21.5247 190.2889 0.0000 -16.6770 0.0000
# 4 0.0000 0.0000 0.0000 20.0149 0.0000 -8.3455
# 5 -14.5685 2.7381 -16.6770 0.0000 39.6128 0.0000
# 6 0.0000 0.0000 0.0000 -8.3455 0.0000 16.7563
#
#
#
# Elastic Compliance Matrix: (Units=1/GPa)
#
#
# Indices 1 2 3 4 5 6 
#
# 1 0.027714 0.005900 -0.005615 0.000000 0.007421 0.000000
# 2 0.005900 0.021972 -0.003759 0.000000 -0.000931 0.000000
# 3 -0.005615 -0.003759 0.006911 0.000000 0.001104 0.000000
# 4 0.000000 0.000000 0.000000 0.063058 0.000000 0.031406
# 5 0.007421 -0.000931 0.001104 0.000000 0.028503 0.000000
# 6 0.000000 0.000000 0.000000 0.031406 0.000000 0.075321
#
#
# Mechanical properties :
#
#
# Convention : Reuss Voigt Hill
#
# Bulk Modulus (GPa) = 20.14117 44.02510 32.08313
# Shear Modulus (GPa) = 20.24487 31.15707 25.70097
#
# Velocity S-wave (km/s) = 3.13276 3.88641 3.52975
# Velocity P-wave (km/s) = 4.78012 6.44058 5.67145
#
# Compressibility (1/GPa) = 0.04964956
#
# Stress axis : x y z
#
# Youngs Moduli (GPa) = 36.08283 45.51294 144.69247
#
# Poissons Ratio (x) = -0.26851 0.81241
# Poissons Ratio (y) = -0.21288 0.54384
# Poissons Ratio (z) = 0.20260 0.17107
#
# Static dielectric constant tensor:
#      x y z
#    x 1.745070 0.000000 0.066200 
#    y 0.000000 1.715730 0.000000 
#    z 0.066200 0.000000 1.854880 
# 
# From -- ./inp_files/36329.got.cif
#   From: 2010.05.17/outbox.cif.g08.bks.cpg/sg13_19_cif.got.tgz:36329.got - 2010.06.03 16:44:36.
