data_PCOD9233404
_publ_section_title
;
Structure prediction by ZEFSAII (Michael W. Deem and Ramdas Pophale) SiO2 
 PCOD9233404
Probable space group: P 2/C
;
_chemical_formula_sum "Si O2"
_cell_formula_units_Z 28
_cell_length_a 8.235933
_cell_length_b 22.196972
_cell_length_c 12.923263
_cell_angle_alpha 90.000000
_cell_angle_beta 33.775971
_cell_angle_gamma 90.000000
_cell_volume 1313.445821
_symmetry_space_group_name_H-M "P 2/C"
_symmetry_group_IT_number 13
_symmetry_cell_setting 'monoclinic'
loop_
_space_group_symop_operation_xyz
x,y,z
-x,y,1/2-z
-x,-y,-z
x,-y,1/2+z
loop_
_atom_site_type_symbol
_atom_site_label
_atom_site_fract_x
_atom_site_fract_y
_atom_site_fract_z
Si Si1 0.199280 0.683217 0.882380
Si Si2 0.458235 0.417947 0.087993
Si Si3 0.752662 0.992393 0.544454
Si Si4 0.000000 0.901309 0.250000
Si Si5 0.355661 0.653282 0.215855
Si Si6 0.534973 0.124436 0.608750
Si Si7 0.797911 0.752851 0.947845
Si Si8 0.000000 0.510912 0.250000
O O1 0.500000 0.715752 0.750000
O O2 0.324269 0.630861 0.739109
O O3 0.980416 0.731474 0.949398
O O4 0.992328 0.656299 0.082151
O O5 0.209598 0.468385 0.206737
O O6 0.526753 0.387536 0.939795
O O7 0.769257 0.451233 0.941739
O O8 0.500000 0.967504 0.750000
O O9 0.829233 0.945191 0.417405
O O10 0.656834 0.055968 0.543645
O O11 0.000000 0.000000 0.500000
O O12 0.758836 0.869722 0.304387
O O13 0.500000 0.634754 0.250000
O O14 0.489866 0.718823 0.117972
O O15 0.500000 0.136258 0.750000
O O16 0.750392 0.176819 0.459545
O O17 0.000000 0.727746 0.750000
#
# Coordination Sequence:
#
# PCOD9233404 Si02
#       8
#     4   4   4   2   4   4   4   2
#     4  11  23  42  70  98 126 175 226 272 341 408
#     4  11  21  42  60  93 134 170 217 272 330 398
#     4  11  23  43  72 102 137 186 230 278 341 412
#     4  12  24  46  71 101 136 190 228 280 340 418
#     4  10  21  40  69  88 124 176 220 267 338 404
#     4  11  24  44  67 100 143 173 232 289 339 401
#     4  11  23  45  67  96 131 176 218 285 343 399
#     4  10  22  36  63  91 134 174 210 276 328 382
#
# _framework density 21.317969999999999
#
# number of rings (size 3 to 8) (size 9 to 14) (size 15 to 20)
#    0.000    1.143    4.286    4.286    1.000    0.000 
#    5.143   15.000    0.000    0.000    0.000    0.000 
#    0.000    0.000    0.000    0.000    0.000    0.000 
#
# Total GULP energy -156121.820268 kJ/mol
# GULP energy per Si atom -5575.779295 kJ/mol
# Density = 2.126945 g / cm^3
# Si number density = 21.317970 Si / 1000 Ang^3
#
#
#
# Elastic Constant Matrix: (Units=GPa)
#
#
# Indices 1 2 3 4 5 6 
#
# 1 81.6429 25.7338 38.2482 0.0000 -9.8933 0.0000
# 2 25.7338 68.0841 43.2200 0.0000 -0.8682 0.0000
# 3 38.2482 43.2200 173.3099 0.0000 -3.1880 0.0000
# 4 0.0000 0.0000 0.0000 32.1004 0.0000 -11.4982
# 5 -9.8933 -0.8682 -3.1880 0.0000 38.6977 0.0000
# 6 0.0000 0.0000 0.0000 -11.4982 0.0000 8.6442
#
#
#
# Elastic Compliance Matrix: (Units=1/GPa)
#
#
# Indices 1 2 3 4 5 6 
#
# 1 0.015049 -0.004249 -0.002196 0.000000 0.003571 0.000000
# 2 -0.004249 0.018650 -0.003731 0.000000 -0.000975 0.000000
# 3 -0.002196 -0.003731 0.007184 0.000000 -0.000053 0.000000
# 4 0.000000 0.000000 0.000000 0.059503 0.000000 0.079149
# 5 0.003571 -0.000975 -0.000053 0.000000 0.026728 0.000000
# 6 0.000000 0.000000 0.000000 0.079149 0.000000 0.220966
#
#
# Mechanical properties :
#
#
# Convention : Reuss Voigt Hill
#
# Bulk Modulus (GPa) = 48.70573 59.71565 54.21069
# Shear Modulus (GPa) = 13.32356 30.27745 21.80050
#
# Velocity S-wave (km/s) = 2.50270 3.77275 3.20134
# Velocity P-wave (km/s) = 5.59001 6.85936 6.25696
#
# Compressibility (1/GPa) = 0.02053146
#
# Stress axis : x y z
#
# Youngs Moduli (GPa) = 66.44891 53.62024 139.19517
#
# Poissons Ratio (x) = 0.22781 0.30568
# Poissons Ratio (y) = 0.28231 0.51936
# Poissons Ratio (z) = 0.14592 0.20007
#
# Static dielectric constant tensor:
#      x y z
#    x 1.865610 0.000000 -0.009180 
#    y 0.000000 1.756420 0.000000 
#    z -0.009180 0.000000 1.779770 
# 
# From -- ./inp_files/48224.got.cif
#   From: 2010.05.17/outbox.cif.g08.bks.cpg/sg13_25_cif.got.tgz:48224.got - 2010.06.03 16:44:36.
