data_PCOD9233766
_publ_section_title
;
Structure prediction by ZEFSAII (Michael W. Deem and Ramdas Pophale) SiO2 
 PCOD9233766
Probable space group: P 2/C
;
_chemical_formula_sum "Si O2"
_cell_formula_units_Z 28
_cell_length_a 17.267866
_cell_length_b 6.388605
_cell_length_c 17.031917
_cell_angle_alpha 90.000000
_cell_angle_beta 146.266982
_cell_angle_gamma 90.000000
_cell_volume 1043.408813
_symmetry_space_group_name_H-M "P 2/C"
_symmetry_group_IT_number 13
_symmetry_cell_setting 'monoclinic'
loop_
_space_group_symop_operation_xyz
x,y,z
-x,y,1/2-z
-x,-y,-z
x,-y,1/2+z
loop_
_atom_site_type_symbol
_atom_site_label
_atom_site_fract_x
_atom_site_fract_y
_atom_site_fract_z
Si Si1 0.402528 0.758261 0.464239
Si Si2 0.055834 0.748991 0.556982
Si Si3 0.448180 0.215910 0.817650
Si Si4 0.744134 0.944125 0.546082
Si Si5 0.500000 0.418834 0.250000
Si Si6 0.673925 0.174852 0.307126
Si Si7 0.000000 0.223955 0.750000
Si Si8 0.163721 0.439636 0.299795
O O1 0.556425 0.227085 0.592101
O O2 0.294078 0.935665 0.402869
O O3 0.543200 0.787096 0.635350
O O4 0.310431 0.548033 0.398416
O O5 0.187705 0.738585 0.611204
O O6 0.106057 0.723706 0.688398
O O7 0.000000 0.500000 0.500000
O O8 0.000000 0.000000 0.500000
O O9 0.456219 0.438065 0.784647
O O10 0.316775 0.076460 0.682543
O O11 0.583218 0.109092 0.892933
O O12 0.869846 0.079269 0.616780
O O13 0.804031 0.708038 0.599750
O O14 0.631556 0.264736 0.356826
O O15 0.056704 0.377145 0.730075
#
# Coordination Sequence:
#
# PCOD9233766 Si02
#       8
#     4   4   4   4   2   4   2   4
#     4  10  22  44  87 110 132 188 267 349 381 440
#     4  12  31  54  77 110 157 222 262 312 386 487
#     4  11  23  44  74 107 139 190 250 329 396 463
#     4  10  21  42  71 106 141 186 251 321 388 439
#     4  12  26  42  68 110 158 196 234 322 416 482
#     4  11  25  50  75 112 154 195 270 331 398 470
#     4  10  24  42  68 106 148 192 242 326 378 460
#     4  11  23  46  74 109 146 190 263 319 389 457
#
# _framework density 26.835118999999999
#
# number of rings (size 3 to 8) (size 9 to 14) (size 15 to 20)
#    0.000    1.143    0.000    6.000    8.000    1.714 
#   15.429    0.000    0.000    0.000    0.000    0.000 
#    0.000    0.000    0.000    0.000    0.000    0.000 
#
# Total GULP energy -156080.099101 kJ/mol
# GULP energy per Si atom -5574.289254 kJ/mol
# Density = 2.677404 g / cm^3
# Si number density = 26.835119 Si / 1000 Ang^3
#
#
#
# Elastic Constant Matrix: (Units=GPa)
#
#
# Indices 1 2 3 4 5 6 
#
# 1 109.6590 40.9386 28.9215 0.0000 38.6885 0.0000
# 2 40.9386 176.9493 60.7805 0.0000 26.9749 0.0000
# 3 28.9215 60.7805 107.5635 0.0000 34.4023 0.0000
# 4 0.0000 0.0000 0.0000 38.0009 0.0000 9.2188
# 5 38.6885 26.9749 34.4023 0.0000 46.3353 0.0000
# 6 0.0000 0.0000 0.0000 9.2188 0.0000 56.0902
#
#
#
# Elastic Compliance Matrix: (Units=1/GPa)
#
#
# Indices 1 2 3 4 5 6 
#
# 1 0.013338 -0.001733 0.000829 0.000000 -0.010743 0.000000
# 2 -0.001733 0.007317 -0.003632 0.000000 -0.000117 0.000000
# 3 0.000829 -0.003632 0.013994 0.000000 -0.008968 0.000000
# 4 0.000000 0.000000 0.000000 0.027408 0.000000 -0.004505
# 5 -0.010743 -0.000117 -0.008968 0.000000 0.037279 0.000000
# 6 0.000000 0.000000 0.000000 -0.004505 0.000000 0.018569
#
#
# Mechanical properties :
#
#
# Convention : Reuss Voigt Hill
#
# Bulk Modulus (GPa) = 39.09484 72.82810 55.96147
# Shear Modulus (GPa) = 36.89976 45.65402 41.27689
#
# Velocity S-wave (km/s) = 3.71220 4.12913 3.92620
# Velocity P-wave (km/s) = 5.74230 7.06619 6.43836
#
# Compressibility (1/GPa) = 0.02557883
#
# Stress axis : x y z
#
# Youngs Moduli (GPa) = 74.97511 136.65954 71.45725
#
# Poissons Ratio (x) = 0.23680 -0.05924
# Poissons Ratio (y) = 0.12992 0.25950
# Poissons Ratio (z) = -0.06215 0.49629
#
# Static dielectric constant tensor:
#      x y z
#    x 2.128350 0.000000 -0.162050 
#    y 0.000000 2.397450 0.000000 
#    z -0.162050 0.000000 2.211730 
# 
# From -- ./inp_files/88329.got.cif
#   From: 2010.05.17/outbox.cif.g08.bks.cpg/sg13_45_cif.got.tgz:88329.got - 2010.06.03 16:44:36.
