data_PCOD9233475
_publ_section_title
;
Structure prediction by ZEFSAII (Michael W. Deem and Ramdas Pophale) SiO2 
 PCOD9233475
Probable space group: P 2/C
;
_chemical_formula_sum "Si O2"
_cell_formula_units_Z 26
_cell_length_a 7.497441
_cell_length_b 13.965059
_cell_length_c 13.266575
_cell_angle_alpha 90.000000
_cell_angle_beta 54.472528
_cell_angle_gamma 90.000000
_cell_volume 1130.451864
_symmetry_space_group_name_H-M "P 2/C"
_symmetry_group_IT_number 13
_symmetry_cell_setting 'monoclinic'
loop_
_space_group_symop_operation_xyz
x,y,z
-x,y,1/2-z
-x,-y,-z
x,-y,1/2+z
loop_
_atom_site_type_symbol
_atom_site_label
_atom_site_fract_x
_atom_site_fract_y
_atom_site_fract_z
Si Si1 0.966396 0.773354 0.103707
Si Si2 0.000000 0.472077 0.250000
Si Si3 0.620089 0.154991 0.115292
Si Si4 0.353432 0.372425 0.696410
Si Si5 0.217410 0.890682 0.622513
Si Si6 0.211868 0.684445 0.546609
Si Si7 0.735239 0.044398 0.624065
O O1 0.822284 0.713240 0.229471
O O2 0.891692 0.883687 0.132850
O O3 0.887921 0.724845 0.024542
O O4 0.228276 0.779654 0.004555
O O5 0.795536 0.537469 0.283572
O O6 0.923233 0.403805 0.365761
O O7 0.500000 0.204313 0.250000
O O8 0.440306 0.096220 0.111395
O O9 0.766449 0.070036 0.117401
O O10 0.500000 0.386545 0.750000
O O11 0.538078 0.346302 0.554778
O O12 0.203527 0.775145 0.622427
O O13 0.248810 0.926842 0.498627
O O14 0.000000 0.927506 0.750000
O O15 0.500000 0.065272 0.750000
#
# Coordination Sequence:
#
# PCOD9233475 Si02
#       7
#     4   2   4   4   4   4   4
#     4  10  21  41  64  90 126 171 211 268 327 395
#     4  12  24  42  68  96 126 170 222 274 336 402
#     4  11  23  37  63 101 128 172 223 265 324 402
#     4  10  24  44  65  94 130 166 219 272 337 398
#     4  11  22  41  64  91 132 174 220 270 332 394
#     4  10  22  43  62  92 128 169 207 274 334 383
#     4  10  21  41  63  92 135 173 216 272 328 389
#
# _framework density 22.999651
#
# number of rings (size 3 to 8) (size 9 to 14) (size 15 to 20)
#    0.000    1.538    0.769    5.538    2.154    3.692 
#    2.769    1.538    0.000    0.000    0.000    0.000 
#    0.000    0.000    0.000    0.000    0.000    0.000 
#
# Total GULP energy -145277.017822 kJ/mol
# GULP energy per Si atom -5587.577609 kJ/mol
# Density = 2.294730 g / cm^3
# Si number density = 22.999651 Si / 1000 Ang^3
#
#
#
# Elastic Constant Matrix: (Units=GPa)
#
#
# Indices 1 2 3 4 5 6 
#
# 1 85.0364 10.1538 28.9655 0.0000 -18.1684 0.0000
# 2 10.1538 78.1968 41.0914 0.0000 -14.7392 0.0000
# 3 28.9655 41.0914 176.2373 0.0000 -34.2343 0.0000
# 4 0.0000 0.0000 0.0000 33.3054 0.0000 -9.2855
# 5 -18.1684 -14.7392 -34.2343 0.0000 34.1557 0.0000
# 6 0.0000 0.0000 0.0000 -9.2855 0.0000 20.8059
#
#
#
# Elastic Compliance Matrix: (Units=1/GPa)
#
#
# Indices 1 2 3 4 5 6 
#
# 1 0.013413 -0.000064 -0.001005 0.000000 0.006100 0.000000
# 2 -0.000064 0.014935 -0.002765 0.000000 0.003640 0.000000
# 3 -0.001005 -0.002765 0.007635 0.000000 0.005925 0.000000
# 4 0.000000 0.000000 0.000000 0.034292 0.000000 0.015304
# 5 0.006100 0.003640 0.005925 0.000000 0.040032 0.000000
# 6 0.000000 0.000000 0.000000 0.015304 0.000000 0.054893
#
#
# Mechanical properties :
#
#
# Convention : Reuss Voigt Hill
#
# Bulk Modulus (GPa) = 35.31506 55.54355 45.42930
# Shear Modulus (GPa) = 27.42643 34.93738 31.18191
#
# Velocity S-wave (km/s) = 3.45696 3.90171 3.68605
# Velocity P-wave (km/s) = 5.59661 6.67083 6.15719
#
# Compressibility (1/GPa) = 0.02831653
#
# Stress axis : x y z
#
# Youngs Moduli (GPa) = 74.55559 66.95461 130.97836
#
# Poissons Ratio (x) = 0.00428 0.13158
# Poissons Ratio (y) = 0.00477 0.36213
# Poissons Ratio (z) = 0.07490 0.18512
#
# Static dielectric constant tensor:
#      x y z
#    x 1.933550 0.000000 -0.006410 
#    y 0.000000 1.827360 0.000000 
#    z -0.006410 0.000000 1.886600 
# 
# From -- ./inp_files/47861.got.cif
#   From: 2010.05.17/outbox.cif.g08.bks.cpg/sg13_24_cif.got.tgz:47861.got - 2010.06.03 16:44:36.
