data_PCOD9233164
_publ_section_title
;
Structure prediction by ZEFSAII (Michael W. Deem and Ramdas Pophale) SiO2 
 PCOD9233164
Probable space group: P 2/C
;
_chemical_formula_sum "Si O2"
_cell_formula_units_Z 12
_cell_length_a 5.523259
_cell_length_b 15.800805
_cell_length_c 7.611488
_cell_angle_alpha 90.000000
_cell_angle_beta 133.305891
_cell_angle_gamma 90.000000
_cell_volume 483.390266
_symmetry_space_group_name_H-M "P 2/C"
_symmetry_group_IT_number 13
_symmetry_cell_setting 'monoclinic'
loop_
_space_group_symop_operation_xyz
x,y,z
-x,y,1/2-z
-x,-y,-z
x,-y,1/2+z
loop_
_atom_site_type_symbol
_atom_site_label
_atom_site_fract_x
_atom_site_fract_y
_atom_site_fract_z
Si Si1 0.604314 0.133803 0.481911
Si Si2 0.000000 0.985858 0.750000
Si Si3 0.106390 0.595380 0.005089
Si Si4 0.000000 0.280662 0.750000
O O1 0.500000 0.176277 0.250000
O O2 0.718458 0.211169 0.657758
O O3 0.311794 0.076561 0.409580
O O4 0.878042 0.062096 0.556294
O O5 0.500000 0.602946 0.250000
O O6 0.929624 0.659754 0.050870
O O7 0.000000 0.611367 0.750000
O O8 0.000000 0.500000 0.000000
#
# Coordination Sequence:
#
# PCOD9233164 Si02
#       4
#     4   2   4   2
#     4  10  21  39  68 100 145 191 247 308 365 447
#     4   9  20  40  66 101 136 198 250 295 378 439
#     4  12  28  50  82 111 150 201 252 311 383 459
#     4  11  28  44  70 113 150 192 252 311 376 445
#
# _framework density 24.824663000000001
#
# number of rings (size 3 to 8) (size 9 to 14) (size 15 to 20)
#    0.000    1.333    1.667    2.000    4.667    2.667 
#    0.000    3.333    0.000    0.000    0.000    0.000 
#    0.000    0.000    0.000    0.000    0.000    0.000 
#
# Total GULP energy -66824.013236 kJ/mol
# GULP energy per Si atom -5568.667770 kJ/mol
# Density = 2.476816 g / cm^3
# Si number density = 24.824663 Si / 1000 Ang^3
#
#
#
# Elastic Constant Matrix: (Units=GPa)
#
#
# Indices 1 2 3 4 5 6 
#
# 1 72.5835 71.4944 42.5480 0.0000 -14.6081 0.0000
# 2 71.4944 240.5690 68.7290 0.0000 -9.0165 0.0000
# 3 42.5480 68.7290 123.3817 0.0000 -18.1833 0.0000
# 4 0.0000 0.0000 0.0000 69.2778 0.0000 -33.6145
# 5 -14.6081 -9.0165 -18.1833 0.0000 43.1383 0.0000
# 6 0.0000 0.0000 0.0000 -33.6145 0.0000 74.3594
#
#
#
# Elastic Compliance Matrix: (Units=1/GPa)
#
#
# Indices 1 2 3 4 5 6 
#
# 1 0.022326 -0.005301 -0.004047 0.000000 0.004747 0.000000
# 2 -0.005301 0.006203 -0.001813 0.000000 -0.001263 0.000000
# 3 -0.004047 -0.001813 0.010932 0.000000 0.002859 0.000000
# 4 0.000000 0.000000 0.000000 0.018490 0.000000 0.008359
# 5 0.004747 -0.001263 0.002859 0.000000 0.025730 0.000000
# 6 0.000000 0.000000 0.000000 0.008359 0.000000 0.017227
#
#
# Mechanical properties :
#
#
# Convention : Reuss Voigt Hill
#
# Bulk Modulus (GPa) = 58.34744 89.11967 73.73355
# Shear Modulus (GPa) = 38.77682 54.27262 46.52472
#
# Velocity S-wave (km/s) = 3.95654 4.68079 4.33382
# Velocity P-wave (km/s) = 6.66537 8.07408 7.40330
#
# Compressibility (1/GPa) = 0.01713871
#
# Stress axis : x y z
#
# Youngs Moduli (GPa) = 44.79036 161.21311 91.47595
#
# Poissons Ratio (x) = 0.85460 0.37018
# Poissons Ratio (y) = 0.23744 0.16588
# Poissons Ratio (z) = 0.18125 0.29234
#
# Static dielectric constant tensor:
#      x y z
#    x 2.156490 0.000000 0.049850 
#    y 0.000000 1.818360 0.000000 
#    z 0.049850 0.000000 2.428430 
# 
# From -- ./inp_files/9062.got.cif
#   From: 2010.05.17/outbox.cif.g08.bks.cpg/sg13_5_cif.got.tgz:9062.got - 2010.06.03 16:44:36.
