data_PCOD9233237
_publ_section_title
;
Structure prediction by ZEFSAII (Michael W. Deem and Ramdas Pophale) SiO2 
 PCOD9233237
Probable space group: P 2/C
;
_chemical_formula_sum "Si O2"
_cell_formula_units_Z 24
_cell_length_a 24.863494
_cell_length_b 10.448523
_cell_length_c 23.954585
_cell_angle_alpha 90.000000
_cell_angle_beta 11.672774
_cell_angle_gamma 90.000000
_cell_volume 1259.066710
_symmetry_space_group_name_H-M "P 2/C"
_symmetry_group_IT_number 13
_symmetry_cell_setting 'monoclinic'
loop_
_space_group_symop_operation_xyz
x,y,z
-x,y,1/2-z
-x,-y,-z
x,-y,1/2+z
loop_
_atom_site_type_symbol
_atom_site_label
_atom_site_fract_x
_atom_site_fract_y
_atom_site_fract_z
Si Si1 0.088624 0.996489 0.345139
Si Si2 0.040263 0.715428 0.545403
Si Si3 0.051407 0.477938 0.133073
Si Si4 0.550809 0.350841 0.133666
Si Si5 0.602466 0.163868 0.307490
Si Si6 0.429595 0.644644 0.555532
O O1 0.894564 0.896763 0.511487
O O2 0.045370 0.137246 0.364594
O O3 0.388924 0.947267 0.036630
O O4 0.000000 0.000000 0.500000
O O5 0.012156 0.639374 0.631484
O O6 0.338965 0.701027 0.218973
O O7 0.846867 0.650978 0.696312
O O8 0.000000 0.444374 0.250000
O O9 0.845277 0.591946 0.327802
O O10 0.346336 0.534470 0.827604
O O11 0.500000 0.316862 0.250000
O O12 0.481280 0.234957 0.163820
O O13 0.586755 0.267948 0.372945
O O14 0.500000 0.500000 0.500000
#
# Coordination Sequence:
#
# PCOD9233237 Si02
#       6
#     4   4   4   4   4   4
#     4  12  23  40  58  84 121 166 192 232 291 348
#     4  12  23  38  57  85 117 153 196 232 290 349
#     4  10  21  40  62  85 116 152 191 241 301 348
#     4  10  22  41  64  88 117 152 192 245 299 345
#     4  12  22  39  60  86 117 155 200 234 293 348
#     4  12  23  35  58  87 117 144 190 249 293 343
#
# _framework density 19.061737999999998
#
# number of rings (size 3 to 8) (size 9 to 14) (size 15 to 20)
#    0.000    0.667    3.333    6.000    0.000    0.000 
#    0.000    1.667    0.000    0.000    0.000    0.000 
#    0.000    0.000    0.000    0.000    0.000    0.000 
#
# Total GULP energy -134316.107045 kJ/mol
# GULP energy per Si atom -5596.504460 kJ/mol
# Density = 1.901835 g / cm^3
# Si number density = 19.061738 Si / 1000 Ang^3
#
#
#
# Elastic Constant Matrix: (Units=GPa)
#
#
# Indices 1 2 3 4 5 6 
#
# 1 91.1903 36.0788 -3.5252 0.0000 -16.3053 0.0000
# 2 36.0788 83.9760 -21.5806 0.0000 -1.9106 0.0000
# 3 -3.5252 -21.5806 47.1344 0.0000 -11.5112 0.0000
# 4 0.0000 0.0000 0.0000 27.2043 0.0000 -7.2695
# 5 -16.3053 -1.9106 -11.5112 0.0000 18.9926 0.0000
# 6 0.0000 0.0000 0.0000 -7.2695 0.0000 6.2759
#
#
#
# Elastic Compliance Matrix: (Units=1/GPa)
#
#
# Indices 1 2 3 4 5 6 
#
# 1 0.015987 -0.006053 0.001910 0.000000 0.014274 0.000000
# 2 -0.006053 0.016394 0.007262 0.000000 0.000854 0.000000
# 3 0.001910 0.007262 0.029652 0.000000 0.020342 0.000000
# 4 0.000000 0.000000 0.000000 0.053237 0.000000 0.061665
# 5 0.014274 0.000854 0.020342 0.000000 0.077321 0.000000
# 6 0.000000 0.000000 0.000000 0.061665 0.000000 0.230767
#
#
# Mechanical properties :
#
#
# Convention : Reuss Voigt Hill
#
# Bulk Modulus (GPa) = 14.64725 27.13854 20.89289
# Shear Modulus (GPa) = 11.36684 24.58309 17.97496
#
# Velocity S-wave (km/s) = 2.44461 3.59507 3.07414
# Velocity P-wave (km/s) = 3.95840 5.61256 4.85643
#
# Compressibility (1/GPa) = 0.06827221
#
# Stress axis : x y z
#
# Youngs Moduli (GPa) = 62.55116 60.99665 33.72490
#
# Poissons Ratio (x) = 0.36920 -0.06443
# Poissons Ratio (y) = 0.37861 -0.24491
# Poissons Ratio (z) = -0.11949 -0.44297
#
# Static dielectric constant tensor:
#      x y z
#    x 1.645140 0.000000 -0.005400 
#    y 0.000000 1.639170 0.000000 
#    z -0.005400 0.000000 1.649590 
# 
# From -- ./inp_files/89091.got.cif
#   From: 2010.05.17/outbox.cif.g08.bks.cpg/sg13_45_cif.got.tgz:89091.got - 2010.06.03 16:44:36.
