data_PCOD9233262
_publ_section_title
;
Structure prediction by ZEFSAII (Michael W. Deem and Ramdas Pophale) SiO2 
 PCOD9233262
Probable space group: P 2/C
;
_chemical_formula_sum "Si O2"
_cell_formula_units_Z 20
_cell_length_a 6.992552
_cell_length_b 7.392712
_cell_length_c 16.380258
_cell_angle_alpha 90.000000
_cell_angle_beta 109.992375
_cell_angle_gamma 90.000000
_cell_volume 795.732467
_symmetry_space_group_name_H-M "P 2/C"
_symmetry_group_IT_number 13
_symmetry_cell_setting 'monoclinic'
loop_
_space_group_symop_operation_xyz
x,y,z
-x,y,1/2-z
-x,-y,-z
x,-y,1/2+z
loop_
_atom_site_type_symbol
_atom_site_label
_atom_site_fract_x
_atom_site_fract_y
_atom_site_fract_z
Si Si1 0.422086 0.200325 0.553776
Si Si2 0.100884 0.320651 0.630467
Si Si3 0.721595 0.200533 0.472216
Si Si4 0.733810 0.670294 0.789908
Si Si5 0.293957 0.039274 0.774171
O O1 0.288212 0.324886 0.592528
O O2 0.509456 0.269130 0.481002
O O3 0.291041 0.017681 0.521151
O O4 0.624643 0.136459 0.633093
O O5 0.116097 0.502515 0.684438
O O6 0.903083 0.290817 0.548117
O O7 0.138494 0.154858 0.697764
O O8 0.747974 0.237938 0.381101
O O9 0.500000 0.602738 0.750000
O O10 0.766900 0.829799 0.729314
O O11 0.500000 0.034290 0.750000
#
# Coordination Sequence:
#
# PCOD9233262 Si02
#       5
#     4   4   4   4   4
#     4  10  21  40  63  88 126 163 199 258 309 365
#     4  11  22  38  66  88 121 165 205 254 308 359
#     4  11  22  38  64  94 122 159 212 251 305 370
#     4  11  20  38  64  91 124 166 206 252 308 374
#     4   9  18  38  61  85 120 162 206 246 310 369
#
# _framework density 25.134076
#
# number of rings (size 3 to 8) (size 9 to 14) (size 15 to 20)
#    0.000    1.600    6.000    3.000    0.000    1.600 
#    0.000    0.000    0.000    6.000    0.000    0.000 
#    0.000    0.000    0.000    0.000    0.000    0.000 
#
# Total GULP energy -111973.989486 kJ/mol
# GULP energy per Si atom -5598.699474 kJ/mol
# Density = 2.507687 g / cm^3
# Si number density = 25.134076 Si / 1000 Ang^3
#
#
#
# Elastic Constant Matrix: (Units=GPa)
#
#
# Indices 1 2 3 4 5 6 
#
# 1 74.3603 13.1164 26.1351 0.0000 -3.7507 0.0000
# 2 13.1164 69.0820 19.2178 0.0000 4.1430 0.0000
# 3 26.1351 19.2178 92.4838 0.0000 24.4788 0.0000
# 4 0.0000 0.0000 0.0000 31.5967 0.0000 1.8542
# 5 -3.7507 4.1430 24.4788 0.0000 43.7042 0.0000
# 6 0.0000 0.0000 0.0000 1.8542 0.0000 1.3262
#
#
#
# Elastic Compliance Matrix: (Units=1/GPa)
#
#
# Indices 1 2 3 4 5 6 
#
# 1 0.015855 -0.001807 -0.005295 0.000000 0.004498 0.000000
# 2 -0.001807 0.015575 -0.002693 0.000000 -0.000123 0.000000
# 3 -0.005295 -0.002693 0.015171 0.000000 -0.008696 0.000000
# 4 0.000000 0.000000 0.000000 0.034478 0.000000 -0.048205
# 5 0.004498 -0.000123 -0.008696 0.000000 0.028149 0.000000
# 6 0.000000 0.000000 0.000000 -0.048205 0.000000 0.821456
#
#
# Mechanical properties :
#
#
# Convention : Reuss Voigt Hill
#
# Bulk Modulus (GPa) = 37.02443 39.20718 38.11581
# Shear Modulus (GPa) = 5.21225 27.15587 16.18406
#
# Velocity S-wave (km/s) = 1.44162 3.29057 2.54029
# Velocity P-wave (km/s) = 4.18734 5.48363 4.87873
#
# Compressibility (1/GPa) = 0.02700920
#
# Stress axis : x y z
#
# Youngs Moduli (GPa) = 63.07236 64.20440 65.91725
#
# Poissons Ratio (x) = 0.11601 0.34906
# Poissons Ratio (y) = 0.11397 0.17754
# Poissons Ratio (z) = 0.33400 0.17292
#
# Static dielectric constant tensor:
#      x y z
#    x 2.017940 0.000000 -0.040030 
#    y 0.000000 2.018370 0.000000 
#    z -0.040030 0.000000 1.988460 
# 
# From -- ./inp_files/63501.got.cif
#   From: 2010.05.17/outbox.cif.g08.bks.cpg/sg13_32_cif.got.tgz:63501.got - 2010.06.03 16:44:36.
