data_PCOD9233903
_publ_section_title
;
Structure prediction by ZEFSAII (Michael W. Deem and Ramdas Pophale) SiO2 
 PCOD9233903
Probable space group: P 2/C
;
_chemical_formula_sum "Si O2"
_cell_formula_units_Z 32
_cell_length_a 9.772781
_cell_length_b 22.781473
_cell_length_c 16.011493
_cell_angle_alpha 90.000000
_cell_angle_beta 29.521768
_cell_angle_gamma 90.000000
_cell_volume 1756.556511
_symmetry_space_group_name_H-M "P 2/C"
_symmetry_group_IT_number 13
_symmetry_cell_setting 'monoclinic'
loop_
_space_group_symop_operation_xyz
x,y,z
-x,y,1/2-z
-x,-y,-z
x,-y,1/2+z
loop_
_atom_site_type_symbol
_atom_site_label
_atom_site_fract_x
_atom_site_fract_y
_atom_site_fract_z
Si Si1 0.201299 0.553590 0.868151
Si Si2 0.313464 0.046050 0.046802
Si Si3 0.793448 0.963666 0.552322
Si Si4 0.826702 0.262382 0.757552
Si Si5 0.742911 0.678972 0.943285
Si Si6 0.843549 0.123400 0.746459
Si Si7 0.178187 0.337797 0.909522
Si Si8 0.295646 0.553505 0.621450
O O1 0.500000 0.544306 0.750000
O O2 0.259355 0.565127 0.739131
O O3 0.000000 0.500000 0.000000
O O4 0.037595 0.610183 0.987378
O O5 0.000000 0.057502 0.250000
O O6 0.524585 0.100675 0.921386
O O7 0.500000 0.000000 0.000000
O O8 0.275041 0.010695 0.982434
O O9 0.500000 0.945687 0.750000
O O10 0.974640 0.910359 0.419133
O O11 0.000000 0.000000 0.500000
O O12 0.858653 0.193121 0.726993
O O13 0.867621 0.295977 0.646454
O O14 0.000000 0.278916 0.750000
O O15 0.510182 0.279272 0.943205
O O16 0.654396 0.611938 0.961985
O O17 0.000000 0.692825 0.750000
O O18 0.847449 0.687013 0.982903
O O19 0.000000 0.108672 0.750000
O O20 0.500000 0.359314 0.750000
O O21 0.500000 0.500000 0.500000
O O22 0.000000 0.530338 0.750000
#
# Coordination Sequence:
#
# PCOD9233903 Si02
#       8
#     4   4   4   4   4   4   4   4
#     4  12  25  38  62  98 130 164 209 261 324 388
#     4  12  20  38  67  92 128 175 208 252 326 389
#     4  12  22  37  61  98 131 166 204 266 320 380
#     4  10  25  43  68  91 123 175 220 274 321 382
#     4  10  21  44  67  89 128 169 214 265 320 382
#     4  11  23  44  64  94 133 168 223 262 323 397
#     4  10  22  44  65  87 129 169 211 263 325 373
#     4  11  23  40  62  96 129 162 207 261 321 390
#
# _framework density 18.217461
#
# number of rings (size 3 to 8) (size 9 to 14) (size 15 to 20)
#    0.000    1.000    6.250    1.125    5.250    1.000 
#    6.750    3.125    0.000    0.000    0.000    0.000 
#    0.000    0.000    0.000    0.000    0.000    0.000 
#
# Total GULP energy -178227.993223 kJ/mol
# GULP energy per Si atom -5569.624788 kJ/mol
# Density = 1.817600 g / cm^3
# Si number density = 18.217461 Si / 1000 Ang^3
#
#
#
# Elastic Constant Matrix: (Units=GPa)
#
#
# Indices 1 2 3 4 5 6 
#
# 1 147.7127 49.1256 44.2128 0.0000 -12.0124 0.0000
# 2 49.1256 87.3187 54.0011 0.0000 -10.1232 0.0000
# 3 44.2128 54.0011 132.0713 0.0000 -14.5930 0.0000
# 4 0.0000 0.0000 0.0000 38.2595 0.0000 0.9388
# 5 -12.0124 -10.1232 -14.5930 0.0000 33.0227 0.0000
# 6 0.0000 0.0000 0.0000 0.9388 0.0000 25.9707
#
#
#
# Elastic Compliance Matrix: (Units=1/GPa)
#
#
# Indices 1 2 3 4 5 6 
#
# 1 0.008526 -0.003968 -0.001076 0.000000 0.001410 0.000000
# 2 -0.003968 0.017305 -0.005594 0.000000 0.001390 0.000000
# 3 -0.001076 -0.005594 0.010499 0.000000 0.002533 0.000000
# 4 0.000000 0.000000 0.000000 0.026160 0.000000 -0.000946
# 5 0.001410 0.001390 0.002533 0.000000 0.032340 0.000000
# 6 0.000000 0.000000 0.000000 -0.000946 0.000000 0.038539
#
#
# Mechanical properties :
#
#
# Convention : Reuss Voigt Hill
#
# Bulk Modulus (GPa) = 66.42465 73.53129 69.97797
# Shear Modulus (GPa) = 31.31565 34.10149 32.70857
#
# Velocity S-wave (km/s) = 4.15057 4.33125 4.24187
# Velocity P-wave (km/s) = 7.71433 8.09097 7.90489
#
# Compressibility (1/GPa) = 0.01505465
#
# Stress axis : x y z
#
# Youngs Moduli (GPa) = 117.28450 57.78606 95.24671
#
# Poissons Ratio (x) = 0.22929 0.10250
# Poissons Ratio (y) = 0.46538 0.53280
# Poissons Ratio (z) = 0.12621 0.32325
#
# Static dielectric constant tensor:
#      x y z
#    x 1.581750 0.000000 0.021330 
#    y 0.000000 1.618660 0.000000 
#    z 0.021330 0.000000 1.654130 
# 
# From -- ./inp_files/48299.got.cif
#   From: 2010.05.17/outbox.cif.g08.bks.cpg/sg13_25_cif.got.tgz:48299.got - 2010.06.03 16:44:36.
