data_PCOD9233574
_publ_section_title
;
Structure prediction by ZEFSAII (Michael W. Deem and Ramdas Pophale) SiO2 
 PCOD9233574
Probable space group: P 2/C
;
_chemical_formula_sum "Si O2"
_cell_formula_units_Z 20
_cell_length_a 10.291413
_cell_length_b 9.361856
_cell_length_c 10.018884
_cell_angle_alpha 90.000000
_cell_angle_beta 67.203067
_cell_angle_gamma 90.000000
_cell_volume 889.882240
_symmetry_space_group_name_H-M "P 2/C"
_symmetry_group_IT_number 13
_symmetry_cell_setting 'monoclinic'
loop_
_space_group_symop_operation_xyz
x,y,z
-x,y,1/2-z
-x,-y,-z
x,-y,1/2+z
loop_
_atom_site_type_symbol
_atom_site_label
_atom_site_fract_x
_atom_site_fract_y
_atom_site_fract_z
Si Si1 0.745311 0.491734 0.777658
Si Si2 0.900404 0.969333 0.915858
Si Si3 0.654910 0.811157 0.439287
Si Si4 0.500000 0.779655 0.250000
Si Si5 0.500000 0.691230 0.750000
Si Si6 0.778416 0.662750 0.018658
O O1 0.694038 0.349571 0.875742
O O2 0.623322 0.591158 0.761869
O O3 0.836449 0.429275 0.619407
O O4 0.810498 0.586932 0.867509
O O5 0.000000 0.947265 0.750000
O O6 0.787809 0.092582 0.925641
O O7 0.824326 0.824242 0.986631
O O8 0.000000 0.000000 0.000000
O O9 0.577197 0.867789 0.336257
O O10 0.558837 0.787422 0.606423
O O11 0.612584 0.681105 0.125074
#
# Coordination Sequence:
#
# PCOD9233574 Si02
#       6
#     4   4   4   2   2   4
#     4  11  21  41  68 114 143 179 223 295 379 439
#     4  12  30  54  70  94 147 208 256 296 340 417
#     4  11  24  42  74 105 149 190 233 292 375 437
#     4  10  21  41  68 114 143 171 224 296 375 437
#     4  12  21  39  74 112 157 179 218 306 389 439
#     4  11  24  42  74 105 144 185 234 296 371 433
#
# _framework density 22.474882999999998
#
# number of rings (size 3 to 8) (size 9 to 14) (size 15 to 20)
#    0.000    0.800    4.000    5.400    2.800    1.600 
#    0.000    5.000    0.000    0.000    0.000    0.000 
#    0.000    0.000    0.000    0.000    0.000    0.000 
#
# Total GULP energy -111802.703662 kJ/mol
# GULP energy per Si atom -5590.135183 kJ/mol
# Density = 2.242373 g / cm^3
# Si number density = 22.474883 Si / 1000 Ang^3
#
#
#
# Elastic Constant Matrix: (Units=GPa)
#
#
# Indices 1 2 3 4 5 6 
#
# 1 72.5438 49.0130 51.4299 0.0000 16.5149 0.0000
# 2 49.0130 91.0482 31.0824 0.0000 6.7842 0.0000
# 3 51.4299 31.0824 140.9104 0.0000 26.0216 0.0000
# 4 0.0000 0.0000 0.0000 25.9526 0.0000 -14.9226
# 5 16.5149 6.7842 26.0216 0.0000 42.2923 0.0000
# 6 0.0000 0.0000 0.0000 -14.9226 0.0000 -148.2263
#
#
#
# Elastic Compliance Matrix: (Units=1/GPa)
#
#
# Indices 1 2 3 4 5 6 
#
# 1 0.027953 -0.012446 -0.006555 0.000000 -0.004886 0.000000
# 2 -0.012446 0.017423 0.000359 0.000000 0.001844 0.000000
# 3 -0.006555 0.000359 0.010095 0.000000 -0.003709 0.000000
# 4 0.000000 0.000000 0.000000 0.036423 0.000000 -0.003667
# 5 -0.004886 0.001844 -0.003709 0.000000 0.027539 0.000000
# 6 0.000000 0.000000 0.000000 -0.003667 0.000000 -0.006377
#
#
# Mechanical properties :
#
#
# Convention : Reuss Voigt Hill
#
# Bulk Modulus (GPa) = 54.98381 63.06146 59.02263
# Shear Modulus (GPa) = 31.96883 -4.46448 13.75218
#
# Velocity S-wave (km/s) = 3.77560 -1.41094 2.47633
# Velocity P-wave (km/s) = 6.59731 5.04631 5.87323
#
# Compressibility (1/GPa) = 0.01818717
#
# Stress axis : x y z
#
# Youngs Moduli (GPa) = 35.77452 57.39483 99.05986
#
# Poissons Ratio (x) = 0.71433 0.64931
# Poissons Ratio (y) = 0.44524 -0.03553
# Poissons Ratio (z) = 0.23449 -0.02058
#
# Static dielectric constant tensor:
#      x y z
#    x 1.938270 0.000000 -0.024330 
#    y 0.000000 1.814390 0.000000 
#    z -0.024330 0.000000 1.863280 
# 
# From -- ./inp_files/14887.got.cif
#   From: 2010.05.17/outbox.cif.g08.bks.cpg/sg13_8_cif.got.tgz:14887.got - 2010.06.03 16:44:36.
