data_PCOD9233160
_publ_section_title
;
Structure prediction by ZEFSAII (Michael W. Deem and Ramdas Pophale) SiO2 
 PCOD9233160
Probable space group: P 2/C
;
_chemical_formula_sum "Si O2"
_cell_formula_units_Z 24
_cell_length_a 8.043969
_cell_length_b 9.379612
_cell_length_c 27.977200
_cell_angle_alpha 90.000000
_cell_angle_beta 31.935084
_cell_angle_gamma 90.000000
_cell_volume 1116.556672
_symmetry_space_group_name_H-M "P 2/C"
_symmetry_group_IT_number 13
_symmetry_cell_setting 'monoclinic'
loop_
_space_group_symop_operation_xyz
x,y,z
-x,y,1/2-z
-x,-y,-z
x,-y,1/2+z
loop_
_atom_site_type_symbol
_atom_site_label
_atom_site_fract_x
_atom_site_fract_y
_atom_site_fract_z
Si Si1 0.064739 0.075106 0.433366
Si Si2 0.644082 0.503507 0.342315
Si Si3 0.270271 0.830092 0.024781
Si Si4 0.284572 0.344313 0.012113
Si Si5 0.349498 0.163386 0.164764
Si Si6 0.221383 0.422693 0.856102
O O1 0.437420 0.101861 0.344605
O O2 0.899799 0.228417 0.474422
O O3 0.000000 0.000000 0.500000
O O4 0.921337 0.979716 0.425523
O O5 0.502926 0.551808 0.427399
O O6 0.660526 0.334454 0.330337
O O7 0.397696 0.554084 0.362972
O O8 0.000000 0.560508 0.250000
O O9 0.997816 0.714183 0.084113
O O10 0.495500 0.753319 0.008134
O O11 0.488824 0.860456 0.925789
O O12 0.011865 0.445554 0.100492
O O13 0.000000 0.104177 0.250000
O O14 0.500000 0.406131 0.750000
#
# Coordination Sequence:
#
# PCOD9233160 Si02
#       6
#     4   4   4   4   4   4
#     4  10  22  43  65  94 132 177 220 264 332 398
#     4  11  22  39  66  97 130 168 218 273 336 387
#     4  11  24  42  65  96 136 172 217 271 328 398
#     4  12  23  41  68  97 131 174 218 276 332 391
#     4  10  21  39  67  97 130 173 220 271 329 393
#     4  12  25  41  65 100 131 170 222 279 331 387
#
# _framework density 21.494655000000002
#
# number of rings (size 3 to 8) (size 9 to 14) (size 15 to 20)
#    0.000    1.000    3.333    4.500    4.667    0.000 
#    0.000   13.333    0.000    0.000    0.000    0.000 
#    0.000    0.000    0.000    0.000    0.000    0.000 
#
# Total GULP energy -133942.712301 kJ/mol
# GULP energy per Si atom -5580.946346 kJ/mol
# Density = 2.144573 g / cm^3
# Si number density = 21.494655 Si / 1000 Ang^3
#
#
#
# Elastic Constant Matrix: (Units=GPa)
#
#
# Indices 1 2 3 4 5 6 
#
# 1 101.6023 16.4517 49.5581 0.0000 -31.8976 0.0000
# 2 16.4517 78.7843 19.2341 0.0000 -21.4778 0.0000
# 3 49.5581 19.2341 118.8957 0.0000 -35.2714 0.0000
# 4 0.0000 0.0000 0.0000 12.9835 0.0000 -8.8837
# 5 -31.8976 -21.4778 -35.2714 0.0000 38.9205 0.0000
# 6 0.0000 0.0000 0.0000 -8.8837 0.0000 51.0604
#
#
#
# Elastic Compliance Matrix: (Units=1/GPa)
#
#
# Indices 1 2 3 4 5 6 
#
# 1 0.014177 0.000232 -0.003367 0.000000 0.008695 0.000000
# 2 0.000232 0.014944 -0.000016 0.000000 0.008423 0.000000
# 3 -0.003367 -0.000016 0.012303 0.000000 0.008381 0.000000
# 4 0.000000 0.000000 0.000000 0.087428 0.000000 0.015211
# 5 0.008695 0.008423 0.008381 0.000000 0.045064 0.000000
# 6 0.000000 0.000000 0.000000 0.015211 0.000000 0.022231
#
#
# Mechanical properties :
#
#
# Convention : Reuss Voigt Hill
#
# Bulk Modulus (GPa) = 28.47112 52.19666 40.33389
# Shear Modulus (GPa) = 23.34735 34.86210 29.10473
#
# Velocity S-wave (km/s) = 3.29932 4.03165 3.68373
# Velocity P-wave (km/s) = 5.27147 6.78296 6.07441
#
# Compressibility (1/GPa) = 0.03512331
#
# Stress axis : x y z
#
# Youngs Moduli (GPa) = 70.53658 66.91437 81.27957
#
# Poissons Ratio (x) = -0.01553 0.27369
# Poissons Ratio (y) = -0.01638 0.00127
# Poissons Ratio (z) = 0.23751 0.00104
#
# Static dielectric constant tensor:
#      x y z
#    x 1.836110 0.000000 -0.025480 
#    y 0.000000 1.784310 0.000000 
#    z -0.025480 0.000000 1.758780 
# 
# From -- ./inp_files/95892.got.cif
#   From: 2010.05.17/outbox.cif.g08.bks.cpg/sg13_48_cif.got.tgz:95892.got - 2010.06.03 16:44:36.
