data_PCOD9233739
_publ_section_title
;
Structure prediction by ZEFSAII (Michael W. Deem and Ramdas Pophale) SiO2 
 PCOD9233739
Probable space group: P 2/C
;
_chemical_formula_sum "Si O2"
_cell_formula_units_Z 22
_cell_length_a 12.094167
_cell_length_b 5.691038
_cell_length_c 31.369522
_cell_angle_alpha 90.000000
_cell_angle_beta 28.668320
_cell_angle_gamma 90.000000
_cell_volume 1035.809427
_symmetry_space_group_name_H-M "P 2/C"
_symmetry_group_IT_number 13
_symmetry_cell_setting 'monoclinic'
loop_
_space_group_symop_operation_xyz
x,y,z
-x,y,1/2-z
-x,-y,-z
x,-y,1/2+z
loop_
_atom_site_type_symbol
_atom_site_label
_atom_site_fract_x
_atom_site_fract_y
_atom_site_fract_z
Si Si1 0.048448 0.955421 0.280987
Si Si2 0.437150 0.251686 0.542138
Si Si3 0.640890 0.733437 0.779176
Si Si4 0.499268 0.643072 0.114931
Si Si5 0.760847 0.887059 0.095425
Si Si6 0.500000 0.602591 0.250000
O O1 0.278273 0.801195 0.201090
O O2 0.000000 0.059540 0.250000
O O3 0.838053 0.780636 0.360748
O O4 0.111626 0.145689 0.295869
O O5 0.500000 0.500000 0.500000
O O6 0.551230 0.283118 0.549772
O O7 0.500000 0.000000 0.500000
O O8 0.577620 0.617732 0.846454
O O9 0.617015 0.548672 0.748556
O O10 0.439122 0.917533 0.837895
O O11 0.703911 0.701611 0.077594
O O12 0.704897 0.755019 0.158768
O O13 0.000000 0.000000 0.000000
#
# Coordination Sequence:
#
# PCOD9233739 Si02
#       6
#     4   4   4   4   4   2
#     4   9  21  41  69  92 129 183 222 278 348 422
#     4  11  26  44  64 105 143 173 229 290 345 416
#     4  10  21  42  69  91 132 177 241 283 349 436
#     4   9  22  42  64  95 127 183 227 275 353 419
#     4  10  22  44  66  95 138 178 230 297 359 427
#     4  10  22  42  64 106 130 180 246 292 360 432
#
# _framework density 21.239429999999999
#
# number of rings (size 3 to 8) (size 9 to 14) (size 15 to 20)
#    0.000    2.182    0.000    0.545   10.182    3.636 
#   16.364    0.000    0.000    0.000    0.000    0.000 
#    0.000    0.000    0.000    0.000    0.000    0.000 
#
# Total GULP energy -122541.888836 kJ/mol
# GULP energy per Si atom -5570.085856 kJ/mol
# Density = 2.119109 g / cm^3
# Si number density = 21.239430 Si / 1000 Ang^3
#
#
#
# Elastic Constant Matrix: (Units=GPa)
#
#
# Indices 1 2 3 4 5 6 
#
# 1 89.1249 46.6483 46.3863 0.0000 8.5872 0.0000
# 2 46.6483 99.5354 34.0805 0.0000 19.4301 0.0000
# 3 46.3863 34.0805 82.8882 0.0000 8.1459 0.0000
# 4 0.0000 0.0000 0.0000 32.6423 0.0000 6.4225
# 5 8.5872 19.4301 8.1459 0.0000 32.9051 0.0000
# 6 0.0000 0.0000 0.0000 6.4225 0.0000 40.4519
#
#
#
# Elastic Compliance Matrix: (Units=1/GPa)
#
#
# Indices 1 2 3 4 5 6 
#
# 1 0.018441 -0.006084 -0.007890 0.000000 0.000733 0.000000
# 2 -0.006084 0.014916 -0.002069 0.000000 -0.006708 0.000000
# 3 -0.007890 -0.002069 0.017432 0.000000 -0.001035 0.000000
# 4 0.000000 0.000000 0.000000 0.031623 0.000000 -0.005021
# 5 0.000733 -0.006708 -0.001035 0.000000 0.034416 0.000000
# 6 0.000000 0.000000 0.000000 -0.005021 0.000000 0.025518
#
#
# Mechanical properties :
#
#
# Convention : Reuss Voigt Hill
#
# Bulk Modulus (GPa) = 53.46914 58.41986 55.94450
# Shear Modulus (GPa) = 27.67538 30.82875 29.25206
#
# Velocity S-wave (km/s) = 3.61365 3.81397 3.71516
# Velocity P-wave (km/s) = 6.52996 6.85276 6.69331
#
# Compressibility (1/GPa) = 0.01870238
#
# Stress axis : x y z
#
# Youngs Moduli (GPa) = 54.22837 67.04332 57.36432
#
# Poissons Ratio (x) = 0.40788 0.45263
# Poissons Ratio (y) = 0.32992 0.11868
# Poissons Ratio (z) = 0.42788 0.13871
#
# Static dielectric constant tensor:
#      x y z
#    x 1.762450 0.000000 0.025520 
#    y 0.000000 1.720780 0.000000 
#    z 0.025520 0.000000 1.805720 
# 
# From -- ./inp_files/48872.got.cif
#   From: 2010.05.17/outbox.cif.g08.bks.cpg/sg13_25_cif.got.tgz:48872.got - 2010.06.03 16:44:36.
