data_PCOD9233743
_publ_section_title
;
Structure prediction by ZEFSAII (Michael W. Deem and Ramdas Pophale) SiO2 
 PCOD9233743
Probable space group: P 2/C
;
_chemical_formula_sum "Si O2"
_cell_formula_units_Z 28
_cell_length_a 11.487423
_cell_length_b 8.430642
_cell_length_c 13.382355
_cell_angle_alpha 90.000000
_cell_angle_beta 107.663572
_cell_angle_gamma 90.000000
_cell_volume 1234.930275
_symmetry_space_group_name_H-M "P 2/C"
_symmetry_group_IT_number 13
_symmetry_cell_setting 'monoclinic'
loop_
_space_group_symop_operation_xyz
x,y,z
-x,y,1/2-z
-x,-y,-z
x,-y,1/2+z
loop_
_atom_site_type_symbol
_atom_site_label
_atom_site_fract_x
_atom_site_fract_y
_atom_site_fract_z
Si Si1 0.796727 0.304795 0.541009
Si Si2 0.000000 0.028444 0.250000
Si Si3 0.058040 0.781680 0.092409
Si Si4 0.721147 0.645601 0.445194
Si Si5 0.500000 0.281635 0.750000
Si Si6 0.126453 0.501246 0.744646
Si Si7 0.754086 0.789734 0.660716
Si Si8 0.396273 0.920527 0.406128
O O1 0.760636 0.463673 0.473356
O O2 0.833275 0.376660 0.659609
O O3 0.693998 0.176905 0.543105
O O4 0.917277 0.228323 0.520974
O O5 0.946028 0.914571 0.323058
O O6 0.887246 0.129922 0.178304
O O7 0.175387 0.780691 0.052564
O O8 0.087322 0.606476 0.143543
O O9 0.618276 0.639227 0.333026
O O10 0.689074 0.707509 0.548201
O O11 0.552253 0.187958 0.668311
O O12 0.220695 0.643502 0.758465
O O13 0.000000 0.574227 0.750000
O O14 0.672816 0.937346 0.668586
O O15 0.500000 0.000000 0.500000
#
# Coordination Sequence:
#
# PCOD9233743 Si02
#       8
#     4   2   4   4   2   4   4   4
#     4  10  21  42  69  95 134 179 224 291 362 411
#     4  12  20  36  70  96 142 186 218 284 374 412
#     4  11  20  41  66 102 138 181 225 290 362 429
#     4  11  25  42  68 101 139 182 242 293 347 434
#     4  12  26  48  70  96 142 190 246 288 350 420
#     4   9  17  35  63  93 131 168 221 273 346 417
#     4  11  22  41  64 101 135 181 226 295 353 421
#     4  12  25  50  70  95 143 191 238 295 359 420
#
# _framework density 22.673344
#
# number of rings (size 3 to 8) (size 9 to 14) (size 15 to 20)
#    0.000    1.143    5.714    2.143    0.000    1.143 
#    5.143    0.000    0.000    0.000    0.000    0.000 
#    0.000    0.000    0.000    0.000    0.000    0.000 
#
# Total GULP energy -156068.626652 kJ/mol
# GULP energy per Si atom -5573.879523 kJ/mol
# Density = 2.262174 g / cm^3
# Si number density = 22.673344 Si / 1000 Ang^3
#
#
#
# Elastic Constant Matrix: (Units=GPa)
#
#
# Indices 1 2 3 4 5 6 
#
# 1 64.6222 13.0078 31.6026 0.0000 26.9096 0.0000
# 2 13.0078 65.3003 22.1599 0.0000 19.4078 0.0000
# 3 31.6026 22.1599 77.1372 0.0000 22.0763 0.0000
# 4 0.0000 0.0000 0.0000 239.1310 0.0000 161.0962
# 5 26.9096 19.4078 22.0763 0.0000 32.0066 0.0000
# 6 0.0000 0.0000 0.0000 161.0962 0.0000 121.8362
#
#
#
# Elastic Compliance Matrix: (Units=1/GPa)
#
#
# Indices 1 2 3 4 5 6 
#
# 1 0.025812 0.002546 -0.005798 0.000000 -0.019246 0.000000
# 2 0.002546 0.019376 -0.003282 0.000000 -0.011626 0.000000
# 3 -0.005798 -0.003282 0.017839 0.000000 -0.005439 0.000000
# 4 0.000000 0.000000 0.000000 0.038279 0.000000 -0.050614
# 5 -0.019246 -0.011626 -0.005439 0.000000 0.058225 0.000000
# 6 0.000000 0.000000 0.000000 -0.050614 0.000000 0.075131
#
#
# Mechanical properties :
#
#
# Convention : Reuss Voigt Hill
#
# Bulk Modulus (GPa) = 20.01698 37.84448 28.93073
# Shear Modulus (GPa) = 18.91188 87.94741 53.42964
#
# Velocity S-wave (km/s) = 2.89122 6.23483 4.85964
# Velocity P-wave (km/s) = 4.47136 8.27999 6.65400
#
# Compressibility (1/GPa) = 0.04995759
#
# Stress axis : x y z
#
# Youngs Moduli (GPa) = 38.74184 51.61103 56.05695
#
# Poissons Ratio (x) = -0.13140 0.32504
# Poissons Ratio (y) = -0.09864 0.18399
# Poissons Ratio (z) = 0.22464 0.16939
#
# Static dielectric constant tensor:
#      x y z
#    x 2.065700 0.000000 -0.020400 
#    y 0.000000 1.819490 0.000000 
#    z -0.020400 0.000000 1.840700 
# 
# From -- ./inp_files/50131.got.cif
#   From: 2010.05.17/outbox.cif.g08.bks.cpg/sg13_26_cif.got.tgz:50131.got - 2010.06.03 16:44:36.
