data_PCOD9233442
_publ_section_title
;
Structure prediction by ZEFSAII (Michael W. Deem and Ramdas Pophale) SiO2 
 PCOD9233442
Probable space group: P 2/C
;
_chemical_formula_sum "Si O2"
_cell_formula_units_Z 28
_cell_length_a 8.068134
_cell_length_b 25.105653
_cell_length_c 8.614759
_cell_angle_alpha 90.000000
_cell_angle_beta 50.521522
_cell_angle_gamma 90.000000
_cell_volume 1346.877935
_symmetry_space_group_name_H-M "P 2/C"
_symmetry_group_IT_number 13
_symmetry_cell_setting 'monoclinic'
loop_
_space_group_symop_operation_xyz
x,y,z
-x,y,1/2-z
-x,-y,-z
x,-y,1/2+z
loop_
_atom_site_type_symbol
_atom_site_label
_atom_site_fract_x
_atom_site_fract_y
_atom_site_fract_z
Si Si1 0.719229 0.953902 0.702308
Si Si2 0.757590 0.318824 0.963820
Si Si3 0.421577 0.158017 0.121144
Si Si4 0.102726 0.253343 0.341802
Si Si5 0.500000 0.521725 0.250000
Si Si6 0.325225 0.228481 0.723145
Si Si7 0.000000 0.968319 0.250000
Si Si8 0.257853 0.436379 0.604734
O O1 0.500000 0.973802 0.750000
O O2 0.665108 0.901529 0.834127
O O3 0.869839 0.938877 0.464436
O O4 0.835388 0.995326 0.746927
O O5 0.650554 0.273849 0.921347
O O6 0.671529 0.378241 0.998128
O O7 0.000000 0.322079 0.750000
O O8 0.770521 0.295613 0.129109
O O9 0.500000 0.165067 0.250000
O O10 0.241727 0.203007 0.204032
O O11 0.614087 0.172382 0.890846
O O12 0.000000 0.278869 0.250000
O O13 0.911223 0.231607 0.565247
O O14 0.353963 0.483198 0.442209
O O15 0.648703 0.555541 0.277867
O O16 0.500000 0.239170 0.750000
O O17 0.000000 0.439602 0.750000
#
# Coordination Sequence:
#
# PCOD9233442 Si02
#       8
#     4   4   4   4   2   4   2   4
#     4  10  23  41  66  95 124 163 212 259 315 374
#     4   9  21  39  60  87 123 164 203 253 313 372
#     4  11  23  39  61  90 125 163 202 252 312 365
#     4  11  22  39  60  88 127 160 208 252 305 385
#     4  10  22  38  64  94 116 168 212 258 326 376
#     4  11  22  37  58  87 122 163 202 251 303 367
#     4  10  22  44  68  90 128 166 208 266 316 366
#     4  10  21  41  61  89 128 160 208 266 314 375
#
# _framework density 20.788816000000001
#
# number of rings (size 3 to 8) (size 9 to 14) (size 15 to 20)
#    0.000    1.714    2.857    0.857    2.000    3.429 
#    0.000    7.143    0.000    0.000    0.000    0.000 
#    0.000    0.000    0.000    0.000    0.000    0.000 
#
# Total GULP energy -156405.912121 kJ/mol
# GULP energy per Si atom -5585.925433 kJ/mol
# Density = 2.074150 g / cm^3
# Si number density = 20.788816 Si / 1000 Ang^3
#
#
#
# Elastic Constant Matrix: (Units=GPa)
#
#
# Indices 1 2 3 4 5 6 
#
# 1 112.3057 33.9033 12.9699 0.0000 18.6895 0.0000
# 2 33.9033 78.5974 19.8734 0.0000 4.1013 0.0000
# 3 12.9699 19.8734 95.6543 0.0000 -0.4390 0.0000
# 4 0.0000 0.0000 0.0000 33.5715 0.0000 10.5366
# 5 18.6895 4.1013 -0.4390 0.0000 36.8943 0.0000
# 6 0.0000 0.0000 0.0000 10.5366 0.0000 13.1982
#
#
#
# Elastic Compliance Matrix: (Units=1/GPa)
#
#
# Indices 1 2 3 4 5 6 
#
# 1 0.011162 -0.004386 -0.000626 0.000000 -0.005174 0.000000
# 2 -0.004386 0.015239 -0.002569 0.000000 0.000497 0.000000
# 3 -0.000626 -0.002569 0.011076 0.000000 0.000734 0.000000
# 4 0.000000 0.000000 0.000000 0.039746 0.000000 -0.031731
# 5 -0.005174 0.000497 0.000734 0.000000 0.029679 0.000000
# 6 0.000000 0.000000 0.000000 -0.031731 0.000000 0.101100
#
#
# Mechanical properties :
#
#
# Convention : Reuss Voigt Hill
#
# Bulk Modulus (GPa) = 44.81437 46.67229 45.74333
# Shear Modulus (GPa) = 21.68234 31.38685 26.53459
#
# Velocity S-wave (km/s) = 3.23303 3.88982 3.57653
# Velocity P-wave (km/s) = 5.96157 6.53251 6.25356
#
# Compressibility (1/GPa) = 0.02231427
#
# Stress axis : x y z
#
# Youngs Moduli (GPa) = 89.59131 65.62191 90.28291
#
# Poissons Ratio (x) = 0.28785 0.05650
# Poissons Ratio (y) = 0.39299 0.23194
# Poissons Ratio (z) = 0.05607 0.16858
#
# Static dielectric constant tensor:
#      x y z
#    x 1.767640 0.000000 -0.026690 
#    y 0.000000 1.731690 0.000000 
#    z -0.026690 0.000000 1.790400 
# 
# From -- ./inp_files/13658.got.cif
#   From: 2010.05.17/outbox.cif.g08.bks.cpg/sg13_7_cif.got.tgz:13658.got - 2010.06.03 16:44:36.
