data_PCOD9233666
_publ_section_title
;
Structure prediction by ZEFSAII (Michael W. Deem and Ramdas Pophale) SiO2 
 PCOD9233666
Probable space group: P 2/C
;
_chemical_formula_sum "Si O2"
_cell_formula_units_Z 20
_cell_length_a 14.433225
_cell_length_b 5.436723
_cell_length_c 14.563294
_cell_angle_alpha 90.000000
_cell_angle_beta 41.055489
_cell_angle_gamma 90.000000
_cell_volume 750.561863
_symmetry_space_group_name_H-M "P 2/C"
_symmetry_group_IT_number 13
_symmetry_cell_setting 'monoclinic'
loop_
_space_group_symop_operation_xyz
x,y,z
-x,y,1/2-z
-x,-y,-z
x,-y,1/2+z
loop_
_atom_site_type_symbol
_atom_site_label
_atom_site_fract_x
_atom_site_fract_y
_atom_site_fract_z
Si Si1 0.027907 0.395574 0.878543
Si Si2 0.409457 0.749774 0.073479
Si Si3 0.023992 0.885311 0.837091
Si Si4 0.713064 0.668398 0.534366
Si Si5 0.298598 0.171852 0.861842
O O1 0.108934 0.629916 0.776763
O O2 0.880952 0.357794 0.932791
O O3 0.088865 0.123294 0.834340
O O4 0.000000 0.500000 0.000000
O O5 0.318068 0.738534 0.047210
O O6 0.342097 0.758937 0.226241
O O7 0.500000 0.500000 0.000000
O O8 0.500000 0.000000 0.000000
O O9 0.000000 0.938443 0.750000
O O10 0.870570 0.845276 0.995993
O O11 0.655515 0.400002 0.607093
O O12 0.658154 0.897370 0.637758
#
# Coordination Sequence:
#
# PCOD9233666 Si02
#       5
#     4   4   4   4   4
#     4  10  21  42  65  99 139 185 231 285 351 425
#     4  12  26  44  74 105 132 188 246 292 371 437
#     4  10  21  42  65 100 140 184 230 284 353 426
#     4  10  23  45  67 101 144 181 229 302 353 424
#     4  10  23  45  67 101 144 181 228 303 357 424
#
# _framework density 26.646705000000001
#
# number of rings (size 3 to 8) (size 9 to 14) (size 15 to 20)
#    0.000    1.600    0.000    3.600    0.000    4.800 
#   43.200    0.000    0.000    0.000    0.000    0.000 
#    0.000    0.000    0.000    0.000    0.000    0.000 
#
# Total GULP energy -111870.663121 kJ/mol
# GULP energy per Si atom -5593.533156 kJ/mol
# Density = 2.658606 g / cm^3
# Si number density = 26.646705 Si / 1000 Ang^3
#
#
#
# Elastic Constant Matrix: (Units=GPa)
#
#
# Indices 1 2 3 4 5 6 
#
# 1 119.0414 43.1526 51.3674 0.0000 31.7599 0.0000
# 2 43.1526 310.2064 74.7019 0.0000 19.7543 0.0000
# 3 51.3674 74.7019 207.2734 0.0000 39.5496 0.0000
# 4 0.0000 0.0000 0.0000 50.4842 0.0000 22.0842
# 5 31.7599 19.7543 39.5496 0.0000 49.7333 0.0000
# 6 0.0000 0.0000 0.0000 22.0842 0.0000 24.9076
#
#
#
# Elastic Compliance Matrix: (Units=1/GPa)
#
#
# Indices 1 2 3 4 5 6 
#
# 1 0.010729 -0.000827 -0.001316 0.000000 -0.005477 0.000000
# 2 -0.000827 0.003603 -0.001086 0.000000 -0.000039 0.000000
# 3 -0.001316 -0.001086 0.006247 0.000000 -0.003696 0.000000
# 4 0.000000 0.000000 0.000000 0.032359 0.000000 -0.028691
# 5 -0.005477 -0.000039 -0.003696 0.000000 0.026560 0.000000
# 6 0.000000 0.000000 0.000000 -0.028691 0.000000 0.065587
#
#
# Mechanical properties :
#
#
# Convention : Reuss Voigt Hill
#
# Bulk Modulus (GPa) = 70.81304 108.32944 89.57124
# Shear Modulus (GPa) = 32.00001 56.17832 44.08917
#
# Velocity S-wave (km/s) = 3.46916 4.59657 4.07207
# Velocity P-wave (km/s) = 6.53293 8.30141 7.46969
#
# Compressibility (1/GPa) = 0.01412169
#
# Stress axis : x y z
#
# Youngs Moduli (GPa) = 93.20346 277.56847 160.06736
#
# Poissons Ratio (x) = 0.22951 0.21064
# Poissons Ratio (y) = 0.07707 0.17383
# Poissons Ratio (z) = 0.12265 0.30144
#
# Static dielectric constant tensor:
#      x y z
#    x 1.795590 0.000000 -0.024530 
#    y 0.000000 2.173830 0.000000 
#    z -0.024530 0.000000 2.082930 
# 
# From -- ./inp_files/38083.got.cif
#   From: 2010.05.17/outbox.cif.g08.bks.cpg/sg13_20_cif.got.tgz:38083.got - 2010.06.03 16:44:36.
