data_PCOD9233941
_publ_section_title
;
Structure prediction by ZEFSAII (Michael W. Deem and Ramdas Pophale) SiO2 
 PCOD9233941
Probable space group: P 2/C
;
_chemical_formula_sum "Si O2"
_cell_formula_units_Z 30
_cell_length_a 28.741794
_cell_length_b 5.341710
_cell_length_c 24.443382
_cell_angle_alpha 90.000000
_cell_angle_beta 160.238021
_cell_angle_gamma 90.000000
_cell_volume 1268.872445
_symmetry_space_group_name_H-M "P 2/C"
_symmetry_group_IT_number 13
_symmetry_cell_setting 'monoclinic'
loop_
_space_group_symop_operation_xyz
x,y,z
-x,y,1/2-z
-x,-y,-z
x,-y,1/2+z
loop_
_atom_site_type_symbol
_atom_site_label
_atom_site_fract_x
_atom_site_fract_y
_atom_site_fract_z
Si Si1 0.492611 0.951957 0.139553
Si Si2 0.402074 0.340959 0.952887
Si Si3 0.000000 0.756263 0.750000
Si Si4 0.123342 0.170100 0.757564
Si Si5 0.340506 0.680448 0.269989
Si Si6 0.764048 0.323903 0.163692
Si Si7 0.115381 0.411123 0.959298
Si Si8 0.744605 0.878314 0.980204
O O1 0.598599 0.852121 0.210462
O O2 0.590685 0.038251 0.296500
O O3 0.378185 0.742959 0.026642
O O4 0.410776 0.170673 0.016625
O O5 0.350384 0.203618 0.841259
O O6 0.303652 0.581122 0.854430
O O7 0.554910 0.444756 0.113068
O O8 0.000564 0.580045 0.803215
O O9 0.861588 0.915662 0.596432
O O10 0.149462 0.435584 0.758031
O O11 0.967253 0.177785 0.607622
O O12 0.148906 0.927899 0.748317
O O13 0.225466 0.171592 0.923196
O O14 0.195459 0.570182 0.092286
O O15 0.217518 0.335402 0.022594
#
# Coordination Sequence:
#
# PCOD9233941 Si02
#       8
#     4   4   2   4   4   4   4   4
#     4  11  22  43  69  99 139 167 233 280 346 407
#     4  10  21  45  67 100 134 173 225 295 336 400
#     4  12  20  42  60  98 142 164 212 288 342 394
#     4  12  25  45  67  93 143 187 223 268 340 406
#     4  10  22  38  74 102 128 173 224 293 355 386
#     4  11  26  47  65  96 139 186 226 270 332 415
#     4  12  23  40  66 102 133 171 232 282 342 408
#     4  12  24  39  67 102 131 178 219 287 334 401
#
# _framework density 23.643035999999999
#
# number of rings (size 3 to 8) (size 9 to 14) (size 15 to 20)
#    0.000    0.800    6.667    1.200    0.000    0.533 
#    2.400    1.333    0.000    0.000    0.000    0.000 
#    0.000    0.000    0.000    0.000    0.000    0.000 
#
# Total GULP energy -167617.020518 kJ/mol
# GULP energy per Si atom -5587.234017 kJ/mol
# Density = 2.358922 g / cm^3
# Si number density = 23.643036 Si / 1000 Ang^3
#
#
#
# Elastic Constant Matrix: (Units=GPa)
#
#
# Indices 1 2 3 4 5 6 
#
# 1 52.4508 20.4682 29.3435 0.0000 5.2485 0.0000
# 2 20.4682 101.6633 20.5657 0.0000 5.4173 0.0000
# 3 29.3435 20.5657 52.6654 0.0000 -4.4724 0.0000
# 4 0.0000 0.0000 0.0000 31.6468 0.0000 15.1378
# 5 5.2485 5.4173 -4.4724 0.0000 27.3930 0.0000
# 6 0.0000 0.0000 0.0000 15.1378 0.0000 34.5707
#
#
#
# Elastic Compliance Matrix: (Units=1/GPa)
#
#
# Indices 1 2 3 4 5 6 
#
# 1 0.029980 -0.002274 -0.016494 0.000000 -0.007987 0.000000
# 2 -0.002274 0.011074 -0.003251 0.000000 -0.002285 0.000000
# 3 -0.016494 -0.003251 0.030189 0.000000 0.008732 0.000000
# 4 0.000000 0.000000 0.000000 0.039971 0.000000 -0.017502
# 5 -0.007987 -0.002285 0.008732 0.000000 0.039914 0.000000
# 6 0.000000 0.000000 0.000000 -0.017502 0.000000 0.036590
#
#
# Mechanical properties :
#
#
# Convention : Reuss Voigt Hill
#
# Bulk Modulus (GPa) = 36.75959 38.61493 37.68726
# Shear Modulus (GPa) = 20.76210 27.81559 24.28884
#
# Velocity S-wave (km/s) = 2.96657 3.43371 3.20865
# Velocity P-wave (km/s) = 5.22643 5.66466 5.44995
#
# Compressibility (1/GPa) = 0.02720378
#
# Stress axis : x y z
#
# Youngs Moduli (GPa) = 33.35600 90.30431 33.12458
#
# Poissons Ratio (x) = 0.20532 0.54636
# Poissons Ratio (y) = 0.07584 0.10770
# Poissons Ratio (z) = 0.55018 0.29362
#
# Static dielectric constant tensor:
#      x y z
#    x 1.962730 0.000000 0.041010 
#    y 0.000000 1.952210 0.000000 
#    z 0.041010 0.000000 1.874100 
# 
# From -- ./inp_files/94365.got.cif
#   From: 2010.05.17/outbox.cif.g08.bks.cpg/sg13_48_cif.got.tgz:94365.got - 2010.06.03 16:44:36.
