data_PCOD9233701
_publ_section_title
;
Structure prediction by ZEFSAII (Michael W. Deem and Ramdas Pophale) SiO2 
 PCOD9233701
Probable space group: P 2/C
;
_chemical_formula_sum "Si O2"
_cell_formula_units_Z 22
_cell_length_a 8.078252
_cell_length_b 13.775998
_cell_length_c 16.813127
_cell_angle_alpha 90.000000
_cell_angle_beta 146.364723
_cell_angle_gamma 90.000000
_cell_volume 1036.391106
_symmetry_space_group_name_H-M "P 2/C"
_symmetry_group_IT_number 13
_symmetry_cell_setting 'monoclinic'
loop_
_space_group_symop_operation_xyz
x,y,z
-x,y,1/2-z
-x,-y,-z
x,-y,1/2+z
loop_
_atom_site_type_symbol
_atom_site_label
_atom_site_fract_x
_atom_site_fract_y
_atom_site_fract_z
Si Si1 0.372247 0.737330 0.822379
Si Si2 0.816298 0.925686 0.478815
Si Si3 0.989080 0.722883 0.508030
Si Si4 0.682364 0.474396 0.150796
Si Si5 0.750377 0.947050 0.703732
Si Si6 0.500000 0.569362 0.250000
O O1 0.134285 0.717230 0.654803
O O2 0.709805 0.737393 0.922863
O O3 0.327975 0.641961 0.854977
O O4 0.349863 0.838855 0.862409
O O5 0.789997 0.820916 0.428551
O O6 0.054010 0.915359 0.643641
O O7 0.515347 0.979803 0.384324
O O8 0.000000 0.000000 0.500000
O O9 0.782604 0.635472 0.392675
O O10 0.588833 0.509853 0.203667
O O11 0.000000 0.514235 0.250000
O O12 0.500000 0.500000 0.000000
O O13 0.000000 0.996615 0.750000
#
# Coordination Sequence:
#
# PCOD9233701 Si02
#       6
#     4   4   4   4   4   2
#     4  10  21  42  67  93 128 174 230 272 332 413
#     4  11  22  40  65  91 126 173 222 266 324 403
#     4  10  22  39  67  97 126 179 221 272 335 401
#     4  12  26  45  72 102 137 180 228 286 348 407
#     4  11  23  39  62  95 131 171 217 279 339 395
#     4  12  26  44  66 104 142 174 226 290 344 406
#
# _framework density 21.227508
#
# number of rings (size 3 to 8) (size 9 to 14) (size 15 to 20)
#    0.000    1.091    1.818    4.909    2.545    3.636 
#    0.000    0.909    0.000    0.000    0.000    0.000 
#    0.000    0.000    0.000    0.000    0.000    0.000 
#
# Total GULP energy -122472.042767 kJ/mol
# GULP energy per Si atom -5566.911035 kJ/mol
# Density = 2.117919 g / cm^3
# Si number density = 21.227508 Si / 1000 Ang^3
#
#
#
# Elastic Constant Matrix: (Units=GPa)
#
#
# Indices 1 2 3 4 5 6 
#
# 1 139.7652 40.4058 43.5718 0.0000 27.0203 0.0000
# 2 40.4058 121.6188 38.0404 0.0000 12.5214 0.0000
# 3 43.5718 38.0404 117.9216 0.0000 20.6438 0.0000
# 4 0.0000 0.0000 0.0000 15.8985 0.0000 -0.8330
# 5 27.0203 12.5214 20.6438 0.0000 35.2674 0.0000
# 6 0.0000 0.0000 0.0000 -0.8330 0.0000 29.6215
#
#
#
# Elastic Compliance Matrix: (Units=1/GPa)
#
#
# Indices 1 2 3 4 5 6 
#
# 1 0.009346 -0.001965 -0.001881 0.000000 -0.005362 0.000000
# 2 -0.001965 0.009650 -0.002285 0.000000 -0.000583 0.000000
# 3 -0.001881 -0.002285 0.010605 0.000000 -0.003955 0.000000
# 4 0.000000 0.000000 0.000000 0.062992 0.000000 0.001771
# 5 -0.005362 -0.000583 -0.003955 0.000000 0.034985 0.000000
# 6 0.000000 0.000000 0.000000 0.001771 0.000000 0.033809
#
#
# Mechanical properties :
#
#
# Convention : Reuss Voigt Hill
#
# Bulk Modulus (GPa) = 57.67138 69.26018 63.46578
# Shear Modulus (GPa) = 27.86648 33.30998 30.58823
#
# Velocity S-wave (km/s) = 3.62712 3.96560 3.80013
# Velocity P-wave (km/s) = 6.69093 7.32573 7.01552
#
# Compressibility (1/GPa) = 0.01733962
#
# Stress axis : x y z
#
# Youngs Moduli (GPa) = 107.00037 103.62821 94.29814
#
# Poissons Ratio (x) = 0.20359 0.17736
# Poissons Ratio (y) = 0.21022 0.21546
# Poissons Ratio (z) = 0.20125 0.23678
#
# Static dielectric constant tensor:
#      x y z
#    x 1.797780 0.000000 0.002860 
#    y 0.000000 1.793270 0.000000 
#    z 0.002860 0.000000 1.813450 
# 
# From -- ./inp_files/64698.got.cif
#   From: 2010.05.17/outbox.cif.g08.bks.cpg/sg13_33_cif.got.tgz:64698.got - 2010.06.03 16:44:36.
