data_PCOD9233118
_publ_section_title
;
Structure prediction by ZEFSAII (Michael W. Deem and Ramdas Pophale) SiO2 
 PCOD9233118
Probable space group: P 2/C
;
_chemical_formula_sum "Si O2"
_cell_formula_units_Z 20
_cell_length_a 5.162980
_cell_length_b 12.896313
_cell_length_c 18.343675
_cell_angle_alpha 90.000000
_cell_angle_beta 131.243721
_cell_angle_gamma 90.000000
_cell_volume 918.373632
_symmetry_space_group_name_H-M "P 2/C"
_symmetry_group_IT_number 13
_symmetry_cell_setting 'monoclinic'
loop_
_space_group_symop_operation_xyz
x,y,z
-x,y,1/2-z
-x,-y,-z
x,-y,1/2+z
loop_
_atom_site_type_symbol
_atom_site_label
_atom_site_fract_x
_atom_site_fract_y
_atom_site_fract_z
Si Si1 0.773630 0.572963 0.507431
Si Si2 0.041056 0.242079 0.990638
Si Si3 0.889297 0.103168 0.355175
Si Si4 0.803140 0.695289 0.644683
Si Si5 0.088946 0.129323 0.681074
O O1 0.500000 0.500000 0.500000
O O2 0.959909 0.629873 0.608385
O O3 0.000000 0.500000 0.500000
O O4 0.722086 0.678711 0.448679
O O5 0.044831 0.204190 0.907895
O O6 0.062442 0.146401 0.052836
O O7 0.393471 0.306059 0.067991
O O8 0.500000 0.110722 0.250000
O O9 0.108355 0.184870 0.350214
O O10 0.015305 0.987235 0.362890
O O11 0.000000 0.654794 0.750000
O O12 0.500000 0.133549 0.750000
O O13 0.000000 0.146746 0.750000
#
# Coordination Sequence:
#
# PCOD9233118 Si02
#       5
#     4   4   4   4   4
#     4  11  24  45  69  94 132 169 223 287 353 409
#     4  11  24  43  74  97 140 183 229 291 348 404
#     4  10  21  39  66 105 143 180 230 286 337 406
#     4  11  22  40  73 104 136 172 230 285 351 401
#     4  11  27  44  65  98 146 193 237 271 334 419
#
# _framework density 21.777628
#
# number of rings (size 3 to 8) (size 9 to 14) (size 15 to 20)
#    0.000    1.200    4.000    1.200    8.400    0.800 
#    0.000    3.000    0.000    0.000    0.000    0.000 
#    0.000    0.000    0.000    0.000    0.000    0.000 
#
# Total GULP energy -111383.052515 kJ/mol
# GULP energy per Si atom -5569.152626 kJ/mol
# Density = 2.172806 g / cm^3
# Si number density = 21.777628 Si / 1000 Ang^3
#
#
#
# Elastic Constant Matrix: (Units=GPa)
#
#
# Indices 1 2 3 4 5 6 
#
# 1 146.1934 59.5491 56.7894 0.0000 -38.1843 0.0000
# 2 59.5491 117.6342 58.6470 0.0000 -22.6260 0.0000
# 3 56.7894 58.6470 98.4853 0.0000 -41.8771 0.0000
# 4 0.0000 0.0000 0.0000 -14.8013 0.0000 -3.9082
# 5 -38.1843 -22.6260 -41.8771 0.0000 47.8329 0.0000
# 6 0.0000 0.0000 0.0000 -3.9082 0.0000 27.8697
#
#
#
# Elastic Compliance Matrix: (Units=1/GPa)
#
#
# Indices 1 2 3 4 5 6 
#
# 1 0.010186 -0.003309 -0.001770 0.000000 0.005016 0.000000
# 2 -0.003309 0.013191 -0.007037 0.000000 -0.002562 0.000000
# 3 -0.001770 -0.007037 0.021265 0.000000 0.013876 0.000000
# 4 0.000000 0.000000 0.000000 -0.065149 0.000000 -0.009136
# 5 0.005016 -0.002562 0.013876 0.000000 0.035847 0.000000
# 6 0.000000 0.000000 0.000000 -0.009136 0.000000 0.034600
#
#
# Mechanical properties :
#
#
# Convention : Reuss Voigt Hill
#
# Bulk Modulus (GPa) = 48.99420 79.14265 64.06843
# Shear Modulus (GPa) = 61.74754 24.66873 43.20813
#
# Velocity S-wave (km/s) = 5.33059 3.36929 4.45911
# Velocity P-wave (km/s) = 7.77388 7.18028 7.48297
#
# Compressibility (1/GPa) = 0.02041058
#
# Stress axis : x y z
#
# Youngs Moduli (GPa) = 98.17469 75.80670 47.02599
#
# Poissons Ratio (x) = 0.25085 0.08323
# Poissons Ratio (y) = 0.32487 0.33091
# Poissons Ratio (z) = 0.17376 0.53344
#
# Static dielectric constant tensor:
#      x y z
#    x 1.887990 0.000000 -0.019270 
#    y 0.000000 1.818270 0.000000 
#    z -0.019270 0.000000 1.899640 
# 
# From -- ./inp_files/43679.got.cif
#   From: 2010.05.17/outbox.cif.g08.bks.cpg/sg13_22_cif.got.tgz:43679.got - 2010.06.03 16:44:36.
