data_PCOD9233901
_publ_section_title
;
Structure prediction by ZEFSAII (Michael W. Deem and Ramdas Pophale) SiO2 
 PCOD9233901
Probable space group: P 2/C
;
_chemical_formula_sum "Si O2"
_cell_formula_units_Z 22
_cell_length_a 6.267822
_cell_length_b 6.070772
_cell_length_c 25.953931
_cell_angle_alpha 90.000000
_cell_angle_beta 98.634037
_cell_angle_gamma 90.000000
_cell_volume 976.368872
_symmetry_space_group_name_H-M "P 2/C"
_symmetry_group_IT_number 13
_symmetry_cell_setting 'monoclinic'
loop_
_space_group_symop_operation_xyz
x,y,z
-x,y,1/2-z
-x,-y,-z
x,-y,1/2+z
loop_
_atom_site_type_symbol
_atom_site_label
_atom_site_fract_x
_atom_site_fract_y
_atom_site_fract_z
Si Si1 0.867617 0.311650 0.334395
Si Si2 0.254876 0.045084 0.330927
Si Si3 0.500000 0.699084 0.750000
Si Si4 0.445313 0.280061 0.082130
Si Si5 0.233943 0.639072 0.383193
Si Si6 0.901648 0.754895 0.011470
O O1 0.696391 0.410412 0.287975
O O2 0.742308 0.259300 0.382236
O O3 0.001233 0.101006 0.318887
O O4 0.060424 0.472270 0.354585
O O5 0.382905 0.157588 0.289692
O O6 0.362883 0.128112 0.388997
O O7 0.292465 0.788935 0.337105
O O8 0.552945 0.519519 0.088547
O O9 0.332924 0.239808 0.024075
O O10 0.119238 0.750478 0.427839
O O11 0.000000 0.500000 0.000000
O O12 0.000000 0.000000 0.000000
#
# Coordination Sequence:
#
# PCOD9233901 Si02
#       6
#     4   4   2   4   4   4
#     4  10  21  44  66  96 133 177 234 297 365 433
#     4  10  23  42  68  95 133 184 231 307 354 449
#     4  10  22  44  68  94 138 178 240 300 382 434
#     4  10  23  42  67 100 140 183 236 291 358 424
#     4  11  24  42  71 101 141 187 243 298 367 432
#     4  12  26  44  74 108 151 201 245 294 363 441
#
# _framework density 22.532465999999999
#
# number of rings (size 3 to 8) (size 9 to 14) (size 15 to 20)
#    0.000    1.455    1.818    2.182    5.091    3.636 
#    0.000   21.818    0.000    0.000    0.000    0.000 
#    0.000    0.000    0.000    0.000    0.000    0.000 
#
# Total GULP energy -122568.378159 kJ/mol
# GULP energy per Si atom -5571.289916 kJ/mol
# Density = 2.248118 g / cm^3
# Si number density = 22.532466 Si / 1000 Ang^3
#
#
#
# Elastic Constant Matrix: (Units=GPa)
#
#
# Indices 1 2 3 4 5 6 
#
# 1 81.3930 31.7906 10.3669 0.0000 19.0953 0.0000
# 2 31.7906 61.7024 7.5312 0.0000 -3.1021 0.0000
# 3 10.3669 7.5312 73.7241 0.0000 25.3601 0.0000
# 4 0.0000 0.0000 0.0000 16.8689 0.0000 -1.0905
# 5 19.0953 -3.1021 25.3601 0.0000 49.1429 0.0000
# 6 0.0000 0.0000 0.0000 -1.0905 0.0000 22.9687
#
#
#
# Elastic Compliance Matrix: (Units=1/GPa)
#
#
# Indices 1 2 3 4 5 6 
#
# 1 0.017874 -0.009785 0.001322 0.000000 -0.008245 0.000000
# 2 -0.009785 0.021987 -0.003229 0.000000 0.006856 0.000000
# 3 0.001322 -0.003229 0.016967 0.000000 -0.009473 0.000000
# 4 0.000000 0.000000 0.000000 0.059463 0.000000 0.002823
# 5 -0.008245 0.006856 -0.009473 0.000000 0.028874 0.000000
# 6 0.000000 0.000000 0.000000 0.002823 0.000000 0.043672
#
#
# Mechanical properties :
#
#
# Convention : Reuss Voigt Hill
#
# Bulk Modulus (GPa) = 29.89948 35.13300 32.51624
# Shear Modulus (GPa) = 22.38468 28.93816 25.66142
#
# Velocity S-wave (km/s) = 3.15531 3.58758 3.37837
# Velocity P-wave (km/s) = 5.15490 5.72600 5.44793
#
# Compressibility (1/GPa) = 0.03344540
#
# Stress axis : x y z
#
# Youngs Moduli (GPa) = 55.94756 45.48130 58.93932
#
# Poissons Ratio (x) = 0.44504 -0.07795
# Poissons Ratio (y) = 0.54745 0.19029
# Poissons Ratio (z) = -0.07399 0.14684
#
# Static dielectric constant tensor:
#      x y z
#    x 1.819320 0.000000 0.017410 
#    y 0.000000 2.010780 0.000000 
#    z 0.017410 0.000000 1.825320 
# 
# From -- ./inp_files/94569.got.cif
#   From: 2010.05.17/outbox.cif.g08.bks.cpg/sg13_48_cif.got.tgz:94569.got - 2010.06.03 16:44:36.
