data_PCOD9233593
_publ_section_title
;
Structure prediction by ZEFSAII (Michael W. Deem and Ramdas Pophale) SiO2 
 PCOD9233593
Probable space group: P 2/C
;
_chemical_formula_sum "Si O2"
_cell_formula_units_Z 30
_cell_length_a 14.057741
_cell_length_b 6.976614
_cell_length_c 21.050379
_cell_angle_alpha 90.000000
_cell_angle_beta 147.593070
_cell_angle_gamma 90.000000
_cell_volume 1106.438656
_symmetry_space_group_name_H-M "P 2/C"
_symmetry_group_IT_number 13
_symmetry_cell_setting 'monoclinic'
loop_
_space_group_symop_operation_xyz
x,y,z
-x,y,1/2-z
-x,-y,-z
x,-y,1/2+z
loop_
_atom_site_type_symbol
_atom_site_label
_atom_site_fract_x
_atom_site_fract_y
_atom_site_fract_z
Si Si1 0.359403 0.669693 0.081517
Si Si2 0.343878 0.161626 0.212078
Si Si3 0.115491 0.889530 0.155050
Si Si4 0.755127 0.416811 0.851708
Si Si5 0.586533 0.878888 0.605401
Si Si6 0.816962 0.993157 0.569658
Si Si7 0.303015 0.614972 0.434784
Si Si8 0.000000 0.345971 0.250000
O O1 0.227444 0.664192 0.067145
O O2 0.554467 0.630710 0.217009
O O3 0.360612 0.878208 0.049189
O O4 0.311921 0.509447 0.004047
O O5 0.500000 0.126031 0.250000
O O6 0.201003 0.995881 0.142697
O O7 0.239493 0.355794 0.138923
O O8 0.430871 0.188005 0.330751
O O9 0.237294 0.985078 0.280344
O O10 0.919058 0.932080 0.066260
O O11 0.133864 0.670685 0.143603
O O12 0.504423 0.675872 0.530029
O O13 0.500000 0.000000 0.500000
O O14 0.216629 0.823670 0.405043
O O15 0.923688 0.810111 0.657507
O O16 0.156015 0.488411 0.313625
#
# Coordination Sequence:
#
# PCOD9233593 Si02
#       8
#     4   4   4   4   4   4   4   2
#     4  10  22  39  72 101 130 180 239 277 342 428
#     4  10  21  41  69  95 136 177 230 288 348 408
#     4  10  26  41  65 102 141 178 218 299 349 409
#     4  11  20  42  70 101 129 177 235 284 338 417
#     4  10  23  43  69 104 135 179 240 287 348 407
#     4  11  25  45  63 101 143 178 233 283 362 421
#     4  11  22  46  70  98 138 191 227 292 352 407
#     4  10  26  40  74  92 136 194 238 274 342 444
#
# _framework density 27.114021000000001
#
# number of rings (size 3 to 8) (size 9 to 14) (size 15 to 20)
#    0.800    0.800    2.667    1.200    5.600    3.733 
#    0.000    2.667    0.000    0.000    0.000    0.000 
#    0.000    0.000    0.000    0.000    0.000    0.000 
#
# Total GULP energy -167163.283060 kJ/mol
# GULP energy per Si atom -5572.109435 kJ/mol
# Density = 2.705231 g / cm^3
# Si number density = 27.114021 Si / 1000 Ang^3
#
#
#
# Elastic Constant Matrix: (Units=GPa)
#
#
# Indices 1 2 3 4 5 6 
#
# 1 56.4824 29.6573 4.8310 0.0000 20.4105 0.0000
# 2 29.6573 123.6840 21.4406 0.0000 5.6148 0.0000
# 3 4.8310 21.4406 71.9528 0.0000 1.1139 0.0000
# 4 0.0000 0.0000 0.0000 41.3745 0.0000 -6.3253
# 5 20.4105 5.6148 1.1139 0.0000 30.5910 0.0000
# 6 0.0000 0.0000 0.0000 -6.3253 0.0000 23.4303
#
#
#
# Elastic Compliance Matrix: (Units=1/GPa)
#
#
# Indices 1 2 3 4 5 6 
#
# 1 0.026746 -0.005677 0.000156 0.000000 -0.016809 0.000000
# 2 -0.005677 0.009797 -0.002571 0.000000 0.002083 0.000000
# 3 0.000156 -0.002571 0.014656 0.000000 -0.000166 0.000000
# 4 0.000000 0.000000 0.000000 0.025210 0.000000 0.006806
# 5 -0.016809 0.002083 -0.000166 0.000000 0.043528 0.000000
# 6 0.000000 0.000000 0.000000 0.006806 0.000000 0.044517
#
#
# Mechanical properties :
#
#
# Convention : Reuss Voigt Hill
#
# Bulk Modulus (GPa) = 28.55794 40.44189 34.49991
# Shear Modulus (GPa) = 25.99963 32.15852 29.07907
#
# Velocity S-wave (km/s) = 3.09997 3.44764 3.27842
# Velocity P-wave (km/s) = 4.83410 5.54943 5.20407
#
# Compressibility (1/GPa) = 0.03501653
#
# Stress axis : x y z
#
# Youngs Moduli (GPa) = 37.38827 102.06709 68.23112
#
# Poissons Ratio (x) = 0.57947 -0.01066
# Poissons Ratio (y) = 0.21227 0.17539
# Poissons Ratio (z) = -0.00584 0.26237
#
# Static dielectric constant tensor:
#      x y z
#    x 2.170700 0.000000 0.089230 
#    y 0.000000 2.250610 0.000000 
#    z 0.089230 0.000000 2.340110 
# 
# From -- ./inp_files/87323.got.cif
#   From: 2010.05.17/outbox.cif.g08.bks.cpg/sg13_44_cif.got.tgz:87323.got - 2010.06.03 16:44:36.
