data_PCOD9233757
_publ_section_title
;
Structure prediction by ZEFSAII (Michael W. Deem and Ramdas Pophale) SiO2 
 PCOD9233757
Probable space group: P 2/C
;
_chemical_formula_sum "Si O2"
_cell_formula_units_Z 30
_cell_length_a 24.550445
_cell_length_b 6.221191
_cell_length_c 14.075778
_cell_angle_alpha 90.000000
_cell_angle_beta 141.830170
_cell_angle_gamma 90.000000
_cell_volume 1328.586775
_symmetry_space_group_name_H-M "P 2/C"
_symmetry_group_IT_number 13
_symmetry_cell_setting 'monoclinic'
loop_
_space_group_symop_operation_xyz
x,y,z
-x,y,1/2-z
-x,-y,-z
x,-y,1/2+z
loop_
_atom_site_type_symbol
_atom_site_label
_atom_site_fract_x
_atom_site_fract_y
_atom_site_fract_z
Si Si1 0.151068 0.081031 0.806332
Si Si2 0.614326 0.468544 0.998744
Si Si3 0.061370 0.325142 0.139902
Si Si4 0.138593 0.531059 0.418412
Si Si5 0.467166 0.147670 0.871138
Si Si6 0.297366 0.734108 0.063516
Si Si7 0.191542 0.436557 0.700183
Si Si8 0.500000 0.833944 0.750000
O O1 0.128206 0.224835 0.867879
O O2 0.174050 0.231881 0.746043
O O3 0.067913 0.931510 0.662626
O O4 0.234442 0.935911 0.952845
O O5 0.539818 0.331393 0.950677
O O6 0.646083 0.335135 0.950247
O O7 0.569413 0.682817 0.897795
O O8 0.705269 0.525773 0.174916
O O9 0.068472 0.408165 0.257076
O O10 0.152769 0.367937 0.208826
O O11 0.000000 0.500000 0.000000
O O12 0.233162 0.457930 0.506096
O O13 0.141891 0.454862 0.531402
O O14 0.368297 0.233149 0.744561
O O15 0.458306 0.987837 0.770160
O O16 0.500000 0.000000 0.000000
#
# Coordination Sequence:
#
# PCOD9233757 Si02
#       8
#     4   4   4   4   4   4   4   2
#     4  10  21  42  70  94 136 183 222 279 355 404
#     4  12  23  42  61  89 127 176 234 284 344 414
#     4  10  23  45  70 100 137 172 219 274 343 431
#     4  10  24  39  66 102 131 173 227 283 335 420
#     4  12  28  39  60  95 128 180 238 298 351 403
#     4  11  21  43  60  90 131 175 235 285 346 413
#     4  11  24  40  66 100 132 176 228 278 343 419
#     4  12  24  42  62  78 128 174 222 294 352 384
#
# _framework density 22.580383999999999
#
# number of rings (size 3 to 8) (size 9 to 14) (size 15 to 20)
#    0.000    1.067    6.667    0.800    3.733    5.333 
#    0.000    0.000    0.000    9.600    0.000    0.000 
#    0.000    0.000    0.000    0.000    0.000    0.000 
#
# Total GULP energy -167349.520050 kJ/mol
# GULP energy per Si atom -5578.317335 kJ/mol
# Density = 2.252899 g / cm^3
# Si number density = 22.580384 Si / 1000 Ang^3
#
#
#
# Elastic Constant Matrix: (Units=GPa)
#
#
# Indices 1 2 3 4 5 6 
#
# 1 44.5258 6.2047 24.7691 0.0000 -10.7063 0.0000
# 2 6.2047 89.3254 22.3479 0.0000 3.6997 0.0000
# 3 24.7691 22.3479 142.8993 0.0000 2.7621 0.0000
# 4 0.0000 0.0000 0.0000 44.9722 0.0000 7.6807
# 5 -10.7063 3.6997 2.7621 0.0000 40.8935 0.0000
# 6 0.0000 0.0000 0.0000 7.6807 0.0000 12.9208
#
#
#
# Elastic Compliance Matrix: (Units=1/GPa)
#
#
# Indices 1 2 3 4 5 6 
#
# 1 0.026992 -0.001018 -0.004664 0.000000 0.007474 0.000000
# 2 -0.001018 0.011725 -0.001634 0.000000 -0.001217 0.000000
# 3 -0.004664 -0.001634 0.008093 0.000000 -0.001620 0.000000
# 4 0.000000 0.000000 0.000000 0.024749 0.000000 -0.014712
# 5 0.007474 -0.001217 -0.001620 0.000000 0.026630 0.000000
# 6 0.000000 0.000000 0.000000 -0.014712 0.000000 0.086140
#
#
# Mechanical properties :
#
#
# Convention : Reuss Voigt Hill
#
# Bulk Modulus (GPa) = 31.07553 42.59933 36.83743
# Shear Modulus (GPa) = 23.84514 34.65253 29.24883
#
# Velocity S-wave (km/s) = 3.25316 3.92168 3.60296
# Velocity P-wave (km/s) = 5.28231 6.27796 5.80153
#
# Compressibility (1/GPa) = 0.03217966
#
# Stress axis : x y z
#
# Youngs Moduli (GPa) = 37.04759 85.28894 123.56105
#
# Poissons Ratio (x) = 0.08679 0.57628
# Poissons Ratio (y) = 0.03770 0.20187
# Poissons Ratio (z) = 0.17279 0.13934
#
# Static dielectric constant tensor:
#      x y z
#    x 1.862420 0.000000 0.028310 
#    y 0.000000 1.725230 0.000000 
#    z 0.028310 0.000000 1.958530 
# 
# From -- ./inp_files/59212.got.cif
#   From: 2010.05.17/outbox.cif.g08.bks.cpg/sg13_30_cif.got.tgz:59212.got - 2010.06.03 16:44:36.
