data_PCOD9233628
_publ_section_title
;
Structure prediction by ZEFSAII (Michael W. Deem and Ramdas Pophale) SiO2 
 PCOD9233628
Probable space group: P 2/C
;
_chemical_formula_sum "Si O2"
_cell_formula_units_Z 20
_cell_length_a 14.202374
_cell_length_b 4.853915
_cell_length_c 13.235530
_cell_angle_alpha 90.000000
_cell_angle_beta 86.847383
_cell_angle_gamma 90.000000
_cell_volume 911.038402
_symmetry_space_group_name_H-M "P 2/C"
_symmetry_group_IT_number 13
_symmetry_cell_setting 'monoclinic'
loop_
_space_group_symop_operation_xyz
x,y,z
-x,y,1/2-z
-x,-y,-z
x,-y,1/2+z
loop_
_atom_site_type_symbol
_atom_site_label
_atom_site_fract_x
_atom_site_fract_y
_atom_site_fract_z
Si Si1 0.383712 0.724119 0.465286
Si Si2 0.105416 0.500544 0.613986
Si Si3 0.525937 0.757872 0.633319
Si Si4 0.818843 0.001109 0.504830
Si Si5 0.923723 0.225043 0.685059
O O1 0.437022 0.681551 0.568201
O O2 0.387375 0.435401 0.406846
O O3 0.285435 0.874426 0.487849
O O4 0.447369 0.930491 0.394967
O O5 0.124229 0.808284 0.578286
O O6 0.129784 0.412206 0.728447
O O7 0.994933 0.417951 0.616554
O O8 0.166220 0.306080 0.536056
O O9 0.500000 0.721433 0.750000
O O10 0.862103 0.050118 0.613187
O O11 0.000000 0.059887 0.750000
#
# Coordination Sequence:
#
# PCOD9233628 Si02
#       5
#     4   4   4   4   4
#     4  10  23  35  61  86 109 142 190 221 275 339
#     4   9  23  35  57  79 114 151 184 225 278 313
#     4  10  21  42  57  82 114 146 174 231 283 327
#     4  12  20  39  57  84 113 145 185 234 268 324
#     4   8  22  38  55  83 112 152 190 221 272 330
#
# _framework density 21.952973
#
# number of rings (size 3 to 8) (size 9 to 14) (size 15 to 20)
#    1.200    0.800    0.000    3.000    0.000    8.000 
#    0.000    0.000    0.000    0.000    0.000    0.000 
#    0.000    0.000    0.000    0.000    0.000    0.000 
#
# Total GULP energy -111660.799213 kJ/mol
# GULP energy per Si atom -5583.039961 kJ/mol
# Density = 2.190301 g / cm^3
# Si number density = 21.952973 Si / 1000 Ang^3
#
#
#
# Elastic Constant Matrix: (Units=GPa)
#
#
# Indices 1 2 3 4 5 6 
#
# 1 66.0416 -9.3476 24.0402 0.0000 0.7764 0.0000
# 2 -9.3476 73.7458 16.6301 0.0000 3.2742 0.0000
# 3 24.0402 16.6301 133.4470 0.0000 3.9944 0.0000
# 4 0.0000 0.0000 0.0000 21.5039 0.0000 -8.5090
# 5 0.7764 3.2742 3.9944 0.0000 10.1782 0.0000
# 6 0.0000 0.0000 0.0000 -8.5090 0.0000 22.5946
#
#
#
# Elastic Compliance Matrix: (Units=1/GPa)
#
#
# Indices 1 2 3 4 5 6 
#
# 1 0.016791 0.002927 -0.003363 0.000000 -0.000903 0.000000
# 2 0.002927 0.014613 -0.002227 0.000000 -0.004050 0.000000
# 3 -0.003363 -0.002227 0.008447 0.000000 -0.002342 0.000000
# 4 0.000000 0.000000 0.000000 0.054646 0.000000 0.020580
# 5 -0.000903 -0.004050 -0.002342 0.000000 0.100540 0.000000
# 6 0.000000 0.000000 0.000000 0.020580 0.000000 0.052009
#
#
# Mechanical properties :
#
#
# Convention : Reuss Voigt Hill
#
# Bulk Modulus (GPa) = 28.96448 37.32000 33.14224
# Shear Modulus (GPa) = 18.94798 26.98280 22.96539
#
# Velocity S-wave (km/s) = 2.94107 3.50968 3.23788
# Velocity P-wave (km/s) = 4.97551 5.78452 5.39520
#
# Compressibility (1/GPa) = 0.03452505
#
# Stress axis : x y z
#
# Youngs Moduli (GPa) = 59.55628 68.43174 118.38516
#
# Poissons Ratio (x) = -0.20028 0.39807
# Poissons Ratio (y) = -0.17430 0.26365
# Poissons Ratio (z) = 0.20026 0.15240
#
# Static dielectric constant tensor:
#      x y z
#    x 1.813190 0.000000 0.000870 
#    y 0.000000 1.795120 0.000000 
#    z 0.000870 0.000000 1.802100 
# 
# From -- ./inp_files/35316.got.cif
#   From: 2010.05.17/outbox.cif.g08.bks.cpg/sg13_18_cif.got.tgz:35316.got - 2010.06.03 16:44:36.
