data_PCOD9233915
_publ_section_title
;
Structure prediction by ZEFSAII (Michael W. Deem and Ramdas Pophale) SiO2 
 PCOD9233915
Probable space group: P 2/C
;
_chemical_formula_sum "Si O2"
_cell_formula_units_Z 12
_cell_length_a 7.202622
_cell_length_b 8.826951
_cell_length_c 14.676012
_cell_angle_alpha 90.000000
_cell_angle_beta 139.597382
_cell_angle_gamma 90.000000
_cell_volume 604.766979
_symmetry_space_group_name_H-M "P 2/C"
_symmetry_group_IT_number 13
_symmetry_cell_setting 'monoclinic'
loop_
_space_group_symop_operation_xyz
x,y,z
-x,y,1/2-z
-x,-y,-z
x,-y,1/2+z
loop_
_atom_site_type_symbol
_atom_site_label
_atom_site_fract_x
_atom_site_fract_y
_atom_site_fract_z
Si Si1 0.769603 0.203486 0.093449
Si Si2 0.874704 0.145953 0.604324
Si Si3 0.207108 0.358265 0.589777
O O1 0.000000 0.269661 0.250000
O O2 0.885211 0.036833 0.107504
O O3 0.461233 0.185731 0.025429
O O4 0.729883 0.296640 0.987095
O O5 0.000000 0.192562 0.750000
O O6 0.051582 0.228705 0.591993
O O7 0.500000 0.400190 0.750000
O O8 0.000000 0.500000 0.500000
#
# Coordination Sequence:
#
# PCOD9233915 Si02
#       3
#     4   4   4
#     4  10  23  42  70  96 121 162 216 267 316 369
#     4  10  21  44  69  93 124 165 213 267 316 367
#     4  12  27  43  62  94 133 173 209 255 315 381
#
# _framework density 19.842354
#
# number of rings (size 3 to 8) (size 9 to 14) (size 15 to 20)
#    0.000    1.333    3.333    1.000    4.667    2.667 
#    0.000    0.000    0.000    0.000    0.000    0.000 
#    0.000    0.000    0.000    0.000    0.000    0.000 
#
# Total GULP energy -67082.857918 kJ/mol
# GULP energy per Si atom -5590.238160 kJ/mol
# Density = 1.979719 g / cm^3
# Si number density = 19.842354 Si / 1000 Ang^3
#
#
#
# Elastic Constant Matrix: (Units=GPa)
#
#
# Indices 1 2 3 4 5 6 
#
# 1 46.1768 13.7969 27.6091 0.0000 -6.0458 0.0000
# 2 13.7969 31.3819 30.3565 0.0000 5.9123 0.0000
# 3 27.6091 30.3565 177.7837 0.0000 -9.6379 0.0000
# 4 0.0000 0.0000 0.0000 22.1026 0.0000 3.6663
# 5 -6.0458 5.9123 -9.6379 0.0000 34.0115 0.0000
# 6 0.0000 0.0000 0.0000 3.6663 0.0000 7.3064
#
#
#
# Elastic Compliance Matrix: (Units=1/GPa)
#
#
# Indices 1 2 3 4 5 6 
#
# 1 0.026955 -0.011126 -0.001952 0.000000 0.006172 0.000000
# 2 -0.011126 0.045420 -0.006665 0.000000 -0.011762 0.000000
# 3 -0.001952 -0.006665 0.007221 0.000000 0.002858 0.000000
# 4 0.000000 0.000000 0.000000 0.049351 0.000000 -0.024764
# 5 0.006172 -0.011762 0.002858 0.000000 0.033353 0.000000
# 6 0.000000 0.000000 0.000000 -0.024764 0.000000 0.149293
#
#
# Mechanical properties :
#
#
# Convention : Reuss Voigt Hill
#
# Bulk Modulus (GPa) = 24.93082 44.31861 34.62471
# Shear Modulus (GPa) = 13.71932 24.92277 19.32104
#
# Velocity S-wave (km/s) = 2.63233 3.54791 3.12385
# Velocity P-wave (km/s) = 4.67232 6.25839 5.52259
#
# Compressibility (1/GPa) = 0.04011100
#
# Stress axis : x y z
#
# Youngs Moduli (GPa) = 37.09869 22.01657 138.48594
#
# Poissons Ratio (x) = 0.24495 0.27028
# Poissons Ratio (y) = 0.41275 0.92306
# Poissons Ratio (z) = 0.07241 0.14675
#
# Static dielectric constant tensor:
#      x y z
#    x 1.694000 0.000000 0.028750 
#    y 0.000000 1.697930 0.000000 
#    z 0.028750 0.000000 1.709020 
# 
# From -- ./inp_files/8281.got.cif
#   From: 2010.05.17/outbox.cif.g08.bks.cpg/sg13_5_cif.got.tgz:8281.got - 2010.06.03 16:44:36.
