data_PCOD9233007
_publ_section_title
;
Structure prediction by ZEFSAII (Michael W. Deem and Ramdas Pophale) SiO2 
 PCOD9233007
Probable space group: P 2/C
;
_chemical_formula_sum "Si O2"
_cell_formula_units_Z 28
_cell_length_a 8.474031
_cell_length_b 16.378310
_cell_length_c 21.010285
_cell_angle_alpha 90.000000
_cell_angle_beta 27.630519
_cell_angle_gamma 90.000000
_cell_volume 1352.358606
_symmetry_space_group_name_H-M "P 2/C"
_symmetry_group_IT_number 13
_symmetry_cell_setting 'monoclinic'
loop_
_space_group_symop_operation_xyz
x,y,z
-x,y,1/2-z
-x,-y,-z
x,-y,1/2+z
loop_
_atom_site_type_symbol
_atom_site_label
_atom_site_fract_x
_atom_site_fract_y
_atom_site_fract_z
Si Si1 0.206876 0.680044 0.800846
Si Si2 0.513959 0.054763 0.887945
Si Si3 0.731120 0.257529 0.017162
Si Si4 0.247522 0.773459 0.448075
Si Si5 0.737785 0.632114 0.226914
Si Si6 0.785841 0.914537 0.431074
Si Si7 0.100450 0.475800 0.145413
O O1 0.500000 0.668718 0.750000
O O2 0.383991 0.715674 0.674570
O O3 0.003500 0.595784 0.865772
O O4 0.945684 0.746460 0.919936
O O5 0.328513 0.131593 0.923390
O O6 0.580905 0.079044 0.937959
O O7 0.851526 0.051344 0.723768
O O8 0.334271 0.968498 0.965475
O O9 0.750953 0.178892 0.965211
O O10 0.996587 0.238969 0.978846
O O11 0.893758 0.335014 0.924984
O O12 0.554696 0.708800 0.327283
O O13 0.500000 0.614129 0.250000
O O14 0.835775 0.550976 0.229614
O O15 0.000000 0.442173 0.250000
O O16 0.500000 0.500000 0.000000
#
# Coordination Sequence:
#
# PCOD9233007 Si02
#       7
#     4   4   4   4   4   4   4
#     4  10  23  42  61  87 125 165 202 248 308 365
#     4  10  22  39  59  87 123 160 199 241 303 363
#     4  10  21  39  63  88 118 156 209 250 295 357
#     4  10  21  39  62  89 116 158 207 250 295 359
#     4  10  21  40  64  85 119 164 201 246 307 368
#     4  10  22  39  59  87 123 161 197 244 301 363
#     4  12  25  40  61  94 125 154 204 258 301 358
#
# _framework density 20.704567999999998
#
# number of rings (size 3 to 8) (size 9 to 14) (size 15 to 20)
#    0.000    1.714    1.429    2.143    2.000    4.000 
#    0.000    5.714    0.000    0.000    0.000    0.000 
#    0.000    0.000    0.000    0.000    0.000    0.000 
#
# Total GULP energy -156100.991018 kJ/mol
# GULP energy per Si atom -5575.035394 kJ/mol
# Density = 2.065744 g / cm^3
# Si number density = 20.704568 Si / 1000 Ang^3
#
#
#
# Elastic Constant Matrix: (Units=GPa)
#
#
# Indices 1 2 3 4 5 6 
#
# 1 11.5567 24.3272 19.5696 0.0000 -2.6461 0.0000
# 2 24.3272 44.7826 -32.6756 0.0000 -4.8314 0.0000
# 3 19.5696 -32.6756 46.9406 0.0000 5.2453 0.0000
# 4 0.0000 0.0000 0.0000 32.9984 0.0000 6.8621
# 5 -2.6461 -4.8314 5.2453 0.0000 18.2486 0.0000
# 6 0.0000 0.0000 0.0000 6.8621 0.0000 33.9671
#
#
#
# Elastic Compliance Matrix: (Units=1/GPa)
#
#
# Indices 1 2 3 4 5 6 
#
# 1 -0.016026 0.027461 0.026082 0.000000 -0.002550 0.000000
# 2 0.027461 -0.001515 -0.013331 0.000000 0.007413 0.000000
# 3 0.026082 -0.013331 0.001159 0.000000 -0.000081 0.000000
# 4 0.000000 0.000000 0.000000 0.031633 0.000000 -0.006391
# 5 -0.002550 0.007413 -0.000081 0.000000 0.056415 0.000000
# 6 0.000000 0.000000 0.000000 -0.006391 0.000000 0.030731
#
#
# Mechanical properties :
#
#
# Convention : Reuss Voigt Hill
#
# Bulk Modulus (GPa) = 15.61495 13.96912 14.79204
# Shear Modulus (GPa) = 115.41378 23.18007 69.29692
#
# Velocity S-wave (km/s) = 7.47423 3.34962 5.79155
# Velocity P-wave (km/s) = 9.05780 4.66063 7.20296
#
# Compressibility (1/GPa) = 0.06404117
#
# Stress axis : x y z
#
# Youngs Moduli (GPa) = -62.40032 -660.10135 862.78101
#
# Poissons Ratio (x) = 18.12700 -22.50281
# Poissons Ratio (y) = 1.71357 11.50204
# Poissons Ratio (z) = 1.62751 -8.80004
#
# Static dielectric constant tensor:
#      x y z
#    x 1.760990 0.000000 0.003880 
#    y 0.000000 1.718780 0.000000 
#    z 0.003880 0.000000 1.774770 
# 
# From -- ./inp_files/76705.got.cif
#   From: 2010.05.17/outbox.cif.g08.bks.cpg/sg13_39_cif.got.tgz:76705.got - 2010.06.03 16:44:36.
