data_PCOD9233944
_publ_section_title
;
Structure prediction by ZEFSAII (Michael W. Deem and Ramdas Pophale) SiO2 
 PCOD9233944
Probable space group: P 2/C
;
_chemical_formula_sum "Si O2"
_cell_formula_units_Z 20
_cell_length_a 6.346413
_cell_length_b 5.900555
_cell_length_c 21.603016
_cell_angle_alpha 90.000000
_cell_angle_beta 106.709948
_cell_angle_gamma 90.000000
_cell_volume 774.814936
_symmetry_space_group_name_H-M "P 2/C"
_symmetry_group_IT_number 13
_symmetry_cell_setting 'monoclinic'
loop_
_space_group_symop_operation_xyz
x,y,z
-x,y,1/2-z
-x,-y,-z
x,-y,1/2+z
loop_
_atom_site_type_symbol
_atom_site_label
_atom_site_fract_x
_atom_site_fract_y
_atom_site_fract_z
Si Si1 0.156128 0.838227 0.927921
Si Si2 0.736718 0.219554 0.731301
Si Si3 0.091527 0.244265 0.557133
Si Si4 0.513071 0.925164 0.878511
Si Si5 0.792484 0.395096 0.327458
O O1 0.397595 0.793126 0.924024
O O2 0.999200 0.768634 0.857267
O O3 0.100617 0.697680 0.985302
O O4 0.124014 0.102351 0.942594
O O5 0.500000 0.161793 0.750000
O O6 0.771230 0.472370 0.761564
O O7 0.000000 0.141142 0.750000
O O8 0.647956 0.122568 0.659459
O O9 0.163669 0.415003 0.616418
O O10 0.271150 0.044376 0.578903
O O11 0.584401 0.750933 0.831256
#
# Coordination Sequence:
#
# PCOD9233944 Si02
#       5
#     4   4   4   4   4
#     4  10  23  42  74 103 144 191 237 300 368 441
#     4  12  28  52  74 103 148 197 247 310 367 436
#     4  10  21  45  69 105 146 184 237 303 368 442
#     4  11  25  45  69 104 140 191 246 300 370 434
#     4  11  25  45  69 106 141 190 248 300 368 436
#
# _framework density 25.812619000000002
#
# number of rings (size 3 to 8) (size 9 to 14) (size 15 to 20)
#    0.000    1.200    2.000    2.400    5.600    3.200 
#    0.000    0.000    0.000    0.000    0.000    0.000 
#    0.000    0.000    0.000    0.000    0.000    0.000 
#
# Total GULP energy -111360.131362 kJ/mol
# GULP energy per Si atom -5568.006568 kJ/mol
# Density = 2.575387 g / cm^3
# Si number density = 25.812619 Si / 1000 Ang^3
#
#
#
# Elastic Constant Matrix: (Units=GPa)
#
#
# Indices 1 2 3 4 5 6 
#
# 1 120.0296 8.1593 19.0839 0.0000 -17.0707 0.0000
# 2 8.1593 64.9138 41.0438 0.0000 -3.1862 0.0000
# 3 19.0839 41.0438 78.5972 0.0000 10.8700 0.0000
# 4 0.0000 0.0000 0.0000 57.7495 0.0000 10.4333
# 5 -17.0707 -3.1862 10.8700 0.0000 35.0549 0.0000
# 6 0.0000 0.0000 0.0000 10.4333 0.0000 22.7228
#
#
#
# Elastic Compliance Matrix: (Units=1/GPa)
#
#
# Indices 1 2 3 4 5 6 
#
# 1 0.009745 0.001661 -0.004086 0.000000 0.006163 0.000000
# 2 0.001661 0.024591 -0.014278 0.000000 0.007471 0.000000
# 3 -0.004086 -0.014278 0.022595 0.000000 -0.010294 0.000000
# 4 0.000000 0.000000 0.000000 0.018883 0.000000 -0.008670
# 5 0.006163 0.007471 -0.010294 0.000000 0.035399 0.000000
# 6 0.000000 0.000000 0.000000 -0.008670 0.000000 0.047989
#
#
# Mechanical properties :
#
#
# Convention : Reuss Voigt Hill
#
# Bulk Modulus (GPa) = 42.50878 44.45719 43.48298
# Shear Modulus (GPa) = 24.94413 36.12234 30.53324
#
# Velocity S-wave (km/s) = 3.11200 3.74492 3.44303
# Velocity P-wave (km/s) = 5.42371 5.99664 5.71736
#
# Compressibility (1/GPa) = 0.02352455
#
# Stress axis : x y z
#
# Youngs Moduli (GPa) = 102.62187 40.66580 44.25796
#
# Poissons Ratio (x) = -0.06755 0.18083
# Poissons Ratio (y) = -0.17046 0.63191
# Poissons Ratio (z) = 0.41929 0.58063
#
# Static dielectric constant tensor:
#      x y z
#    x 2.106930 0.000000 -0.043490 
#    y 0.000000 2.076970 0.000000 
#    z -0.043490 0.000000 2.032090 
# 
# From -- ./inp_files/94639.got.cif
#   From: 2010.05.17/outbox.cif.g08.bks.cpg/sg13_48_cif.got.tgz:94639.got - 2010.06.03 16:44:36.
