data_PCOD9233280
_publ_section_title
;
Structure prediction by ZEFSAII (Michael W. Deem and Ramdas Pophale) SiO2 
 PCOD9233280
Probable space group: P 2/C
;
_chemical_formula_sum "Si O2"
_cell_formula_units_Z 16
_cell_length_a 16.402486
_cell_length_b 9.643556
_cell_length_c 9.146855
_cell_angle_alpha 90.000000
_cell_angle_beta 148.547696
_cell_angle_gamma 90.000000
_cell_volume 754.941439
_symmetry_space_group_name_H-M "P 2/C"
_symmetry_group_IT_number 13
_symmetry_cell_setting 'monoclinic'
loop_
_space_group_symop_operation_xyz
x,y,z
-x,y,1/2-z
-x,-y,-z
x,-y,1/2+z
loop_
_atom_site_type_symbol
_atom_site_label
_atom_site_fract_x
_atom_site_fract_y
_atom_site_fract_z
Si Si1 0.139341 0.053549 0.368929
Si Si2 0.834752 0.666780 0.723737
Si Si3 0.500000 0.788459 0.250000
Si Si4 0.353300 0.937444 0.454664
Si Si5 0.000000 0.463187 0.750000
O O1 0.084657 0.187523 0.196174
O O2 0.265989 0.111217 0.678591
O O3 0.000000 0.990541 0.250000
O O4 0.227913 0.956965 0.391360
O O5 0.648584 0.696382 0.435353
O O6 0.891726 0.557033 0.690266
O O7 0.892800 0.622000 0.972724
O O8 0.578209 0.906566 0.476268
O O9 0.500000 0.859336 0.750000
#
# Coordination Sequence:
#
# PCOD9233280 Si02
#       5
#     4   4   2   4   2
#     4  11  20  38  56  90 118 157 188 235 285 349
#     4  10  21  40  64  82 119 147 201 239 296 330
#     4   8  20  38  58  88 116 152 180 238 282 358
#     4   9  20  36  58  83 124 148 189 229 283 353
#     4  10  22  42  62  86 108 154 198 256 278 336
#
# _framework density 21.193697
#
# number of rings (size 3 to 8) (size 9 to 14) (size 15 to 20)
#    0.750    1.500    1.250    1.500    0.000    1.000 
#   18.000    0.000    2.750    0.000    0.000    0.000 
#    0.000    0.000    0.000    0.000    0.000    0.000 
#
# Total GULP energy -89150.194059 kJ/mol
# GULP energy per Si atom -5571.887129 kJ/mol
# Density = 2.114546 g / cm^3
# Si number density = 21.193697 Si / 1000 Ang^3
#
#
#
# Elastic Constant Matrix: (Units=GPa)
#
#
# Indices 1 2 3 4 5 6 
#
# 1 139.0161 28.8631 69.6402 0.0000 10.4907 0.0000
# 2 28.8631 23.3069 27.5117 0.0000 6.5306 0.0000
# 3 69.6402 27.5117 126.4546 0.0000 -2.3395 0.0000
# 4 0.0000 0.0000 0.0000 29.4406 0.0000 0.2308
# 5 10.4907 6.5306 -2.3395 0.0000 45.1746 0.0000
# 6 0.0000 0.0000 0.0000 0.2308 0.0000 10.2130
#
#
#
# Elastic Compliance Matrix: (Units=1/GPa)
#
#
# Indices 1 2 3 4 5 6 
#
# 1 0.011249 -0.008234 -0.004434 0.000000 -0.001652 0.000000
# 2 -0.008234 0.067666 -0.010343 0.000000 -0.008406 0.000000
# 3 -0.004434 -0.010343 0.012659 0.000000 0.003180 0.000000
# 4 0.000000 0.000000 0.000000 0.033973 0.000000 -0.000768
# 5 -0.001652 -0.008406 0.003180 0.000000 0.023900 0.000000
# 6 0.000000 0.000000 0.000000 -0.000768 0.000000 0.097932
#
#
# Mechanical properties :
#
#
# Convention : Reuss Voigt Hill
#
# Bulk Modulus (GPa) = 21.95244 60.08972 41.02108
# Shear Modulus (GPa) = 16.20308 27.81647 22.00978
#
# Velocity S-wave (km/s) = 2.76800 3.62676 3.22608
# Velocity P-wave (km/s) = 4.53831 6.77879 5.76837
#
# Compressibility (1/GPa) = 0.04555302
#
# Stress axis : x y z
#
# Youngs Moduli (GPa) = 88.89817 14.77843 78.99571
#
# Poissons Ratio (x) = 0.12168 0.35028
# Poissons Ratio (y) = 0.73196 0.81703
# Poissons Ratio (z) = 0.39418 0.15285
#
# Static dielectric constant tensor:
#      x y z
#    x 1.797130 0.000000 0.031240 
#    y 0.000000 1.745610 0.000000 
#    z 0.031240 0.000000 1.817160 
# 
# From -- ./inp_files/11059.got.cif
#   From: 2010.05.17/outbox.cif.g08.bks.cpg/sg13_6_cif.got.tgz:11059.got - 2010.06.03 16:44:36.
