data_PCOD9233848
_publ_section_title
;
Structure prediction by ZEFSAII (Michael W. Deem and Ramdas Pophale) SiO2 
 PCOD9233848
Probable space group: P 2/C
;
_chemical_formula_sum "Si O2"
_cell_formula_units_Z 30
_cell_length_a 12.915029
_cell_length_b 7.709132
_cell_length_c 14.999063
_cell_angle_alpha 90.000000
_cell_angle_beta 65.984423
_cell_angle_gamma 90.000000
_cell_volume 1364.088575
_symmetry_space_group_name_H-M "P 2/C"
_symmetry_group_IT_number 13
_symmetry_cell_setting 'monoclinic'
loop_
_space_group_symop_operation_xyz
x,y,z
-x,y,1/2-z
-x,-y,-z
x,-y,1/2+z
loop_
_atom_site_type_symbol
_atom_site_label
_atom_site_fract_x
_atom_site_fract_y
_atom_site_fract_z
Si Si1 0.385247 0.614336 0.342680
Si Si2 0.217884 0.004965 0.222226
Si Si3 0.959448 0.496115 0.410402
Si Si4 0.622883 0.968622 0.675788
Si Si5 0.381007 0.090891 0.521998
Si Si6 0.707205 0.456625 0.947119
Si Si7 0.797407 0.593887 0.236529
Si Si8 0.000000 0.212082 0.250000
O O1 0.500000 0.556583 0.250000
O O2 0.384943 0.823350 0.335283
O O3 0.362239 0.560408 0.453176
O O4 0.276379 0.552522 0.324434
O O5 0.286432 0.077140 0.281989
O O6 0.290376 0.021492 0.107243
O O7 0.213935 0.798145 0.239118
O O8 0.099009 0.092992 0.252912
O O9 0.834340 0.581080 0.443371
O O10 0.953923 0.319026 0.353008
O O11 0.000000 0.500000 0.500000
O O12 0.068931 0.575408 0.323057
O O13 0.500000 0.907539 0.750000
O O14 0.648921 0.897430 0.570545
O O15 0.370875 0.291719 0.552197
O O16 0.500000 0.000000 0.500000
O O17 0.745755 0.520617 0.835303
#
# Coordination Sequence:
#
# PCOD9233848 Si02
#       8
#     4   4   4   4   4   4   4   2
#     4  10  23  42  65 100 134 174 230 281 347 416
#     4  10  25  43  69 100 136 181 230 285 355 415
#     4  12  25  45  70  99 141 179 235 292 355 423
#     4  10  21  43  68  93 135 178 221 286 345 412
#     4  11  24  43  67 101 135 179 233 283 346 421
#     4  11  24  42  67 100 132 187 222 284 354 412
#     4  10  22  45  68  92 138 183 222 284 349 414
#     4  12  28  44  68 108 138 178 236 298 348 432
#
# _framework density 21.992706999999999
#
# number of rings (size 3 to 8) (size 9 to 14) (size 15 to 20)
#    0.000    1.333    4.000    0.000    9.333    1.067 
#    2.400    1.333    0.000    0.000    0.000    0.000 
#    0.000    0.000    0.000    0.000    0.000    0.000 
#
# Total GULP energy -167330.887785 kJ/mol
# GULP energy per Si atom -5577.696259 kJ/mol
# Density = 2.194265 g / cm^3
# Si number density = 21.992707 Si / 1000 Ang^3
#
#
#
# Elastic Constant Matrix: (Units=GPa)
#
#
# Indices 1 2 3 4 5 6 
#
# 1 113.1928 26.5497 21.0618 0.0000 -14.3336 0.0000
# 2 26.5497 37.6466 15.2115 0.0000 -5.3329 0.0000
# 3 21.0618 15.2115 128.9368 0.0000 -2.7504 0.0000
# 4 0.0000 0.0000 0.0000 30.7846 0.0000 -0.3207
# 5 -14.3336 -5.3329 -2.7504 0.0000 43.4021 0.0000
# 6 0.0000 0.0000 0.0000 -0.3207 0.0000 22.2149
#
#
#
# Elastic Compliance Matrix: (Units=1/GPa)
#
#
# Indices 1 2 3 4 5 6 
#
# 1 0.010989 -0.006997 -0.000912 0.000000 0.002711 0.000000
# 2 -0.006997 0.032806 -0.002694 0.000000 0.001549 0.000000
# 3 -0.000912 -0.002694 0.008220 0.000000 -0.000111 0.000000
# 4 0.000000 0.000000 0.000000 0.032489 0.000000 0.000469
# 5 0.002711 0.001549 -0.000111 0.000000 0.024119 0.000000
# 6 0.000000 0.000000 0.000000 0.000469 0.000000 0.045022
#
#
# Mechanical properties :
#
#
# Convention : Reuss Voigt Hill
#
# Bulk Modulus (GPa) = 32.45878 45.04692 38.75285
# Shear Modulus (GPa) = 27.00960 33.74387 30.37673
#
# Velocity S-wave (km/s) = 3.50825 3.92129 3.72051
# Velocity P-wave (km/s) = 5.58582 6.40540 6.00960
#
# Compressibility (1/GPa) = 0.03080830
#
# Stress axis : x y z
#
# Youngs Moduli (GPa) = 91.00284 30.48259 121.65240
#
# Poissons Ratio (x) = 0.21329 0.11091
# Poissons Ratio (y) = 0.63676 0.32776
# Poissons Ratio (z) = 0.08296 0.08213
#
# Static dielectric constant tensor:
#      x y z
#    x 1.771980 0.000000 -0.022810 
#    y 0.000000 1.880380 0.000000 
#    z -0.022810 0.000000 1.830870 
# 
# From -- ./inp_files/50325.got.cif
#   From: 2010.05.17/outbox.cif.g08.bks.cpg/sg13_26_cif.got.tgz:50325.got - 2010.06.03 16:44:36.
