data_PCOD9233418
_publ_section_title
;
Structure prediction by ZEFSAII (Michael W. Deem and Ramdas Pophale) SiO2 
 PCOD9233418
Probable space group: P 2/C
;
_chemical_formula_sum "Si O2"
_cell_formula_units_Z 22
_cell_length_a 18.927087
_cell_length_b 13.975418
_cell_length_c 13.005569
_cell_angle_alpha 90.000000
_cell_angle_beta 19.478215
_cell_angle_gamma 90.000000
_cell_volume 1147.114083
_symmetry_space_group_name_H-M "P 2/C"
_symmetry_group_IT_number 13
_symmetry_cell_setting 'monoclinic'
loop_
_space_group_symop_operation_xyz
x,y,z
-x,y,1/2-z
-x,-y,-z
x,-y,1/2+z
loop_
_atom_site_type_symbol
_atom_site_label
_atom_site_fract_x
_atom_site_fract_y
_atom_site_fract_z
Si Si1 0.238191 0.226371 0.776239
Si Si2 0.595180 0.513449 0.258138
Si Si3 0.000000 0.375084 0.250000
Si Si4 0.500000 0.674901 0.250000
Si Si5 0.483126 0.907270 0.093611
Si Si6 0.500000 0.336975 0.250000
Si Si7 0.797330 0.853534 0.838453
O O1 0.407895 0.176311 0.619082
O O2 0.343099 0.271377 0.531390
O O3 0.126924 0.308880 0.996291
O O4 0.048563 0.154375 0.003955
O O5 0.500000 0.500000 0.500000
O O6 0.456268 0.599469 0.399820
O O7 0.596999 0.412666 0.197651
O O8 0.828194 0.557103 0.933820
O O9 0.305372 0.747665 0.501962
O O10 0.303206 0.914122 0.429753
O O11 0.695035 0.886119 0.870246
O O12 0.500000 0.000000 0.000000
#
# Coordination Sequence:
#
# PCOD9233418 Si02
#       7
#     4   4   2   2   4   2   4
#     4  12  22  45  66  96 130 178 219 266 333 396
#     4  11  22  36  59  94 131 166 221 277 311 370
#     4  12  20  40  70  84 124 186 220 256 328 396
#     4   9  18  36  59  90 120 166 219 254 302 389
#     4  10  22  40  68 101 126 158 221 281 326 397
#     4  11  28  38  59 100 140 168 221 290 324 365
#     4  10  21  40  71  93 119 185 214 251 336 413
#
# _framework density 19.178564000000001
#
# number of rings (size 3 to 8) (size 9 to 14) (size 15 to 20)
#    0.000    1.455    5.455    1.091    0.000    4.364 
#    0.000    1.818    0.000    0.000    0.000    0.000 
#    0.000    0.000    0.000    0.000    0.000    0.000 
#
# Total GULP energy -122668.171886 kJ/mol
# GULP energy per Si atom -5575.825995 kJ/mol
# Density = 1.913491 g / cm^3
# Si number density = 19.178564 Si / 1000 Ang^3
#
#
#
# Elastic Constant Matrix: (Units=GPa)
#
#
# Indices 1 2 3 4 5 6 
#
# 1 132.9262 57.8855 50.1524 0.0000 18.2348 0.0000
# 2 57.8855 80.9832 40.4171 0.0000 15.3435 0.0000
# 3 50.1524 40.4171 76.9854 0.0000 18.9991 0.0000
# 4 0.0000 0.0000 0.0000 21.8096 0.0000 -2.2370
# 5 18.2348 15.3435 18.9991 0.0000 35.0157 0.0000
# 6 0.0000 0.0000 0.0000 -2.2370 0.0000 9.9283
#
#
#
# Elastic Compliance Matrix: (Units=1/GPa)
#
#
# Indices 1 2 3 4 5 6 
#
# 1 0.012007 -0.006230 -0.004251 0.000000 -0.001216 0.000000
# 2 -0.006230 0.020236 -0.005978 0.000000 -0.002379 0.000000
# 3 -0.004251 -0.005978 0.020441 0.000000 -0.006258 0.000000
# 4 0.000000 0.000000 0.000000 0.046936 0.000000 0.010575
# 5 -0.001216 -0.002379 -0.006258 0.000000 0.033630 0.000000
# 6 0.000000 0.000000 0.000000 0.010575 0.000000 0.103104
#
#
# Mechanical properties :
#
#
# Convention : Reuss Voigt Hill
#
# Bulk Modulus (GPa) = 50.59167 65.31163 57.95165
# Shear Modulus (GPa) = 18.12507 22.84673 20.48590
#
# Velocity S-wave (km/s) = 3.07753 3.45521 3.27183
# Velocity P-wave (km/s) = 6.25019 7.07435 6.67500
#
# Compressibility (1/GPa) = 0.01976610
#
# Stress axis : x y z
#
# Youngs Moduli (GPa) = 83.28672 49.41753 48.92021
#
# Poissons Ratio (x) = 0.30789 0.20795
# Poissons Ratio (y) = 0.51890 0.29244
# Poissons Ratio (z) = 0.35403 0.29541
#
# Static dielectric constant tensor:
#      x y z
#    x 1.805250 0.000000 -0.021600 
#    y 0.000000 1.678290 0.000000 
#    z -0.021600 0.000000 1.653080 
# 
# From -- ./inp_files/39375.got.cif
#   From: 2010.05.17/outbox.cif.g08.bks.cpg/sg13_20_cif.got.tgz:39375.got - 2010.06.03 16:44:36.
