data_PCOD9233332
_publ_section_title
;
Structure prediction by ZEFSAII (Michael W. Deem and Ramdas Pophale) SiO2 
 PCOD9233332
Probable space group: P 2/C
;
_chemical_formula_sum "Si O2"
_cell_formula_units_Z 22
_cell_length_a 11.546541
_cell_length_b 4.999670
_cell_length_c 17.664307
_cell_angle_alpha 90.000000
_cell_angle_beta 109.231392
_cell_angle_gamma 90.000000
_cell_volume 962.835341
_symmetry_space_group_name_H-M "P 2/C"
_symmetry_group_IT_number 13
_symmetry_cell_setting 'monoclinic'
loop_
_space_group_symop_operation_xyz
x,y,z
-x,y,1/2-z
-x,-y,-z
x,-y,1/2+z
loop_
_atom_site_type_symbol
_atom_site_label
_atom_site_fract_x
_atom_site_fract_y
_atom_site_fract_z
Si Si1 0.623472 0.510421 0.769183
Si Si2 0.758047 0.284441 0.671997
Si Si3 0.313781 0.868133 0.090404
Si Si4 0.626834 0.627453 0.994227
Si Si5 0.000000 0.365688 0.250000
Si Si6 0.162464 0.099068 0.177064
O O1 0.500000 0.675361 0.750000
O O2 0.646911 0.442045 0.687655
O O3 0.610758 0.261092 0.823314
O O4 0.749168 0.651282 0.819184
O O5 0.711315 0.242689 0.578051
O O6 0.882788 0.454836 0.704391
O O7 0.780927 0.045660 0.736200
O O8 0.184258 0.934809 0.104992
O O9 0.307060 0.629351 0.028707
O O10 0.378381 0.128709 0.067559
O O11 0.500000 0.500000 0.000000
O O12 0.033315 0.192404 0.182665
#
# Coordination Sequence:
#
# PCOD9233332 Si02
#       6
#     4   4   4   4   2   4
#     4  10  21  40  66 100 134 185 234 285 340 417
#     4  10  24  41  71 101 134 187 233 288 344 416
#     4  11  24  45  64 101 145 183 229 284 349 419
#     4  12  26  44  69 104 152 187 226 282 361 424
#     4  10  22  46  72 100 134 176 258 290 346 398
#     4  10  22  44  73  97 139 182 242 294 343 414
#
# _framework density 22.849181000000002
#
# number of rings (size 3 to 8) (size 9 to 14) (size 15 to 20)
#    0.000    1.455    1.818    2.182    5.091    4.364 
#    3.273    1.818    0.000    0.000    0.000    0.000 
#    0.000    0.000    0.000    0.000    0.000    0.000 
#
# Total GULP energy -122615.459038 kJ/mol
# GULP energy per Si atom -5573.429956 kJ/mol
# Density = 2.279718 g / cm^3
# Si number density = 22.849181 Si / 1000 Ang^3
#
#
#
# Elastic Constant Matrix: (Units=GPa)
#
#
# Indices 1 2 3 4 5 6 
#
# 1 137.9137 39.3254 32.9543 0.0000 -28.3090 0.0000
# 2 39.3254 116.8093 32.7092 0.0000 -24.8831 0.0000
# 3 32.9543 32.7092 104.6660 0.0000 -23.1518 0.0000
# 4 0.0000 0.0000 0.0000 30.3039 0.0000 -26.7990
# 5 -28.3090 -24.8831 -23.1518 0.0000 27.6058 0.0000
# 6 0.0000 0.0000 0.0000 -26.7990 0.0000 33.4182
#
#
#
# Elastic Compliance Matrix: (Units=1/GPa)
#
#
# Indices 1 2 3 4 5 6 
#
# 1 0.009417 -0.001272 -0.000841 0.000000 0.007804 0.000000
# 2 -0.001272 0.010955 -0.001384 0.000000 0.007409 0.000000
# 3 -0.000841 -0.001384 0.012013 0.000000 0.007965 0.000000
# 4 0.000000 0.000000 0.000000 0.113468 0.000000 0.090993
# 5 0.007804 0.007409 0.007965 0.000000 0.057586 0.000000
# 6 0.000000 0.000000 0.000000 0.090993 0.000000 0.102893
#
#
# Mechanical properties :
#
#
# Convention : Reuss Voigt Hill
#
# Bulk Modulus (GPa) = 39.38464 63.26297 51.32381
# Shear Modulus (GPa) = 15.53805 35.22559 25.38182
#
# Velocity S-wave (km/s) = 2.61056 3.93065 3.33654
# Velocity P-wave (km/s) = 5.13429 6.95323 6.11180
#
# Compressibility (1/GPa) = 0.02539061
#
# Stress axis : x y z
#
# Youngs Moduli (GPa) = 106.19531 91.28083 83.24046
#
# Poissons Ratio (x) = 0.11613 0.07000
# Poissons Ratio (y) = 0.13510 0.11522
# Poissons Ratio (z) = 0.08930 0.12635
#
# Static dielectric constant tensor:
#      x y z
#    x 1.909310 0.000000 -0.032190 
#    y 0.000000 1.973590 0.000000 
#    z -0.032190 0.000000 1.847050 
# 
# From -- ./inp_files/65127.got.cif
#   From: 2010.05.17/outbox.cif.g08.bks.cpg/sg13_33_cif.got.tgz:65127.got - 2010.06.03 16:44:36.
