data_PCOD9233210
_publ_section_title
;
Structure prediction by ZEFSAII (Michael W. Deem and Ramdas Pophale) SiO2 
 PCOD9233210
Probable space group: P 2/C
;
_chemical_formula_sum "Si O2"
_cell_formula_units_Z 30
_cell_length_a 20.758157
_cell_length_b 6.577804
_cell_length_c 21.250680
_cell_angle_alpha 90.000000
_cell_angle_beta 32.664253
_cell_angle_gamma 90.000000
_cell_volume 1566.055674
_symmetry_space_group_name_H-M "P 2/C"
_symmetry_group_IT_number 13
_symmetry_cell_setting 'monoclinic'
loop_
_space_group_symop_operation_xyz
x,y,z
-x,y,1/2-z
-x,-y,-z
x,-y,1/2+z
loop_
_atom_site_type_symbol
_atom_site_label
_atom_site_fract_x
_atom_site_fract_y
_atom_site_fract_z
Si Si1 0.854251 0.091201 0.822973
Si Si2 0.168444 0.729903 0.570483
Si Si3 0.500000 0.753109 0.750000
Si Si4 0.581367 0.101927 0.842170
Si Si5 0.735737 0.950888 0.607248
Si Si6 0.907913 0.311420 0.905273
Si Si7 0.384014 0.218732 0.546538
Si Si8 0.413837 0.558075 0.425232
O O1 0.843554 0.227075 0.894890
O O2 0.734208 0.107374 0.882346
O O3 0.967307 0.190903 0.695190
O O4 0.873936 0.867732 0.835783
O O5 0.084527 0.549803 0.614290
O O6 0.293434 0.634288 0.491126
O O7 0.198219 0.876451 0.487448
O O8 0.614273 0.889367 0.671216
O O9 0.526484 0.607468 0.669442
O O10 0.615644 0.213627 0.878605
O O11 0.501829 0.254939 0.865945
O O12 0.693825 0.026652 0.709472
O O13 0.498124 0.910741 0.929297
O O14 0.822623 0.755399 0.532241
O O15 0.386796 0.440291 0.512570
#
# Coordination Sequence:
#
# PCOD9233210 Si02
#       8
#     4   4   2   4   4   4   4   4
#     4  10  21  40  60  87 121 153 202 245 303 356
#     4  11  20  37  63  90 119 156 192 251 313 351
#     4  12  20  34  60  90 128 154 184 266 298 358
#     4  11  24  37  60  86 125 162 201 243 292 363
#     4  11  22  37  53  91 122 152 199 244 306 351
#     4  10  22  37  61  88 119 153 193 259 296 356
#     4  11  22  41  58  86 122 162 204 244 289 357
#     4  12  20  36  58  89 120 157 198 239 306 362
#
# _framework density 19.156407000000002
#
# number of rings (size 3 to 8) (size 9 to 14) (size 15 to 20)
#    0.000    1.067    5.333    2.800    0.000    4.267 
#    0.000    0.667    0.000    0.800    0.000    0.000 
#    0.000    0.000    0.000    0.000    0.000    0.000 
#
# Total GULP energy -167555.486110 kJ/mol
# GULP energy per Si atom -5585.182870 kJ/mol
# Density = 1.911281 g / cm^3
# Si number density = 19.156407 Si / 1000 Ang^3
#
#
#
# Elastic Constant Matrix: (Units=GPa)
#
#
# Indices 1 2 3 4 5 6 
#
# 1 25.4147 -11.6335 12.6719 0.0000 1.3020 0.0000
# 2 -11.6335 82.2680 27.7253 0.0000 -0.6998 0.0000
# 3 12.6719 27.7253 93.2375 0.0000 -0.9052 0.0000
# 4 0.0000 0.0000 0.0000 24.8927 0.0000 -4.5269
# 5 1.3020 -0.6998 -0.9052 0.0000 24.6025 0.0000
# 6 0.0000 0.0000 0.0000 -4.5269 0.0000 18.7048
#
#
#
# Elastic Compliance Matrix: (Units=1/GPa)
#
#
# Indices 1 2 3 4 5 6 
#
# 1 0.048983 0.010176 -0.009709 0.000000 -0.002660 0.000000
# 2 0.010176 0.015625 -0.006032 0.000000 -0.000316 0.000000
# 3 -0.009709 -0.006032 0.013847 0.000000 0.000852 0.000000
# 4 0.000000 0.000000 0.000000 0.042022 0.000000 0.010170
# 5 -0.002660 -0.000316 0.000852 0.000000 0.040809 0.000000
# 6 0.000000 0.000000 0.000000 0.010170 0.000000 0.055923
#
#
# Mechanical properties :
#
#
# Convention : Reuss Voigt Hill
#
# Bulk Modulus (GPa) = 14.85362 28.71641 21.78502
# Shear Modulus (GPa) = 19.93774 25.11710 22.52742
#
# Velocity S-wave (km/s) = 3.22962 3.62492 3.43297
# Velocity P-wave (km/s) = 4.65596 5.70466 5.20678
#
# Compressibility (1/GPa) = 0.06732364
#
# Stress axis : x y z
#
# Youngs Moduli (GPa) = 20.41541 64.00144 72.21838
#
# Poissons Ratio (x) = -0.65128 0.70117
# Poissons Ratio (y) = -0.20775 0.43564
# Poissons Ratio (z) = 0.19821 0.38607
#
# Static dielectric constant tensor:
#      x y z
#    x 1.638900 0.000000 -0.002290 
#    y 0.000000 1.705710 0.000000 
#    z -0.002290 0.000000 1.702820 
# 
# From -- ./inp_files/81385.got.cif
#   From: 2010.05.17/outbox.cif.g08.bks.cpg/sg13_41_cif.got.tgz:81385.got - 2010.06.03 16:44:36.
