data_PCOD9233396
_publ_section_title
;
Structure prediction by ZEFSAII (Michael W. Deem and Ramdas Pophale) SiO2 
 PCOD9233396
Probable space group: P 2/C
;
_chemical_formula_sum "Si O2"
_cell_formula_units_Z 22
_cell_length_a 27.790621
_cell_length_b 8.751122
_cell_length_c 13.766463
_cell_angle_alpha 90.000000
_cell_angle_beta 162.960206
_cell_angle_gamma 90.000000
_cell_volume 981.081477
_symmetry_space_group_name_H-M "P 2/C"
_symmetry_group_IT_number 13
_symmetry_cell_setting 'monoclinic'
loop_
_space_group_symop_operation_xyz
x,y,z
-x,y,1/2-z
-x,-y,-z
x,-y,1/2+z
loop_
_atom_site_type_symbol
_atom_site_label
_atom_site_fract_x
_atom_site_fract_y
_atom_site_fract_z
Si Si1 0.243700 0.377617 0.207423
Si Si2 0.550348 0.613567 0.011775
Si Si3 0.381970 0.935482 0.907361
Si Si4 0.500000 0.804608 0.750000
Si Si5 0.728144 0.121005 0.972433
Si Si6 0.952188 0.367717 0.486745
O O1 0.350725 0.514118 0.373720
O O2 0.333628 0.217165 0.368427
O O3 0.197770 0.409830 0.230179
O O4 0.097059 0.361795 0.845622
O O5 0.659930 0.738428 0.276847
O O6 0.500000 0.500000 0.000000
O O7 0.433818 0.710762 0.715325
O O8 0.271077 0.975819 0.598973
O O9 0.572466 0.918162 0.241390
O O10 0.366535 0.080340 0.948091
O O11 0.892907 0.200339 0.332824
O O12 0.000000 0.500000 0.500000
#
# Coordination Sequence:
#
# PCOD9233396 Si02
#       6
#     4   4   4   2   4   4
#     4  11  24  41  68  95 132 176 227 273 331 405
#     4  11  22  39  65 102 127 168 222 280 336 395
#     4  10  21  42  67 101 133 171 224 278 341 410
#     4  10  24  36  62 100 134 168 210 274 342 394
#     4  10  21  40  68  97 137 170 215 281 341 395
#     4  11  24  42  65  95 133 179 221 271 328 396
#
# _framework density 22.424233999999998
#
# number of rings (size 3 to 8) (size 9 to 14) (size 15 to 20)
#    0.000    1.455    3.636    1.091    2.545    1.455 
#    0.000    0.000   16.000    0.000    0.000    0.000 
#    0.000    0.000    0.000    0.000    0.000    0.000 
#
# Total GULP energy -122560.905930 kJ/mol
# GULP energy per Si atom -5570.950270 kJ/mol
# Density = 2.237319 g / cm^3
# Si number density = 22.424234 Si / 1000 Ang^3
#
#
#
# Elastic Constant Matrix: (Units=GPa)
#
#
# Indices 1 2 3 4 5 6 
#
# 1 149.9581 57.0120 26.7969 0.0000 -6.6704 0.0000
# 2 57.0120 98.7779 24.1981 0.0000 -0.1034 0.0000
# 3 26.7969 24.1981 55.8043 0.0000 -14.5594 0.0000
# 4 0.0000 0.0000 0.0000 43.4606 0.0000 -16.7995
# 5 -6.6704 -0.1034 -14.5594 0.0000 27.4064 0.0000
# 6 0.0000 0.0000 0.0000 -16.7995 0.0000 -5.8549
#
#
#
# Elastic Compliance Matrix: (Units=1/GPa)
#
#
# Indices 1 2 3 4 5 6 
#
# 1 0.008819 -0.004611 -0.001950 0.000000 0.001093 0.000000
# 2 -0.004611 0.013951 -0.004777 0.000000 -0.003607 0.000000
# 3 -0.001950 -0.004777 0.024145 0.000000 0.012334 0.000000
# 4 0.000000 0.000000 0.000000 0.010909 0.000000 -0.031303
# 5 0.001093 -0.003607 0.012334 0.000000 0.043293 0.000000
# 6 0.000000 0.000000 0.000000 -0.031303 0.000000 -0.080981
#
#
# Mechanical properties :
#
#
# Convention : Reuss Voigt Hill
#
# Bulk Modulus (GPa) = 41.25378 57.83937 49.54657
# Shear Modulus (GPa) = 98.24653 26.10467 62.17560
#
# Velocity S-wave (km/s) = 6.62629 3.41563 5.27135
# Velocity P-wave (km/s) = 8.77386 6.43464 7.69367
#
# Compressibility (1/GPa) = 0.02424021
#
# Stress axis : x y z
#
# Youngs Moduli (GPa) = 113.39582 71.67705 41.41564
#
# Poissons Ratio (x) = 0.33051 0.08076
# Poissons Ratio (y) = 0.52287 0.19783
# Poissons Ratio (z) = 0.22113 0.34237
#
# Static dielectric constant tensor:
#      x y z
#    x 1.888010 0.000000 -0.017540 
#    y 0.000000 1.851540 0.000000 
#    z -0.017540 0.000000 1.929460 
# 
# From -- ./inp_files/59941.got.cif
#   From: 2010.05.17/outbox.cif.g08.bks.cpg/sg13_30_cif.got.tgz:59941.got - 2010.06.03 16:44:36.
