data_PCOD9233220
_publ_section_title
;
Structure prediction by ZEFSAII (Michael W. Deem and Ramdas Pophale) SiO2 
 PCOD9233220
Probable space group: P 2/C
;
_chemical_formula_sum "Si O2"
_cell_formula_units_Z 32
_cell_length_a 18.466491
_cell_length_b 6.391665
_cell_length_c 14.019221
_cell_angle_alpha 90.000000
_cell_angle_beta 86.143188
_cell_angle_gamma 90.000000
_cell_volume 1650.963939
_symmetry_space_group_name_H-M "P 2/C"
_symmetry_group_IT_number 13
_symmetry_cell_setting 'monoclinic'
loop_
_space_group_symop_operation_xyz
x,y,z
-x,y,1/2-z
-x,-y,-z
x,-y,1/2+z
loop_
_atom_site_type_symbol
_atom_site_label
_atom_site_fract_x
_atom_site_fract_y
_atom_site_fract_z
Si Si1 0.183910 0.969531 0.885047
Si Si2 0.301587 0.636381 0.808213
Si Si3 0.353805 0.865337 0.634459
Si Si4 0.915332 0.735058 0.741996
Si Si5 0.188216 0.011894 0.106216
Si Si6 0.535468 0.812714 0.436262
Si Si7 0.600942 0.570393 0.047078
Si Si8 0.820789 0.648927 0.261221
O O1 0.253707 0.820255 0.860787
O O2 0.115071 0.838844 0.852265
O O3 0.186960 0.173460 0.818436
O O4 0.179435 0.031596 0.994786
O O5 0.360046 0.739529 0.732549
O O6 0.337256 0.487997 0.883630
O O7 0.247096 0.504227 0.746718
O O8 0.269762 0.927951 0.629741
O O9 0.373577 0.719496 0.542082
O O10 0.404204 0.070771 0.631497
O O11 0.868629 0.848037 0.829593
O O12 0.891553 0.493398 0.743119
O O13 0.000000 0.764550 0.750000
O O14 0.178007 0.772188 0.139880
O O15 0.467996 0.685518 0.398114
O O16 0.573802 0.646052 0.502494
O O17 0.500000 0.000000 0.500000
#
# Coordination Sequence:
#
# PCOD9233220 Si02
#       8
#     4   4   4   4   4   4   4   4
#     4  10  22  39  63  95 125 162 213 258 312 371
#     4  11  22  37  61  97 120 162 214 261 310 373
#     4  11  21  38  64  93 123 162 210 266 313 368
#     4  10  23  42  60  93 134 163 207 256 311 385
#     4  11  22  40  67  92 122 164 211 263 310 372
#     4   9  21  42  59  85 122 164 202 254 318 374
#     4  10  22  40  64  86 125 163 205 259 319 376
#     4  10  21  40  60  92 126 161 209 257 314 365
#
# _framework density 19.382615999999999
#
# number of rings (size 3 to 8) (size 9 to 14) (size 15 to 20)
#    0.000    1.750    3.750    1.500    3.500    5.500 
#    0.000    8.125    0.000    0.000    0.000    0.000 
#    0.000    0.000    0.000    0.000    0.000    0.000 
#
# Total GULP energy -178659.127159 kJ/mol
# GULP energy per Si atom -5583.097724 kJ/mol
# Density = 1.933850 g / cm^3
# Si number density = 19.382616 Si / 1000 Ang^3
#
#
#
# Elastic Constant Matrix: (Units=GPa)
#
#
# Indices 1 2 3 4 5 6 
#
# 1 99.2007 29.6309 8.7150 0.0000 -10.2292 0.0000
# 2 29.6309 91.2617 7.4833 0.0000 -11.4118 0.0000
# 3 8.7150 7.4833 60.7425 0.0000 -4.2066 0.0000
# 4 0.0000 0.0000 0.0000 15.1790 0.0000 -0.3662
# 5 -10.2292 -11.4118 -4.2066 0.0000 15.6702 0.0000
# 6 0.0000 0.0000 0.0000 -0.3662 0.0000 19.5203
#
#
#
# Elastic Compliance Matrix: (Units=1/GPa)
#
#
# Indices 1 2 3 4 5 6 
#
# 1 0.011600 -0.003052 -0.000935 0.000000 0.005099 0.000000
# 2 -0.003052 0.012906 -0.000651 0.000000 0.007232 0.000000
# 3 -0.000935 -0.000651 0.016917 0.000000 0.003456 0.000000
# 4 0.000000 0.000000 0.000000 0.065910 0.000000 0.001236
# 5 0.005099 0.007232 0.003456 0.000000 0.073338 0.000000
# 6 0.000000 0.000000 0.000000 0.001236 0.000000 0.051252
#
#
# Mechanical properties :
#
#
# Convention : Reuss Voigt Hill
#
# Bulk Modulus (GPa) = 31.10830 38.09594 34.60212
# Shear Modulus (GPa) = 19.84790 23.76561 21.80675
#
# Velocity S-wave (km/s) = 3.20348 3.50541 3.35784
# Velocity P-wave (km/s) = 5.45596 6.00677 5.73798
#
# Compressibility (1/GPa) = 0.03214576
#
# Stress axis : x y z
#
# Youngs Moduli (GPa) = 86.20579 77.48249 59.11316
#
# Poissons Ratio (x) = 0.23648 0.05528
# Poissons Ratio (y) = 0.26311 0.03850
# Poissons Ratio (z) = 0.08062 0.05046
#
# Static dielectric constant tensor:
#      x y z
#    x 1.680890 0.000000 -0.017540 
#    y 0.000000 1.693330 0.000000 
#    z -0.017540 0.000000 1.660470 
# 
# From -- ./inp_files/54665.got.cif
#   From: 2010.05.17/outbox.cif.g08.bks.cpg/sg13_28_cif.got.tgz:54665.got - 2010.06.03 16:44:36.
