data_PCOD9233661
_publ_section_title
;
Structure prediction by ZEFSAII (Michael W. Deem and Ramdas Pophale) SiO2 
 PCOD9233661
Probable space group: P 2/C
;
_chemical_formula_sum "Si O2"
_cell_formula_units_Z 20
_cell_length_a 11.617766
_cell_length_b 6.546228
_cell_length_c 18.782498
_cell_angle_alpha 90.000000
_cell_angle_beta 129.480437
_cell_angle_gamma 90.000000
_cell_volume 1102.542535
_symmetry_space_group_name_H-M "P 2/C"
_symmetry_group_IT_number 13
_symmetry_cell_setting 'monoclinic'
loop_
_space_group_symop_operation_xyz
x,y,z
-x,y,1/2-z
-x,-y,-z
x,-y,1/2+z
loop_
_atom_site_type_symbol
_atom_site_label
_atom_site_fract_x
_atom_site_fract_y
_atom_site_fract_z
Si Si1 0.419568 0.795127 0.146282
Si Si2 0.295584 0.416168 0.010427
Si Si3 0.867290 0.976203 0.004159
Si Si4 0.854499 0.745562 0.644181
Si Si5 0.560616 0.902396 0.595283
O O1 0.500000 0.741771 0.250000
O O2 0.535657 0.924889 0.144549
O O3 0.349494 0.595240 0.083488
O O4 0.278783 0.945227 0.095033
O O5 0.172170 0.256299 0.990012
O O6 0.221516 0.537237 0.915260
O O7 0.447304 0.286789 0.059947
O O8 0.880885 0.110307 0.083512
O O9 0.000000 0.000000 0.000000
O O10 0.729640 0.844059 0.646262
O O11 0.000000 0.715337 0.750000
O O12 0.500000 0.000000 0.500000
#
# Coordination Sequence:
#
# PCOD9233661 Si02
#       5
#     4   4   4   4   4
#     4  10  23  39  62  94 117 160 209 244 300 362
#     4  10  21  42  64  85 126 157 206 250 302 364
#     4  10  23  43  62  83 129 165 193 248 310 358
#     4  11  24  39  61  97 120 158 207 252 309 359
#     4  11  20  42  66  85 123 162 201 255 309 362
#
# _framework density 18.139889
#
# number of rings (size 3 to 8) (size 9 to 14) (size 15 to 20)
#    0.000    1.600    6.000    0.600    2.800    7.200 
#    3.600    0.000    0.000    0.000    0.000    0.000 
#    0.000    0.000    0.000    0.000    0.000    0.000 
#
# Total GULP energy -111385.181610 kJ/mol
# GULP energy per Si atom -5569.259081 kJ/mol
# Density = 1.809860 g / cm^3
# Si number density = 18.139889 Si / 1000 Ang^3
#
#
#
# Elastic Constant Matrix: (Units=GPa)
#
#
# Indices 1 2 3 4 5 6 
#
# 1 112.4903 28.0129 15.9858 0.0000 -5.7114 0.0000
# 2 28.0129 98.1728 23.8447 0.0000 -9.0259 0.0000
# 3 15.9858 23.8447 123.4958 0.0000 5.0335 0.0000
# 4 0.0000 0.0000 0.0000 -0.0360 0.0000 1.1314
# 5 -5.7114 -9.0259 5.0335 0.0000 13.4857 0.0000
# 6 0.0000 0.0000 0.0000 1.1314 0.0000 16.1298
#
#
#
# Elastic Compliance Matrix: (Units=1/GPa)
#
#
# Indices 1 2 3 4 5 6 
#
# 1 0.009741 -0.002280 -0.000941 0.000000 0.002951 0.000000
# 2 -0.002280 0.012156 -0.002380 0.000000 0.008059 0.000000
# 3 -0.000941 -0.002380 0.008895 0.000000 -0.005312 0.000000
# 4 0.000000 0.000000 0.000000 -8.670927 0.000000 0.608189
# 5 0.002951 0.008059 -0.005312 0.000000 0.082779 0.000000
# 6 0.000000 0.000000 0.000000 0.608189 0.000000 0.019338
#
#
# Mechanical properties :
#
#
# Convention : Reuss Voigt Hill
#
# Bulk Modulus (GPa) = 51.04693 52.20507 51.62600
# Shear Modulus (GPa) = -0.58683 23.67027 11.54172
#
# Velocity S-wave (km/s) = -0.56939 3.61622 2.52516
# Velocity P-wave (km/s) = 5.26968 6.80277 6.08470
#
# Compressibility (1/GPa) = 0.01958981
#
# Stress axis : x y z
#
# Youngs Moduli (GPa) = 102.65993 82.26613 112.41808
#
# Poissons Ratio (x) = 0.18754 0.10579
# Poissons Ratio (y) = 0.23403 0.26760
# Poissons Ratio (z) = 0.09661 0.19583
#
# Static dielectric constant tensor:
#      x y z
#    x 1.560800 0.000000 -0.084040 
#    y 0.000000 1.540340 0.000000 
#    z -0.084040 0.000000 1.525150 
# 
# From -- ./inp_files/65153.got.cif
#   From: 2010.05.17/outbox.cif.g08.bks.cpg/sg13_33_cif.got.tgz:65153.got - 2010.06.03 16:44:36.
