data_PCOD9233611
_publ_section_title
;
Structure prediction by ZEFSAII (Michael W. Deem and Ramdas Pophale) SiO2 
 PCOD9233611
Probable space group: P 2/C
;
_chemical_formula_sum "Si O2"
_cell_formula_units_Z 28
_cell_length_a 14.261404
_cell_length_b 7.538239
_cell_length_c 12.759453
_cell_angle_alpha 90.000000
_cell_angle_beta 55.969262
_cell_angle_gamma 90.000000
_cell_volume 1136.792529
_symmetry_space_group_name_H-M "P 2/C"
_symmetry_group_IT_number 13
_symmetry_cell_setting 'monoclinic'
loop_
_space_group_symop_operation_xyz
x,y,z
-x,y,1/2-z
-x,-y,-z
x,-y,1/2+z
loop_
_atom_site_type_symbol
_atom_site_label
_atom_site_fract_x
_atom_site_fract_y
_atom_site_fract_z
Si Si1 0.236763 0.154130 0.411841
Si Si2 0.500000 0.832615 0.750000
Si Si3 0.616219 0.355981 0.609070
Si Si4 0.149202 0.204465 0.967461
Si Si5 0.487671 0.288540 0.026071
Si Si6 0.000000 0.281469 0.250000
Si Si7 0.853934 0.481062 0.169465
Si Si8 0.285571 0.309716 0.576561
O O1 0.370251 0.094485 0.346195
O O2 0.204960 0.325314 0.361513
O O3 0.203455 0.200987 0.553272
O O4 0.164762 0.990889 0.411748
O O5 0.534916 0.741701 0.838629
O O6 0.500000 0.363170 0.750000
O O7 0.723486 0.278190 0.600049
O O8 0.592785 0.240461 0.518705
O O9 0.660581 0.548669 0.541200
O O10 0.092780 0.358852 0.932797
O O11 0.089928 0.186523 0.117694
O O12 0.500000 0.500000 0.000000
O O13 0.611075 0.201961 0.936544
O O14 0.066336 0.398626 0.292594
O O15 0.762794 0.579294 0.299047
#
# Coordination Sequence:
#
# PCOD9233611 Si02
#       8
#     4   2   4   4   4   2   4   4
#     4  11  25  44  72 112 154 193 244 305 375 453
#     4  10  22  40  64 106 158 200 240 294 380 456
#     4  11  21  39  70 108 151 195 249 302 373 458
#     4  12  28  48  75 111 146 196 251 312 381 445
#     4   9  19  30  61 100 140 197 237 286 356 442
#     4  12  28  52  82 102 142 198 260 320 382 438
#     4  12  24  52  78 107 146 196 255 320 374 443
#     4  10  21  41  71 108 147 199 239 298 373 446
#
# _framework density 24.630704999999999
#
# number of rings (size 3 to 8) (size 9 to 14) (size 15 to 20)
#    0.000    1.143    2.857    3.000   10.000    1.714 
#    0.000    5.000    0.000    0.000    0.000    0.000 
#    0.000    0.000    0.000    0.000    0.000    0.000 
#
# Total GULP energy -155974.795428 kJ/mol
# GULP energy per Si atom -5570.528408 kJ/mol
# Density = 2.457464 g / cm^3
# Si number density = 24.630705 Si / 1000 Ang^3
#
#
#
# Elastic Constant Matrix: (Units=GPa)
#
#
# Indices 1 2 3 4 5 6 
#
# 1 93.1056 17.5833 12.0295 0.0000 35.0425 0.0000
# 2 17.5833 98.6391 24.8888 0.0000 7.1765 0.0000
# 3 12.0295 24.8888 124.5822 0.0000 3.7233 0.0000
# 4 0.0000 0.0000 0.0000 17.5264 0.0000 3.1812
# 5 35.0425 7.1765 3.7233 0.0000 38.9749 0.0000
# 6 0.0000 0.0000 0.0000 3.1812 0.0000 20.4368
#
#
#
# Elastic Compliance Matrix: (Units=1/GPa)
#
#
# Indices 1 2 3 4 5 6 
#
# 1 0.016658 -0.001698 -0.000833 0.000000 -0.014585 0.000000
# 2 -0.001698 0.010972 -0.002019 0.000000 -0.000301 0.000000
# 3 -0.000833 -0.002019 0.008501 0.000000 0.000309 0.000000
# 4 0.000000 0.000000 0.000000 0.058716 0.000000 -0.009140
# 5 -0.014585 -0.000301 0.000309 0.000000 0.038797 0.000000
# 6 0.000000 0.000000 0.000000 -0.009140 0.000000 0.050354
#
#
# Mechanical properties :
#
#
# Convention : Reuss Voigt Hill
#
# Bulk Modulus (GPa) = 36.99471 47.25891 42.12681
# Shear Modulus (GPa) = 24.73897 32.84263 28.79080
#
# Velocity S-wave (km/s) = 3.17266 3.65554 3.42263
# Velocity P-wave (km/s) = 5.33604 6.08654 5.72360
#
# Compressibility (1/GPa) = 0.02703089
#
# Stress axis : x y z
#
# Youngs Moduli (GPa) = 60.02976 91.14128 117.62739
#
# Poissons Ratio (x) = 0.15476 0.09803
# Poissons Ratio (y) = 0.10193 0.23749
# Poissons Ratio (z) = 0.05003 0.18402
#
# Static dielectric constant tensor:
#      x y z
#    x 2.156010 0.000000 -0.064480 
#    y 0.000000 2.089590 0.000000 
#    z -0.064480 0.000000 2.061650 
# 
# From -- ./inp_files/36368.got.cif
#   From: 2010.05.17/outbox.cif.g08.bks.cpg/sg13_19_cif.got.tgz:36368.got - 2010.06.03 16:44:36.
