data_PCOD9233782
_publ_section_title
;
Structure prediction by ZEFSAII (Michael W. Deem and Ramdas Pophale) SiO2 
 PCOD9233782
Probable space group: P 2/C
;
_chemical_formula_sum "Si O2"
_cell_formula_units_Z 26
_cell_length_a 11.560671
_cell_length_b 5.665387
_cell_length_c 29.163255
_cell_angle_alpha 90.000000
_cell_angle_beta 28.773675
_cell_angle_gamma 90.000000
_cell_volume 919.412692
_symmetry_space_group_name_H-M "P 2/C"
_symmetry_group_IT_number 13
_symmetry_cell_setting 'monoclinic'
loop_
_space_group_symop_operation_xyz
x,y,z
-x,y,1/2-z
-x,-y,-z
x,-y,1/2+z
loop_
_atom_site_type_symbol
_atom_site_label
_atom_site_fract_x
_atom_site_fract_y
_atom_site_fract_z
Si Si1 0.871945 0.514227 0.358853
Si Si2 0.890068 0.525440 0.961385
Si Si3 0.000000 0.909214 0.250000
Si Si4 0.096974 0.965325 0.019661
Si Si5 0.540880 0.116586 0.435746
Si Si6 0.606927 0.497000 0.309283
Si Si7 0.496519 0.997198 0.305450
O O1 0.861055 0.492100 0.417029
O O2 0.896521 0.773294 0.329980
O O3 0.659003 0.366014 0.410476
O O4 0.143977 0.445038 0.251474
O O5 0.023821 0.294047 0.934562
O O6 0.628226 0.518911 0.076972
O O7 0.006840 0.777900 0.931899
O O8 0.746282 0.029201 0.328683
O O9 0.300003 0.927371 0.989983
O O10 0.243477 0.997795 0.921408
O O11 0.500000 0.000000 0.500000
O O12 0.584462 0.263965 0.285928
O O13 0.623597 0.754740 0.279335
O O14 0.500000 0.973578 0.250000
#
# Coordination Sequence:
#
# PCOD9233782 Si02
#       7
#     4   4   2   4   4   4   4
#     4  12  27  40  67  97 141 189 229 290 354 417
#     4  10  22  42  64  93 131 184 224 282 347 409
#     4  12  28  40  62  98 140 182 248 280 342 418
#     4  10  22  40  65  93 134 171 234 283 336 423
#     4  12  26  43  66  98 140 191 236 284 351 424
#     4  10  24  42  69 101 137 170 238 286 349 434
#     4  10  21  42  73  99 132 180 228 294 364 415
#
# _framework density 28.278921
#
# number of rings (size 3 to 8) (size 9 to 14) (size 15 to 20)
#    0.000    1.231    1.538    3.692   12.923    1.231 
#    0.000    0.000    0.000   22.154    0.000    0.000 
#    0.000    0.000    0.000    0.000    0.000    0.000 
#
# Total GULP energy -145356.914142 kJ/mol
# GULP energy per Si atom -5590.650544 kJ/mol
# Density = 2.821456 g / cm^3
# Si number density = 28.278921 Si / 1000 Ang^3
#
#
#
# Elastic Constant Matrix: (Units=GPa)
#
#
# Indices 1 2 3 4 5 6 
#
# 1 62.9093 47.4364 31.4730 0.0000 24.2110 0.0000
# 2 47.4364 227.0059 57.8233 0.0000 17.5638 0.0000
# 3 31.4730 57.8233 152.1945 0.0000 18.6435 0.0000
# 4 0.0000 0.0000 0.0000 35.4022 0.0000 34.0516
# 5 24.2110 17.5638 18.6435 0.0000 64.7275 0.0000
# 6 0.0000 0.0000 0.0000 34.0516 0.0000 21.5514
#
#
#
# Elastic Compliance Matrix: (Units=1/GPa)
#
#
# Indices 1 2 3 4 5 6 
#
# 1 0.022367 -0.003528 -0.002464 0.000000 -0.006699 0.000000
# 2 -0.003528 0.005476 -0.001379 0.000000 0.000231 0.000000
# 3 -0.002464 -0.001379 0.007718 0.000000 -0.000927 0.000000
# 4 0.000000 0.000000 0.000000 -0.054348 0.000000 0.085871
# 5 -0.006699 0.000231 -0.000927 0.000000 0.018159 0.000000
# 6 0.000000 0.000000 0.000000 0.085871 0.000000 -0.089277
#
#
# Mechanical properties :
#
#
# Convention : Reuss Voigt Hill
#
# Bulk Modulus (GPa) = 48.03590 79.50833 63.77212
# Shear Modulus (GPa) = -73.28875 44.69471 -14.29702
#
# Velocity S-wave (km/s) = -5.09634 3.97986 -2.25093
# Velocity P-wave (km/s) = 4.19605 7.02110 3.98051
#
# Compressibility (1/GPa) = 0.02081776
#
# Stress axis : x y z
#
# Youngs Moduli (GPa) = 44.70818 182.62123 129.57224
#
# Poissons Ratio (x) = 0.64427 0.31932
# Poissons Ratio (y) = 0.15773 0.17870
# Poissons Ratio (z) = 0.11018 0.25187
#
# Static dielectric constant tensor:
#      x y z
#    x 2.206620 0.000000 -0.160120 
#    y 0.000000 2.637440 0.000000 
#    z -0.160120 0.000000 2.158700 
# 
# From -- ./inp_files/96835.got.cif
#   From: 2010.05.17/outbox.cif.g08.bks.cpg/sg13_49_cif.got.tgz:96835.got - 2010.06.03 16:44:36.
