data_PCOD9233393
_publ_section_title
;
Structure prediction by ZEFSAII (Michael W. Deem and Ramdas Pophale) SiO2 
 PCOD9233393
Probable space group: P 2/C
;
_chemical_formula_sum "Si O2"
_cell_formula_units_Z 16
_cell_length_a 4.917485
_cell_length_b 9.712341
_cell_length_c 14.868217
_cell_angle_alpha 90.000000
_cell_angle_beta 115.686522
_cell_angle_gamma 90.000000
_cell_volume 639.936562
_symmetry_space_group_name_H-M "P 2/C"
_symmetry_group_IT_number 13
_symmetry_cell_setting 'monoclinic'
loop_
_space_group_symop_operation_xyz
x,y,z
-x,y,1/2-z
-x,-y,-z
x,-y,1/2+z
loop_
_atom_site_type_symbol
_atom_site_label
_atom_site_fract_x
_atom_site_fract_y
_atom_site_fract_z
Si Si1 0.399085 0.067962 0.580504
Si Si2 0.215710 0.209011 0.073469
Si Si3 0.790958 0.503192 0.853222
Si Si4 0.609002 0.337969 0.583444
O O1 0.610905 0.194132 0.639279
O O2 0.084123 0.147459 0.517085
O O3 0.500000 0.000000 0.500000
O O4 0.361207 0.930472 0.633157
O O5 0.158991 0.333517 0.132907
O O6 0.406399 0.281896 0.021103
O O7 0.500000 0.478350 0.750000
O O8 0.675107 0.431535 0.929227
O O9 0.087175 0.424482 0.864143
#
# Coordination Sequence:
#
# PCOD9233393 Si02
#       4
#     4   4   4   4
#     4   9  20  37  68  96 121 157 218 267 312 360
#     4  10  21  40  68  95 123 164 220 264 309 380
#     4  12  26  40  62  93 132 168 208 261 325 378
#     4  11  22  42  65  93 122 166 213 264 309 381
#
# _framework density 25.002476999999999
#
# number of rings (size 3 to 8) (size 9 to 14) (size 15 to 20)
#    0.000    1.500    2.500    2.250    7.000    0.000 
#    0.000    1.250   11.000    0.000    0.000    0.000 
#    0.000    0.000    0.000    0.000    0.000    0.000 
#
# Total GULP energy -89387.791793 kJ/mol
# GULP energy per Si atom -5586.736987 kJ/mol
# Density = 2.494557 g / cm^3
# Si number density = 25.002477 Si / 1000 Ang^3
#
#
#
# Elastic Constant Matrix: (Units=GPa)
#
#
# Indices 1 2 3 4 5 6 
#
# 1 140.1566 72.9598 5.7062 0.0000 13.5588 0.0000
# 2 72.9598 315.0140 26.8206 0.0000 20.6436 0.0000
# 3 5.7062 26.8206 45.9006 0.0000 8.4765 0.0000
# 4 0.0000 0.0000 0.0000 1.6539 0.0000 8.9216
# 5 13.5588 20.6436 8.4765 0.0000 15.0264 0.0000
# 6 0.0000 0.0000 0.0000 8.9216 0.0000 49.7773
#
#
#
# Elastic Compliance Matrix: (Units=1/GPa)
#
#
# Indices 1 2 3 4 5 6 
#
# 1 0.008544 -0.001673 0.001021 0.000000 -0.005986 0.000000
# 2 -0.001673 0.003886 -0.001513 0.000000 -0.002975 0.000000
# 3 0.001021 -0.001513 0.024926 0.000000 -0.012904 0.000000
# 4 0.000000 0.000000 0.000000 18.225215 0.000000 -3.266516
# 5 -0.005986 -0.002975 -0.012904 0.000000 0.083317 0.000000
# 6 0.000000 0.000000 0.000000 -3.266516 0.000000 0.605549
#
#
# Mechanical properties :
#
#
# Convention : Reuss Voigt Hill
#
# Bulk Modulus (GPa) = 30.28012 79.11605 54.69808
# Shear Modulus (GPa) = 0.26362 39.66383 19.96372
#
# Velocity S-wave (km/s) = 0.32506 3.98728 2.82879
# Velocity P-wave (km/s) = 3.50400 7.27392 5.70911
#
# Compressibility (1/GPa) = 0.03302497
#
# Stress axis : x y z
#
# Youngs Moduli (GPa) = 117.04796 257.34613 40.11811
#
# Poissons Ratio (x) = 0.43064 -0.04097
# Poissons Ratio (y) = 0.19587 0.06070
# Poissons Ratio (z) = -0.11953 0.38940
#
# Static dielectric constant tensor:
#      x y z
#    x 2.081610 0.000000 -0.053140 
#    y 0.000000 2.083530 0.000000 
#    z -0.053140 0.000000 2.086960 
# 
# From -- ./inp_files/60254.got.cif
#   From: 2010.05.17/outbox.cif.g08.bks.cpg/sg13_31_cif.got.tgz:60254.got - 2010.06.03 16:44:36.
