data_PCOD9233860
_publ_section_title
;
Structure prediction by ZEFSAII (Michael W. Deem and Ramdas Pophale) SiO2 
 PCOD9233860
Probable space group: P 2/C
;
_chemical_formula_sum "Si O2"
_cell_formula_units_Z 28
_cell_length_a 11.895085
_cell_length_b 12.739573
_cell_length_c 11.905748
_cell_angle_alpha 90.000000
_cell_angle_beta 125.057999
_cell_angle_gamma 90.000000
_cell_volume 1476.846869
_symmetry_space_group_name_H-M "P 2/C"
_symmetry_group_IT_number 13
_symmetry_cell_setting 'monoclinic'
loop_
_space_group_symop_operation_xyz
x,y,z
-x,y,1/2-z
-x,-y,-z
x,-y,1/2+z
loop_
_atom_site_type_symbol
_atom_site_label
_atom_site_fract_x
_atom_site_fract_y
_atom_site_fract_z
Si Si1 0.500000 0.179040 0.250000
Si Si2 0.892787 0.046641 0.788592
Si Si3 0.272827 0.307882 0.252883
Si Si4 0.566361 0.507411 0.164497
Si Si5 0.251594 0.191841 0.477662
Si Si6 0.636341 0.035020 0.513392
Si Si7 0.031670 0.829145 0.563503
Si Si8 0.500000 0.706644 0.250000
O O1 0.401661 0.250133 0.269345
O O2 0.592257 0.106593 0.384346
O O3 0.000000 0.034139 0.750000
O O4 0.745406 0.085489 0.661310
O O5 0.885712 0.931517 0.842437
O O6 0.960733 0.128983 0.911090
O O7 0.301592 0.431953 0.267802
O O8 0.263871 0.261195 0.372896
O O9 0.136423 0.266460 0.113365
O O10 0.500000 0.472099 0.250000
O O11 0.565074 0.631026 0.191166
O O12 0.500000 0.500000 0.000000
O O13 0.283529 0.069433 0.477814
O O14 0.372935 0.229321 0.628778
O O15 0.096246 0.200303 0.431238
O O16 0.500000 0.000000 0.500000
#
# Coordination Sequence:
#
# PCOD9233860 Si02
#       8
#     2   4   4   4   4   4   4   2
#     4  12  24  36  58  92 120 170 212 260 316 372
#     4  11  21  40  55  81 131 176 214 253 308 376
#     4  12  21  41  64  89 124 165 217 265 327 396
#     4  10  21  43  69  95 121 161 213 280 350 395
#     4  12  23  39  61  93 130 167 215 261 325 394
#     4  12  24  36  56  90 130 168 216 262 305 376
#     4  11  24  37  60  88 124 179 212 253 319 392
#     4  10  24  40  66  96 120 160 214 280 338 390
#
# _framework density 18.959313000000002
#
# number of rings (size 3 to 8) (size 9 to 14) (size 15 to 20)
#    0.429    0.286    6.429    1.714    6.000    0.000 
#    0.000    0.714    0.000    0.000    0.000    0.000 
#    0.000    0.000    0.000    0.000    0.000    0.000 
#
# Total GULP energy -156132.734257 kJ/mol
# GULP energy per Si atom -5576.169081 kJ/mol
# Density = 1.891616 g / cm^3
# Si number density = 18.959313 Si / 1000 Ang^3
#
#
#
# Elastic Constant Matrix: (Units=GPa)
#
#
# Indices 1 2 3 4 5 6 
#
# 1 58.5418 14.2606 19.2346 0.0000 10.6539 0.0000
# 2 14.2606 46.3934 25.4569 0.0000 7.4222 0.0000
# 3 19.2346 25.4569 139.4340 0.0000 10.0894 0.0000
# 4 0.0000 0.0000 0.0000 26.8186 0.0000 17.6181
# 5 10.6539 7.4222 10.0894 0.0000 35.7209 0.0000
# 6 0.0000 0.0000 0.0000 17.6181 0.0000 -51.3605
#
#
#
# Elastic Compliance Matrix: (Units=1/GPa)
#
#
# Indices 1 2 3 4 5 6 
#
# 1 0.019481 -0.004421 -0.001558 0.000000 -0.004452 0.000000
# 2 -0.004421 0.025480 -0.003833 0.000000 -0.002893 0.000000
# 3 -0.001558 -0.003833 0.008162 0.000000 -0.001044 0.000000
# 4 0.000000 0.000000 0.000000 0.030430 0.000000 0.010438
# 5 -0.004452 -0.002893 -0.001044 0.000000 0.030219 0.000000
# 6 0.000000 0.000000 0.000000 0.010438 0.000000 -0.015890
#
#
# Mechanical properties :
#
#
# Convention : Reuss Voigt Hill
#
# Bulk Modulus (GPa) = 29.85156 40.25259 35.05208
# Shear Modulus (GPa) = 38.85857 14.59691 26.72774
#
# Velocity S-wave (km/s) = 4.53214 2.77773 3.75873
# Velocity P-wave (km/s) = 6.57010 5.61826 6.11274
#
# Compressibility (1/GPa) = 0.03349909
#
# Stress axis : x y z
#
# Youngs Moduli (GPa) = 51.33255 39.24701 122.51753
#
# Poissons Ratio (x) = 0.17351 0.19089
# Poissons Ratio (y) = 0.22694 0.46957
# Poissons Ratio (z) = 0.07998 0.15042
#
# Static dielectric constant tensor:
#      x y z
#    x 1.651680 0.000000 -0.010480 
#    y 0.000000 1.658070 0.000000 
#    z -0.010480 0.000000 1.727530 
# 
# From -- ./inp_files/34444.got.cif
#   From: 2010.05.17/outbox.cif.g08.bks.cpg/sg13_18_cif.got.tgz:34444.got - 2010.06.03 16:44:36.
