data_PCOD9233408
_publ_section_title
;
Structure prediction by ZEFSAII (Michael W. Deem and Ramdas Pophale) SiO2 
 PCOD9233408
Probable space group: P 2/C
;
_chemical_formula_sum "Si O2"
_cell_formula_units_Z 24
_cell_length_a 14.536374
_cell_length_b 5.259342
_cell_length_c 13.628762
_cell_angle_alpha 90.000000
_cell_angle_beta 97.016437
_cell_angle_gamma 90.000000
_cell_volume 1034.139918
_symmetry_space_group_name_H-M "P 2/C"
_symmetry_group_IT_number 13
_symmetry_cell_setting 'monoclinic'
loop_
_space_group_symop_operation_xyz
x,y,z
-x,y,1/2-z
-x,-y,-z
x,-y,1/2+z
loop_
_atom_site_type_symbol
_atom_site_label
_atom_site_fract_x
_atom_site_fract_y
_atom_site_fract_z
Si Si1 0.501334 0.552569 0.884722
Si Si2 0.613154 0.059148 0.683369
Si Si3 0.230122 0.002993 0.453403
Si Si4 0.309618 0.673910 0.132129
Si Si5 0.043818 0.202585 0.429420
Si Si6 0.861005 0.397616 0.409949
O O1 0.449536 0.307331 0.836229
O O2 0.607952 0.529056 0.866023
O O3 0.447937 0.809248 0.847326
O O4 0.500000 0.500000 0.000000
O O5 0.695494 0.085767 0.615240
O O6 0.656914 0.093058 0.796543
O O7 0.195465 0.809340 0.533484
O O8 0.281432 0.226169 0.520906
O O9 0.133496 0.084834 0.389092
O O10 0.215726 0.548531 0.161184
O O11 0.091597 0.418858 0.502780
O O12 0.950946 0.296413 0.363636
O O13 0.000000 0.000000 0.500000
#
# Coordination Sequence:
#
# PCOD9233408 Si02
#       6
#     4   4   4   4   4   4
#     4  12  26  48  69  98 138 190 237 291 354 425
#     4  12  28  44  70 103 140 181 238 294 353 424
#     4  10  21  40  69  99 136 180 233 289 353 425
#     4  11  25  41  68  99 139 182 231 292 357 424
#     4   8  16  34  64  99 128 174 226 278 344 418
#     4   9  18  36  67  96 132 176 225 281 350 417
#
# _framework density 23.207692999999999
#
# number of rings (size 3 to 8) (size 9 to 14) (size 15 to 20)
#    0.000    1.667    1.667    2.000    7.000    1.333 
#    0.000    0.000    0.000   46.000    0.000    0.000 
#    0.000    0.000    0.000    0.000    0.000    0.000 
#
# Total GULP energy -134003.040291 kJ/mol
# GULP energy per Si atom -5583.460012 kJ/mol
# Density = 2.315487 g / cm^3
# Si number density = 23.207693 Si / 1000 Ang^3
#
#
#
# Elastic Constant Matrix: (Units=GPa)
#
#
# Indices 1 2 3 4 5 6 
#
# 1 208.1629 65.9406 46.7185 0.0000 24.7349 0.0000
# 2 65.9406 116.0474 11.6150 0.0000 19.3761 0.0000
# 3 46.7185 11.6150 69.4462 0.0000 6.5313 0.0000
# 4 0.0000 0.0000 0.0000 22.4648 0.0000 14.7601
# 5 24.7349 19.3761 6.5313 0.0000 20.7189 0.0000
# 6 0.0000 0.0000 0.0000 14.7601 0.0000 53.6175
#
#
#
# Elastic Compliance Matrix: (Units=1/GPa)
#
#
# Indices 1 2 3 4 5 6 
#
# 1 0.007141 -0.002903 -0.003887 0.000000 -0.004585 0.000000
# 2 -0.002903 0.011439 0.000742 0.000000 -0.007466 0.000000
# 3 -0.003887 0.000742 0.017024 0.000000 -0.001420 0.000000
# 4 0.000000 0.000000 0.000000 0.054343 0.000000 -0.014960
# 5 -0.004585 -0.007466 -0.001420 0.000000 0.061168 0.000000
# 6 0.000000 0.000000 0.000000 -0.014960 0.000000 0.022769
#
#
# Mechanical properties :
#
#
# Convention : Reuss Voigt Hill
#
# Bulk Modulus (GPa) = 42.53977 71.35610 56.94793
# Shear Modulus (GPa) = 25.79771 37.31906 31.55839
#
# Velocity S-wave (km/s) = 3.33769 4.01440 3.69158
# Velocity P-wave (km/s) = 5.76397 7.23192 6.53927
#
# Compressibility (1/GPa) = 0.02350742
#
# Stress axis : x y z
#
# Youngs Moduli (GPa) = 140.04330 87.42043 58.74059
#
# Poissons Ratio (x) = 0.25378 0.22833
# Poissons Ratio (y) = 0.40654 -0.04358
# Poissons Ratio (z) = 0.54435 -0.06485
#
# Static dielectric constant tensor:
#      x y z
#    x 1.885300 0.000000 0.044780 
#    y 0.000000 1.945160 0.000000 
#    z 0.044780 0.000000 1.933930 
# 
# From -- ./inp_files/52290.got.cif
#   From: 2010.05.17/outbox.cif.g08.bks.cpg/sg13_27_cif.got.tgz:52290.got - 2010.06.03 16:44:36.
