data_PCOD9233091
_publ_section_title
;
Structure prediction by ZEFSAII (Michael W. Deem and Ramdas Pophale) SiO2 
 PCOD9233091
Probable space group: P 2/C
;
_chemical_formula_sum "Si O2"
_cell_formula_units_Z 20
_cell_length_a 11.104196
_cell_length_b 6.153617
_cell_length_c 21.910241
_cell_angle_alpha 90.000000
_cell_angle_beta 141.919208
_cell_angle_gamma 90.000000
_cell_volume 923.399008
_symmetry_space_group_name_H-M "P 2/C"
_symmetry_group_IT_number 13
_symmetry_cell_setting 'monoclinic'
loop_
_space_group_symop_operation_xyz
x,y,z
-x,y,1/2-z
-x,-y,-z
x,-y,1/2+z
loop_
_atom_site_type_symbol
_atom_site_label
_atom_site_fract_x
_atom_site_fract_y
_atom_site_fract_z
Si Si1 0.132157 0.670163 0.250047
Si Si2 0.538456 0.664036 0.460076
Si Si3 0.744906 0.358200 0.445265
Si Si4 0.865835 0.984984 0.573140
Si Si5 0.867900 0.396242 0.366321
O O1 0.330888 0.762398 0.357810
O O2 0.193456 0.497132 0.222734
O O3 0.000000 0.561635 0.250000
O O4 0.990520 0.852937 0.164981
O O5 0.500000 0.500000 0.500000
O O6 0.620240 0.524590 0.435591
O O7 0.707423 0.834653 0.543571
O O8 0.740415 0.121704 0.473784
O O9 0.718035 0.368483 0.362058
O O10 0.968659 0.432056 0.546291
O O11 0.019976 0.828688 0.600982
#
# Coordination Sequence:
#
# PCOD9233091 Si02
#       5
#     4   4   4   4   4
#     4  11  24  40  61  90 123 166 211 255 313 375
#     4  11  24  42  62  90 128 164 206 261 316 372
#     4   9  19  37  62  89 121 161 201 251 311 368
#     4  10  21  39  65  92 123 163 209 257 311 374
#     4   9  19  38  61  88 123 159 201 253 308 366
#
# _framework density 21.659110999999999
#
# number of rings (size 3 to 8) (size 9 to 14) (size 15 to 20)
#    0.000    2.000    0.000    4.200    0.000    9.600 
#    0.000    0.000    0.000    0.000    0.000    0.000 
#    0.000    0.000    0.000    0.000    0.000    0.000 
#
# Total GULP energy -111631.781336 kJ/mol
# GULP energy per Si atom -5581.589067 kJ/mol
# Density = 2.160981 g / cm^3
# Si number density = 21.659111 Si / 1000 Ang^3
#
#
#
# Elastic Constant Matrix: (Units=GPa)
#
#
# Indices 1 2 3 4 5 6 
#
# 1 122.6584 36.1883 53.3985 0.0000 -16.6538 0.0000
# 2 36.1883 85.3700 28.2391 0.0000 -6.3737 0.0000
# 3 53.3985 28.2391 95.7381 0.0000 4.1942 0.0000
# 4 0.0000 0.0000 0.0000 23.7269 0.0000 -2.2906
# 5 -16.6538 -6.3737 4.1942 0.0000 30.8344 0.0000
# 6 0.0000 0.0000 0.0000 -2.2906 0.0000 17.3721
#
#
#
# Elastic Compliance Matrix: (Units=1/GPa)
#
#
# Indices 1 2 3 4 5 6 
#
# 1 0.012851 -0.002688 -0.006694 0.000000 0.007296 0.000000
# 2 -0.002688 0.013869 -0.002669 0.000000 0.001778 0.000000
# 3 -0.006694 -0.002669 0.015240 0.000000 -0.006240 0.000000
# 4 0.000000 0.000000 0.000000 0.042690 0.000000 0.005629
# 5 0.007296 0.001778 -0.006240 0.000000 0.037588 0.000000
# 6 0.000000 0.000000 0.000000 0.005629 0.000000 0.058306
#
#
# Mechanical properties :
#
#
# Convention : Reuss Voigt Hill
#
# Bulk Modulus (GPa) = 56.00470 59.93535 57.97003
# Shear Modulus (GPa) = 23.74188 26.78272 25.26230
#
# Velocity S-wave (km/s) = 3.31442 3.52029 3.41891
# Velocity P-wave (km/s) = 6.36873 6.65247 6.51215
#
# Compressibility (1/GPa) = 0.01785564
#
# Stress axis : x y z
#
# Youngs Moduli (GPa) = 77.81672 72.10317 65.61846
#
# Poissons Ratio (x) = 0.19384 0.43926
# Poissons Ratio (y) = 0.20920 0.17515
# Poissons Ratio (z) = 0.52092 0.19246
#
# Static dielectric constant tensor:
#      x y z
#    x 1.813690 0.000000 -0.026900 
#    y 0.000000 1.778850 0.000000 
#    z -0.026900 0.000000 1.836590 
# 
# From -- ./inp_files/77370.got.cif
#   From: 2010.05.17/outbox.cif.g08.bks.cpg/sg13_39_cif.got.tgz:77370.got - 2010.06.03 16:44:36.
