data_PCOD9233198
_publ_section_title
;
Structure prediction by ZEFSAII (Michael W. Deem and Ramdas Pophale) SiO2 
 PCOD9233198
Probable space group: P 2/C
;
_chemical_formula_sum "Si O2"
_cell_formula_units_Z 28
_cell_length_a 24.636413
_cell_length_b 11.769838
_cell_length_c 24.699181
_cell_angle_alpha 90.000000
_cell_angle_beta 168.625670
_cell_angle_gamma 90.000000
_cell_volume 1412.463905
_symmetry_space_group_name_H-M "P 2/C"
_symmetry_group_IT_number 13
_symmetry_cell_setting 'monoclinic'
loop_
_space_group_symop_operation_xyz
x,y,z
-x,y,1/2-z
-x,-y,-z
x,-y,1/2+z
loop_
_atom_site_type_symbol
_atom_site_label
_atom_site_fract_x
_atom_site_fract_y
_atom_site_fract_z
Si Si1 0.748109 0.147740 0.224382
Si Si2 0.575678 0.281649 0.448757
Si Si3 0.939496 0.360894 0.342847
Si Si4 0.422604 0.498609 0.361433
Si Si5 0.871222 0.340808 0.565577
Si Si6 0.236650 0.599812 0.025169
Si Si7 0.203300 0.114077 0.749786
O O1 0.856175 0.246099 0.291588
O O2 0.910639 0.153698 0.440549
O O3 0.801753 0.022130 0.253170
O O4 0.425042 0.152476 0.921172
O O5 0.428308 0.370548 0.345002
O O6 0.687953 0.171407 0.589446
O O7 0.855827 0.342739 0.703654
O O8 0.362743 0.263204 0.191054
O O9 0.132798 0.440483 0.568816
O O10 0.117847 0.342603 0.463006
O O11 0.654788 0.429215 0.056242
O O12 0.500000 0.500000 0.500000
O O13 0.731990 0.465443 0.430604
O O14 0.000000 0.310323 0.750000
O O15 0.500000 0.643636 0.250000
O O16 0.000000 0.603372 0.750000
#
# Coordination Sequence:
#
# PCOD9233198 Si02
#       7
#     4   4   4   4   4   4   4
#     4  10  21  40  58  85 115 156 202 237 291 350
#     4  12  20  37  55  86 116 155 195 238 298 356
#     4  12  22  37  56  84 117 155 191 243 295 355
#     4  12  23  34  52  85 123 153 185 234 300 362
#     4  11  22  36  56  81 119 153 195 242 292 363
#     4  11  21  36  55  80 114 154 194 238 289 354
#     4  10  22  38  61  83 116 157 199 243 282 359
#
# _framework density 19.823515
#
# number of rings (size 3 to 8) (size 9 to 14) (size 15 to 20)
#    0.000    0.857    2.857    6.857    0.000    0.000 
#    0.000    0.000    0.000    0.857    0.000    3.000 
#    0.000    0.000    0.000    0.000    0.000    0.000 
#
# Total GULP energy -156460.770548 kJ/mol
# GULP energy per Si atom -5587.884662 kJ/mol
# Density = 1.977840 g / cm^3
# Si number density = 19.823515 Si / 1000 Ang^3
#
#
#
# Elastic Constant Matrix: (Units=GPa)
#
#
# Indices 1 2 3 4 5 6 
#
# 1 47.9614 19.9442 0.4389 0.0000 -1.4049 0.0000
# 2 19.9442 78.7510 30.4823 0.0000 -5.6521 0.0000
# 3 0.4389 30.4823 89.4866 0.0000 -1.0995 0.0000
# 4 0.0000 0.0000 0.0000 23.8619 0.0000 -1.1344
# 5 -1.4049 -5.6521 -1.0995 0.0000 42.4723 0.0000
# 6 0.0000 0.0000 0.0000 -1.1344 0.0000 14.2962
#
#
#
# Elastic Compliance Matrix: (Units=1/GPa)
#
#
# Indices 1 2 3 4 5 6 
#
# 1 0.023681 -0.006862 0.002220 0.000000 -0.000072 0.000000
# 2 -0.006862 0.016757 -0.005652 0.000000 0.001857 0.000000
# 3 0.002220 -0.005652 0.013085 0.000000 -0.000340 0.000000
# 4 0.000000 0.000000 0.000000 0.042067 0.000000 0.003338
# 5 -0.000072 0.001857 -0.000340 0.000000 0.023781 0.000000
# 6 0.000000 0.000000 0.000000 0.003338 0.000000 0.070213
#
#
# Mechanical properties :
#
#
# Convention : Reuss Voigt Hill
#
# Bulk Modulus (GPa) = 30.36132 35.32553 32.84343
# Shear Modulus (GPa) = 22.60921 27.14832 24.87877
#
# Velocity S-wave (km/s) = 3.38083 3.70469 3.54646
# Velocity P-wave (km/s) = 5.53074 6.01318 5.77700
#
# Compressibility (1/GPa) = 0.03293665
#
# Stress axis : x y z
#
# Youngs Moduli (GPa) = 42.22766 59.67688 76.42393
#
# Poissons Ratio (x) = 0.40951 -0.16969
# Poissons Ratio (y) = 0.28977 0.43191
# Poissons Ratio (z) = -0.09376 0.33727
#
# Static dielectric constant tensor:
#      x y z
#    x 1.739670 0.000000 -0.000410 
#    y 0.000000 1.689110 0.000000 
#    z -0.000410 0.000000 1.707090 
# 
# From -- ./inp_files/94174.got.cif
#   From: 2010.05.17/outbox.cif.g08.bks.cpg/sg13_48_cif.got.tgz:94174.got - 2010.06.03 16:44:36.
