data_PCOD9233868
_publ_section_title
;
Structure prediction by ZEFSAII (Michael W. Deem and Ramdas Pophale) SiO2 
 PCOD9233868
Probable space group: P 2/C
;
_chemical_formula_sum "Si O2"
_cell_formula_units_Z 16
_cell_length_a 7.908032
_cell_length_b 7.975602
_cell_length_c 11.888577
_cell_angle_alpha 90.000000
_cell_angle_beta 58.841013
_cell_angle_gamma 90.000000
_cell_volume 641.654118
_symmetry_space_group_name_H-M "P 2/C"
_symmetry_group_IT_number 13
_symmetry_cell_setting 'monoclinic'
loop_
_space_group_symop_operation_xyz
x,y,z
-x,y,1/2-z
-x,-y,-z
x,-y,1/2+z
loop_
_atom_site_type_symbol
_atom_site_label
_atom_site_fract_x
_atom_site_fract_y
_atom_site_fract_z
Si Si1 0.081654 0.916782 0.361835
Si Si2 0.711780 0.055931 0.390000
Si Si3 0.259959 0.552702 0.332271
Si Si4 0.729613 0.441128 0.421530
O O1 0.188077 0.743196 0.344525
O O2 0.242171 0.049096 0.257601
O O3 0.000000 0.000000 0.500000
O O4 0.870955 0.913745 0.368615
O O5 0.749933 0.239961 0.423160
O O6 0.500000 0.000000 0.500000
O O7 0.500000 0.544481 0.250000
O O8 0.196404 0.477048 0.232216
O O9 0.196840 0.490564 0.480797
O O10 0.500000 0.500000 0.500000
#
# Coordination Sequence:
#
# PCOD9233868 Si02
#       4
#     4   4   4   4
#     4  11  24  45  74 106 141 195 254 310 367 442
#     4  11  24  46  73 104 148 194 253 308 378 449
#     4  10  21  44  75 108 151 194 252 309 380 452
#     4  10  21  43  70 107 147 196 243 307 381 456
#
# _framework density 24.935554
#
# number of rings (size 3 to 8) (size 9 to 14) (size 15 to 20)
#    0.000    1.500    2.500    3.000    0.000    0.000 
#   22.500   11.250    0.000    0.000    0.000    0.000 
#    0.000    0.000    0.000    0.000    0.000    0.000 
#
# Total GULP energy -89198.129384 kJ/mol
# GULP energy per Si atom -5574.883086 kJ/mol
# Density = 2.487880 g / cm^3
# Si number density = 24.935554 Si / 1000 Ang^3
#
#
#
# Elastic Constant Matrix: (Units=GPa)
#
#
# Indices 1 2 3 4 5 6 
#
# 1 126.3809 14.1422 56.5826 0.0000 12.7843 0.0000
# 2 14.1422 56.4100 34.2942 0.0000 20.7518 0.0000
# 3 56.5826 34.2942 228.8619 0.0000 13.7231 0.0000
# 4 0.0000 0.0000 0.0000 41.3130 0.0000 5.1499
# 5 12.7843 20.7518 13.7231 0.0000 37.3621 0.0000
# 6 0.0000 0.0000 0.0000 5.1499 0.0000 40.2186
#
#
#
# Elastic Compliance Matrix: (Units=1/GPa)
#
#
# Indices 1 2 3 4 5 6 
#
# 1 0.009094 -0.000187 -0.002086 0.000000 -0.002242 0.000000
# 2 -0.000187 0.023981 -0.002814 0.000000 -0.012222 0.000000
# 3 -0.002086 -0.002814 0.005287 0.000000 0.000335 0.000000
# 4 0.000000 0.000000 0.000000 0.024598 0.000000 -0.003150
# 5 -0.002242 -0.012222 0.000335 0.000000 0.034198 0.000000
# 6 0.000000 0.000000 0.000000 -0.003150 0.000000 0.025267
#
#
# Mechanical properties :
#
#
# Convention : Reuss Voigt Hill
#
# Bulk Modulus (GPa) = 35.47675 69.07676 52.27675
# Shear Modulus (GPa) = 35.21215 44.22098 39.71657
#
# Velocity S-wave (km/s) = 3.76190 4.21576 3.99528
# Velocity P-wave (km/s) = 5.75565 7.17350 6.50333
#
# Compressibility (1/GPa) = 0.02818748
#
# Stress axis : x y z
#
# Youngs Moduli (GPa) = 109.96020 41.69882 189.15025
#
# Poissons Ratio (x) = 0.00780 0.39456
# Poissons Ratio (y) = 0.02058 0.53235
# Poissons Ratio (z) = 0.22937 0.11736
#
# Static dielectric constant tensor:
#      x y z
#    x 0.602490 0.000000 -1.502970 
#    y 0.000000 1.904970 0.000000 
#    z -1.502970 0.000000 0.268830 
# 
# From -- ./inp_files/27546.got.cif
#   From: 2010.05.17/outbox.cif.g08.bks.cpg/sg13_14_cif.got.tgz:27546.got - 2010.06.03 16:44:36.
