data_PCOD9233219
_publ_section_title
;
Structure prediction by ZEFSAII (Michael W. Deem and Ramdas Pophale) SiO2 
 PCOD9233219
Probable space group: P 2/C
;
_chemical_formula_sum "Si O2"
_cell_formula_units_Z 30
_cell_length_a 28.238523
_cell_length_b 8.256428
_cell_length_c 11.811321
_cell_angle_alpha 90.000000
_cell_angle_beta 151.598200
_cell_angle_gamma 90.000000
_cell_volume 1309.850809
_symmetry_space_group_name_H-M "P 2/C"
_symmetry_group_IT_number 13
_symmetry_cell_setting 'monoclinic'
loop_
_space_group_symop_operation_xyz
x,y,z
-x,y,1/2-z
-x,-y,-z
x,-y,1/2+z
loop_
_atom_site_type_symbol
_atom_site_label
_atom_site_fract_x
_atom_site_fract_y
_atom_site_fract_z
Si Si1 0.788276 0.813562 0.972705
Si Si2 0.115003 0.539131 0.217158
Si Si3 0.687169 0.362077 0.787492
Si Si4 0.774198 0.921134 0.590522
Si Si5 0.500000 0.875698 0.250000
Si Si6 0.109678 0.697832 0.528721
Si Si7 0.353617 0.848512 0.519361
Si Si8 0.578020 0.681807 0.614208
O O1 0.866461 0.725029 0.219508
O O2 0.794788 0.000623 0.011901
O O3 0.813256 0.754034 0.902168
O O4 0.680586 0.755315 0.780366
O O5 0.203143 0.449298 0.474013
O O6 0.134066 0.476526 0.131155
O O7 0.000000 0.500000 0.000000
O O8 0.671883 0.283068 0.631564
O O9 0.601845 0.490242 0.647808
O O10 0.694455 0.218956 0.895785
O O11 0.873234 0.831296 0.839477
O O12 0.732662 0.058072 0.589123
O O13 0.502454 0.761011 0.365953
O O14 0.590105 0.002726 0.423012
O O15 0.000000 0.698124 0.250000
O O16 0.421312 0.755329 0.757119
#
# Coordination Sequence:
#
# PCOD9233219 Si02
#       8
#     4   4   4   4   2   4   4   4
#     4  10  21  40  61  86 127 166 217 265 331 394
#     4  10  21  40  60  92 125 171 223 276 321 392
#     4  10  23  42  68  94 133 177 223 276 332 410
#     4  10  22  41  62  91 128 173 218 272 333 398
#     4  12  24  44  72 102 134 170 218 280 334 416
#     4  11  21  36  58  86 123 169 211 268 328 376
#     4  11  23  45  68  98 132 177 219 274 345 398
#     4  10  24  42  67  98 131 172 219 271 335 403
#
# _framework density 22.903371
#
# number of rings (size 3 to 8) (size 9 to 14) (size 15 to 20)
#    0.000    1.600    1.333    3.600    0.000   10.667 
#    2.400    2.000    0.000    0.000    0.000    0.000 
#    0.000    0.000    0.000    0.000    0.000    0.000 
#
# Total GULP energy -167355.964595 kJ/mol
# GULP energy per Si atom -5578.532153 kJ/mol
# Density = 2.285124 g / cm^3
# Si number density = 22.903371 Si / 1000 Ang^3
#
#
#
# Elastic Constant Matrix: (Units=GPa)
#
#
# Indices 1 2 3 4 5 6 
#
# 1 59.8389 18.2953 12.6637 0.0000 -14.1983 0.0000
# 2 18.2953 120.1713 42.2893 0.0000 -22.3697 0.0000
# 3 12.6637 42.2893 92.1613 0.0000 -23.0535 0.0000
# 4 0.0000 0.0000 0.0000 37.6776 0.0000 -11.3355
# 5 -14.1983 -22.3697 -23.0535 0.0000 32.3611 0.0000
# 6 0.0000 0.0000 0.0000 -11.3355 0.0000 33.6126
#
#
#
# Elastic Compliance Matrix: (Units=1/GPa)
#
#
# Indices 1 2 3 4 5 6 
#
# 1 0.018896 -0.001502 -0.000113 0.000000 0.007172 0.000000
# 2 -0.001502 0.010586 -0.003633 0.000000 0.004071 0.000000
# 3 -0.000113 -0.003633 0.014471 0.000000 0.007748 0.000000
# 4 0.000000 0.000000 0.000000 0.029538 0.000000 0.009961
# 5 0.007172 0.004071 0.007748 0.000000 0.042381 0.000000
# 6 0.000000 0.000000 0.000000 0.009961 0.000000 0.033110
#
#
# Mechanical properties :
#
#
# Convention : Reuss Voigt Hill
#
# Bulk Modulus (GPa) = 29.88879 46.51868 38.20374
# Shear Modulus (GPa) = 29.30273 33.99180 31.64727
#
# Velocity S-wave (km/s) = 3.58076 3.85663 3.72125
# Velocity P-wave (km/s) = 5.49309 6.33928 5.93129
#
# Compressibility (1/GPa) = 0.03345736
#
# Stress axis : x y z
#
# Youngs Moduli (GPa) = 52.92012 94.46098 69.10231
#
# Poissons Ratio (x) = 0.14188 0.00784
# Poissons Ratio (y) = 0.07948 0.25105
# Poissons Ratio (z) = 0.00600 0.34318
#
# Static dielectric constant tensor:
#      x y z
#    x 1.905630 0.000000 -0.013870 
#    y 0.000000 1.909300 0.000000 
#    z -0.013870 0.000000 1.937790 
# 
# From -- ./inp_files/42702.got.cif
#   From: 2010.05.17/outbox.cif.g08.bks.cpg/sg13_22_cif.got.tgz:42702.got - 2010.06.03 16:44:36.
