data_PCOD9233254
_publ_section_title
;
Structure prediction by ZEFSAII (Michael W. Deem and Ramdas Pophale) SiO2 
 PCOD9233254
Probable space group: P 2/C
;
_chemical_formula_sum "Si O2"
_cell_formula_units_Z 32
_cell_length_a 8.510557
_cell_length_b 11.758745
_cell_length_c 13.797610
_cell_angle_alpha 90.000000
_cell_angle_beta 80.921448
_cell_angle_gamma 90.000000
_cell_volume 1363.477660
_symmetry_space_group_name_H-M "P 2/C"
_symmetry_group_IT_number 13
_symmetry_cell_setting 'monoclinic'
loop_
_space_group_symop_operation_xyz
x,y,z
-x,y,1/2-z
-x,-y,-z
x,-y,1/2+z
loop_
_atom_site_type_symbol
_atom_site_label
_atom_site_fract_x
_atom_site_fract_y
_atom_site_fract_z
Si Si1 0.606794 0.611822 0.961622
Si Si2 0.679904 0.684872 0.256248
Si Si3 0.814951 0.557993 0.757670
Si Si4 0.320587 0.757698 0.031723
Si Si5 0.176275 0.462725 0.459164
Si Si6 0.407895 0.044694 0.166785
Si Si7 0.279808 0.014542 0.977533
Si Si8 0.151143 0.895635 0.307920
O O1 0.699569 0.606174 0.851127
O O2 0.492249 0.718467 0.975123
O O3 0.500000 0.500000 0.000000
O O4 0.735558 0.583185 0.030438
O O5 0.500000 0.647107 0.250000
O O6 0.789023 0.577051 0.265737
O O7 0.662538 0.757314 0.355536
O O8 0.768950 0.773426 0.180144
O O9 0.774138 0.582624 0.650876
O O10 0.000000 0.588604 0.750000
O O11 0.212466 0.647800 0.020112
O O12 0.265271 0.879151 0.999917
O O13 0.000000 0.500000 0.500000
O O14 0.553482 0.977345 0.099814
O O15 0.275662 0.974967 0.238388
O O16 0.307438 0.078410 0.078072
O O17 0.500000 0.891645 0.750000
O O18 0.141144 0.052751 0.917322
O O19 0.000000 0.884690 0.250000
#
# Coordination Sequence:
#
# PCOD9233254 Si02
#       8
#     4   4   4   4   4   4   4   4
#     4  10  21  40  62  95 131 173 228 277 334 406
#     4  12  23  40  71 101 127 173 232 283 339 418
#     4  12  23  41  68  96 139 181 220 283 355 408
#     4  11  23  41  67  95 135 176 233 280 340 412
#     4  11  22  42  64  94 140 178 221 285 339 411
#     4   9  19  40  67  91 128 164 223 277 337 396
#     4  10  21  41  69  93 129 180 222 286 339 401
#     4  11  24  42  65  98 139 171 226 286 348 416
#
# _framework density 23.469398000000002
#
# number of rings (size 3 to 8) (size 9 to 14) (size 15 to 20)
#    0.000    1.250    5.000    2.250    3.500    0.500 
#    6.750    1.875    0.000    0.000    0.000    0.000 
#    0.000    0.000    0.000    0.000    0.000    0.000 
#
# Total GULP energy -178265.621221 kJ/mol
# GULP energy per Si atom -5570.800663 kJ/mol
# Density = 2.341598 g / cm^3
# Si number density = 23.469398 Si / 1000 Ang^3
#
#
#
# Elastic Constant Matrix: (Units=GPa)
#
#
# Indices 1 2 3 4 5 6 
#
# 1 85.9957 16.9036 18.3280 0.0000 1.8121 0.0000
# 2 16.9036 74.6050 13.0122 0.0000 0.7741 0.0000
# 3 18.3280 13.0122 144.6200 0.0000 18.4192 0.0000
# 4 0.0000 0.0000 0.0000 29.6986 0.0000 2.7727
# 5 1.8121 0.7741 18.4192 0.0000 38.9547 0.0000
# 6 0.0000 0.0000 0.0000 2.7727 0.0000 20.5569
#
#
#
# Elastic Compliance Matrix: (Units=1/GPa)
#
#
# Indices 1 2 3 4 5 6 
#
# 1 0.012422 -0.002579 -0.001357 0.000000 0.000115 0.000000
# 2 -0.002579 0.014157 -0.000986 0.000000 0.000305 0.000000
# 3 -0.001357 -0.000986 0.007624 0.000000 -0.003522 0.000000
# 4 0.000000 0.000000 0.000000 0.034101 0.000000 -0.004600
# 5 0.000115 0.000305 -0.003522 0.000000 0.027325 0.000000
# 6 0.000000 0.000000 0.000000 -0.004600 0.000000 0.049266
#
#
# Mechanical properties :
#
#
# Convention : Reuss Voigt Hill
#
# Bulk Modulus (GPa) = 41.05134 44.63427 42.84281
# Shear Modulus (GPa) = 30.70152 34.97383 32.83767
#
# Velocity S-wave (km/s) = 3.62076 3.86448 3.74461
# Velocity P-wave (km/s) = 5.91686 6.24273 6.08198
#
# Compressibility (1/GPa) = 0.02435974
#
# Stress axis : x y z
#
# Youngs Moduli (GPa) = 80.50099 70.63622 131.16610
#
# Poissons Ratio (x) = 0.18218 0.17798
# Poissons Ratio (y) = 0.20762 0.12930
# Poissons Ratio (z) = 0.10923 0.06963
#
# Static dielectric constant tensor:
#      x y z
#    x 2.342190 0.000000 -0.131580 
#    y 0.000000 1.897770 0.000000 
#    z -0.131580 0.000000 2.227160 
# 
# From -- ./inp_files/47496.got.cif
#   From: 2010.05.17/outbox.cif.g08.bks.cpg/sg13_24_cif.got.tgz:47496.got - 2010.06.03 16:44:36.
