data_PCOD9233485
_publ_section_title
;
Structure prediction by ZEFSAII (Michael W. Deem and Ramdas Pophale) SiO2 
 PCOD9233485
Probable space group: P 2/C
;
_chemical_formula_sum "Si O2"
_cell_formula_units_Z 24
_cell_length_a 19.632852
_cell_length_b 4.889896
_cell_length_c 12.653171
_cell_angle_alpha 90.000000
_cell_angle_beta 125.633561
_cell_angle_gamma 90.000000
_cell_volume 987.289512
_symmetry_space_group_name_H-M "P 2/C"
_symmetry_group_IT_number 13
_symmetry_cell_setting 'monoclinic'
loop_
_space_group_symop_operation_xyz
x,y,z
-x,y,1/2-z
-x,-y,-z
x,-y,1/2+z
loop_
_atom_site_type_symbol
_atom_site_label
_atom_site_fract_x
_atom_site_fract_y
_atom_site_fract_z
Si Si1 0.958350 0.356761 0.110440
Si Si2 0.238383 0.082529 0.082362
Si Si3 0.596270 0.176717 0.144249
Si Si4 0.501918 0.677778 0.372651
Si Si5 0.202470 0.624096 0.922192
Si Si6 0.115154 0.243765 0.134358
O O1 0.879677 0.229880 0.099241
O O2 0.000000 0.512106 0.250000
O O3 0.030716 0.170199 0.123668
O O4 0.920571 0.544057 0.984411
O O5 0.315950 0.200912 0.219322
O O6 0.169196 0.035772 0.113478
O O7 0.211142 0.321354 0.975991
O O8 0.267954 0.823985 0.038845
O O9 0.529250 0.369092 0.143166
O O10 0.565660 0.866557 0.128050
O O11 0.587564 0.270536 0.014625
O O12 0.500000 0.757640 0.250000
O O13 0.180027 0.631822 0.778924
#
# Coordination Sequence:
#
# PCOD9233485 Si02
#       6
#     4   4   4   4   4   4
#     4   8  16  36  61  85 114 154 203 248 285 342
#     4  11  23  38  57  87 122 151 188 240 291 344
#     4  10  22  38  60  90 118 147 192 237 280 347
#     4  10  21  41  64  86 114 152 191 232 285 342
#     4  10  22  38  57  85 118 155 199 240 285 343
#     4   9  19  37  60  84 116 157 196 240 298 340
#
# _framework density 24.308979000000001
#
# number of rings (size 3 to 8) (size 9 to 14) (size 15 to 20)
#    0.000    2.333    0.000    1.500    0.000    6.000 
#    0.000   23.333    0.000    0.000    0.000    0.000 
#    0.000    0.000    0.000    0.000    0.000    0.000 
#
# Total GULP energy -133741.071918 kJ/mol
# GULP energy per Si atom -5572.544663 kJ/mol
# Density = 2.425365 g / cm^3
# Si number density = 24.308979 Si / 1000 Ang^3
#
#
#
# Elastic Constant Matrix: (Units=GPa)
#
#
# Indices 1 2 3 4 5 6 
#
# 1 32.8147 0.2996 21.1200 0.0000 -13.2771 0.0000
# 2 0.2996 69.0266 4.1776 0.0000 -12.8130 0.0000
# 3 21.1200 4.1776 157.4460 0.0000 -26.1884 0.0000
# 4 0.0000 0.0000 0.0000 12.4437 0.0000 -17.4357
# 5 -13.2771 -12.8130 -26.1884 0.0000 31.5090 0.0000
# 6 0.0000 0.0000 0.0000 -17.4357 0.0000 2.2532
#
#
#
# Elastic Compliance Matrix: (Units=1/GPa)
#
#
# Indices 1 2 3 4 5 6 
#
# 1 0.038263 0.002783 -0.002711 0.000000 0.015001 0.000000
# 2 0.002783 0.015949 0.000554 0.000000 0.008118 0.000000
# 3 -0.002711 0.000554 0.007598 0.000000 0.005398 0.000000
# 4 0.000000 0.000000 0.000000 -0.008165 0.000000 -0.063181
# 5 0.015001 0.008118 0.005398 0.000000 0.045846 0.000000
# 6 0.000000 0.000000 0.000000 -0.063181 0.000000 -0.045092
#
#
# Mechanical properties :
#
#
# Convention : Reuss Voigt Hill
#
# Bulk Modulus (GPa) = 15.85776 34.49797 25.17786
# Shear Modulus (GPa) = 67.41324 24.82051 46.11688
#
# Velocity S-wave (km/s) = 5.27181 3.19884 4.36031
# Velocity P-wave (km/s) = 6.60255 5.27880 5.97743
#
# Compressibility (1/GPa) = 0.06306062
#
# Stress axis : x y z
#
# Youngs Moduli (GPa) = 26.13463 62.70169 131.60937
#
# Poissons Ratio (x) = -0.17448 0.35684
# Poissons Ratio (y) = -0.07272 -0.07290
# Poissons Ratio (z) = 0.07086 -0.03473
#
# Static dielectric constant tensor:
#      x y z
#    x 2.020870 0.000000 0.092970 
#    y 0.000000 1.893510 0.000000 
#    z 0.092970 0.000000 2.107590 
# 
# From -- ./inp_files/41294.got.cif
#   From: 2010.05.17/outbox.cif.g08.bks.cpg/sg13_21_cif.got.tgz:41294.got - 2010.06.03 16:44:36.
