data_PCOD9233152
_publ_section_title
;
Structure prediction by ZEFSAII (Michael W. Deem and Ramdas Pophale) SiO2 
 PCOD9233152
Probable space group: P 2/C
;
_chemical_formula_sum "Si O2"
_cell_formula_units_Z 32
_cell_length_a 19.270106
_cell_length_b 9.222269
_cell_length_c 24.921315
_cell_angle_alpha 90.000000
_cell_angle_beta 21.495990
_cell_angle_gamma 90.000000
_cell_volume 1622.897554
_symmetry_space_group_name_H-M "P 2/C"
_symmetry_group_IT_number 13
_symmetry_cell_setting 'monoclinic'
loop_
_space_group_symop_operation_xyz
x,y,z
-x,y,1/2-z
-x,-y,-z
x,-y,1/2+z
loop_
_atom_site_type_symbol
_atom_site_label
_atom_site_fract_x
_atom_site_fract_y
_atom_site_fract_z
Si Si1 0.169634 0.146151 0.267358
Si Si2 0.003275 0.336882 0.686912
Si Si3 0.830084 0.022139 0.838100
Si Si4 0.556688 0.385595 0.148915
Si Si5 0.733696 0.400621 0.672036
Si Si6 0.094090 0.518738 0.843753
Si Si7 0.554033 0.114289 0.332648
Si Si8 0.844474 0.929979 0.071640
O O1 0.151847 0.318966 0.285583
O O2 0.318874 0.099470 0.205513
O O3 0.961481 0.083603 0.432563
O O4 0.226739 0.081924 0.169450
O O5 0.223404 0.350626 0.514217
O O6 0.000000 0.398080 0.750000
O O7 0.914940 0.175435 0.754966
O O8 0.899615 0.422029 0.714001
O O9 0.000000 0.953993 0.750000
O O10 0.653120 0.058234 0.003316
O O11 0.500000 0.349825 0.250000
O O12 0.474886 0.545566 0.194775
O O13 0.455141 0.279564 0.179742
O O14 0.780406 0.455162 0.698261
O O15 0.780337 0.230591 0.635280
O O16 0.883702 0.473104 0.522193
O O17 0.660026 0.028347 0.209131
O O18 0.000000 0.000000 0.000000
#
# Coordination Sequence:
#
# PCOD9233152 Si02
#       8
#     4   4   4   4   4   4   4   4
#     4  10  22  41  65  94 125 165 218 271 324 388
#     4  11  24  43  62  93 130 175 215 260 328 402
#     4  11  24  43  61  89 134 175 215 269 325 393
#     4  12  23  41  69  93 129 171 215 269 329 389
#     4  10  21  41  65 101 127 160 218 274 326 379
#     4  10  21  39  67  92 127 167 209 269 323 388
#     4  11  22  43  63  97 125 169 219 266 322 394
#     4   9  22  38  66  99 124 160 214 270 323 385
#
# _framework density 19.717818999999999
#
# number of rings (size 3 to 8) (size 9 to 14) (size 15 to 20)
#    0.000    1.500    5.000    0.375    7.000    0.500 
#    4.500    1.875    0.000    0.000    0.000    0.000 
#    0.000    0.000    0.000    0.000    0.000    0.000 
#
# Total GULP energy -178506.015343 kJ/mol
# GULP energy per Si atom -5578.312979 kJ/mol
# Density = 1.967294 g / cm^3
# Si number density = 19.717819 Si / 1000 Ang^3
#
#
#
# Elastic Constant Matrix: (Units=GPa)
#
#
# Indices 1 2 3 4 5 6 
#
# 1 67.7473 -1.3115 1.3279 0.0000 9.5345 0.0000
# 2 -1.3115 39.6382 11.8357 0.0000 0.9713 0.0000
# 3 1.3279 11.8357 93.4346 0.0000 -3.7690 0.0000
# 4 0.0000 0.0000 0.0000 47.5393 0.0000 -24.8370
# 5 9.5345 0.9713 -3.7690 0.0000 26.8146 0.0000
# 6 0.0000 0.0000 0.0000 -24.8370 0.0000 51.7280
#
#
#
# Elastic Compliance Matrix: (Units=1/GPa)
#
#
# Indices 1 2 3 4 5 6 
#
# 1 0.015582 0.000819 -0.000553 0.000000 -0.005648 0.000000
# 2 0.000819 0.026317 -0.003415 0.000000 -0.001724 0.000000
# 3 -0.000553 -0.003415 0.011220 0.000000 0.001897 0.000000
# 4 0.000000 0.000000 0.000000 0.028079 0.000000 0.013482
# 5 -0.005648 -0.001724 0.001897 0.000000 0.039631 0.000000
# 6 0.000000 0.000000 0.000000 0.013482 0.000000 0.025805
#
#
# Mechanical properties :
#
#
# Convention : Reuss Voigt Hill
#
# Bulk Modulus (GPa) = 21.35770 24.94713 23.15242
# Shear Modulus (GPa) = 29.66678 37.81424 33.74051
#
# Velocity S-wave (km/s) = 3.88308 4.38399 4.14111
# Velocity P-wave (km/s) = 5.56414 6.18913 5.88494
#
# Compressibility (1/GPa) = 0.04682152
#
# Stress axis : x y z
#
# Youngs Moduli (GPa) = 64.17529 37.99790 89.12930
#
# Poissons Ratio (x) = -0.03112 0.04929
# Poissons Ratio (y) = -0.05257 0.30437
# Poissons Ratio (z) = 0.03549 0.12976
#
# Static dielectric constant tensor:
#      x y z
#    x 1.677250 0.000000 -0.046000 
#    y 0.000000 1.699300 0.000000 
#    z -0.046000 0.000000 1.651240 
# 
# From -- ./inp_files/93550.got.cif
#   From: 2010.05.17/outbox.cif.g08.bks.cpg/sg13_47_cif.got.tgz:93550.got - 2010.06.03 16:44:36.
