data_PCOD9233029
_publ_section_title
;
Structure prediction by ZEFSAII (Michael W. Deem and Ramdas Pophale) SiO2 
 PCOD9233029
Probable space group: P 2/C
;
_chemical_formula_sum "Si O2"
_cell_formula_units_Z 22
_cell_length_a 6.452877
_cell_length_b 8.341343
_cell_length_c 21.227892
_cell_angle_alpha 90.000000
_cell_angle_beta 93.151094
_cell_angle_gamma 90.000000
_cell_volume 1140.877741
_symmetry_space_group_name_H-M "P 2/C"
_symmetry_group_IT_number 13
_symmetry_cell_setting 'monoclinic'
loop_
_space_group_symop_operation_xyz
x,y,z
-x,y,1/2-z
-x,-y,-z
x,-y,1/2+z
loop_
_atom_site_type_symbol
_atom_site_label
_atom_site_fract_x
_atom_site_fract_y
_atom_site_fract_z
Si Si1 0.500000 0.488231 0.250000
Si Si2 0.250569 0.875938 0.937517
Si Si3 0.870135 0.309751 0.190361
Si Si4 0.622696 0.636598 0.965038
Si Si5 0.811947 0.435947 0.854352
Si Si6 0.961713 0.797414 0.051850
O O1 0.652028 0.372348 0.213171
O O2 0.360997 0.593743 0.201102
O O3 0.158044 0.790202 0.873934
O O4 0.477956 0.793883 0.950359
O O5 0.196230 0.063542 0.927962
O O6 0.126863 0.845556 0.000618
O O7 0.000000 0.229770 0.250000
O O8 0.002401 0.466013 0.174306
O O9 0.707215 0.557090 0.902817
O O10 0.500000 0.500000 0.000000
O O11 0.815230 0.674454 0.012960
O O12 0.907711 0.283960 0.890757
#
# Coordination Sequence:
#
# PCOD9233029 Si02
#       6
#     2   4   4   4   4   4
#     4  10  22  38  64  90 110 160 224 260 300 366
#     4  11  22  40  60  90 132 159 201 254 325 383
#     4  10  21  39  63  87 117 164 215 256 300 379
#     4  12  21  36  63  92 122 161 204 251 314 379
#     4  11  21  38  62  90 124 157 215 260 308 369
#     4  11  24  37  60  97 126 159 196 266 324 374
#
# _framework density 19.2834
#
# number of rings (size 3 to 8) (size 9 to 14) (size 15 to 20)
#    0.000    1.091    5.455    2.182    0.000    0.000 
#    0.000    2.727    0.000    2.182    0.000    0.000 
#    0.000    0.000    0.000    0.000    0.000    0.000 
#
# Total GULP energy -122710.536661 kJ/mol
# GULP energy per Si atom -5577.751666 kJ/mol
# Density = 1.923951 g / cm^3
# Si number density = 19.283400 Si / 1000 Ang^3
#
#
#
# Elastic Constant Matrix: (Units=GPa)
#
#
# Indices 1 2 3 4 5 6 
#
# 1 84.6050 27.9743 28.3911 0.0000 -2.8896 0.0000
# 2 27.9743 58.7976 38.4469 0.0000 9.0121 0.0000
# 3 28.3911 38.4469 120.1840 0.0000 23.7075 0.0000
# 4 0.0000 0.0000 0.0000 17.4691 0.0000 3.3311
# 5 -2.8896 9.0121 23.7075 0.0000 49.4876 0.0000
# 6 0.0000 0.0000 0.0000 3.3311 0.0000 25.2986
#
#
#
# Elastic Compliance Matrix: (Units=1/GPa)
#
#
# Indices 1 2 3 4 5 6 
#
# 1 0.014623 -0.006032 -0.002109 0.000000 0.002963 0.000000
# 2 -0.006032 0.024016 -0.005881 0.000000 -0.001908 0.000000
# 3 -0.002109 -0.005881 0.011610 0.000000 -0.004614 0.000000
# 4 0.000000 0.000000 0.000000 0.058718 0.000000 -0.007732
# 5 0.002963 -0.001908 -0.004614 0.000000 0.022938 0.000000
# 6 0.000000 0.000000 0.000000 -0.007732 0.000000 0.040546
#
#
# Mechanical properties :
#
#
# Convention : Reuss Voigt Hill
#
# Bulk Modulus (GPa) = 45.03702 50.35681 47.69692
# Shear Modulus (GPa) = 24.05029 29.70269 26.87649
#
# Velocity S-wave (km/s) = 3.53541 3.92895 3.73736
# Velocity P-wave (km/s) = 6.33020 6.83762 6.58880
#
# Compressibility (1/GPa) = 0.02220396
#
# Stress axis : x y z
#
# Youngs Moduli (GPa) = 68.38474 41.63962 86.12969
#
# Poissons Ratio (x) = 0.25118 0.18166
# Poissons Ratio (y) = 0.41252 0.50654
# Poissons Ratio (z) = 0.14423 0.24489
#
# Static dielectric constant tensor:
#      x y z
#    x 1.695270 0.000000 -0.004590 
#    y 0.000000 1.681730 0.000000 
#    z -0.004590 0.000000 1.701540 
# 
# From -- ./inp_files/73091.got.cif
#   From: 2010.05.17/outbox.cif.g08.bks.cpg/sg13_37_cif.got.tgz:73091.got - 2010.06.03 16:44:36.
