data_PCOD9233733
_publ_section_title
;
Structure prediction by ZEFSAII (Michael W. Deem and Ramdas Pophale) SiO2 
 PCOD9233733
Probable space group: P 2/C
;
_chemical_formula_sum "Si O2"
_cell_formula_units_Z 28
_cell_length_a 13.582134
_cell_length_b 5.152387
_cell_length_c 17.176552
_cell_angle_alpha 90.000000
_cell_angle_beta 120.416977
_cell_angle_gamma 90.000000
_cell_volume 1036.580269
_symmetry_space_group_name_H-M "P 2/C"
_symmetry_group_IT_number 13
_symmetry_cell_setting 'monoclinic'
loop_
_space_group_symop_operation_xyz
x,y,z
-x,y,1/2-z
-x,-y,-z
x,-y,1/2+z
loop_
_atom_site_type_symbol
_atom_site_label
_atom_site_fract_x
_atom_site_fract_y
_atom_site_fract_z
Si Si1 0.000000 0.696182 0.750000
Si Si2 0.500000 0.813913 0.750000
Si Si3 0.175248 0.857385 0.350779
Si Si4 0.677336 0.800879 0.239907
Si Si5 0.513312 0.740728 0.449455
Si Si6 0.977666 0.450378 0.608228
Si Si7 0.851060 0.224156 0.928735
Si Si8 0.681049 0.106960 0.442637
O O1 0.064767 0.626857 0.690760
O O2 0.901663 0.889461 0.671929
O O3 0.399862 0.972574 0.754082
O O4 0.416247 0.733945 0.642954
O O5 0.232445 0.871514 0.290364
O O6 0.086645 0.627887 0.336874
O O7 0.269896 0.802457 0.454876
O O8 0.581272 0.662691 0.152250
O O9 0.746325 0.663820 0.335956
O O10 0.500000 0.500000 0.500000
O O11 0.623298 0.829959 0.443610
O O12 0.500000 0.000000 0.500000
O O13 0.896494 0.597261 0.516194
O O14 0.041908 0.223816 0.587702
O O15 0.795160 0.961292 0.938889
#
# Coordination Sequence:
#
# PCOD9233733 Si02
#       8
#     2   2   4   4   4   4   4   4
#     4  12  24  44  66 104 138 182 248 294 358 446
#     4   8  20  40  64  96 140 170 230 296 358 452
#     4  12  24  42  74 101 136 187 245 295 368 437
#     4  10  21  43  69  98 139 182 238 295 375 433
#     4  11  24  43  73 107 142 186 250 313 362 444
#     4  11  25  43  67  99 144 183 243 295 362 442
#     4  10  22  45  64  97 147 188 227 302 366 438
#     4  10  21  42  69 100 139 184 236 293 370 428
#
# _framework density 27.011899
#
# number of rings (size 3 to 8) (size 9 to 14) (size 15 to 20)
#    0.000    1.429    2.857    2.143    2.000    1.714 
#   10.286    1.429    0.000    6.857    0.000    0.000 
#    0.000    0.000    0.000    0.000    0.000    0.000 
#
# Total GULP energy -155960.025522 kJ/mol
# GULP energy per Si atom -5570.000911 kJ/mol
# Density = 2.695042 g / cm^3
# Si number density = 27.011899 Si / 1000 Ang^3
#
#
#
# Elastic Constant Matrix: (Units=GPa)
#
#
# Indices 1 2 3 4 5 6 
#
# 1 134.9769 12.8760 34.4164 0.0000 -21.0980 0.0000
# 2 12.8760 54.9607 8.3172 0.0000 -16.8314 0.0000
# 3 34.4164 8.3172 235.0079 0.0000 9.6285 0.0000
# 4 0.0000 0.0000 0.0000 9.4698 0.0000 -10.6809
# 5 -21.0980 -16.8314 9.6285 0.0000 52.6893 0.0000
# 6 0.0000 0.0000 0.0000 -10.6809 0.0000 28.7511
#
#
#
# Elastic Compliance Matrix: (Units=1/GPa)
#
#
# Indices 1 2 3 4 5 6 
#
# 1 0.008342 -0.000726 -0.001333 0.000000 0.003352 0.000000
# 2 -0.000726 0.020460 -0.000880 0.000000 0.006406 0.000000
# 3 -0.001333 -0.000880 0.004549 0.000000 -0.001646 0.000000
# 4 0.000000 0.000000 0.000000 0.181753 0.000000 0.067520
# 5 0.003352 0.006406 -0.001646 0.000000 0.022669 0.000000
# 6 0.000000 0.000000 0.000000 0.067520 0.000000 0.059864
#
#
# Mechanical properties :
#
#
# Convention : Reuss Voigt Hill
#
# Bulk Modulus (GPa) = 36.40105 59.57385 47.98745
# Shear Modulus (GPa) = 15.99115 42.80447 29.39781
#
# Velocity S-wave (km/s) = 2.43575 3.98509 3.30256
# Velocity P-wave (km/s) = 4.62771 6.57853 5.68739
#
# Compressibility (1/GPa) = 0.02747174
#
# Stress axis : x y z
#
# Youngs Moduli (GPa) = 119.87776 48.87609 219.82673
#
# Poissons Ratio (x) = 0.03548 0.29309
# Poissons Ratio (y) = 0.08703 0.19350
# Poissons Ratio (z) = 0.15983 0.04302
#
# Static dielectric constant tensor:
#      x y z
#    x 2.242190 0.000000 0.461390 
#    y 0.000000 2.377900 0.000000 
#    z 0.461390 0.000000 0.850490 
# 
# From -- ./inp_files/67632.got.cif
#   From: 2010.05.17/outbox.cif.g08.bks.cpg/sg13_34_cif.got.tgz:67632.got - 2010.06.03 16:44:36.
