data_PCOD9233290
_publ_section_title
;
Structure prediction by ZEFSAII (Michael W. Deem and Ramdas Pophale) SiO2 
 PCOD9233290
Probable space group: P 2/C
;
_chemical_formula_sum "Si O2"
_cell_formula_units_Z 30
_cell_length_a 15.209695
_cell_length_b 12.045389
_cell_length_c 8.682768
_cell_angle_alpha 90.000000
_cell_angle_beta 114.524878
_cell_angle_gamma 90.000000
_cell_volume 1447.226326
_symmetry_space_group_name_H-M "P 2/C"
_symmetry_group_IT_number 13
_symmetry_cell_setting 'monoclinic'
loop_
_space_group_symop_operation_xyz
x,y,z
-x,y,1/2-z
-x,-y,-z
x,-y,1/2+z
loop_
_atom_site_type_symbol
_atom_site_label
_atom_site_fract_x
_atom_site_fract_y
_atom_site_fract_z
Si Si1 0.146178 0.434695 0.111405
Si Si2 0.109566 0.131958 0.487352
Si Si3 0.232166 0.234024 0.042739
Si Si4 0.398880 0.071457 0.087490
Si Si5 0.605597 0.842403 0.268726
Si Si6 0.116414 0.077842 0.156299
Si Si7 0.000000 0.501933 0.750000
Si Si8 0.778240 0.681081 0.312299
O O1 0.221249 0.335362 0.152648
O O2 0.203702 0.551124 0.151421
O O3 0.077716 0.428987 0.209912
O O4 0.067348 0.432429 0.915480
O O5 0.152845 0.113178 0.350033
O O6 0.128893 0.256002 0.551674
O O7 0.998078 0.096638 0.409677
O O8 0.151950 0.046177 0.643619
O O9 0.326371 0.158673 0.112272
O O10 0.147647 0.151441 0.034279
O O11 0.224486 0.288540 0.869722
O O12 0.500000 0.081750 0.250000
O O13 0.367201 0.944669 0.098321
O O14 0.404142 0.103803 0.910616
O O15 0.500000 0.803045 0.250000
O O16 0.684904 0.744044 0.316717
#
# Coordination Sequence:
#
# PCOD9233290 Si02
#       8
#     4   4   4   4   4   4   2   4
#     4  11  24  42  61  90 122 162 213 250 305 346
#     4  10  22  36  54  81 115 153 194 239 296 357
#     4  11  24  39  59  86 120 154 200 251 298 358
#     4  10  21  40  64  92 120 154 194 244 304 365
#     4  10  21  40  64  92 120 154 194 244 304 365
#     4  10  22  36  54  81 115 153 194 239 296 357
#     4  10  24  42  64  82 120 170 212 254 290 354
#     4  11  24  39  59  86 120 154 200 251 298 358
#
# _framework density 20.729306999999999
#
# number of rings (size 3 to 8) (size 9 to 14) (size 15 to 20)
#    0.000    1.600    1.333    3.200    5.600    5.867 
#    0.000    0.667    0.000    3.200    0.000    0.000 
#    0.000    0.000    0.000    0.000    0.000    0.000 
#
# Total GULP energy -167511.304644 kJ/mol
# GULP energy per Si atom -5583.710155 kJ/mol
# Density = 2.068213 g / cm^3
# Si number density = 20.729307 Si / 1000 Ang^3
#
#
#
# Elastic Constant Matrix: (Units=GPa)
#
#
# Indices 1 2 3 4 5 6 
#
# 1 125.3393 44.9816 27.8004 0.0000 -16.5352 0.0000
# 2 44.9816 99.4378 1.8999 0.0000 -9.9082 0.0000
# 3 27.8004 1.8999 29.9709 0.0000 2.4536 0.0000
# 4 0.0000 0.0000 0.0000 15.6064 0.0000 -11.6674
# 5 -16.5352 -9.9082 2.4536 0.0000 23.3075 0.0000
# 6 0.0000 0.0000 0.0000 -11.6674 0.0000 22.3834
#
#
#
# Elastic Compliance Matrix: (Units=1/GPa)
#
#
# Indices 1 2 3 4 5 6 
#
# 1 0.014022 -0.005174 -0.013429 0.000000 0.009162 0.000000
# 2 -0.005174 0.012442 0.003911 0.000000 0.001207 0.000000
# 3 -0.013429 0.003911 0.046620 0.000000 -0.012772 0.000000
# 4 0.000000 0.000000 0.000000 0.104990 0.000000 0.054726
# 5 0.009162 0.001207 -0.012772 0.000000 0.051262 0.000000
# 6 0.000000 0.000000 0.000000 0.054726 0.000000 0.073202
#
#
# Mechanical properties :
#
#
# Convention : Reuss Voigt Hill
#
# Bulk Modulus (GPa) = 22.88220 44.90129 33.89174
# Shear Modulus (GPa) = 14.43050 24.26387 19.34718
#
# Velocity S-wave (km/s) = 2.64131 3.42498 3.05835
# Velocity P-wave (km/s) = 4.51271 6.11134 5.37183
#
# Compressibility (1/GPa) = 0.04370210
#
# Stress axis : x y z
#
# Youngs Moduli (GPa) = 71.31503 80.37017 21.45017
#
# Poissons Ratio (x) = 0.41580 0.28805
# Poissons Ratio (y) = 0.36895 -0.08390
# Poissons Ratio (z) = 0.95768 -0.31435
#
# Static dielectric constant tensor:
#      x y z
#    x 1.769960 0.000000 0.000670 
#    y 0.000000 1.770010 0.000000 
#    z 0.000670 0.000000 1.819870 
# 
# From -- ./inp_files/19065.got.cif
#   From: 2010.05.17/outbox.cif.g08.bks.cpg/sg13_10_cif.got.tgz:19065.got - 2010.06.03 16:44:36.
