data_PCOD9233483
_publ_section_title
;
Structure prediction by ZEFSAII (Michael W. Deem and Ramdas Pophale) SiO2 
 PCOD9233483
Probable space group: P 2/C
;
_chemical_formula_sum "Si O2"
_cell_formula_units_Z 26
_cell_length_a 4.930471
_cell_length_b 14.742101
_cell_length_c 19.900520
_cell_angle_alpha 90.000000
_cell_angle_beta 53.375561
_cell_angle_gamma 90.000000
_cell_volume 1160.890874
_symmetry_space_group_name_H-M "P 2/C"
_symmetry_group_IT_number 13
_symmetry_cell_setting 'monoclinic'
loop_
_space_group_symop_operation_xyz
x,y,z
-x,y,1/2-z
-x,-y,-z
x,-y,1/2+z
loop_
_atom_site_type_symbol
_atom_site_label
_atom_site_fract_x
_atom_site_fract_y
_atom_site_fract_z
Si Si1 0.611010 0.233444 0.442919
Si Si2 0.000000 0.140599 0.750000
Si Si3 0.500000 0.723457 0.750000
Si Si4 0.831022 0.587979 0.157547
Si Si5 0.319904 0.141457 0.369991
Si Si6 0.916682 0.404068 0.342253
Si Si7 0.584060 0.709934 0.379138
Si Si8 0.500000 0.980302 0.250000
O O1 0.350651 0.167114 0.443187
O O2 0.622865 0.332649 0.403699
O O3 0.527304 0.257283 0.531485
O O4 0.963445 0.177032 0.393563
O O5 0.688713 0.203436 0.819988
O O6 0.829864 0.078247 0.718602
O O7 0.400027 0.791717 0.705702
O O8 0.771236 0.656326 0.680166
O O9 0.500000 0.562940 0.250000
O O10 0.685973 0.641550 0.114728
O O11 0.058979 0.497379 0.120577
O O12 0.064871 0.656892 0.163028
O O13 0.411303 0.043975 0.327256
O O14 0.000000 0.419199 0.250000
#
# Coordination Sequence:
#
# PCOD9233483 Si02
#       8
#     4   2   2   4   4   4   4   2
#     4  11  24  41  66  98 139 175 206 269 336 401
#     4  12  24  46  68  96 124 178 230 272 320 402
#     4   9  18  32  61  86 132 164 209 256 320 397
#     4  12  23  41  65  92 127 179 235 278 306 374
#     4  10  21  41  64 100 131 164 205 267 343 402
#     4  11  21  36  63  96 134 170 228 267 328 375
#     4  12  26  45  65  92 133 180 226 268 326 383
#     4  11  24  42  77 102 128 166 219 272 334 407
#
# _framework density 22.396591000000001
#
# number of rings (size 3 to 8) (size 9 to 14) (size 15 to 20)
#    0.000    0.923    3.846    3.692    0.000    1.231 
#    0.000    4.615    0.000    0.000    0.000    0.000 
#    0.000    0.000    0.000    0.000    0.000    0.000 
#
# Total GULP energy -144992.915924 kJ/mol
# GULP energy per Si atom -5576.650612 kJ/mol
# Density = 2.234562 g / cm^3
# Si number density = 22.396591 Si / 1000 Ang^3
#
#
#
# Elastic Constant Matrix: (Units=GPa)
#
#
# Indices 1 2 3 4 5 6 
#
# 1 98.5909 28.0633 -3.0395 0.0000 19.7854 0.0000
# 2 28.0633 105.2328 21.8090 0.0000 12.1055 0.0000
# 3 -3.0395 21.8090 64.4967 0.0000 20.4949 0.0000
# 4 0.0000 0.0000 0.0000 -9.2373 0.0000 14.2050
# 5 19.7854 12.1055 20.4949 0.0000 29.7792 0.0000
# 6 0.0000 0.0000 0.0000 14.2050 0.0000 22.2865
#
#
#
# Elastic Compliance Matrix: (Units=1/GPa)
#
#
# Indices 1 2 3 4 5 6 
#
# 1 0.013560 -0.003432 0.005400 0.000000 -0.011331 0.000000
# 2 -0.003432 0.011209 -0.004132 0.000000 0.000568 0.000000
# 3 0.005400 -0.004132 0.022735 0.000000 -0.017555 0.000000
# 4 0.000000 0.000000 0.000000 -0.054671 0.000000 0.034846
# 5 -0.011331 0.000568 -0.017555 0.000000 0.052960 0.000000
# 6 0.000000 0.000000 0.000000 0.034846 0.000000 0.022660
#
#
# Mechanical properties :
#
#
# Convention : Reuss Voigt Hill
#
# Bulk Modulus (GPa) = 23.16121 40.22066 31.69093
# Shear Modulus (GPa) = 57.35738 23.33153 40.34445
#
# Velocity S-wave (km/s) = 5.06611 3.23111 4.24885
# Velocity P-wave (km/s) = 6.67716 5.64955 6.18474
#
# Compressibility (1/GPa) = 0.04317564
#
# Stress axis : x y z
#
# Youngs Moduli (GPa) = 73.74549 89.21352 43.98553
#
# Poissons Ratio (x) = 0.30617 -0.23752
# Poissons Ratio (y) = 0.25309 0.18176
# Poissons Ratio (z) = -0.39823 0.36866
#
# Static dielectric constant tensor:
#      x y z
#    x 1.868050 0.000000 -0.001030 
#    y 0.000000 1.836160 0.000000 
#    z -0.001030 0.000000 1.910690 
# 
# From -- ./inp_files/73558.got.cif
#   From: 2010.05.17/outbox.cif.g08.bks.cpg/sg13_37_cif.got.tgz:73558.got - 2010.06.03 16:44:36.
