data_PCOD9233517
_publ_section_title
;
Structure prediction by ZEFSAII (Michael W. Deem and Ramdas Pophale) SiO2 
 PCOD9233517
Probable space group: P 2/C
;
_chemical_formula_sum "Si O2"
_cell_formula_units_Z 24
_cell_length_a 24.008511
_cell_length_b 5.207301
_cell_length_c 18.264826
_cell_angle_alpha 90.000000
_cell_angle_beta 29.230811
_cell_angle_gamma 90.000000
_cell_volume 1115.079851
_symmetry_space_group_name_H-M "P 2/C"
_symmetry_group_IT_number 13
_symmetry_cell_setting 'monoclinic'
loop_
_space_group_symop_operation_xyz
x,y,z
-x,y,1/2-z
-x,-y,-z
x,-y,1/2+z
loop_
_atom_site_type_symbol
_atom_site_label
_atom_site_fract_x
_atom_site_fract_y
_atom_site_fract_z
Si Si1 0.000000 0.500000 0.500000
Si Si2 0.530723 0.512358 0.299726
Si Si3 0.941977 0.732946 0.441290
Si Si4 0.810003 0.892975 0.179956
Si Si5 0.555929 0.992592 0.516971
Si Si6 0.783476 0.374043 0.554389
Si Si7 0.000000 0.909414 0.750000
O O1 0.000512 0.483726 0.407583
O O2 0.883208 0.322950 0.635486
O O3 0.500000 0.496361 0.250000
O O4 0.499848 0.245892 0.375536
O O5 0.663338 0.587450 0.155251
O O6 0.466762 0.742348 0.415083
O O7 0.830033 0.650074 0.526429
O O8 0.896759 0.863432 0.568990
O O9 0.011141 0.911871 0.308891
O O10 0.692002 0.957616 0.353556
O O11 0.776599 0.794071 0.136745
O O12 0.500000 0.000000 0.500000
O O13 0.886030 0.255276 0.390086
#
# Coordination Sequence:
#
# PCOD9233517 Si02
#       7
#     2   4   4   4   4   4   2
#     4  10  22  38  64  98 138 172 222 302 340 404
#     4  12  28  48  71 110 150 186 243 309 364 423
#     4  10  21  41  65  96 137 176 233 283 356 418
#     4  10  22  40  68 100 135 179 241 291 345 431
#     4  12  25  47  78 104 138 201 246 289 367 442
#     4  10  22  42  67  96 138 182 237 290 353 435
#     4  10  22  40  64  98 126 190 224 282 354 436
#
# _framework density 21.523121
#
# number of rings (size 3 to 8) (size 9 to 14) (size 15 to 20)
#    0.000    1.333    1.667    3.000    7.000    1.333 
#   12.000    0.000    0.000    0.000    0.000    0.000 
#    0.000    0.000    0.000    0.000    0.000    0.000 
#
# Total GULP energy -133676.511469 kJ/mol
# GULP energy per Si atom -5569.854645 kJ/mol
# Density = 2.147413 g / cm^3
# Si number density = 21.523121 Si / 1000 Ang^3
#
#
#
# Elastic Constant Matrix: (Units=GPa)
#
#
# Indices 1 2 3 4 5 6 
#
# 1 116.2620 10.9823 47.3276 0.0000 2.1047 0.0000
# 2 10.9823 62.5190 4.9849 0.0000 17.0241 0.0000
# 3 47.3276 4.9849 104.5171 0.0000 -8.8462 0.0000
# 4 0.0000 0.0000 0.0000 38.3496 0.0000 5.0145
# 5 2.1047 17.0241 -8.8462 0.0000 31.2144 0.0000
# 6 0.0000 0.0000 0.0000 5.0145 0.0000 22.9670
#
#
#
# Elastic Compliance Matrix: (Units=1/GPa)
#
#
# Indices 1 2 3 4 5 6 
#
# 1 0.010743 -0.001074 -0.004944 0.000000 -0.001540 0.000000
# 2 -0.001074 0.019231 -0.001345 0.000000 -0.010797 0.000000
# 3 -0.004944 -0.001345 0.012255 0.000000 0.004540 0.000000
# 4 0.000000 0.000000 0.000000 0.026842 0.000000 -0.005861
# 5 -0.001540 -0.010797 0.004540 0.000000 0.039316 0.000000
# 6 0.000000 0.000000 0.000000 -0.005861 0.000000 0.044820
#
#
# Mechanical properties :
#
#
# Convention : Reuss Voigt Hill
#
# Bulk Modulus (GPa) = 36.35795 45.54306 40.95050
# Shear Modulus (GPa) = 28.23262 33.17309 30.70285
#
# Velocity S-wave (km/s) = 3.62572 3.93017 3.78101
# Velocity P-wave (km/s) = 5.87000 6.46537 6.17486
#
# Compressibility (1/GPa) = 0.02750430
#
# Stress axis : x y z
#
# Youngs Moduli (GPa) = 93.08318 51.99906 81.60017
#
# Poissons Ratio (x) = 0.05583 0.40342
# Poissons Ratio (y) = 0.09994 0.10974
# Poissons Ratio (z) = 0.46019 0.06993
#
# Static dielectric constant tensor:
#      x y z
#    x 1.546230 0.000000 0.080150 
#    y 0.000000 0.275840 0.000000 
#    z 0.080150 0.000000 1.749160 
# 
# From -- ./inp_files/70877.got.cif
#   From: 2010.05.17/outbox.cif.g08.bks.cpg/sg13_36_cif.got.tgz:70877.got - 2010.06.03 16:44:36.
