data_PCOD9233429
_publ_section_title
;
Structure prediction by ZEFSAII (Michael W. Deem and Ramdas Pophale) SiO2 
 PCOD9233429
Probable space group: P 2/C
;
_chemical_formula_sum "Si O2"
_cell_formula_units_Z 18
_cell_length_a 8.412043
_cell_length_b 12.136446
_cell_length_c 10.387246
_cell_angle_alpha 90.000000
_cell_angle_beta 131.566160
_cell_angle_gamma 90.000000
_cell_volume 793.424084
_symmetry_space_group_name_H-M "P 2/C"
_symmetry_group_IT_number 13
_symmetry_cell_setting 'monoclinic'
loop_
_space_group_symop_operation_xyz
x,y,z
-x,y,1/2-z
-x,-y,-z
x,-y,1/2+z
loop_
_atom_site_type_symbol
_atom_site_label
_atom_site_fract_x
_atom_site_fract_y
_atom_site_fract_z
Si Si1 0.213510 0.565013 0.653562
Si Si2 0.656444 0.843939 0.027905
Si Si3 0.189136 0.183935 0.178786
Si Si4 0.744579 0.606414 0.112830
Si Si5 0.000000 0.978483 0.750000
O O1 0.163912 0.685162 0.686778
O O2 0.319901 0.586835 0.571019
O O3 0.313150 0.486829 0.815962
O O4 0.000000 0.500000 0.500000
O O5 0.771478 0.827790 0.951462
O O6 0.407633 0.855620 0.864450
O O7 0.673934 0.729007 0.113303
O O8 0.795661 0.942901 0.158185
O O9 0.002373 0.106458 0.131106
O O10 0.000000 0.610133 0.250000
#
# Coordination Sequence:
#
# PCOD9233429 Si02
#       5
#     4   4   4   4   2
#     4   9  19  34  60  89 120 158 200 250 310 373
#     4  10  21  41  59  88 121 165 202 249 311 370
#     4  10  23  38  61  90 122 157 205 256 309 358
#     4   9  17  34  59  86 119 158 203 245 310 370
#     4  12  22  38  64  84 118 164 210 256 296 360
#
# _framework density 22.686478999999999
#
# number of rings (size 3 to 8) (size 9 to 14) (size 15 to 20)
#    0.000    2.222    1.111    1.333    4.667    0.889 
#    0.000    0.000    0.000    0.000    0.000    0.000 
#    0.000    0.000    0.000    0.000    0.000    0.000 
#
# Total GULP energy -100440.059393 kJ/mol
# GULP energy per Si atom -5580.003300 kJ/mol
# Density = 2.263484 g / cm^3
# Si number density = 22.686479 Si / 1000 Ang^3
#
#
#
# Elastic Constant Matrix: (Units=GPa)
#
#
# Indices 1 2 3 4 5 6 
#
# 1 28.2502 34.5895 -0.6662 0.0000 3.6341 0.0000
# 2 34.5895 209.8936 53.9447 0.0000 -10.6611 0.0000
# 3 -0.6662 53.9447 100.2770 0.0000 1.4124 0.0000
# 4 0.0000 0.0000 0.0000 27.2011 0.0000 -7.8493
# 5 3.6341 -10.6611 1.4124 0.0000 21.6192 0.0000
# 6 0.0000 0.0000 0.0000 -7.8493 0.0000 32.3652
#
#
#
# Elastic Compliance Matrix: (Units=1/GPa)
#
#
# Indices 1 2 3 4 5 6 
#
# 1 0.050368 -0.010623 0.006248 0.000000 -0.014113 0.000000
# 2 -0.010623 0.007960 -0.004437 0.000000 0.006001 0.000000
# 3 0.006248 -0.004437 0.012458 0.000000 -0.004052 0.000000
# 4 0.000000 0.000000 0.000000 0.039530 0.000000 0.009587
# 5 -0.014113 0.006001 -0.004052 0.000000 0.051852 0.000000
# 6 0.000000 0.000000 0.000000 0.009587 0.000000 0.033222
#
#
# Mechanical properties :
#
#
# Convention : Reuss Voigt Hill
#
# Bulk Modulus (GPa) = 18.81063 57.12853 37.96958
# Shear Modulus (GPa) = 21.66993 32.94062 27.30528
#
# Velocity S-wave (km/s) = 3.09397 3.81464 3.47305
# Velocity P-wave (km/s) = 4.59054 6.68119 5.73199
#
# Compressibility (1/GPa) = 0.05316142
#
# Stress axis : x y z
#
# Youngs Moduli (GPa) = 19.85403 125.62521 80.26930
#
# Poissons Ratio (x) = 1.33452 -0.50153
# Poissons Ratio (y) = 0.21091 0.35618
# Poissons Ratio (z) = -0.12405 0.55744
#
# Static dielectric constant tensor:
#      x y z
#    x 1.867260 0.000000 0.068250 
#    y 0.000000 1.859440 0.000000 
#    z 0.068250 0.000000 1.935360 
# 
# From -- ./inp_files/11941.got.cif
#   From: 2010.05.17/outbox.cif.g08.bks.cpg/sg13_6_cif.got.tgz:11941.got - 2010.06.03 16:44:36.
