data_PCOD9233486
_publ_section_title
;
Structure prediction by ZEFSAII (Michael W. Deem and Ramdas Pophale) SiO2 
 PCOD9233486
Probable space group: P 2/C
;
_chemical_formula_sum "Si O2"
_cell_formula_units_Z 16
_cell_length_a 4.871976
_cell_length_b 10.158753
_cell_length_c 13.361917
_cell_angle_alpha 90.000000
_cell_angle_beta 87.907033
_cell_angle_gamma 90.000000
_cell_volume 660.882862
_symmetry_space_group_name_H-M "P 2/C"
_symmetry_group_IT_number 13
_symmetry_cell_setting 'monoclinic'
loop_
_space_group_symop_operation_xyz
x,y,z
-x,y,1/2-z
-x,-y,-z
x,-y,1/2+z
loop_
_atom_site_type_symbol
_atom_site_label
_atom_site_fract_x
_atom_site_fract_y
_atom_site_fract_z
Si Si1 0.000000 0.954285 0.750000
Si Si2 0.202012 0.581835 0.612362
Si Si3 0.506142 0.675442 0.080103
Si Si4 0.700267 0.741233 0.622900
Si Si5 0.500000 0.868419 0.250000
O O1 0.251729 0.044491 0.710205
O O2 0.850164 0.864620 0.668688
O O3 0.263323 0.605548 0.492609
O O4 0.322538 0.439197 0.632228
O O5 0.893630 0.615566 0.641898
O O6 0.391998 0.698475 0.656092
O O7 0.612304 0.775497 0.160477
O O8 0.327449 0.750111 0.997289
#
# Coordination Sequence:
#
# PCOD9233486 Si02
#       5
#     2   4   4   4   2
#     4  12  28  42  56  92 124 172 218 230 288 368
#     4   9  20  40  68  94 116 151 202 252 327 356
#     4   9  23  40  66  93 124 151 201 258 314 358
#     4  10  21  41  64  86 125 157 202 252 296 363
#     4  12  28  40  60  90 126 164 210 246 294 358
#
# _framework density 24.210038999999998
#
# number of rings (size 3 to 8) (size 9 to 14) (size 15 to 20)
#    1.500    0.500    0.000    2.250    3.500    4.000 
#    0.000    0.000    0.000    0.000    0.000    0.000 
#    0.000    0.000    0.000    0.000    0.000    0.000 
#
# Total GULP energy -89355.909172 kJ/mol
# GULP energy per Si atom -5584.744323 kJ/mol
# Density = 2.415494 g / cm^3
# Si number density = 24.210039 Si / 1000 Ang^3
#
#
#
# Elastic Constant Matrix: (Units=GPa)
#
#
# Indices 1 2 3 4 5 6 
#
# 1 107.5853 15.4584 -4.9542 0.0000 5.2635 0.0000
# 2 15.4584 95.0366 35.1710 0.0000 6.3883 0.0000
# 3 -4.9542 35.1710 84.2029 0.0000 18.4223 0.0000
# 4 0.0000 0.0000 0.0000 18.6428 0.0000 3.2808
# 5 5.2635 6.3883 18.4223 0.0000 24.6356 0.0000
# 6 0.0000 0.0000 0.0000 3.2808 0.0000 31.2247
#
#
#
# Elastic Compliance Matrix: (Units=1/GPa)
#
#
# Indices 1 2 3 4 5 6 
#
# 1 0.009868 -0.002205 0.002197 0.000000 -0.003180 0.000000
# 2 -0.002205 0.012952 -0.005868 0.000000 0.001500 0.000000
# 3 0.002197 -0.005868 0.017009 0.000000 -0.011667 0.000000
# 4 0.000000 0.000000 0.000000 0.054651 0.000000 -0.005742
# 5 -0.003180 0.001500 -0.011667 0.000000 0.049606 0.000000
# 6 0.000000 0.000000 0.000000 -0.005742 0.000000 0.032629
#
#
# Mechanical properties :
#
#
# Convention : Reuss Voigt Hill
#
# Bulk Modulus (GPa) = 35.61445 42.01946 38.81695
# Shear Modulus (GPa) = 25.27489 30.97724 28.12607
#
# Velocity S-wave (km/s) = 3.23458 3.58092 3.41215
# Velocity P-wave (km/s) = 5.35654 5.87292 5.62067
#
# Compressibility (1/GPa) = 0.02807849
#
# Stress axis : x y z
#
# Youngs Moduli (GPa) = 101.33293 77.21104 58.79315
#
# Poissons Ratio (x) = 0.17022 -0.12918
# Poissons Ratio (y) = 0.22339 0.34498
# Poissons Ratio (z) = -0.22264 0.45305
#
# Static dielectric constant tensor:
#      x y z
#    x 1.912410 0.000000 -0.009810 
#    y 0.000000 1.910900 0.000000 
#    z -0.009810 0.000000 2.027210 
# 
# From -- ./inp_files/43299.got.cif
#   From: 2010.05.17/outbox.cif.g08.bks.cpg/sg13_22_cif.got.tgz:43299.got - 2010.06.03 16:44:36.
