data_PCOD9233087
_publ_section_title
;
Structure prediction by ZEFSAII (Michael W. Deem and Ramdas Pophale) SiO2 
 PCOD9233087
Probable space group: P 2/C
;
_chemical_formula_sum "Si O2"
_cell_formula_units_Z 24
_cell_length_a 14.691160
_cell_length_b 5.277020
_cell_length_c 21.665828
_cell_angle_alpha 90.000000
_cell_angle_beta 36.602004
_cell_angle_gamma 90.000000
_cell_volume 1001.499331
_symmetry_space_group_name_H-M "P 2/C"
_symmetry_group_IT_number 13
_symmetry_cell_setting 'monoclinic'
loop_
_space_group_symop_operation_xyz
x,y,z
-x,y,1/2-z
-x,-y,-z
x,-y,1/2+z
loop_
_atom_site_type_symbol
_atom_site_label
_atom_site_fract_x
_atom_site_fract_y
_atom_site_fract_z
Si Si1 0.354002 0.294694 0.033254
Si Si2 0.830683 0.285438 0.706571
Si Si3 0.181124 0.814246 0.150968
Si Si4 0.589265 0.357901 0.358549
Si Si5 0.923729 0.750654 0.511938
Si Si6 0.628941 0.972120 0.724653
O O1 0.241658 0.537645 0.099135
O O2 0.427479 0.263860 0.062029
O O3 0.262421 0.039775 0.069901
O O4 0.485407 0.388704 0.915780
O O5 0.784517 0.149237 0.794708
O O6 0.766964 0.567934 0.751395
O O7 0.009288 0.262419 0.594004
O O8 0.735713 0.174761 0.701043
O O9 0.000000 0.824847 0.250000
O O10 0.549975 0.181676 0.323304
O O11 0.745262 0.788571 0.622874
O O12 0.000000 0.500000 0.500000
O O13 0.000000 0.000000 0.500000
O O14 0.500000 0.078068 0.750000
#
# Coordination Sequence:
#
# PCOD9233087 Si02
#       6
#     4   4   4   4   4   4
#     4  10  23  39  66  97 125 165 216 268 332 388
#     4  10  22  41  65  88 133 174 214 272 329 386
#     4  11  23  41  66  96 131 168 219 266 332 393
#     4  10  21  39  65  89 128 168 212 271 328 385
#     4  10  21  41  63  89 121 171 215 257 319 382
#     4  11  23  40  64  96 132 171 225 269 324 386
#
# _framework density 23.964071000000001
#
# number of rings (size 3 to 8) (size 9 to 14) (size 15 to 20)
#    0.000    1.667    3.333    0.500    2.333    4.000 
#    0.000    1.667    0.000    0.000    0.000    0.000 
#    0.000    0.000    0.000    0.000    0.000    0.000 
#
# Total GULP energy -134048.909305 kJ/mol
# GULP energy per Si atom -5585.371221 kJ/mol
# Density = 2.390953 g / cm^3
# Si number density = 23.964071 Si / 1000 Ang^3
#
#
#
# Elastic Constant Matrix: (Units=GPa)
#
#
# Indices 1 2 3 4 5 6 
#
# 1 69.0659 15.8173 2.5088 0.0000 -17.1240 0.0000
# 2 15.8173 112.8877 25.3956 0.0000 -6.8438 0.0000
# 3 2.5088 25.3956 115.1803 0.0000 -5.4914 0.0000
# 4 0.0000 0.0000 0.0000 46.1562 0.0000 -2.0414
# 5 -17.1240 -6.8438 -5.4914 0.0000 31.3025 0.0000
# 6 0.0000 0.0000 0.0000 -2.0414 0.0000 17.6007
#
#
#
# Elastic Compliance Matrix: (Units=1/GPa)
#
#
# Indices 1 2 3 4 5 6 
#
# 1 0.017153 -0.001966 0.000491 0.000000 0.009040 0.000000
# 2 -0.001966 0.009636 -0.002050 0.000000 0.000672 0.000000
# 3 0.000491 -0.002050 0.009192 0.000000 0.001433 0.000000
# 4 0.000000 0.000000 0.000000 0.021777 0.000000 0.002526
# 5 0.009040 0.000672 0.001433 0.000000 0.037290 0.000000
# 6 0.000000 0.000000 0.000000 0.002526 0.000000 0.057109
#
#
# Mechanical properties :
#
#
# Convention : Reuss Voigt Hill
#
# Bulk Modulus (GPa) = 34.56557 42.73080 38.64819
# Shear Modulus (GPa) = 29.61241 35.90605 32.75923
#
# Velocity S-wave (km/s) = 3.51907 3.87502 3.70133
# Velocity P-wave (km/s) = 5.56480 6.15557 5.86762
#
# Compressibility (1/GPa) = 0.02893052
#
# Stress axis : x y z
#
# Youngs Moduli (GPa) = 58.30045 103.78167 108.79514
#
# Poissons Ratio (x) = 0.20400 -0.05339
# Poissons Ratio (y) = 0.11460 0.22299
# Poissons Ratio (z) = -0.02861 0.21272
#
# Static dielectric constant tensor:
#      x y z
#    x 1.915830 0.000000 -0.002850 
#    y 0.000000 1.746630 0.000000 
#    z -0.002850 0.000000 2.023850 
# 
# From -- ./inp_files/79235.got.cif
#   From: 2010.05.17/outbox.cif.g08.bks.cpg/sg13_40_cif.got.tgz:79235.got - 2010.06.03 16:44:36.
