data_PCOD9233741
_publ_section_title
;
Structure prediction by ZEFSAII (Michael W. Deem and Ramdas Pophale) SiO2 
 PCOD9233741
Probable space group: P 2/C
;
_chemical_formula_sum "Si O2"
_cell_formula_units_Z 32
_cell_length_a 11.833516
_cell_length_b 8.998191
_cell_length_c 19.681883
_cell_angle_alpha 90.000000
_cell_angle_beta 52.651534
_cell_angle_gamma 90.000000
_cell_volume 1666.024018
_symmetry_space_group_name_H-M "P 2/C"
_symmetry_group_IT_number 13
_symmetry_cell_setting 'monoclinic'
loop_
_space_group_symop_operation_xyz
x,y,z
-x,y,1/2-z
-x,-y,-z
x,-y,1/2+z
loop_
_atom_site_type_symbol
_atom_site_label
_atom_site_fract_x
_atom_site_fract_y
_atom_site_fract_z
Si Si1 0.415842 0.398165 0.084432
Si Si2 0.626552 0.544966 0.254378
Si Si3 0.057871 0.517377 0.401909
Si Si4 0.523636 0.067099 0.065342
Si Si5 0.906905 0.149350 0.596449
Si Si6 0.621951 0.905068 0.260328
Si Si7 0.169326 0.936426 0.516944
Si Si8 0.103110 0.309412 0.147340
O O1 0.398800 0.479878 0.162258
O O2 0.495907 0.242417 0.069363
O O3 0.258024 0.365881 0.113654
O O4 0.500000 0.500000 0.000000
O O5 0.500000 0.504224 0.250000
O O6 0.774302 0.485093 0.169013
O O7 0.624600 0.724921 0.262706
O O8 0.054803 0.692412 0.386009
O O9 0.000000 0.500000 0.500000
O O10 0.968941 0.420194 0.381129
O O11 0.416586 0.988465 0.156844
O O12 0.679757 0.016115 0.032300
O O13 0.500000 0.000000 0.000000
O O14 0.781843 0.059123 0.679118
O O15 0.049901 0.057055 0.545196
O O16 0.841626 0.172166 0.544583
O O17 0.500000 0.945136 0.250000
O O18 0.130702 0.844933 0.598074
O O19 0.000000 0.295671 0.250000
#
# Coordination Sequence:
#
# PCOD9233741 Si02
#       8
#     4   4   4   4   4   4   4   4
#     4  12  28  45  68  99 138 183 228 285 345 418
#     4  10  24  43  67 100 134 175 227 278 342 406
#     4  11  23  42  72 100 133 181 224 280 345 408
#     4  12  25  43  66  97 132 181 222 271 348 409
#     4  10  23  41  67 103 127 174 225 284 330 404
#     4  10  21  42  69  92 135 172 221 273 338 395
#     4  11  24  43  67  96 135 173 226 276 342 399
#     4  12  26  47  67  98 145 180 227 281 348 412
#
# _framework density 19.207405999999999
#
# number of rings (size 3 to 8) (size 9 to 14) (size 15 to 20)
#    0.000    1.000    5.000    0.750    5.250    0.500 
#    0.000    0.625    0.000    0.000    0.000    0.000 
#    0.000    0.000    0.000    0.000    0.000    0.000 
#
# Total GULP energy -178717.116425 kJ/mol
# GULP energy per Si atom -5584.909888 kJ/mol
# Density = 1.916369 g / cm^3
# Si number density = 19.207406 Si / 1000 Ang^3
#
#
#
# Elastic Constant Matrix: (Units=GPa)
#
#
# Indices 1 2 3 4 5 6 
#
# 1 100.7271 23.2758 37.1207 0.0000 -6.3627 0.0000
# 2 23.2758 38.9891 23.1231 0.0000 -6.0335 0.0000
# 3 37.1207 23.1231 149.3450 0.0000 6.0943 0.0000
# 4 0.0000 0.0000 0.0000 36.6357 0.0000 5.2502
# 5 -6.3627 -6.0335 6.0943 0.0000 38.3208 0.0000
# 6 0.0000 0.0000 0.0000 5.2502 0.0000 24.1800
#
#
#
# Elastic Compliance Matrix: (Units=1/GPa)
#
#
# Indices 1 2 3 4 5 6 
#
# 1 0.012152 -0.005727 -0.002194 0.000000 0.001465 0.000000
# 2 -0.005727 0.031998 -0.003722 0.000000 0.004679 0.000000
# 3 -0.002194 -0.003722 0.007907 0.000000 -0.002208 0.000000
# 4 0.000000 0.000000 0.000000 0.028172 0.000000 -0.006117
# 5 0.001465 0.004679 -0.002208 0.000000 0.027427 0.000000
# 6 0.000000 0.000000 0.000000 -0.006117 0.000000 0.042685
#
#
# Mechanical properties :
#
#
# Convention : Reuss Voigt Hill
#
# Bulk Modulus (GPa) = 34.75437 50.67784 42.71610
# Shear Modulus (GPa) = 27.28997 33.53006 30.41001
#
# Velocity S-wave (km/s) = 3.77345 4.18267 3.98332
# Velocity P-wave (km/s) = 6.09251 7.05465 6.59116
#
# Compressibility (1/GPa) = 0.02877336
#
# Stress axis : x y z
#
# Youngs Moduli (GPa) = 82.29023 31.25153 126.46276
#
# Poissons Ratio (x) = 0.17898 0.27740
# Poissons Ratio (y) = 0.47127 0.47067
# Poissons Ratio (z) = 0.18051 0.11631
#
# Static dielectric constant tensor:
#      x y z
#    x 3.976490 0.000000 -2.405140 
#    y 0.000000 1.680350 0.000000 
#    z -2.405140 0.000000 4.174580 
# 
# From -- ./inp_files/78274.got.cif
#   From: 2010.05.17/outbox.cif.g08.bks.cpg/sg13_40_cif.got.tgz:78274.got - 2010.06.03 16:44:36.
