data_PCOD9233932
_publ_section_title
;
Structure prediction by ZEFSAII (Michael W. Deem and Ramdas Pophale) SiO2 
 PCOD9233932
Probable space group: P 2/C
;
_chemical_formula_sum "Si O2"
_cell_formula_units_Z 18
_cell_length_a 9.325118
_cell_length_b 17.414205
_cell_length_c 5.390254
_cell_angle_alpha 90.000000
_cell_angle_beta 123.719109
_cell_angle_gamma 90.000000
_cell_volume 728.064681
_symmetry_space_group_name_H-M "P 2/C"
_symmetry_group_IT_number 13
_symmetry_cell_setting 'monoclinic'
loop_
_space_group_symop_operation_xyz
x,y,z
-x,y,1/2-z
-x,-y,-z
x,-y,1/2+z
loop_
_atom_site_type_symbol
_atom_site_label
_atom_site_fract_x
_atom_site_fract_y
_atom_site_fract_z
Si Si1 0.750838 0.654800 0.180427
Si Si2 0.803435 0.196016 0.450449
Si Si3 0.500000 0.553931 0.250000
Si Si4 0.000000 0.547895 0.250000
Si Si5 0.304867 0.970864 0.760429
Si Si6 0.000000 0.729808 0.750000
O O1 0.643593 0.616280 0.295714
O O2 0.935496 0.676660 0.471915
O O3 0.812155 0.589672 0.053176
O O4 0.706031 0.734742 0.000150
O O5 0.706669 0.115859 0.347845
O O6 0.842907 0.221499 0.206074
O O7 0.000000 0.184927 0.750000
O O8 0.500000 0.500000 0.500000
O O9 0.000000 0.500000 0.500000
O O10 0.224323 0.020239 0.457756
O O11 0.500000 0.000000 0.000000
#
# Coordination Sequence:
#
# PCOD9233932 Si02
#       6
#     4   4   2   2   4   2
#     4  11  24  46  71 108 146 199 253 308 381 452
#     4  10  23  43  76 107 147 196 258 324 370 455
#     4  12  30  50  70 110 160 196 246 318 386 452
#     4  12  23  38  72 103 140 188 242 302 367 446
#     4  10  24  47  69 105 150 192 246 303 387 460
#     4  10  21  44  74 107 142 184 264 302 371 438
#
# _framework density 24.723075999999999
#
# number of rings (size 3 to 8) (size 9 to 14) (size 15 to 20)
#    0.000    1.333    3.333    2.000    9.333    0.889 
#    8.000    0.000    0.000    0.000    0.000    0.000 
#    0.000    0.000    0.000    0.000    0.000    0.000 
#
# Total GULP energy -100298.701449 kJ/mol
# GULP energy per Si atom -5572.150081 kJ/mol
# Density = 2.466681 g / cm^3
# Si number density = 24.723076 Si / 1000 Ang^3
#
#
#
# Elastic Constant Matrix: (Units=GPa)
#
#
# Indices 1 2 3 4 5 6 
#
# 1 120.2766 59.6547 44.7725 0.0000 -15.6236 0.0000
# 2 59.6547 167.5716 53.3121 0.0000 -5.9750 0.0000
# 3 44.7725 53.3121 94.5789 0.0000 -36.1896 0.0000
# 4 0.0000 0.0000 0.0000 16.6077 0.0000 -1.5283
# 5 -15.6236 -5.9750 -36.1896 0.0000 44.6475 0.0000
# 6 0.0000 0.0000 0.0000 -1.5283 0.0000 46.4193
#
#
#
# Elastic Compliance Matrix: (Units=1/GPa)
#
#
# Indices 1 2 3 4 5 6 
#
# 1 0.011072 -0.002854 -0.003328 0.000000 0.000795 0.000000
# 2 -0.002854 0.008383 -0.004823 0.000000 -0.003786 0.000000
# 3 -0.003328 -0.004823 0.020548 0.000000 0.014845 0.000000
# 4 0.000000 0.000000 0.000000 0.060396 0.000000 0.001989
# 5 0.000795 -0.003786 0.014845 0.000000 0.034202 0.000000
# 6 0.000000 0.000000 0.000000 0.001989 0.000000 0.021608
#
#
# Mechanical properties :
#
#
# Convention : Reuss Voigt Hill
#
# Bulk Modulus (GPa) = 55.58181 77.54508 66.56344
# Shear Modulus (GPa) = 27.14183 36.51408 31.82795
#
# Velocity S-wave (km/s) = 3.31695 3.84724 3.59190
# Velocity P-wave (km/s) = 6.09919 7.15322 6.64713
#
# Compressibility (1/GPa) = 0.01799150
#
# Stress axis : x y z
#
# Youngs Moduli (GPa) = 90.31732 119.28722 48.66732
#
# Poissons Ratio (x) = 0.34049 0.16198
# Poissons Ratio (y) = 0.25780 0.23472
# Poissons Ratio (z) = 0.30061 0.57531
#
# Static dielectric constant tensor:
#      x y z
#    x 2.126750 0.000000 0.037560 
#    y 0.000000 2.204000 0.000000 
#    z 0.037560 0.000000 2.542780 
# 
# From -- ./inp_files/1705.got.cif
#   From: 2010.05.17/outbox.cif.g08.bks.cpg/sg13_1_cif.got.tgz:1705.got - 2010.06.03 16:44:36.
