data_PCOD9233369
_publ_section_title
;
Structure prediction by ZEFSAII (Michael W. Deem and Ramdas Pophale) SiO2 
 PCOD9233369
Probable space group: P 2/C
;
_chemical_formula_sum "Si O2"
_cell_formula_units_Z 14
_cell_length_a 15.447381
_cell_length_b 8.111466
_cell_length_c 15.038304
_cell_angle_alpha 90.000000
_cell_angle_beta 160.253662
_cell_angle_gamma 90.000000
_cell_volume 636.627552
_symmetry_space_group_name_H-M "P 2/C"
_symmetry_group_IT_number 13
_symmetry_cell_setting 'monoclinic'
loop_
_space_group_symop_operation_xyz
x,y,z
-x,y,1/2-z
-x,-y,-z
x,-y,1/2+z
loop_
_atom_site_type_symbol
_atom_site_label
_atom_site_fract_x
_atom_site_fract_y
_atom_site_fract_z
Si Si1 0.115851 0.318058 0.608795
Si Si2 0.415911 0.847606 0.856316
Si Si3 0.758792 0.676602 0.474862
Si Si4 0.500000 0.992374 0.250000
O O1 0.206687 0.291298 0.595254
O O2 0.000000 0.500000 0.500000
O O3 0.873970 0.204104 0.400690
O O4 0.366785 0.288945 0.911665
O O5 0.434011 0.902633 0.771850
O O6 0.500000 0.000000 0.000000
O O7 0.000000 0.589453 0.750000
O O8 0.719594 0.855731 0.483997
O O9 0.500000 0.583429 0.250000
#
# Coordination Sequence:
#
# PCOD9233369 Si02
#       4
#     4   4   4   2
#     4  12  26  46  67 100 143 179 216 278 354 405
#     4  12  24  44  74  99 133 180 233 281 327 404
#     4  10  21  40  67  95 131 174 224 272 340 392
#     4  10  24  38  72 102 132 166 244 280 330 376
#
# _framework density 21.990879
#
# number of rings (size 3 to 8) (size 9 to 14) (size 15 to 20)
#    0.857    0.000    2.857    5.143    4.000    0.000 
#    7.714    0.000    0.000    0.000    0.000    0.000 
#    0.000    0.000    0.000    0.000    0.000    0.000 
#
# Total GULP energy -78187.669791 kJ/mol
# GULP energy per Si atom -5584.833557 kJ/mol
# Density = 2.194083 g / cm^3
# Si number density = 21.990879 Si / 1000 Ang^3
#
#
#
# Elastic Constant Matrix: (Units=GPa)
#
#
# Indices 1 2 3 4 5 6 
#
# 1 140.3781 8.0747 17.0181 0.0000 25.1755 0.0000
# 2 8.0747 39.4035 -13.9557 0.0000 10.9855 0.0000
# 3 17.0181 -13.9557 121.0679 0.0000 33.4382 0.0000
# 4 0.0000 0.0000 0.0000 24.4268 0.0000 6.9807
# 5 25.1755 10.9855 33.4382 0.0000 36.4104 0.0000
# 6 0.0000 0.0000 0.0000 6.9807 0.0000 0.8802
#
#
#
# Elastic Compliance Matrix: (Units=1/GPa)
#
#
# Indices 1 2 3 4 5 6 
#
# 1 0.008162 0.000315 0.000635 0.000000 -0.006322 0.000000
# 2 0.000315 0.033693 0.008987 0.000000 -0.018636 0.000000
# 3 0.000635 0.008987 0.013501 0.000000 -0.015550 0.000000
# 4 0.000000 0.000000 0.000000 -0.032324 0.000000 0.256362
# 5 -0.006322 -0.018636 -0.015550 0.000000 0.051739 0.000000
# 6 0.000000 0.000000 0.000000 0.256362 0.000000 -0.897060
#
#
# Mechanical properties :
#
#
# Convention : Reuss Voigt Hill
#
# Bulk Modulus (GPa) = 13.29276 35.90263 24.59770
# Shear Modulus (GPa) = -6.11930 31.65763 12.76916
#
# Velocity S-wave (km/s) = -1.66994 3.79830 2.41230
# Velocity P-wave (km/s) = 1.52955 5.96638 4.35530
#
# Compressibility (1/GPa) = 0.07522894
#
# Stress axis : x y z
#
# Youngs Moduli (GPa) = 122.51449 29.68018 74.06764
#
# Poissons Ratio (x) = -0.00934 -0.04703
# Poissons Ratio (y) = -0.03856 -0.66563
# Poissons Ratio (z) = -0.07780 -0.26673
#
# Static dielectric constant tensor:
#      x y z
#    x 1.783340 0.000000 0.064240 
#    y 0.000000 1.831480 0.000000 
#    z 0.064240 0.000000 1.922130 
# 
# From -- ./inp_files/43020.got.cif
#   From: 2010.05.17/outbox.cif.g08.bks.cpg/sg13_22_cif.got.tgz:43020.got - 2010.06.03 16:44:36.
