data_PCOD9233959
_publ_section_title
;
Structure prediction by ZEFSAII (Michael W. Deem and Ramdas Pophale) SiO2 
 PCOD9233959
Probable space group: P 2/C
;
_chemical_formula_sum "Si O2"
_cell_formula_units_Z 22
_cell_length_a 14.186908
_cell_length_b 8.852430
_cell_length_c 17.078706
_cell_angle_alpha 90.000000
_cell_angle_beta 151.870223
_cell_angle_gamma 90.000000
_cell_volume 1011.252303
_symmetry_space_group_name_H-M "P 2/C"
_symmetry_group_IT_number 13
_symmetry_cell_setting 'monoclinic'
loop_
_space_group_symop_operation_xyz
x,y,z
-x,y,1/2-z
-x,-y,-z
x,-y,1/2+z
loop_
_atom_site_type_symbol
_atom_site_label
_atom_site_fract_x
_atom_site_fract_y
_atom_site_fract_z
Si Si1 0.513784 0.218476 0.122540
Si Si2 0.157888 0.430769 0.054338
Si Si3 0.500000 0.982194 0.250000
Si Si4 0.785630 0.265349 0.995583
Si Si5 0.745319 0.275415 0.145276
Si Si6 0.854171 0.599939 0.210480
O O1 0.666242 0.334160 0.278371
O O2 0.617051 0.185755 0.114462
O O3 0.479744 0.084741 0.158445
O O4 0.302233 0.290904 0.944171
O O5 0.242775 0.572906 0.067111
O O6 0.000000 0.500000 0.000000
O O7 0.009874 0.336993 0.888175
O O8 0.685535 0.869801 0.375659
O O9 0.694526 0.261474 0.016579
O O10 0.021963 0.236881 0.174031
O O11 0.736324 0.455334 0.157620
O O12 0.000000 0.535178 0.250000
#
# Coordination Sequence:
#
# PCOD9233959 Si02
#       6
#     4   4   2   4   4   4
#     4  12  26  45  70 109 143 178 248 294 357 431
#     4  11  22  41  75 107 129 179 238 306 352 409
#     4  12  30  42  64 108 146 204 228 294 362 430
#     4  10  23  45  68  99 144 183 237 282 364 424
#     4  10  21  45  74  95 133 188 235 292 353 422
#     4  11  21  41  69 104 136 174 226 300 361 398
#
# _framework density 21.755203999999999
#
# number of rings (size 3 to 8) (size 9 to 14) (size 15 to 20)
#    0.000    1.091    7.273    1.636    2.545    1.455 
#    9.818    0.000    0.000    0.000    0.000    0.000 
#    0.000    0.000    0.000    0.000    0.000    0.000 
#
# Total GULP energy -122905.879223 kJ/mol
# GULP energy per Si atom -5586.630874 kJ/mol
# Density = 2.170569 g / cm^3
# Si number density = 21.755204 Si / 1000 Ang^3
#
#
#
# Elastic Constant Matrix: (Units=GPa)
#
#
# Indices 1 2 3 4 5 6 
#
# 1 88.1917 21.8129 33.3639 0.0000 -3.0121 0.0000
# 2 21.8129 78.5651 63.9275 0.0000 -4.3215 0.0000
# 3 33.3639 63.9275 144.9791 0.0000 -12.4218 0.0000
# 4 0.0000 0.0000 0.0000 -76.8854 0.0000 -96.3757
# 5 -3.0121 -4.3215 -12.4218 0.0000 28.5633 0.0000
# 6 0.0000 0.0000 0.0000 -96.3757 0.0000 -59.4495
#
#
#
# Elastic Compliance Matrix: (Units=1/GPa)
#
#
# Indices 1 2 3 4 5 6 
#
# 1 0.012577 -0.001776 -0.002099 0.000000 0.000145 0.000000
# 2 -0.001776 0.020120 -0.008537 0.000000 -0.000856 0.000000
# 3 -0.002099 -0.008537 0.011441 0.000000 0.003463 0.000000
# 4 0.000000 0.000000 0.000000 0.012602 0.000000 -0.020429
# 5 0.000145 -0.000856 0.003463 0.000000 0.036402 0.000000
# 6 0.000000 0.000000 0.000000 -0.020429 0.000000 0.016298
#
#
# Mechanical properties :
#
#
# Convention : Reuss Voigt Hill
#
# Bulk Modulus (GPa) = 51.77063 61.10495 56.43779
# Shear Modulus (GPa) = 35.53603 -8.71220 13.41191
#
# Velocity S-wave (km/s) = 4.04598 -2.00333 2.48562
# Velocity P-wave (km/s) = 6.75834 4.77466 5.85118
#
# Compressibility (1/GPa) = 0.01931597
#
# Stress axis : x y z
#
# Youngs Moduli (GPa) = 79.50904 49.70064 87.40235
#
# Poissons Ratio (x) = 0.08828 0.18343
# Poissons Ratio (y) = 0.14123 0.74611
# Poissons Ratio (z) = 0.16687 0.42427
#
# Static dielectric constant tensor:
#      x y z
#    x 1.889610 0.000000 0.021270 
#    y 0.000000 1.782760 0.000000 
#    z 0.021270 0.000000 1.882530 
# 
# From -- ./inp_files/68007.got.cif
#   From: 2010.05.17/outbox.cif.g08.bks.cpg/sg13_35_cif.got.tgz:68007.got - 2010.06.03 16:44:36.
