data_PCOD9233142
_publ_section_title
;
Structure prediction by ZEFSAII (Michael W. Deem and Ramdas Pophale) SiO2 
 PCOD9233142
Probable space group: P 2/C
;
_chemical_formula_sum "Si O2"
_cell_formula_units_Z 24
_cell_length_a 15.193131
_cell_length_b 8.437214
_cell_length_c 19.065125
_cell_angle_alpha 90.000000
_cell_angle_beta 156.372991
_cell_angle_gamma 90.000000
_cell_volume 979.474385
_symmetry_space_group_name_H-M "P 2/C"
_symmetry_group_IT_number 13
_symmetry_cell_setting 'monoclinic'
loop_
_space_group_symop_operation_xyz
x,y,z
-x,y,1/2-z
-x,-y,-z
x,-y,1/2+z
loop_
_atom_site_type_symbol
_atom_site_label
_atom_site_fract_x
_atom_site_fract_y
_atom_site_fract_z
Si Si1 0.528555 0.060948 0.651545
Si Si2 0.330929 0.604323 0.276120
Si Si3 0.011707 0.402913 0.412456
Si Si4 0.213194 0.465878 0.932286
Si Si5 0.864507 0.948083 0.518435
Si Si6 0.182882 0.867405 0.331042
O O1 0.584572 0.218953 0.648871
O O2 0.335702 0.073971 0.570883
O O3 0.419931 0.939879 0.518099
O O4 0.740015 0.021001 0.853553
O O5 0.546083 0.528251 0.400742
O O6 0.224705 0.487102 0.255337
O O7 0.139380 0.616764 0.078890
O O8 0.160178 0.525936 0.475834
O O9 0.010361 0.220784 0.386581
O O10 0.000000 0.564795 0.750000
O O11 0.202646 0.309190 0.876455
O O12 0.043667 0.088107 0.660714
O O13 0.000000 0.944735 0.250000
#
# Coordination Sequence:
#
# PCOD9233142 Si02
#       6
#     4   4   4   4   4   4
#     4   9  17  34  63  86 114 171 212 255 314 378
#     4  10  21  39  66  96 128 165 219 266 326 384
#     4  10  21  39  66  96 129 167 214 276 318 383
#     4  11  23  39  60  97 129 163 210 266 332 377
#     4   9  17  34  61  88 118 166 217 255 312 388
#     4   9  20  37  57  87 126 162 208 257 315 381
#
# _framework density 24.502936999999999
#
# number of rings (size 3 to 8) (size 9 to 14) (size 15 to 20)
#    0.000    2.333    1.667    0.500    2.333    0.667 
#   18.000    0.833    7.333    6.000    0.000    0.000 
#    0.000    0.000    0.000    0.000    0.000    0.000 
#
# Total GULP energy -133631.813191 kJ/mol
# GULP energy per Si atom -5567.992216 kJ/mol
# Density = 2.444717 g / cm^3
# Si number density = 24.502937 Si / 1000 Ang^3
#
#
#
# Elastic Constant Matrix: (Units=GPa)
#
#
# Indices 1 2 3 4 5 6 
#
# 1 14.9808 -45.2814 -56.6417 0.0000 18.9642 0.0000
# 2 -45.2814 -46.9130 -99.6484 0.0000 -7.3729 0.0000
# 3 -56.6417 -99.6484 -71.6635 0.0000 7.0374 0.0000
# 4 0.0000 0.0000 0.0000 9.8936 0.0000 -5.9937
# 5 18.9642 -7.3729 7.0374 0.0000 43.3542 0.0000
# 6 0.0000 0.0000 0.0000 -5.9937 0.0000 21.2377
#
#
#
# Elastic Compliance Matrix: (Units=1/GPa)
#
#
# Indices 1 2 3 4 5 6 
#
# 1 0.026285 -0.011972 -0.005371 0.000000 -0.012662 0.000000
# 2 -0.011972 0.017223 -0.013469 0.000000 0.010352 0.000000
# 3 -0.005371 -0.013469 0.008884 0.000000 -0.001383 0.000000
# 4 0.000000 0.000000 0.000000 0.121921 0.000000 0.034409
# 5 -0.012662 0.010352 -0.001383 0.000000 0.030590 0.000000
# 6 0.000000 0.000000 0.000000 0.034409 0.000000 0.056797
#
#
# Mechanical properties :
#
#
# Convention : Reuss Voigt Hill
#
# Bulk Modulus (GPa) = -108.30707 -56.30431 -82.30569
# Shear Modulus (GPa) = 15.61298 21.42884 18.52091
#
# Velocity S-wave (km/s) = 2.52700 2.96047 2.75228
# Velocity P-wave (km/s) = 5.98192 3.36788 4.85417
#
# Compressibility (1/GPa) = -0.00923301
#
# Stress axis : x y z
#
# Youngs Moduli (GPa) = 38.04435 58.06213 112.56162
#
# Poissons Ratio (x) = 0.69515 0.60456
# Poissons Ratio (y) = 0.45549 1.51610
# Poissons Ratio (z) = 0.20433 0.78204
#
# Static dielectric constant tensor:
#      x y z
#    x 2.227730 0.000000 -0.062160 
#    y 0.000000 2.026350 0.000000 
#    z -0.062160 0.000000 1.929630 
# 
# From -- ./inp_files/88054.got.cif
#   From: 2010.05.17/outbox.cif.g08.bks.cpg/sg13_45_cif.got.tgz:88054.got - 2010.06.03 16:44:36.
