data_PCOD9233138
_publ_section_title
;
Structure prediction by ZEFSAII (Michael W. Deem and Ramdas Pophale) SiO2 
 PCOD9233138
Probable space group: P 2/C
;
_chemical_formula_sum "Si O2"
_cell_formula_units_Z 32
_cell_length_a 15.138781
_cell_length_b 11.580491
_cell_length_c 19.481679
_cell_angle_alpha 90.000000
_cell_angle_beta 27.737054
_cell_angle_gamma 90.000000
_cell_volume 1589.586680
_symmetry_space_group_name_H-M "P 2/C"
_symmetry_group_IT_number 13
_symmetry_cell_setting 'monoclinic'
loop_
_space_group_symop_operation_xyz
x,y,z
-x,y,1/2-z
-x,-y,-z
x,-y,1/2+z
loop_
_atom_site_type_symbol
_atom_site_label
_atom_site_fract_x
_atom_site_fract_y
_atom_site_fract_z
Si Si1 0.102383 0.678500 0.053239
Si Si2 0.499968 0.910078 0.939136
Si Si3 0.946883 0.066328 0.106413
Si Si4 0.313190 0.531146 0.367026
Si Si5 0.151808 0.084893 0.584139
Si Si6 0.669288 0.668271 0.387793
Si Si7 0.041176 0.677442 0.931665
Si Si8 0.598617 0.468940 0.337124
O O1 0.198174 0.792237 0.017255
O O2 0.894648 0.678183 0.229985
O O3 0.212391 0.558382 0.987602
O O4 0.079811 0.691353 0.986300
O O5 0.718244 0.914383 0.764760
O O6 0.349896 0.949262 0.984071
O O7 0.427027 0.789245 0.023555
O O8 0.500000 0.000000 0.000000
O O9 0.012821 0.198703 0.061124
O O10 0.046032 0.996315 0.100754
O O11 0.000000 0.000000 0.000000
O O12 0.500000 0.609521 0.250000
O O13 0.139346 0.597197 0.453594
O O14 0.405682 0.458250 0.241407
O O15 0.000000 0.098423 0.750000
O O16 0.620322 0.600082 0.350258
O O17 0.587270 0.580543 0.500041
O O18 0.217204 0.611649 0.773293
#
# Coordination Sequence:
#
# PCOD9233138 Si02
#       8
#     4   4   4   4   4   4   4   4
#     4  11  21  40  70  94 134 170 221 292 332 405
#     4  12  26  45  73 101 138 184 229 293 361 414
#     4  12  26  48  70  99 142 185 234 294 349 420
#     4  11  24  39  61  97 136 176 223 276 343 410
#     4  12  25  43  70 105 132 177 236 287 347 419
#     4  11  20  38  70  98 125 172 223 273 347 414
#     4  11  21  45  66  91 135 184 225 273 355 408
#     4  10  21  39  66  95 128 171 223 271 340 423
#
# _framework density 20.131018999999998
#
# number of rings (size 3 to 8) (size 9 to 14) (size 15 to 20)
#    0.000    0.750    7.500    0.750    1.750    0.500 
#    4.500    0.000    0.000    0.000    0.000    0.000 
#    0.000    0.000    0.000    0.000    0.000    0.000 
#
# Total GULP energy -178248.548083 kJ/mol
# GULP energy per Si atom -5570.267128 kJ/mol
# Density = 2.008520 g / cm^3
# Si number density = 20.131019 Si / 1000 Ang^3
#
#
#
# Elastic Constant Matrix: (Units=GPa)
#
#
# Indices 1 2 3 4 5 6 
#
# 1 99.9333 33.3626 40.2563 0.0000 -12.9825 0.0000
# 2 33.3626 74.2657 31.7730 0.0000 -2.7448 0.0000
# 3 40.2563 31.7730 119.0993 0.0000 1.6529 0.0000
# 4 0.0000 0.0000 0.0000 25.1105 0.0000 8.8471
# 5 -12.9825 -2.7448 1.6529 0.0000 20.3658 0.0000
# 6 0.0000 0.0000 0.0000 8.8471 0.0000 22.7614
#
#
#
# Elastic Compliance Matrix: (Units=1/GPa)
#
#
# Indices 1 2 3 4 5 6 
#
# 1 0.014109 -0.004431 -0.003708 0.000000 0.008698 0.000000
# 2 -0.004431 0.016707 -0.002955 0.000000 -0.000333 0.000000
# 3 -0.003708 -0.002955 0.010488 0.000000 -0.003613 0.000000
# 4 0.000000 0.000000 0.000000 0.046143 0.000000 -0.017935
# 5 0.008698 -0.000333 -0.003613 0.000000 0.054895 0.000000
# 6 0.000000 0.000000 0.000000 -0.017935 0.000000 0.050905
#
#
# Mechanical properties :
#
#
# Convention : Reuss Voigt Hill
#
# Bulk Modulus (GPa) = 52.30627 56.00911 54.15769
# Shear Modulus (GPa) = 22.54197 26.17461 24.35829
#
# Velocity S-wave (km/s) = 3.34992 3.60976 3.48226
# Velocity P-wave (km/s) = 6.40327 6.72729 6.56728
#
# Compressibility (1/GPa) = 0.01911817
#
# Stress axis : x y z
#
# Youngs Moduli (GPa) = 70.87444 59.85341 95.34631
#
# Poissons Ratio (x) = 0.26519 0.35353
# Poissons Ratio (y) = 0.31402 0.28175
# Poissons Ratio (z) = 0.26279 0.17686
#
# Static dielectric constant tensor:
#      x y z
#    x 1.864930 0.000000 -0.119930 
#    y 0.000000 1.968980 0.000000 
#    z -0.119930 0.000000 1.949760 
# 
# From -- ./inp_files/68676.got.cif
#   From: 2010.05.17/outbox.cif.g08.bks.cpg/sg13_35_cif.got.tgz:68676.got - 2010.06.03 16:44:36.
