data_PCOD9233136
_publ_section_title
;
Structure prediction by ZEFSAII (Michael W. Deem and Ramdas Pophale) SiO2 
 PCOD9233136
Probable space group: P 2/C
;
_chemical_formula_sum "Si O2"
_cell_formula_units_Z 18
_cell_length_a 9.062156
_cell_length_b 8.765189
_cell_length_c 16.749081
_cell_angle_alpha 90.000000
_cell_angle_beta 33.378987
_cell_angle_gamma 90.000000
_cell_volume 731.954828
_symmetry_space_group_name_H-M "P 2/C"
_symmetry_group_IT_number 13
_symmetry_cell_setting 'monoclinic'
loop_
_space_group_symop_operation_xyz
x,y,z
-x,y,1/2-z
-x,-y,-z
x,-y,1/2+z
loop_
_atom_site_type_symbol
_atom_site_label
_atom_site_fract_x
_atom_site_fract_y
_atom_site_fract_z
Si Si1 0.639120 0.896819 0.347792
Si Si2 0.000000 0.545931 0.750000
Si Si3 0.964822 0.329429 0.920524
Si Si4 0.548241 0.774951 0.906896
Si Si5 0.211323 0.864530 0.423380
O O1 0.850781 0.800241 0.203453
O O2 0.642056 0.839083 0.436745
O O3 0.331013 0.868405 0.458477
O O4 0.702246 0.074632 0.310275
O O5 0.023001 0.456700 0.654609
O O6 0.737683 0.647418 0.856212
O O7 0.094229 0.302796 0.950601
O O8 0.652853 0.288240 0.068495
O O9 0.500000 0.895455 0.250000
O O10 0.000000 0.000000 0.500000
#
# Coordination Sequence:
#
# PCOD9233136 Si02
#       5
#     4   2   4   4   4
#     4  10  22  39  67  94 121 165 224 274 321 363
#     4  12  26  38  64  98 136 178 208 260 342 396
#     4  11  22  42  63  91 134 170 210 272 323 393
#     4  11  23  38  67  92 127 164 224 268 319 388
#     4  10  21  39  66  94 129 162 215 276 328 374
#
# _framework density 24.591681000000001
#
# number of rings (size 3 to 8) (size 9 to 14) (size 15 to 20)
#    0.000    1.333    4.444    0.667    6.222    0.000 
#    0.000    1.111    4.889    0.000    0.000    0.000 
#    0.000    0.000    0.000    0.000    0.000    0.000 
#
# Total GULP energy -100390.219576 kJ/mol
# GULP energy per Si atom -5577.234421 kJ/mol
# Density = 2.453571 g / cm^3
# Si number density = 24.591681 Si / 1000 Ang^3
#
#
#
# Elastic Constant Matrix: (Units=GPa)
#
#
# Indices 1 2 3 4 5 6 
#
# 1 118.6610 34.6449 15.7230 0.0000 -42.4644 0.0000
# 2 34.6449 100.6131 19.8951 0.0000 -23.7622 0.0000
# 3 15.7230 19.8951 68.1540 0.0000 -36.1012 0.0000
# 4 0.0000 0.0000 0.0000 22.9503 0.0000 -14.9109
# 5 -42.4644 -23.7622 -36.1012 0.0000 44.5874 0.0000
# 6 0.0000 0.0000 0.0000 -14.9109 0.0000 44.7671
#
#
#
# Elastic Compliance Matrix: (Units=1/GPa)
#
#
# Indices 1 2 3 4 5 6 
#
# 1 0.014805 -0.002076 0.007132 0.000000 0.018769 0.000000
# 2 -0.002076 0.011663 -0.001191 0.000000 0.003274 0.000000
# 3 0.007132 -0.001191 0.029130 0.000000 0.029743 0.000000
# 4 0.000000 0.000000 0.000000 0.055606 0.000000 0.018521
# 5 0.018769 0.003274 0.029743 0.000000 0.066130 0.000000
# 6 0.000000 0.000000 0.000000 0.018521 0.000000 0.028507
#
#
# Mechanical properties :
#
#
# Convention : Reuss Voigt Hill
#
# Bulk Modulus (GPa) = 15.79080 47.55046 31.67063
# Shear Modulus (GPa) = 22.80824 36.93864 29.87344
#
# Velocity S-wave (km/s) = 3.04876 3.87987 3.48915
# Velocity P-wave (km/s) = 4.33917 6.28086 5.39803
#
# Compressibility (1/GPa) = 0.06332801
#
# Stress axis : x y z
#
# Youngs Moduli (GPa) = 67.54520 85.74438 34.32865
#
# Poissons Ratio (x) = 0.17797 -0.24484
# Poissons Ratio (y) = 0.14019 0.04090
# Poissons Ratio (z) = -0.48174 0.10215
#
# Static dielectric constant tensor:
#      x y z
#    x 2.392470 0.000000 0.135130 
#    y 0.000000 2.001030 0.000000 
#    z 0.135130 0.000000 1.931080 
# 
# From -- ./inp_files/27651.got.cif
#   From: 2010.05.17/outbox.cif.g08.bks.cpg/sg13_14_cif.got.tgz:27651.got - 2010.06.03 16:44:36.
