data_PCOD9233976
_publ_section_title
;
Structure prediction by ZEFSAII (Michael W. Deem and Ramdas Pophale) SiO2 
 PCOD9233976
Probable space group: P 2/C
;
_chemical_formula_sum "Si O2"
_cell_formula_units_Z 22
_cell_length_a 5.665540
_cell_length_b 20.199237
_cell_length_c 7.869414
_cell_angle_alpha 90.000000
_cell_angle_beta 87.011252
_cell_angle_gamma 90.000000
_cell_volume 899.347509
_symmetry_space_group_name_H-M "P 2/C"
_symmetry_group_IT_number 13
_symmetry_cell_setting 'monoclinic'
loop_
_space_group_symop_operation_xyz
x,y,z
-x,y,1/2-z
-x,-y,-z
x,-y,1/2+z
loop_
_atom_site_type_symbol
_atom_site_label
_atom_site_fract_x
_atom_site_fract_y
_atom_site_fract_z
Si Si1 0.732109 0.044331 0.962902
Si Si2 0.000000 0.561325 0.250000
Si Si3 0.000000 0.065166 0.250000
Si Si4 0.000000 0.297525 0.250000
Si Si5 0.500000 0.142994 0.750000
Si Si6 0.673327 0.629581 0.526540
Si Si7 0.500000 0.519094 0.750000
Si Si8 0.397042 0.240290 0.060256
O O1 0.704542 0.094808 0.808043
O O2 0.879397 0.983479 0.884972
O O3 0.801180 0.089792 0.125648
O O4 0.500000 0.000000 0.000000
O O5 0.893175 0.607993 0.401461
O O6 0.756873 0.518403 0.229589
O O7 0.794765 0.344411 0.192771
O O8 0.881112 0.253129 0.398398
O O9 0.568575 0.184913 0.581973
O O10 0.514093 0.566990 0.583580
O O11 0.518441 0.692749 0.479520
O O12 0.500000 0.228214 0.250000
#
# Coordination Sequence:
#
# PCOD9233976 Si02
#       8
#     4   2   2   2   2   4   2   4
#     4  11  22  46  71 111 156 199 244 322 385 467
#     4  12  29  38  75 117 142 195 272 326 394 512
#     4  10  22  42  74 103 150 211 234 290 422 448
#     4  10  21  48  75  88 144 208 244 320 412 460
#     4  12  26  47  80 113 154 198 284 314 386 498
#     4  11  24  45  69  99 151 197 252 329 412 461
#     4  12  24  45  68 109 156 202 258 328 410 494
#     4  10  25  49  71 105 146 209 260 333 398 463
#
# _framework density 24.462181000000001
#
# number of rings (size 3 to 8) (size 9 to 14) (size 15 to 20)
#    0.000    1.091    4.545    1.636    5.091    1.455 
#    6.545    1.818    0.000    0.000    0.000    0.000 
#    0.000    0.000    0.000    0.000    0.000    0.000 
#
# Total GULP energy -122472.449729 kJ/mol
# GULP energy per Si atom -5566.929533 kJ/mol
# Density = 2.440650 g / cm^3
# Si number density = 24.462181 Si / 1000 Ang^3
#
#
#
# Elastic Constant Matrix: (Units=GPa)
#
#
# Indices 1 2 3 4 5 6 
#
# 1 73.1683 -1.1328 14.4611 0.0000 -17.2172 0.0000
# 2 -1.1328 55.0743 9.1490 0.0000 2.8888 0.0000
# 3 14.4611 9.1490 100.4165 0.0000 -1.4661 0.0000
# 4 0.0000 0.0000 0.0000 54.1987 0.0000 -4.9753
# 5 -17.2172 2.8888 -1.4661 0.0000 61.5290 0.0000
# 6 0.0000 0.0000 0.0000 -4.9753 0.0000 21.5528
#
#
#
# Elastic Compliance Matrix: (Units=1/GPa)
#
#
# Indices 1 2 3 4 5 6 
#
# 1 0.015075 0.000450 -0.002151 0.000000 0.004146 0.000000
# 2 0.000450 0.018500 -0.001762 0.000000 -0.000785 0.000000
# 3 -0.002151 -0.001762 0.010425 0.000000 -0.000271 0.000000
# 4 0.000000 0.000000 0.000000 0.018850 0.000000 0.004351
# 5 0.004146 -0.000785 -0.000271 0.000000 0.017443 0.000000
# 6 0.000000 0.000000 0.000000 0.004351 0.000000 0.047402
#
#
# Mechanical properties :
#
#
# Convention : Reuss Voigt Hill
#
# Bulk Modulus (GPa) = 26.97333 30.40152 28.68743
# Shear Modulus (GPa) = 34.01827 41.20155 37.60991
#
# Velocity S-wave (km/s) = 3.73318 4.10847 3.92531
# Velocity P-wave (km/s) = 5.44359 5.91278 5.68303
#
# Compressibility (1/GPa) = 0.03707365
#
# Stress axis : x y z
#
# Youngs Moduli (GPa) = 66.33558 54.05294 95.92402
#
# Poissons Ratio (x) = -0.02432 0.20637
# Poissons Ratio (y) = -0.02985 0.16900
# Poissons Ratio (z) = 0.14272 0.09523
#
# Static dielectric constant tensor:
#      x y z
#    x 1.746230 0.000000 -0.054940 
#    y 0.000000 1.945250 0.000000 
#    z -0.054940 0.000000 1.965590 
# 
# From -- ./inp_files/10014.got.cif
#   From: 2010.05.17/outbox.cif.g08.bks.cpg/sg13_6_cif.got.tgz:10014.got - 2010.06.03 16:44:36.
