data_PCOD9233960
_publ_section_title
;
Structure prediction by ZEFSAII (Michael W. Deem and Ramdas Pophale) SiO2 
 PCOD9233960
Probable space group: P 2/C
;
_chemical_formula_sum "Si O2"
_cell_formula_units_Z 26
_cell_length_a 15.958255
_cell_length_b 12.377696
_cell_length_c 9.886099
_cell_angle_alpha 90.000000
_cell_angle_beta 145.474961
_cell_angle_gamma 90.000000
_cell_volume 1106.761938
_symmetry_space_group_name_H-M "P 2/C"
_symmetry_group_IT_number 13
_symmetry_cell_setting 'monoclinic'
loop_
_space_group_symop_operation_xyz
x,y,z
-x,y,1/2-z
-x,-y,-z
x,-y,1/2+z
loop_
_atom_site_type_symbol
_atom_site_label
_atom_site_fract_x
_atom_site_fract_y
_atom_site_fract_z
Si Si1 0.956448 0.836139 0.537079
Si Si2 0.288985 0.492991 0.754004
Si Si3 0.132560 0.925404 0.537691
Si Si4 0.424909 0.848734 0.779421
Si Si5 0.000000 0.434562 0.750000
Si Si6 0.767619 0.325001 0.628075
Si Si7 0.505939 0.680485 0.100051
O O1 0.847134 0.741776 0.350831
O O2 0.000000 0.823801 0.750000
O O3 0.091312 0.846765 0.608288
O O4 0.876388 0.952464 0.419308
O O5 0.310589 0.432306 0.924153
O O6 0.368437 0.410454 0.757311
O O7 0.115624 0.498730 0.492577
O O8 0.361184 0.610990 0.860890
O O9 0.290942 0.908336 0.678620
O O10 0.000000 0.912837 0.250000
O O11 0.500000 0.909818 0.750000
O O12 0.345034 0.752620 0.593207
O O13 0.519193 0.785775 0.020626
O O14 0.102910 0.360321 0.797413
O O15 0.500000 0.709643 0.250000
#
# Coordination Sequence:
#
# PCOD9233960 Si02
#       7
#     4   4   4   4   2   4   4
#     4  10  23  41  73 105 139 175 229 299 360 419
#     4  11  25  41  65  97 144 182 237 287 354 411
#     4  10  21  45  75 103 136 183 233 288 363 426
#     4  12  24  45  72 100 137 192 237 284 356 433
#     4  12  24  42  66 102 138 186 240 294 344 412
#     4  12  23  41  66  98 136 181 232 288 346 413
#     4  11  25  43  67  96 139 193 234 286 356 424
#
# _framework density 23.491954
#
# number of rings (size 3 to 8) (size 9 to 14) (size 15 to 20)
#    0.000    0.923    4.615    2.308    3.231    1.231 
#    0.000    0.769    0.000    0.000    0.000    0.000 
#    0.000    0.000    0.000    0.000    0.000    0.000 
#
# Total GULP energy -145381.839172 kJ/mol
# GULP energy per Si atom -5591.609199 kJ/mol
# Density = 2.343848 g / cm^3
# Si number density = 23.491954 Si / 1000 Ang^3
#
#
#
# Elastic Constant Matrix: (Units=GPa)
#
#
# Indices 1 2 3 4 5 6 
#
# 1 164.2330 15.5063 16.8284 0.0000 -5.6747 0.0000
# 2 15.5063 36.3329 -2.5848 0.0000 -2.1861 0.0000
# 3 16.8284 -2.5848 40.5388 0.0000 -5.8639 0.0000
# 4 0.0000 0.0000 0.0000 31.1574 0.0000 -5.5059
# 5 -5.6747 -2.1861 -5.8639 0.0000 37.4946 0.0000
# 6 0.0000 0.0000 0.0000 -5.5059 0.0000 40.4702
#
#
#
# Elastic Compliance Matrix: (Units=1/GPa)
#
#
# Indices 1 2 3 4 5 6 
#
# 1 0.006688 -0.003039 -0.002915 0.000000 0.000379 0.000000
# 2 -0.003039 0.029167 0.003377 0.000000 0.001769 0.000000
# 3 -0.002915 0.003377 0.026661 0.000000 0.003925 0.000000
# 4 0.000000 0.000000 0.000000 0.032886 0.000000 0.004474
# 5 0.000379 0.001769 0.003925 0.000000 0.027445 0.000000
# 6 0.000000 0.000000 0.000000 0.004474 0.000000 0.025318
#
#
# Mechanical properties :
#
#
# Convention : Reuss Voigt Hill
#
# Bulk Modulus (GPa) = 17.43324 33.40049 25.41687
# Shear Modulus (GPa) = 28.99587 35.91475 32.45531
#
# Velocity S-wave (km/s) = 3.51706 3.91424 3.72095
# Velocity P-wave (km/s) = 4.89183 5.88873 5.41327
#
# Compressibility (1/GPa) = 0.05736167
#
# Stress axis : x y z
#
# Youngs Moduli (GPa) = 149.53020 34.28559 37.50806
#
# Poissons Ratio (x) = 0.10418 0.10934
# Poissons Ratio (y) = 0.45438 -0.12666
# Poissons Ratio (z) = 0.43589 -0.11578
#
# Static dielectric constant tensor:
#      x y z
#    x 1.963460 0.000000 -0.005270 
#    y 0.000000 1.880310 0.000000 
#    z -0.005270 0.000000 1.895320 
# 
# From -- ./inp_files/19918.got.cif
#   From: 2010.05.17/outbox.cif.g08.bks.cpg/sg13_10_cif.got.tgz:19918.got - 2010.06.03 16:44:36.
