data_PCOD9233450
_publ_section_title
;
Structure prediction by ZEFSAII (Michael W. Deem and Ramdas Pophale) SiO2 
 PCOD9233450
Probable space group: P 2/C
;
_chemical_formula_sum "Si O2"
_cell_formula_units_Z 20
_cell_length_a 11.834276
_cell_length_b 8.685231
_cell_length_c 8.866360
_cell_angle_alpha 90.000000
_cell_angle_beta 99.182333
_cell_angle_gamma 90.000000
_cell_volume 899.636783
_symmetry_space_group_name_H-M "P 2/C"
_symmetry_group_IT_number 13
_symmetry_cell_setting 'monoclinic'
loop_
_space_group_symop_operation_xyz
x,y,z
-x,y,1/2-z
-x,-y,-z
x,-y,1/2+z
loop_
_atom_site_type_symbol
_atom_site_label
_atom_site_fract_x
_atom_site_fract_y
_atom_site_fract_z
Si Si1 0.375957 0.834779 0.654475
Si Si2 0.738129 0.983776 0.118234
Si Si3 0.823667 0.283526 0.008084
Si Si4 0.056043 0.243331 0.913415
Si Si5 0.787946 0.571216 0.821017
O O1 0.500000 0.856242 0.750000
O O2 0.289761 0.952413 0.722476
O O3 0.329724 0.663632 0.677275
O O4 0.358972 0.876509 0.475975
O O5 0.740878 0.145287 0.030576
O O6 0.857587 0.891367 0.122610
O O7 0.829749 0.385251 0.162605
O O8 0.781941 0.392883 0.863736
O O9 0.944604 0.206671 0.989879
O O10 0.000000 0.313236 0.750000
O O11 0.126691 0.354880 0.037406
#
# Coordination Sequence:
#
# PCOD9233450 Si02
#       5
#     4   4   4   4   4
#     4  10  21  41  62  85 117 154 197 251 294 334
#     4  10  22  37  60  89 114 149 200 242 291 353
#     4  11  21  38  56  84 122 157 190 239 289 351
#     4  11  21  36  59  86 117 154 190 237 296 353
#     4  10  23  38  58  86 119 158 200 235 286 353
#
# _framework density 22.231193999999999
#
# number of rings (size 3 to 8) (size 9 to 14) (size 15 to 20)
#    0.000    1.600    0.000    4.800    0.000    4.800 
#    0.000    5.000    0.000    0.000    0.000    0.000 
#    0.000    0.000    0.000    0.000    0.000    0.000 
#
# Total GULP energy -111629.913923 kJ/mol
# GULP energy per Si atom -5581.495696 kJ/mol
# Density = 2.218059 g / cm^3
# Si number density = 22.231194 Si / 1000 Ang^3
#
#
#
# Elastic Constant Matrix: (Units=GPa)
#
#
# Indices 1 2 3 4 5 6 
#
# 1 26.9710 17.2718 15.5173 0.0000 6.6670 0.0000
# 2 17.2718 64.6138 31.8165 0.0000 -1.3666 0.0000
# 3 15.5173 31.8165 82.4341 0.0000 -0.3167 0.0000
# 4 0.0000 0.0000 0.0000 44.6037 0.0000 -4.9358
# 5 6.6670 -1.3666 -0.3167 0.0000 19.9997 0.0000
# 6 0.0000 0.0000 0.0000 -4.9358 0.0000 15.2208
#
#
#
# Elastic Compliance Matrix: (Units=1/GPa)
#
#
# Indices 1 2 3 4 5 6 
#
# 1 0.052172 -0.011682 -0.005382 0.000000 -0.018275 0.000000
# 2 -0.011682 0.021752 -0.006176 0.000000 0.005283 0.000000
# 3 -0.005382 -0.006176 0.015534 0.000000 0.001618 0.000000
# 4 0.000000 0.000000 0.000000 0.023254 0.000000 0.007541
# 5 -0.018275 0.005283 0.001618 0.000000 0.056480 0.000000
# 6 0.000000 0.000000 0.000000 0.007541 0.000000 0.068145
#
#
# Mechanical properties :
#
#
# Convention : Reuss Voigt Hill
#
# Bulk Modulus (GPa) = 23.26820 33.69222 28.48021
# Shear Modulus (GPa) = 16.77042 23.25906 20.01474
#
# Velocity S-wave (km/s) = 2.74955 3.23807 3.00375
# Velocity P-wave (km/s) = 4.53533 5.40078 4.98686
#
# Compressibility (1/GPa) = 0.04297711
#
# Stress axis : x y z
#
# Youngs Moduli (GPa) = 19.16736 45.97207 64.37485
#
# Poissons Ratio (x) = 0.53706 0.34647
# Poissons Ratio (y) = 0.22392 0.39759
# Poissons Ratio (z) = 0.10316 0.28393
#
# Static dielectric constant tensor:
#      x y z
#    x 1.808410 0.000000 -0.042060 
#    y 0.000000 1.817620 0.000000 
#    z -0.042060 0.000000 1.881310 
# 
# From -- ./inp_files/14800.got.cif
#   From: 2010.05.17/outbox.cif.g08.bks.cpg/sg13_8_cif.got.tgz:14800.got - 2010.06.03 16:44:36.
