data_PCOD9233493
_publ_section_title
;
Structure prediction by ZEFSAII (Michael W. Deem and Ramdas Pophale) SiO2 
 PCOD9233493
Probable space group: P 2/C
;
_chemical_formula_sum "Si O2"
_cell_formula_units_Z 24
_cell_length_a 11.078218
_cell_length_b 11.706434
_cell_length_c 21.940950
_cell_angle_alpha 90.000000
_cell_angle_beta 160.605691
_cell_angle_gamma 90.000000
_cell_volume 944.879124
_symmetry_space_group_name_H-M "P 2/C"
_symmetry_group_IT_number 13
_symmetry_cell_setting 'monoclinic'
loop_
_space_group_symop_operation_xyz
x,y,z
-x,y,1/2-z
-x,-y,-z
x,-y,1/2+z
loop_
_atom_site_type_symbol
_atom_site_label
_atom_site_fract_x
_atom_site_fract_y
_atom_site_fract_z
Si Si1 0.573607 0.133941 0.533277
Si Si2 0.238745 0.350371 0.182988
Si Si3 0.190275 0.532928 0.466281
Si Si4 0.823639 0.083104 0.865775
Si Si5 0.648202 0.357282 0.627283
Si Si6 0.420503 0.866061 0.821686
O O1 0.456827 0.235496 0.523446
O O2 0.428727 0.160907 0.396819
O O3 0.000000 0.137244 0.750000
O O4 0.500000 0.000000 0.500000
O O5 0.500000 0.358273 0.250000
O O6 0.478752 0.390285 0.354947
O O7 0.161471 0.218269 0.160245
O O8 0.919437 0.442172 0.033485
O O9 0.335373 0.453086 0.480187
O O10 0.857381 0.615037 0.290032
O O11 0.500000 0.141763 0.750000
O O12 0.679484 0.997431 0.743489
O O13 0.163741 0.153013 0.002846
O O14 0.000000 0.000000 0.000000
O O15 0.000000 0.365448 0.750000
#
# Coordination Sequence:
#
# PCOD9233493 Si02
#       6
#     4   4   4   4   4   4
#     4  11  24  41  60  89 127 166 207 257 310 372
#     4  11  22  41  62  89 122 159 203 260 318 375
#     4  10  23  40  65  91 120 161 210 260 312 375
#     4   9  19  38  62  89 119 157 203 252 307 374
#     4  10  21  41  64  92 123 161 210 260 313 373
#     4  11  22  39  62  90 124 162 207 257 314 379
#
# _framework density 25.400072000000002
#
# number of rings (size 3 to 8) (size 9 to 14) (size 15 to 20)
#    0.000    1.667    0.000    5.500    0.000    4.000 
#    0.000   14.167    0.000    0.000    0.000    0.000 
#    0.000    0.000    0.000    0.000    0.000    0.000 
#
# Total GULP energy -133893.855565 kJ/mol
# GULP energy per Si atom -5578.910649 kJ/mol
# Density = 2.534226 g / cm^3
# Si number density = 25.400072 Si / 1000 Ang^3
#
#
#
# Elastic Constant Matrix: (Units=GPa)
#
#
# Indices 1 2 3 4 5 6 
#
# 1 71.6199 44.4577 3.9772 0.0000 13.0859 0.0000
# 2 44.4577 142.3567 14.2060 0.0000 -12.2301 0.0000
# 3 3.9772 14.2060 70.2655 0.0000 -4.7883 0.0000
# 4 0.0000 0.0000 0.0000 30.9187 0.0000 -8.2977
# 5 13.0859 -12.2301 -4.7883 0.0000 27.4883 0.0000
# 6 0.0000 0.0000 0.0000 -8.2977 0.0000 26.0661
#
#
#
# Elastic Compliance Matrix: (Units=1/GPa)
#
#
# Indices 1 2 3 4 5 6 
#
# 1 0.021332 -0.007784 -0.000569 0.000000 -0.013718 0.000000
# 2 -0.007784 0.010258 -0.001083 0.000000 0.008081 0.000000
# 3 -0.000569 -0.001083 0.014642 0.000000 0.002340 0.000000
# 4 0.000000 0.000000 0.000000 0.035364 0.000000 0.011258
# 5 -0.013718 0.008081 0.002340 0.000000 0.046912 0.000000
# 6 0.000000 0.000000 0.000000 0.011258 0.000000 0.041948
#
#
# Mechanical properties :
#
#
# Convention : Reuss Voigt Hill
#
# Bulk Modulus (GPa) = 36.54657 45.50265 41.02461
# Shear Modulus (GPa) = 25.19562 31.66802 28.43182
#
# Velocity S-wave (km/s) = 3.15294 3.53479 3.34931
# Velocity P-wave (km/s) = 5.26064 5.88328 5.58065
#
# Compressibility (1/GPa) = 0.02736235
#
# Stress axis : x y z
#
# Youngs Moduli (GPa) = 46.87719 97.48727 68.29561
#
# Poissons Ratio (x) = 0.75882 0.03883
# Poissons Ratio (y) = 0.36488 0.07394
# Poissons Ratio (z) = 0.02665 0.10554
#
# Static dielectric constant tensor:
#      x y z
#    x 2.071780 0.000000 0.033320 
#    y 0.000000 2.115770 0.000000 
#    z 0.033320 0.000000 2.007570 
# 
# From -- ./inp_files/86633.got.cif
#   From: 2010.05.17/outbox.cif.g08.bks.cpg/sg13_44_cif.got.tgz:86633.got - 2010.06.03 16:44:36.
