data_PCOD9233045
_publ_section_title
;
Structure prediction by ZEFSAII (Michael W. Deem and Ramdas Pophale) SiO2 
 PCOD9233045
Probable space group: P 2/C
;
_chemical_formula_sum "Si O2"
_cell_formula_units_Z 30
_cell_length_a 7.827291
_cell_length_b 14.472622
_cell_length_c 13.552267
_cell_angle_alpha 90.000000
_cell_angle_beta 120.132435
_cell_angle_gamma 90.000000
_cell_volume 1327.761785
_symmetry_space_group_name_H-M "P 2/C"
_symmetry_group_IT_number 13
_symmetry_cell_setting 'monoclinic'
loop_
_space_group_symop_operation_xyz
x,y,z
-x,y,1/2-z
-x,-y,-z
x,-y,1/2+z
loop_
_atom_site_type_symbol
_atom_site_label
_atom_site_fract_x
_atom_site_fract_y
_atom_site_fract_z
Si Si1 0.000000 0.193053 0.750000
Si Si2 0.035108 0.832042 0.872192
Si Si3 0.598266 0.620652 0.383732
Si Si4 0.968632 0.296519 0.529845
Si Si5 0.807548 0.017056 0.606746
Si Si6 0.437770 0.590948 0.617582
Si Si7 0.460164 0.914255 0.623588
Si Si8 0.558351 0.743929 0.532196
O O1 0.988964 0.253118 0.848334
O O2 0.161104 0.114950 0.830043
O O3 0.262132 0.804964 0.954864
O O4 0.000000 0.796251 0.750000
O O5 0.017085 0.942723 0.858275
O O6 0.932500 0.781245 0.933395
O O7 0.500000 0.622044 0.250000
O O8 0.575801 0.516164 0.414635
O O9 0.474332 0.695558 0.411202
O O10 0.829608 0.649332 0.443113
O O11 0.774827 0.361919 0.469141
O O12 0.728551 0.034229 0.473819
O O13 0.642279 0.966068 0.623744
O O14 0.500000 0.596512 0.750000
O O15 0.601566 0.651965 0.607976
O O16 0.500000 0.911127 0.750000
O O17 0.450491 0.812279 0.574315
#
# Coordination Sequence:
#
# PCOD9233045 Si02
#       8
#     2   4   4   4   4   4   4   4
#     4  12  26  42  62  96 138 172 226 264 340 390
#     4  10  21  42  63  93 132 169 222 270 329 388
#     4  10  24  43  67  95 137 172 214 272 337 401
#     4  11  26  42  68  99 136 178 218 279 329 401
#     4  10  23  40  60  96 125 171 218 265 328 388
#     4  11  22  42  70 101 129 168 223 272 334 397
#     4  10  22  40  64  90 130 167 218 272 321 388
#     4  10  21  39  63  95 125 168 215 264 323 396
#
# _framework density 22.594414
#
# number of rings (size 3 to 8) (size 9 to 14) (size 15 to 20)
#    0.000    1.600    0.667    2.800    5.600    3.733 
#    0.000    0.000    2.933    0.000    0.000    0.000 
#    0.000    0.000    0.000    0.000    0.000    0.000 
#
# Total GULP energy -167169.810479 kJ/mol
# GULP energy per Si atom -5572.327016 kJ/mol
# Density = 2.254299 g / cm^3
# Si number density = 22.594414 Si / 1000 Ang^3
#
#
#
# Elastic Constant Matrix: (Units=GPa)
#
#
# Indices 1 2 3 4 5 6 
#
# 1 58.5822 23.3929 25.7032 0.0000 -7.7662 0.0000
# 2 23.3929 127.9573 68.9428 0.0000 -10.6475 0.0000
# 3 25.7032 68.9428 173.9243 0.0000 -17.1607 0.0000
# 4 0.0000 0.0000 0.0000 0.9512 0.0000 0.3101
# 5 -7.7662 -10.6475 -17.1607 0.0000 36.5835 0.0000
# 6 0.0000 0.0000 0.0000 0.3101 0.0000 25.8120
#
#
#
# Elastic Compliance Matrix: (Units=1/GPa)
#
#
# Indices 1 2 3 4 5 6 
#
# 1 0.019081 -0.002405 -0.001611 0.000000 0.002595 0.000000
# 2 -0.002405 0.010283 -0.003644 0.000000 0.000773 0.000000
# 3 -0.001611 -0.003644 0.007648 0.000000 0.002185 0.000000
# 4 0.000000 0.000000 0.000000 1.055459 0.000000 -0.012680
# 5 0.002595 0.000773 0.002185 0.000000 0.029136 0.000000
# 6 0.000000 0.000000 0.000000 -0.012680 0.000000 0.038894
#
#
# Mechanical properties :
#
#
# Convention : Reuss Voigt Hill
#
# Bulk Modulus (GPa) = 46.09948 66.28241 56.19094
# Shear Modulus (GPa) = 4.22636 28.83098 16.52867
#
# Velocity S-wave (km/s) = 1.36916 3.57602 2.70763
# Velocity P-wave (km/s) = 4.79028 6.81542 5.89053
#
# Compressibility (1/GPa) = 0.02169222
#
# Stress axis : x y z
#
# Youngs Moduli (GPa) = 52.40831 97.25190 130.75587
#
# Poissons Ratio (x) = 0.23385 0.21060
# Poissons Ratio (y) = 0.12602 0.47652
# Poissons Ratio (z) = 0.08441 0.35442
#
# Static dielectric constant tensor:
#      x y z
#    x 1.982450 0.000000 -0.024880 
#    y 0.000000 1.846690 0.000000 
#    z -0.024880 0.000000 1.925120 
# 
# From -- ./inp_files/30438.got.cif
#   From: 2010.05.17/outbox.cif.g08.bks.cpg/sg13_16_cif.got.tgz:30438.got - 2010.06.03 16:44:36.
