data_PCOD9233233
_publ_section_title
;
Structure prediction by ZEFSAII (Michael W. Deem and Ramdas Pophale) SiO2 
 PCOD9233233
Probable space group: P 2/C
;
_chemical_formula_sum "Si O2"
_cell_formula_units_Z 20
_cell_length_a 16.155341
_cell_length_b 5.231594
_cell_length_c 10.178688
_cell_angle_alpha 90.000000
_cell_angle_beta 118.843679
_cell_angle_gamma 90.000000
_cell_volume 753.556655
_symmetry_space_group_name_H-M "P 2/C"
_symmetry_group_IT_number 13
_symmetry_cell_setting 'monoclinic'
loop_
_space_group_symop_operation_xyz
x,y,z
-x,y,1/2-z
-x,-y,-z
x,-y,1/2+z
loop_
_atom_site_type_symbol
_atom_site_label
_atom_site_fract_x
_atom_site_fract_y
_atom_site_fract_z
Si Si1 0.887772 0.986875 0.189262
Si Si2 0.635096 0.452498 0.876428
Si Si3 0.584558 0.796581 0.085607
Si Si4 0.068694 0.485239 0.176274
Si Si5 0.732340 0.038230 0.375152
O O1 0.870109 0.231057 0.266212
O O2 0.000000 0.977651 0.250000
O O3 0.866640 0.730142 0.252532
O O4 0.837381 0.998460 0.010837
O O5 0.567987 0.381769 0.701450
O O6 0.678956 0.170046 0.932662
O O7 0.708928 0.662662 0.875161
O O8 0.601904 0.610963 0.977011
O O9 0.680306 0.944792 0.203423
O O10 0.500000 0.000000 0.000000
O O11 0.000000 0.475183 0.250000
O O12 0.000000 0.500000 0.000000
#
# Coordination Sequence:
#
# PCOD9233233 Si02
#       5
#     4   4   4   4   4
#     4  10  21  43  68 107 144 201 252 309 375 441
#     4  10  25  49  76 116 152 202 252 319 393 464
#     4  10  26  53  82 113 157 202 261 321 395 476
#     4  10  21  40  61  95 135 183 244 304 358 430
#     4  10  24  47  74 108 158 200 257 321 383 463
#
# _framework density 26.540806
#
# number of rings (size 3 to 8) (size 9 to 14) (size 15 to 20)
#    1.200    0.800    0.000    1.800    2.800    1.600 
#   25.200    1.000    0.000    0.000    0.000    0.000 
#    0.000    0.000    0.000    0.000    0.000    0.000 
#
# Total GULP energy -111689.921627 kJ/mol
# GULP energy per Si atom -5584.496081 kJ/mol
# Density = 2.648040 g / cm^3
# Si number density = 26.540806 Si / 1000 Ang^3
#
#
#
# Elastic Constant Matrix: (Units=GPa)
#
#
# Indices 1 2 3 4 5 6 
#
# 1 60.8042 -0.7079 63.7929 0.0000 -2.6385 0.0000
# 2 -0.7079 192.8635 54.6494 0.0000 0.2579 0.0000
# 3 63.7929 54.6494 243.2755 0.0000 14.8013 0.0000
# 4 0.0000 0.0000 0.0000 56.9122 0.0000 -6.4950
# 5 -2.6385 0.2579 14.8013 0.0000 56.6339 0.0000
# 6 0.0000 0.0000 0.0000 -6.4950 0.0000 31.3794
#
#
#
# Elastic Compliance Matrix: (Units=1/GPa)
#
#
# Indices 1 2 3 4 5 6 
#
# 1 0.023810 0.002032 -0.006876 0.000000 0.002897 0.000000
# 2 0.002032 0.005716 -0.001850 0.000000 0.000552 0.000000
# 3 -0.006876 -0.001850 0.006451 0.000000 -0.001998 0.000000
# 4 0.000000 0.000000 0.000000 0.017996 0.000000 0.003725
# 5 0.002897 0.000552 -0.001998 0.000000 0.018312 0.000000
# 6 0.000000 0.000000 0.000000 0.003725 0.000000 0.032639
#
#
# Mechanical properties :
#
#
# Convention : Reuss Voigt Hill
#
# Bulk Modulus (GPa) = 44.27268 81.37912 62.82590
# Shear Modulus (GPa) = 39.73221 54.26567 46.99894
#
# Velocity S-wave (km/s) = 3.87334 4.52665 4.21267
# Velocity P-wave (km/s) = 6.05977 7.61900 6.88368
#
# Compressibility (1/GPa) = 0.02258729
#
# Stress axis : x y z
#
# Youngs Moduli (GPa) = 41.99942 174.94488 155.01617
#
# Poissons Ratio (x) = -0.35548 1.06593
# Poissons Ratio (y) = -0.08534 0.28686
# Poissons Ratio (z) = 0.28880 0.32373
#
# Static dielectric constant tensor:
#      x y z
#    x 2.220330 0.000000 -0.108160 
#    y 0.000000 2.484210 0.000000 
#    z -0.108160 0.000000 2.078810 
# 
# From -- ./inp_files/41326.got.cif
#   From: 2010.05.17/outbox.cif.g08.bks.cpg/sg13_21_cif.got.tgz:41326.got - 2010.06.03 16:44:36.
