data_PCOD9233179
_publ_section_title
;
Structure prediction by ZEFSAII (Michael W. Deem and Ramdas Pophale) SiO2 
 PCOD9233179
Probable space group: P 2/C
;
_chemical_formula_sum "Si O2"
_cell_formula_units_Z 28
_cell_length_a 20.311686
_cell_length_b 11.970888
_cell_length_c 17.157023
_cell_angle_alpha 90.000000
_cell_angle_beta 19.291006
_cell_angle_gamma 90.000000
_cell_volume 1378.192651
_symmetry_space_group_name_H-M "P 2/C"
_symmetry_group_IT_number 13
_symmetry_cell_setting 'monoclinic'
loop_
_space_group_symop_operation_xyz
x,y,z
-x,y,1/2-z
-x,-y,-z
x,-y,1/2+z
loop_
_atom_site_type_symbol
_atom_site_label
_atom_site_fract_x
_atom_site_fract_y
_atom_site_fract_z
Si Si1 0.535807 0.088941 0.118466
Si Si2 0.050107 0.483198 0.784553
Si Si3 0.704874 0.673858 0.376969
Si Si4 0.112503 0.955688 0.798205
Si Si5 0.279171 0.350810 0.270731
Si Si6 0.081754 0.695531 0.840343
Si Si7 0.900887 0.857672 0.440105
O O1 0.500000 0.082634 0.250000
O O2 0.318878 0.095063 0.325279
O O3 0.659884 0.201605 0.959983
O O4 0.655761 0.983896 0.952442
O O5 0.222171 0.406652 0.633589
O O6 0.093622 0.612082 0.754690
O O7 0.000000 0.461722 0.750000
O O8 0.849760 0.454851 0.056639
O O9 0.496235 0.644181 0.567146
O O10 0.882393 0.675494 0.115287
O O11 0.081626 0.825672 0.819456
O O12 0.035688 0.040113 0.817827
O O13 0.000000 0.000000 0.000000
O O14 0.264065 0.336356 0.195021
O O15 0.145823 0.245799 0.451254
O O16 0.000000 0.813911 0.250000
#
# Coordination Sequence:
#
# PCOD9233179 Si02
#       7
#     4   4   4   4   4   4   4
#     4  11  23  38  66 102 124 158 220 277 326 375
#     4  11  25  41  61  93 133 171 211 263 330 395
#     4  10  22  40  69  97 124 164 219 278 326 380
#     4  12  22  42  64  92 136 175 210 264 324 386
#     4  10  21  39  69  96 122 160 220 279 324 379
#     4  11  24  42  64  92 132 178 218 257 322 404
#     4  11  22  37  65  98 126 160 213 276 330 371
#
# _framework density 20.316462999999999
#
# number of rings (size 3 to 8) (size 9 to 14) (size 15 to 20)
#    0.000    1.143    4.286    3.000    4.000    4.571 
#    0.000    0.000    0.000    0.000    0.000    0.000 
#    0.000    0.000    0.000    0.000    0.000    0.000 
#
# Total GULP energy -156335.320183 kJ/mol
# GULP energy per Si atom -5583.404292 kJ/mol
# Density = 2.027022 g / cm^3
# Si number density = 20.316463 Si / 1000 Ang^3
#
#
#
# Elastic Constant Matrix: (Units=GPa)
#
#
# Indices 1 2 3 4 5 6 
#
# 1 74.5711 33.0040 20.0428 0.0000 -17.6190 0.0000
# 2 33.0040 116.1607 25.8402 0.0000 -17.6394 0.0000
# 3 20.0428 25.8402 75.6676 0.0000 -19.0573 0.0000
# 4 0.0000 0.0000 0.0000 -78.5795 0.0000 278.7089
# 5 -17.6190 -17.6394 -19.0573 0.0000 31.4541 0.0000
# 6 0.0000 0.0000 0.0000 278.7089 0.0000 -702.8310
#
#
#
# Elastic Compliance Matrix: (Units=1/GPa)
#
#
# Indices 1 2 3 4 5 6 
#
# 1 0.016927 -0.003447 -0.001658 0.000000 0.006544 0.000000
# 2 -0.003447 0.010440 -0.001964 0.000000 0.002734 0.000000
# 3 -0.001658 -0.001964 0.016302 0.000000 0.007847 0.000000
# 4 0.000000 0.000000 0.000000 0.031306 0.000000 0.012414
# 5 0.006544 0.002734 0.007847 0.000000 0.041746 0.000000
# 6 0.000000 0.000000 0.000000 0.012414 0.000000 0.003500
#
#
# Mechanical properties :
#
#
# Convention : Reuss Voigt Hill
#
# Bulk Modulus (GPa) = 33.86210 47.13039 40.49625
# Shear Modulus (GPa) = 34.67346 -137.49046 -51.40850
#
# Velocity S-wave (km/s) = 4.13567 -8.23537 -5.03575
# Velocity P-wave (km/s) = 6.28558 8.19634 3.71964
#
# Compressibility (1/GPa) = 0.02953154
#
# Stress axis : x y z
#
# Youngs Moduli (GPa) = 59.07552 95.78441 61.34294
#
# Poissons Ratio (x) = 0.33015 0.10174
# Poissons Ratio (y) = 0.20362 0.12045
# Poissons Ratio (z) = 0.09798 0.18808
#
# Static dielectric constant tensor:
#      x y z
#    x 1.776800 0.000000 -0.023430 
#    y 0.000000 1.739910 0.000000 
#    z -0.023430 0.000000 1.701290 
# 
# From -- ./inp_files/70673.got.cif
#   From: 2010.05.17/outbox.cif.g08.bks.cpg/sg13_36_cif.got.tgz:70673.got - 2010.06.03 16:44:36.
