data_PCOD9233229
_publ_section_title
;
Structure prediction by ZEFSAII (Michael W. Deem and Ramdas Pophale) SiO2 
 PCOD9233229
Probable space group: P 2/C
;
_chemical_formula_sum "Si O2"
_cell_formula_units_Z 30
_cell_length_a 18.944975
_cell_length_b 6.210697
_cell_length_c 12.399827
_cell_angle_alpha 90.000000
_cell_angle_beta 66.932114
_cell_angle_gamma 90.000000
_cell_volume 1342.323850
_symmetry_space_group_name_H-M "P 2/C"
_symmetry_group_IT_number 13
_symmetry_cell_setting 'monoclinic'
loop_
_space_group_symop_operation_xyz
x,y,z
-x,y,1/2-z
-x,-y,-z
x,-y,1/2+z
loop_
_atom_site_type_symbol
_atom_site_label
_atom_site_fract_x
_atom_site_fract_y
_atom_site_fract_z
Si Si1 0.698015 0.105270 0.197812
Si Si2 0.241303 0.276677 0.974436
Si Si3 0.500000 0.667590 0.250000
Si Si4 0.372111 0.600492 0.946319
Si Si5 0.971664 0.127363 0.119952
Si Si6 0.118416 0.997020 0.139349
Si Si7 0.147261 0.347297 0.435796
Si Si8 0.423801 0.092300 0.601722
O O1 0.718988 0.869307 0.140206
O O2 0.642136 0.081779 0.333053
O O3 0.652845 0.228376 0.129850
O O4 0.778437 0.229526 0.160967
O O5 0.302300 0.432425 0.993549
O O6 0.177250 0.423024 0.954966
O O7 0.198934 0.116237 0.081429
O O8 0.553624 0.522622 0.142335
O O9 0.550489 0.812891 0.298895
O O10 0.389731 0.723303 0.045693
O O11 0.913694 0.971464 0.221525
O O12 0.922346 0.328320 0.106941
O O13 0.051121 0.156275 0.135647
O O14 0.000000 0.000000 0.000000
O O15 0.124713 0.791426 0.056865
O O16 0.500000 0.000000 0.500000
#
# Coordination Sequence:
#
# PCOD9233229 Si02
#       8
#     4   4   2   4   4   4   4   4
#     4  10  22  43  60  92 134 161 212 273 316 387
#     4  10  21  40  61  90 129 162 211 267 319 379
#     4  12  24  48  64  94 134 160 220 274 312 412
#     4  11  24  42  67  92 127 172 211 268 331 380
#     4   9  18  37  60  89 124 168 205 258 317 375
#     4   9  19  37  60  87 127 161 212 262 311 382
#     4   9  20  36  62  88 121 171 207 261 321 375
#     4  12  25  42  70  96 125 176 213 266 340 386
#
# _framework density 22.349302000000002
#
# number of rings (size 3 to 8) (size 9 to 14) (size 15 to 20)
#    0.000    1.867    1.333    2.000    0.000    4.800 
#    0.000    8.000    0.000    0.000    0.000    0.000 
#    0.000    0.000    0.000    0.000    0.000    0.000 
#
# Total GULP energy -167627.603543 kJ/mol
# GULP energy per Si atom -5587.586785 kJ/mol
# Density = 2.229843 g / cm^3
# Si number density = 22.349302 Si / 1000 Ang^3
#
#
#
# Elastic Constant Matrix: (Units=GPa)
#
#
# Indices 1 2 3 4 5 6 
#
# 1 52.1500 3.2251 4.6614 0.0000 -15.7068 0.0000
# 2 3.2251 51.7369 1.6800 0.0000 -10.2524 0.0000
# 3 4.6614 1.6800 101.1854 0.0000 -34.2813 0.0000
# 4 0.0000 0.0000 0.0000 16.4860 0.0000 -7.5690
# 5 -15.7068 -10.2524 -34.2813 0.0000 40.0032 0.0000
# 6 0.0000 0.0000 0.0000 -7.5690 0.0000 21.0462
#
#
#
# Elastic Compliance Matrix: (Units=1/GPa)
#
#
# Indices 1 2 3 4 5 6 
#
# 1 0.022298 0.000770 0.002808 0.000000 0.011359 0.000000
# 2 0.000770 0.020685 0.002141 0.000000 0.007439 0.000000
# 3 0.002808 0.002141 0.014482 0.000000 0.014062 0.000000
# 4 0.000000 0.000000 0.000000 0.072654 0.000000 0.026129
# 5 0.011359 0.007439 0.014062 0.000000 0.043415 0.000000
# 6 0.000000 0.000000 0.000000 0.026129 0.000000 0.056912
#
#
# Mechanical properties :
#
#
# Convention : Reuss Voigt Hill
#
# Bulk Modulus (GPa) = 14.51291 24.91170 19.71231
# Shear Modulus (GPa) = 20.66331 28.54081 24.60206
#
# Velocity S-wave (km/s) = 3.04396 3.57744 3.32143
# Velocity P-wave (km/s) = 4.34304 5.31364 4.85267
#
# Compressibility (1/GPa) = 0.06890416
#
# Stress axis : x y z
#
# Youngs Moduli (GPa) = 44.84711 48.34394 69.05070
#
# Poissons Ratio (x) = -0.03721 -0.19392
# Poissons Ratio (y) = -0.03452 -0.14786
# Poissons Ratio (z) = -0.12595 -0.10352
#
# Static dielectric constant tensor:
#      x y z
#    x 1.865720 0.000000 0.007900 
#    y 0.000000 1.829090 0.000000 
#    z 0.007900 0.000000 1.890980 
# 
# From -- ./inp_files/40125.got.cif
#   From: 2010.05.17/outbox.cif.g08.bks.cpg/sg13_21_cif.got.tgz:40125.got - 2010.06.03 16:44:36.
