data_PCOD9233011
_publ_section_title
;
Structure prediction by ZEFSAII (Michael W. Deem and Ramdas Pophale) SiO2 
 PCOD9233011
Probable space group: P 2/C
;
_chemical_formula_sum "Si O2"
_cell_formula_units_Z 26
_cell_length_a 7.847551
_cell_length_b 8.410824
_cell_length_c 19.842787
_cell_angle_alpha 90.000000
_cell_angle_beta 108.990139
_cell_angle_gamma 90.000000
_cell_volume 1238.429126
_symmetry_space_group_name_H-M "P 2/C"
_symmetry_group_IT_number 13
_symmetry_cell_setting 'monoclinic'
loop_
_space_group_symop_operation_xyz
x,y,z
-x,y,1/2-z
-x,-y,-z
x,-y,1/2+z
loop_
_atom_site_type_symbol
_atom_site_label
_atom_site_fract_x
_atom_site_fract_y
_atom_site_fract_z
Si Si1 0.615572 0.634002 0.477735
Si Si2 0.689787 0.411227 0.369872
Si Si3 0.826500 0.820641 0.615675
Si Si4 0.500000 0.002294 0.250000
Si Si5 0.132478 0.090236 0.068299
Si Si6 0.291562 0.304953 0.267289
Si Si7 0.518654 0.075054 0.608561
O O1 0.500000 0.500000 0.500000
O O2 0.693709 0.563421 0.418206
O O3 0.765559 0.705570 0.546874
O O4 0.481636 0.775304 0.439516
O O5 0.797068 0.273112 0.423890
O O6 0.479557 0.362851 0.327692
O O7 0.761432 0.417204 0.301997
O O8 0.837083 0.725303 0.686612
O O9 0.665218 0.946789 0.605116
O O10 0.008633 0.908910 0.619129
O O11 0.464763 0.893380 0.309790
O O12 0.340539 0.134861 0.237802
O O13 0.318636 0.997782 0.083298
O O14 0.000000 0.000000 0.000000
#
# Coordination Sequence:
#
# PCOD9233011 Si02
#       7
#     4   4   4   2   4   4   4
#     4  12  23  37  64  93 130 170 202 260 325 384
#     4  10  21  39  62  90 128 164 211 256 319 384
#     4  11  23  39  68  93 119 171 214 260 314 377
#     4   8  16  36  68  84 114 164 200 270 304 354
#     4  12  23  38  66  92 121 166 206 267 312 371
#     4   9  17  40  65  86 122 164 213 258 314 375
#     4  11  22  44  61  96 127 157 221 261 313 374
#
# _framework density 20.994337999999999
#
# number of rings (size 3 to 8) (size 9 to 14) (size 15 to 20)
#    0.000    1.538    7.692    0.462    2.154    2.462 
#    0.000    0.000    0.000    0.000    8.000    0.000 
#    0.000    0.000    0.000    0.000    0.000    0.000 
#
# Total GULP energy -144826.682954 kJ/mol
# GULP energy per Si atom -5570.257037 kJ/mol
# Density = 2.094655 g / cm^3
# Si number density = 20.994338 Si / 1000 Ang^3
#
#
#
# Elastic Constant Matrix: (Units=GPa)
#
#
# Indices 1 2 3 4 5 6 
#
# 1 109.1898 24.2612 35.9726 0.0000 -4.4923 0.0000
# 2 24.2612 61.4446 46.1766 0.0000 -1.6334 0.0000
# 3 35.9726 46.1766 122.7250 0.0000 -9.9351 0.0000
# 4 0.0000 0.0000 0.0000 33.2221 0.0000 -19.3970
# 5 -4.4923 -1.6334 -9.9351 0.0000 35.1301 0.0000
# 6 0.0000 0.0000 0.0000 -19.3970 0.0000 14.4974
#
#
#
# Elastic Compliance Matrix: (Units=1/GPa)
#
#
# Indices 1 2 3 4 5 6 
#
# 1 0.010427 -0.002568 -0.002038 0.000000 0.000637 0.000000
# 2 -0.002568 0.023390 -0.008174 0.000000 -0.001552 0.000000
# 3 -0.002038 -0.008174 0.012045 0.000000 0.002766 0.000000
# 4 0.000000 0.000000 0.000000 0.137557 0.000000 0.184046
# 5 0.000637 -0.001552 0.002766 0.000000 0.029257 0.000000
# 6 0.000000 0.000000 0.000000 0.184046 0.000000 0.315225
#
#
# Mechanical properties :
#
#
# Convention : Reuss Voigt Hill
#
# Bulk Modulus (GPa) = 49.25709 56.24224 52.74966
# Shear Modulus (GPa) = 8.92493 29.03320 18.97906
#
# Velocity S-wave (km/s) = 2.06406 3.72278 3.00994
# Velocity P-wave (km/s) = 5.40310 6.73247 6.10408
#
# Compressibility (1/GPa) = 0.02030165
#
# Stress axis : x y z
#
# Youngs Moduli (GPa) = 95.90716 42.75274 83.02108
#
# Poissons Ratio (x) = 0.10980 0.16922
# Poissons Ratio (y) = 0.24631 0.67859
# Poissons Ratio (z) = 0.19549 0.34945
#
# Static dielectric constant tensor:
#      x y z
#    x 1.791770 0.000000 0.022630 
#    y 0.000000 1.753710 0.000000 
#    z 0.022630 0.000000 1.913270 
# 
# From -- ./inp_files/75352.got.cif
#   From: 2010.05.17/outbox.cif.g08.bks.cpg/sg13_38_cif.got.tgz:75352.got - 2010.06.03 16:44:36.
