data_PCOD9233798
_publ_section_title
;
Structure prediction by ZEFSAII (Michael W. Deem and Ramdas Pophale) SiO2 
 PCOD9233798
Probable space group: P 2/C
;
_chemical_formula_sum "Si O2"
_cell_formula_units_Z 26
_cell_length_a 26.522231
_cell_length_b 6.397926
_cell_length_c 17.668966
_cell_angle_alpha 90.000000
_cell_angle_beta 157.241187
_cell_angle_gamma 90.000000
_cell_volume 1159.861552
_symmetry_space_group_name_H-M "P 2/C"
_symmetry_group_IT_number 13
_symmetry_cell_setting 'monoclinic'
loop_
_space_group_symop_operation_xyz
x,y,z
-x,y,1/2-z
-x,-y,-z
x,-y,1/2+z
loop_
_atom_site_type_symbol
_atom_site_label
_atom_site_fract_x
_atom_site_fract_y
_atom_site_fract_z
Si Si1 0.865795 0.337523 0.604763
Si Si2 0.406035 0.692587 0.847047
Si Si3 0.148779 0.232992 0.666442
Si Si4 0.082392 0.976919 0.717717
Si Si5 0.779658 0.576247 0.633915
Si Si6 0.420981 0.991198 0.507251
Si Si7 0.500000 0.300389 0.750000
O O1 0.739220 0.371569 0.377923
O O2 0.879730 0.097718 0.653922
O O3 0.843024 0.469850 0.648824
O O4 0.000000 0.393844 0.750000
O O5 0.474755 0.817205 0.873584
O O6 0.500000 0.500000 0.000000
O O7 0.394815 0.858276 0.899548
O O8 0.078505 0.147425 0.645281
O O9 0.170185 0.475344 0.718135
O O10 0.051303 0.155997 0.466162
O O11 0.288494 0.126265 0.847771
O O12 0.190105 0.817921 0.835911
O O13 0.625428 0.554073 0.416026
O O14 0.476683 0.145952 0.647538
#
# Coordination Sequence:
#
# PCOD9233798 Si02
#       7
#     4   4   4   4   4   4   2
#     4  11  25  44  69  97 139 189 235 286 348 424
#     4  11  26  45  66 100 142 184 240 284 357 427
#     4  10  22  38  67  98 134 174 224 289 354 417
#     4  10  21  43  63  98 135 173 231 284 350 418
#     4  11  24  39  67 105 133 182 227 291 346 426
#     4  11  25  43  67 100 135 185 228 297 350 422
#     4  12  24  44  72 102 142 180 238 294 364 408
#
# _framework density 22.416467999999998
#
# number of rings (size 3 to 8) (size 9 to 14) (size 15 to 20)
#    0.000    1.231    1.538    3.231    6.462    3.077 
#    0.000    0.000    0.000    0.000    0.000    0.000 
#    0.000    0.000    0.000    0.000    0.000    0.000 
#
# Total GULP energy -145311.845340 kJ/mol
# GULP energy per Si atom -5588.917128 kJ/mol
# Density = 2.236545 g / cm^3
# Si number density = 22.416468 Si / 1000 Ang^3
#
#
#
# Elastic Constant Matrix: (Units=GPa)
#
#
# Indices 1 2 3 4 5 6 
#
# 1 73.0163 26.6325 34.6561 0.0000 13.3887 0.0000
# 2 26.6325 65.4596 23.8542 0.0000 7.6067 0.0000
# 3 34.6561 23.8542 138.2045 0.0000 18.5435 0.0000
# 4 0.0000 0.0000 0.0000 35.3353 0.0000 -7.1473
# 5 13.3887 7.6067 18.5435 0.0000 32.7462 0.0000
# 6 0.0000 0.0000 0.0000 -7.1473 0.0000 30.0264
#
#
#
# Elastic Compliance Matrix: (Units=1/GPa)
#
#
# Indices 1 2 3 4 5 6 
#
# 1 0.017981 -0.005740 -0.002933 0.000000 -0.004357 0.000000
# 2 -0.005740 0.018307 -0.001585 0.000000 -0.001008 0.000000
# 3 -0.002933 -0.001585 0.008695 0.000000 -0.003356 0.000000
# 4 0.000000 0.000000 0.000000 0.029732 0.000000 0.007077
# 5 -0.004357 -0.001008 -0.003356 0.000000 0.034454 0.000000
# 6 0.000000 0.000000 0.000000 0.007077 0.000000 0.034989
#
#
# Mechanical properties :
#
#
# Convention : Reuss Voigt Hill
#
# Bulk Modulus (GPa) = 40.87469 49.66290 45.26879
# Shear Modulus (GPa) = 28.93027 32.39077 30.66052
#
# Velocity S-wave (km/s) = 3.59636 3.80538 3.70235
# Velocity P-wave (km/s) = 5.95977 6.44287 6.20603
#
# Compressibility (1/GPa) = 0.02446502
#
# Stress axis : x y z
#
# Youngs Moduli (GPa) = 55.61575 54.62457 115.00649
#
# Poissons Ratio (x) = 0.31355 0.33736
# Poissons Ratio (y) = 0.31924 0.18230
# Poissons Ratio (z) = 0.16314 0.08659
#
# Static dielectric constant tensor:
#      x y z
#    x 1.818170 0.000000 -0.003930 
#    y 0.000000 1.879140 0.000000 
#    z -0.003930 0.000000 1.877960 
# 
# From -- ./inp_files/82695.got.cif
#   From: 2010.05.17/outbox.cif.g08.bks.cpg/sg13_42_cif.got.tgz:82695.got - 2010.06.03 16:44:36.
