data_PCOD9233484
_publ_section_title
;
Structure prediction by ZEFSAII (Michael W. Deem and Ramdas Pophale) SiO2 
 PCOD9233484
Probable space group: P 2/C
;
_chemical_formula_sum "Si O2"
_cell_formula_units_Z 28
_cell_length_a 7.810998
_cell_length_b 6.634061
_cell_length_c 25.545615
_cell_angle_alpha 90.000000
_cell_angle_beta 115.799533
_cell_angle_gamma 90.000000
_cell_volume 1191.791726
_symmetry_space_group_name_H-M "P 2/C"
_symmetry_group_IT_number 13
_symmetry_cell_setting 'monoclinic'
loop_
_space_group_symop_operation_xyz
x,y,z
-x,y,1/2-z
-x,-y,-z
x,-y,1/2+z
loop_
_atom_site_type_symbol
_atom_site_label
_atom_site_fract_x
_atom_site_fract_y
_atom_site_fract_z
Si Si1 0.657040 0.589877 0.854964
Si Si2 0.172830 0.089816 0.872702
Si Si3 0.675966 0.826612 0.960953
Si Si4 0.057778 0.594060 0.439879
Si Si5 0.467987 0.177766 0.822287
Si Si6 0.319964 0.789620 0.981369
Si Si7 0.760146 0.960197 0.801790
O O1 0.604332 0.733767 0.897121
O O2 0.501999 0.418298 0.821878
O O3 0.845123 0.480453 0.902426
O O4 0.710032 0.731672 0.812442
O O5 0.116589 0.295194 0.894251
O O6 0.343929 0.132863 0.856489
O O7 0.981898 0.997189 0.822702
O O8 0.231436 0.930261 0.924543
O O9 0.531103 0.750927 0.987333
O O10 0.884311 0.747533 0.005802
O O11 0.674692 0.067713 0.967154
O O12 0.192795 0.404522 0.469110
O O13 0.678514 0.086245 0.840652
O O14 0.347169 0.060251 0.761471
#
# Coordination Sequence:
#
# PCOD9233484 Si02
#       7
#     4   4   4   4   4   4   4
#     4  12  24  45  69 105 144 187 236 301 363 425
#     4  11  22  45  72 102 141 186 234 299 358 424
#     4  10  23  38  66 105 141 191 233 286 357 438
#     4  11  22  40  68 101 147 185 236 288 355 441
#     4  11  26  45  75  98 137 185 242 299 363 422
#     4  10  21  41  64 104 144 185 239 288 347 437
#     4  11  25  47  71 101 139 181 246 304 354 433
#
# _framework density 23.494039999999998
#
# number of rings (size 3 to 8) (size 9 to 14) (size 15 to 20)
#    0.000    1.143    2.857    3.000    0.000    6.286 
#    0.000    0.000    0.000    0.000    0.000    0.000 
#    0.000    0.000    0.000    0.000    0.000    0.000 
#
# Total GULP energy -156527.229811 kJ/mol
# GULP energy per Si atom -5590.258208 kJ/mol
# Density = 2.344057 g / cm^3
# Si number density = 23.494040 Si / 1000 Ang^3
#
#
#
# Elastic Constant Matrix: (Units=GPa)
#
#
# Indices 1 2 3 4 5 6 
#
# 1 90.3896 42.4384 23.2004 0.0000 7.0442 0.0000
# 2 42.4384 129.4778 47.4558 0.0000 1.4495 0.0000
# 3 23.2004 47.4558 94.8402 0.0000 10.6983 0.0000
# 4 0.0000 0.0000 0.0000 33.3303 0.0000 2.2789
# 5 7.0442 1.4495 10.6983 0.0000 42.2869 0.0000
# 6 0.0000 0.0000 0.0000 2.2789 0.0000 33.0681
#
#
#
# Elastic Compliance Matrix: (Units=1/GPa)
#
#
# Indices 1 2 3 4 5 6 
#
# 1 0.013339 -0.003956 -0.001079 0.000000 -0.001813 0.000000
# 2 -0.003956 0.010665 -0.004531 0.000000 0.001440 0.000000
# 3 -0.001079 -0.004531 0.013420 0.000000 -0.003060 0.000000
# 4 0.000000 0.000000 0.000000 0.030145 0.000000 -0.002077
# 5 -0.001813 0.001440 -0.003060 0.000000 0.024675 0.000000
# 6 0.000000 0.000000 0.000000 -0.002077 0.000000 0.030384
#
#
# Mechanical properties :
#
#
# Convention : Reuss Voigt Hill
#
# Bulk Modulus (GPa) = 54.66952 60.09967 57.38460
# Shear Modulus (GPa) = 33.81647 35.17791 34.49719
#
# Velocity S-wave (km/s) = 3.79801 3.87371 3.83605
# Velocity P-wave (km/s) = 6.52328 6.75602 6.64067
#
# Compressibility (1/GPa) = 0.01829173
#
# Stress axis : x y z
#
# Youngs Moduli (GPa) = 74.96827 93.76794 74.51386
#
# Poissons Ratio (x) = 0.37098 0.08039
# Poissons Ratio (y) = 0.29660 0.33762
# Poissons Ratio (z) = 0.08088 0.42485
#
# Static dielectric constant tensor:
#      x y z
#    x 1.931940 0.000000 0.029470 
#    y 0.000000 1.925040 0.000000 
#    z 0.029470 0.000000 1.956430 
# 
# From -- ./inp_files/95718.got.cif
#   From: 2010.05.17/outbox.cif.g08.bks.cpg/sg13_48_cif.got.tgz:95718.got - 2010.06.03 16:44:36.
