data_PCOD9233330
_publ_section_title
;
Structure prediction by ZEFSAII (Michael W. Deem and Ramdas Pophale) SiO2 
 PCOD9233330
Probable space group: P 2/C
;
_chemical_formula_sum "Si O2"
_cell_formula_units_Z 30
_cell_length_a 11.222182
_cell_length_b 11.833964
_cell_length_c 19.050239
_cell_angle_alpha 90.000000
_cell_angle_beta 35.724079
_cell_angle_gamma 90.000000
_cell_volume 1477.179927
_symmetry_space_group_name_H-M "P 2/C"
_symmetry_group_IT_number 13
_symmetry_cell_setting 'monoclinic'
loop_
_space_group_symop_operation_xyz
x,y,z
-x,y,1/2-z
-x,-y,-z
x,-y,1/2+z
loop_
_atom_site_type_symbol
_atom_site_label
_atom_site_fract_x
_atom_site_fract_y
_atom_site_fract_z
Si Si1 0.757524 0.334399 0.862256
Si Si2 0.238833 0.811773 0.270510
Si Si3 0.121523 0.233570 0.460033
Si Si4 0.859792 0.571780 0.753962
Si Si5 0.515591 0.281313 0.119787
Si Si6 0.113327 0.576432 0.501587
Si Si7 0.654867 0.055063 0.236254
Si Si8 0.500000 0.658079 0.250000
O O1 0.696675 0.242728 0.833459
O O2 0.740295 0.462784 0.841423
O O3 0.000000 0.320286 0.750000
O O4 0.641919 0.309667 0.989338
O O5 0.368421 0.739608 0.264204
O O6 0.008461 0.790044 0.407757
O O7 0.273992 0.945066 0.257178
O O8 0.327219 0.296846 0.389349
O O9 0.179677 0.121434 0.389785
O O10 0.983066 0.302509 0.471791
O O11 0.693085 0.647496 0.792557
O O12 0.000000 0.623226 0.750000
O O13 0.034035 0.536690 0.614574
O O14 0.446393 0.151219 0.166055
O O15 0.351383 0.583804 0.370200
O O16 0.000000 0.500000 0.500000
O O17 0.500000 0.014517 0.250000
#
# Coordination Sequence:
#
# PCOD9233330 Si02
#       8
#     4   4   4   4   4   4   4   2
#     4  11  24  43  63  92 130 173 219 260 326 393
#     4  11  21  41  66  94 128 172 213 270 329 386
#     4  10  21  40  68  94 130 164 225 266 320 390
#     4  11  25  43  64  95 136 174 213 266 333 395
#     4  11  23  43  67  96 126 176 217 270 320 387
#     4  11  24  42  64  99 130 171 220 271 330 389
#     4  10  21  40  65  97 127 167 217 271 326 379
#     4  10  24  40  64  98 134 164 220 276 328 390
#
# _framework density 20.308968
#
# number of rings (size 3 to 8) (size 9 to 14) (size 15 to 20)
#    0.000    1.333    3.333    2.400    3.733    2.667 
#    0.000    0.667    0.000    0.000    0.000    0.000 
#    0.000    0.000    0.000    0.000    0.000    0.000 
#
# Total GULP energy -167298.580922 kJ/mol
# GULP energy per Si atom -5576.619364 kJ/mol
# Density = 2.026274 g / cm^3
# Si number density = 20.308968 Si / 1000 Ang^3
#
#
#
# Elastic Constant Matrix: (Units=GPa)
#
#
# Indices 1 2 3 4 5 6 
#
# 1 53.7158 15.2102 15.1395 0.0000 -4.5444 0.0000
# 2 15.2102 72.2401 19.3912 0.0000 -8.0319 0.0000
# 3 15.1395 19.3912 132.4895 0.0000 7.3022 0.0000
# 4 0.0000 0.0000 0.0000 9.1270 0.0000 1.4181
# 5 -4.5444 -8.0319 7.3022 0.0000 33.0260 0.0000
# 6 0.0000 0.0000 0.0000 1.4181 0.0000 14.1611
#
#
#
# Elastic Compliance Matrix: (Units=1/GPa)
#
#
# Indices 1 2 3 4 5 6 
#
# 1 0.020357 -0.003499 -0.001945 0.000000 0.002380 0.000000
# 2 -0.003499 0.015557 -0.002085 0.000000 0.003763 0.000000
# 3 -0.001945 -0.002085 0.008218 0.000000 -0.002592 0.000000
# 4 0.000000 0.000000 0.000000 0.111296 0.000000 -0.011145
# 5 0.002380 0.003763 -0.002592 0.000000 0.032095 0.000000
# 6 0.000000 0.000000 0.000000 -0.011145 0.000000 0.071732
#
#
# Mechanical properties :
#
#
# Convention : Reuss Voigt Hill
#
# Bulk Modulus (GPa) = 34.39476 39.76970 37.08223
# Shear Modulus (GPa) = 17.60532 25.17646 21.39089
#
# Velocity S-wave (km/s) = 2.94747 3.52472 3.24894
# Velocity P-wave (km/s) = 5.34377 6.01579 5.68971
#
# Compressibility (1/GPa) = 0.02907420
#
# Stress axis : x y z
#
# Youngs Moduli (GPa) = 49.12312 64.27790 121.68445
#
# Poissons Ratio (x) = 0.22493 0.23670
# Poissons Ratio (y) = 0.17190 0.25365
# Poissons Ratio (z) = 0.09555 0.13399
#
# Static dielectric constant tensor:
#      x y z
#    x 1.924280 0.000000 -0.021470 
#    y 0.000000 1.819470 0.000000 
#    z -0.021470 0.000000 1.762070 
# 
# From -- ./inp_files/78634.got.cif
#   From: 2010.05.17/outbox.cif.g08.bks.cpg/sg13_40_cif.got.tgz:78634.got - 2010.06.03 16:44:36.
