data_PCOD9233879
_publ_section_title
;
Structure prediction by ZEFSAII (Michael W. Deem and Ramdas Pophale) SiO2 
 PCOD9233879
Probable space group: P 2/C
;
_chemical_formula_sum "Si O2"
_cell_formula_units_Z 28
_cell_length_a 25.410450
_cell_length_b 5.221762
_cell_length_c 14.038863
_cell_angle_alpha 90.000000
_cell_angle_beta 144.262971
_cell_angle_gamma 90.000000
_cell_volume 1087.985813
_symmetry_space_group_name_H-M "P 2/C"
_symmetry_group_IT_number 13
_symmetry_cell_setting 'monoclinic'
loop_
_space_group_symop_operation_xyz
x,y,z
-x,y,1/2-z
-x,-y,-z
x,-y,1/2+z
loop_
_atom_site_type_symbol
_atom_site_label
_atom_site_fract_x
_atom_site_fract_y
_atom_site_fract_z
Si Si1 0.840855 0.384095 0.617758
Si Si2 0.009380 0.304716 0.370249
Si Si3 0.381970 0.390941 0.480972
Si Si4 0.393106 0.972090 0.833525
Si Si5 0.806298 0.435676 0.349553
Si Si6 0.153426 0.115710 0.267294
Si Si7 0.591159 0.465733 0.756280
O O1 0.949367 0.433761 0.778000
O O2 0.624316 0.260423 0.266556
O O3 0.812560 0.350311 0.467897
O O4 0.814963 0.153030 0.647174
O O5 0.951885 0.143744 0.359840
O O6 0.000000 0.192731 0.250000
O O7 0.111255 0.367327 0.544221
O O8 0.364597 0.127070 0.396335
O O9 0.291594 0.542746 0.321032
O O10 0.480622 0.478710 0.589386
O O11 0.389601 0.391819 0.605956
O O12 0.368924 0.242838 0.751925
O O13 0.500000 0.000000 0.000000
O O14 0.826840 0.199471 0.309884
O O15 0.193808 0.348166 0.390652
#
# Coordination Sequence:
#
# PCOD9233879 Si02
#       7
#     4   4   4   4   4   4   4
#     4   9  23  42  63  89 126 168 217 262 317 391
#     4   8  19  41  66  87 126 167 214 258 325 382
#     4  10  23  39  67  98 134 166 224 268 327 386
#     4  10  21  43  72  93 126 179 221 259 328 397
#     4  11  22  42  65 102 127 172 216 277 324 388
#     4  10  22  43  66  90 127 172 211 259 332 383
#     4  10  23  44  68  93 133 178 216 266 326 396
#
# _framework density 25.735627000000001
#
# number of rings (size 3 to 8) (size 9 to 14) (size 15 to 20)
#    0.857    1.429    0.000    2.143    0.000   11.429 
#    0.000    8.571    0.000    0.000    0.000    0.000 
#    0.000    0.000    0.000    0.000    0.000    0.000 
#
# Total GULP energy -156587.081400 kJ/mol
# GULP energy per Si atom -5592.395764 kJ/mol
# Density = 2.567705 g / cm^3
# Si number density = 25.735627 Si / 1000 Ang^3
#
#
#
# Elastic Constant Matrix: (Units=GPa)
#
#
# Indices 1 2 3 4 5 6 
#
# 1 125.2601 45.0472 65.7391 0.0000 -11.9295 0.0000
# 2 45.0472 111.7596 46.8785 0.0000 -19.8625 0.0000
# 3 65.7391 46.8785 174.8800 0.0000 -0.1113 0.0000
# 4 0.0000 0.0000 0.0000 2.9220 0.0000 -1.6489
# 5 -11.9295 -19.8625 -0.1113 0.0000 62.5691 0.0000
# 6 0.0000 0.0000 0.0000 -1.6489 0.0000 13.1840
#
#
#
# Elastic Compliance Matrix: (Units=1/GPa)
#
#
# Indices 1 2 3 4 5 6 
#
# 1 0.010838 -0.002760 -0.003334 0.000000 0.001184 0.000000
# 2 -0.002760 0.011466 -0.002034 0.000000 0.003110 0.000000
# 3 -0.003334 -0.002034 0.007516 0.000000 -0.001268 0.000000
# 4 0.000000 0.000000 0.000000 0.368227 0.000000 0.046055
# 5 0.001184 0.003110 -0.001268 0.000000 0.017193 0.000000
# 6 0.000000 0.000000 0.000000 0.046055 0.000000 0.081610
#
#
# Mechanical properties :
#
#
# Convention : Reuss Voigt Hill
#
# Bulk Modulus (GPa) = 73.71932 80.80327 77.26129
# Shear Modulus (GPa) = 9.65946 32.68399 21.17173
#
# Velocity S-wave (km/s) = 1.93946 3.56756 2.87132
# Velocity P-wave (km/s) = 5.80710 6.95957 6.40929
#
# Compressibility (1/GPa) = 0.01356497
#
# Stress axis : x y z
#
# Youngs Moduli (GPa) = 92.26571 87.21289 133.05201
#
# Poissons Ratio (x) = 0.24069 0.44355
# Poissons Ratio (y) = 0.25463 0.27066
# Poissons Ratio (z) = 0.30758 0.17741
#
# Static dielectric constant tensor:
#      x y z
#    x 2.030140 0.000000 0.036400 
#    y 0.000000 2.042800 0.000000 
#    z 0.036400 0.000000 2.072580 
# 
# From -- ./inp_files/59294.got.cif
#   From: 2010.05.17/outbox.cif.g08.bks.cpg/sg13_30_cif.got.tgz:59294.got - 2010.06.03 16:44:36.
