data_PCOD9233979
_publ_section_title
;
Structure prediction by ZEFSAII (Michael W. Deem and Ramdas Pophale) SiO2 
 PCOD9233979
Probable space group: P 2/C
;
_chemical_formula_sum "Si O2"
_cell_formula_units_Z 26
_cell_length_a 25.815827
_cell_length_b 8.916101
_cell_length_c 26.397503
_cell_angle_alpha 90.000000
_cell_angle_beta 168.845171
_cell_angle_gamma 90.000000
_cell_volume 1175.485089
_symmetry_space_group_name_H-M "P 2/C"
_symmetry_group_IT_number 13
_symmetry_cell_setting 'monoclinic'
loop_
_space_group_symop_operation_xyz
x,y,z
-x,y,1/2-z
-x,-y,-z
x,-y,1/2+z
loop_
_atom_site_type_symbol
_atom_site_label
_atom_site_fract_x
_atom_site_fract_y
_atom_site_fract_z
Si Si1 0.368523 0.511029 0.234222
Si Si2 0.458757 0.255391 0.464167
Si Si3 0.248440 0.008407 0.200618
Si Si4 0.189563 0.522082 0.256816
Si Si5 0.500000 0.564932 0.250000
Si Si6 0.230290 0.158874 0.439345
Si Si7 0.791409 0.852499 0.437498
O O1 0.620858 0.476589 0.511649
O O2 0.404108 0.477954 0.208238
O O3 0.311116 0.690501 0.179996
O O4 0.106813 0.443968 0.009341
O O5 0.549409 0.123715 0.588658
O O6 0.232537 0.358528 0.272419
O O7 0.700154 0.363959 0.679670
O O8 0.374953 0.168729 0.333010
O O9 0.163183 0.971912 0.062518
O O10 0.000000 0.000000 0.000000
O O11 0.716814 0.682906 0.481000
O O12 0.528287 0.095419 0.717132
O O13 0.000000 0.072990 0.250000
O O14 0.069501 0.177619 0.232885
#
# Coordination Sequence:
#
# PCOD9233979 Si02
#       7
#     4   4   4   4   2   4   4
#     4  11  21  36  60  91 128 157 199 258 313 364
#     4  10  25  40  61  91 125 168 211 250 303 375
#     4  11  24  40  63  89 126 169 211 254 301 368
#     4  11  24  40  62  93 128 162 203 254 312 362
#     4  10  22  32  60  92 126 158 204 252 320 364
#     4  11  19  34  55  89 129 151 195 260 316 358
#     4  11  22  34  58  91 125 158 199 252 313 360
#
# _framework density 22.118528000000001
#
# number of rings (size 3 to 8) (size 9 to 14) (size 15 to 20)
#    0.000    1.231    4.615    2.769    6.462    1.231 
#    0.000    0.000    0.000    0.000    8.000    0.000 
#    0.000    0.000    0.000    0.000    0.000    0.000 
#
# Total GULP energy -145200.935973 kJ/mol
# GULP energy per Si atom -5584.651384 kJ/mol
# Density = 2.206819 g / cm^3
# Si number density = 22.118528 Si / 1000 Ang^3
#
#
#
# Elastic Constant Matrix: (Units=GPa)
#
#
# Indices 1 2 3 4 5 6 
#
# 1 99.0398 14.5413 26.0176 0.0000 8.2362 0.0000
# 2 14.5413 50.9195 17.5052 0.0000 -3.0416 0.0000
# 3 26.0176 17.5052 115.7604 0.0000 -9.3359 0.0000
# 4 0.0000 0.0000 0.0000 11.8282 0.0000 -5.3964
# 5 8.2362 -3.0416 -9.3359 0.0000 47.0717 0.0000
# 6 0.0000 0.0000 0.0000 -5.3964 0.0000 22.9118
#
#
#
# Elastic Compliance Matrix: (Units=1/GPa)
#
#
# Indices 1 2 3 4 5 6 
#
# 1 0.011313 -0.002574 -0.002364 0.000000 -0.002615 0.000000
# 2 -0.002574 0.021326 -0.002540 0.000000 0.001325 0.000000
# 3 -0.002364 -0.002540 0.009730 0.000000 0.002179 0.000000
# 4 0.000000 0.000000 0.000000 0.094722 0.000000 0.022310
# 5 -0.002615 0.001325 0.002179 0.000000 0.022220 0.000000
# 6 0.000000 0.000000 0.000000 0.022310 0.000000 0.048900
#
#
# Mechanical properties :
#
#
# Convention : Reuss Voigt Hill
#
# Bulk Modulus (GPa) = 36.47884 42.42755 39.45320
# Shear Modulus (GPa) = 21.52344 30.20604 25.86474
#
# Velocity S-wave (km/s) = 3.12283 3.69947 3.42332
# Velocity P-wave (km/s) = 5.43424 6.12141 5.78803
#
# Compressibility (1/GPa) = 0.02741315
#
# Stress axis : x y z
#
# Youngs Moduli (GPa) = 88.39019 46.89084 102.77789
#
# Poissons Ratio (x) = 0.12071 0.24300
# Poissons Ratio (y) = 0.22753 0.26101
# Poissons Ratio (z) = 0.20899 0.11908
#
# Static dielectric constant tensor:
#      x y z
#    x 1.985100 0.000000 0.040160 
#    y 0.000000 1.814940 0.000000 
#    z 0.040160 0.000000 1.888380 
# 
# From -- ./inp_files/98003.got.cif
#   From: 2010.05.17/outbox.cif.g08.bks.cpg/sg13_50_cif.got.tgz:98003.got - 2010.06.03 16:44:36.
