data_PCOD9233076
_publ_section_title
;
Structure prediction by ZEFSAII (Michael W. Deem and Ramdas Pophale) SiO2 
 PCOD9233076
Probable space group: P 2/C
;
_chemical_formula_sum "Si O2"
_cell_formula_units_Z 26
_cell_length_a 21.819301
_cell_length_b 9.796369
_cell_length_c 16.205618
_cell_angle_alpha 90.000000
_cell_angle_beta 19.338402
_cell_angle_gamma 90.000000
_cell_volume 1147.076152
_symmetry_space_group_name_H-M "P 2/C"
_symmetry_group_IT_number 13
_symmetry_cell_setting 'monoclinic'
loop_
_space_group_symop_operation_xyz
x,y,z
-x,y,1/2-z
-x,-y,-z
x,-y,1/2+z
loop_
_atom_site_type_symbol
_atom_site_label
_atom_site_fract_x
_atom_site_fract_y
_atom_site_fract_z
Si Si1 0.595242 0.534203 0.466866
Si Si2 0.134361 0.721688 0.683164
Si Si3 0.000000 0.530358 0.250000
Si Si4 0.181578 0.213471 0.785384
Si Si5 0.708476 0.957240 0.760690
Si Si6 0.500000 0.610264 0.250000
Si Si7 0.000000 0.956052 0.750000
Si Si8 0.870730 0.321437 0.067729
O O1 0.500000 0.500000 0.500000
O O2 0.640945 0.692190 0.423670
O O3 0.487936 0.479345 0.682666
O O4 0.792588 0.453673 0.214608
O O5 0.325590 0.705995 0.484933
O O6 0.102762 0.577627 0.678197
O O7 0.139899 0.850223 0.616068
O O8 0.962479 0.748539 0.959800
O O9 0.884723 0.627364 0.456218
O O10 0.230395 0.056099 0.741074
O O11 0.067602 0.261283 0.849376
O O12 0.867936 0.971477 0.485662
O O13 0.722958 0.799180 0.765331
O O14 0.500000 0.000000 0.000000
#
# Coordination Sequence:
#
# PCOD9233076 Si02
#       8
#     4   4   2   4   4   2   2   4
#     4  12  25  41  68 101 139 174 227 286 341 407
#     4  10  21  39  64  96 129 175 218 285 327 411
#     4  11  21  38  68  94 130 176 228 270 354 388
#     4  11  23  46  65  95 133 179 225 279 340 404
#     4  11  25  43  68  99 137 180 230 279 344 412
#     4  12  24  36  64 106 138 168 232 280 348 394
#     4   9  23  42  66  92 134 178 230 270 352 404
#     4  12  23  41  67  96 136 179 224 281 340 407
#
# _framework density 22.666325000000001
#
# number of rings (size 3 to 8) (size 9 to 14) (size 15 to 20)
#    0.000    0.923    3.077    4.154    6.462    0.000 
#    0.000    1.538    0.000    4.615    0.000    0.000 
#    0.000    0.000    0.000    0.000    0.000    0.000 
#
# Total GULP energy -145184.078367 kJ/mol
# GULP energy per Si atom -5584.003014 kJ/mol
# Density = 2.261474 g / cm^3
# Si number density = 22.666325 Si / 1000 Ang^3
#
#
#
# Elastic Constant Matrix: (Units=GPa)
#
#
# Indices 1 2 3 4 5 6 
#
# 1 75.6474 5.9004 10.9404 0.0000 5.4147 0.0000
# 2 5.9004 92.9987 3.4272 0.0000 4.7209 0.0000
# 3 10.9404 3.4272 58.5857 0.0000 -1.3358 0.0000
# 4 0.0000 0.0000 0.0000 25.5313 0.0000 -1.8778
# 5 5.4147 4.7209 -1.3358 0.0000 40.4574 0.0000
# 6 0.0000 0.0000 0.0000 -1.8778 0.0000 29.9482
#
#
#
# Elastic Compliance Matrix: (Units=1/GPa)
#
#
# Indices 1 2 3 4 5 6 
#
# 1 0.013777 -0.000685 -0.002575 0.000000 -0.001849 0.000000
# 2 -0.000685 0.010877 -0.000536 0.000000 -0.001195 0.000000
# 3 -0.002575 -0.000536 0.017604 0.000000 0.000988 0.000000
# 4 0.000000 0.000000 0.000000 0.039349 0.000000 0.002467
# 5 -0.001849 -0.001195 0.000988 0.000000 0.025137 0.000000
# 6 0.000000 0.000000 0.000000 0.002467 0.000000 0.033546
#
#
# Mechanical properties :
#
#
# Convention : Reuss Voigt Hill
#
# Bulk Modulus (GPa) = 28.84648 29.75197 29.29922
# Shear Modulus (GPa) = 31.36045 32.98498 32.17271
#
# Velocity S-wave (km/s) = 3.72367 3.81890 3.77159
# Velocity P-wave (km/s) = 5.58944 5.70963 5.64986
#
# Compressibility (1/GPa) = 0.03466627
#
# Stress axis : x y z
#
# Youngs Moduli (GPa) = 72.58257 91.93938 56.80615
#
# Poissons Ratio (x) = 0.06301 0.14627
# Poissons Ratio (y) = 0.04975 0.03042
# Poissons Ratio (z) = 0.18689 0.04924
#
# Static dielectric constant tensor:
#      x y z
#    x 1.926190 0.000000 0.026190 
#    y 0.000000 1.836420 0.000000 
#    z 0.026190 0.000000 1.882410 
# 
# From -- ./inp_files/71289.got.cif
#   From: 2010.05.17/outbox.cif.g08.bks.cpg/sg13_36_cif.got.tgz:71289.got - 2010.06.03 16:44:36.
