data_PCOD9233571
_publ_section_title
;
Structure prediction by ZEFSAII (Michael W. Deem and Ramdas Pophale) SiO2 
 PCOD9233571
Probable space group: P 2/C
;
_chemical_formula_sum "Si O2"
_cell_formula_units_Z 22
_cell_length_a 13.328780
_cell_length_b 5.369981
_cell_length_c 20.541963
_cell_angle_alpha 90.000000
_cell_angle_beta 146.617884
_cell_angle_gamma 90.000000
_cell_volume 808.987042
_symmetry_space_group_name_H-M "P 2/C"
_symmetry_group_IT_number 13
_symmetry_cell_setting 'monoclinic'
loop_
_space_group_symop_operation_xyz
x,y,z
-x,y,1/2-z
-x,-y,-z
x,-y,1/2+z
loop_
_atom_site_type_symbol
_atom_site_label
_atom_site_fract_x
_atom_site_fract_y
_atom_site_fract_z
Si Si1 0.491903 0.481387 0.417969
Si Si2 0.159141 0.287644 0.171249
Si Si3 0.285368 0.959996 0.137047
Si Si4 0.000000 0.123025 0.750000
Si Si5 0.104670 0.268744 0.667343
Si Si6 0.301545 0.026824 0.501195
O O1 0.500000 0.500000 0.500000
O O2 0.284766 0.502279 0.277357
O O3 0.585950 0.720770 0.439123
O O4 0.572527 0.217637 0.439960
O O5 0.991124 0.472274 0.082356
O O6 0.262222 0.223397 0.161411
O O7 0.155560 0.034507 0.208981
O O8 0.500000 0.895488 0.250000
O O9 0.168293 0.792656 0.122755
O O10 0.211878 0.997051 0.024069
O O11 0.830432 0.964483 0.631927
O O12 0.036834 0.292511 0.707669
#
# Coordination Sequence:
#
# PCOD9233571 Si02
#       6
#     4   4   4   2   4   4
#     4  12  23  42  70 106 139 180 235 300 365 411
#     4  10  21  41  68 105 135 171 228 301 358 400
#     4  10  22  43  71 107 139 168 237 298 366 401
#     4  12  28  52  64 100 150 198 244 266 338 448
#     4  10  24  41  72  97 144 187 225 288 345 423
#     4  12  27  41  72 101 141 195 229 290 349 424
#
# _framework density 27.194500000000001
#
# number of rings (size 3 to 8) (size 9 to 14) (size 15 to 20)
#    1.091    0.000    1.818    4.909    2.545    4.364 
#    0.000    0.909    0.000    0.000    0.000    0.000 
#    0.000    0.000    0.000    0.000    0.000    0.000 
#
# Total GULP energy -122493.160645 kJ/mol
# GULP energy per Si atom -5567.870938 kJ/mol
# Density = 2.713260 g / cm^3
# Si number density = 27.194500 Si / 1000 Ang^3
#
#
#
# Elastic Constant Matrix: (Units=GPa)
#
#
# Indices 1 2 3 4 5 6 
#
# 1 134.4880 27.3933 -3.3122 0.0000 -51.8297 0.0000
# 2 27.3933 168.5163 -20.9851 0.0000 -5.9178 0.0000
# 3 -3.3122 -20.9851 106.9553 0.0000 -21.3495 0.0000
# 4 0.0000 0.0000 0.0000 26.2905 0.0000 -8.8024
# 5 -51.8297 -5.9178 -21.3495 0.0000 65.1452 0.0000
# 6 0.0000 0.0000 0.0000 -8.8024 0.0000 29.7168
#
#
#
# Elastic Compliance Matrix: (Units=1/GPa)
#
#
# Indices 1 2 3 4 5 6 
#
# 1 0.011477 -0.001272 0.002039 0.000000 0.009684 0.000000
# 2 -0.001272 0.006286 0.001183 0.000000 -0.000053 0.000000
# 3 0.002039 0.001183 0.010690 0.000000 0.005233 0.000000
# 4 0.000000 0.000000 0.000000 0.042224 0.000000 0.012507
# 5 0.009684 -0.000053 0.005233 0.000000 0.024765 0.000000
# 6 0.000000 0.000000 0.000000 0.012507 0.000000 0.037356
#
#
# Mechanical properties :
#
#
# Convention : Reuss Voigt Hill
#
# Bulk Modulus (GPa) = 30.90796 46.23906 38.57351
# Shear Modulus (GPa) = 35.79594 51.35473 43.57533
#
# Velocity S-wave (km/s) = 3.63201 4.35031 4.00729
# Velocity P-wave (km/s) = 5.38320 6.50182 5.96877
#
# Compressibility (1/GPa) = 0.03235412
#
# Stress axis : x y z
#
# Youngs Moduli (GPa) = 87.13262 159.07392 93.54904
#
# Poissons Ratio (x) = 0.20229 -0.19073
# Poissons Ratio (y) = 0.11080 -0.11071
# Poissons Ratio (z) = -0.17765 -0.18826
#
# Static dielectric constant tensor:
#      x y z
#    x 2.099980 0.000000 0.128140 
#    y 0.000000 2.221260 0.000000 
#    z 0.128140 0.000000 2.415710 
# 
# From -- ./inp_files/79379.got.cif
#   From: 2010.05.17/outbox.cif.g08.bks.cpg/sg13_40_cif.got.tgz:79379.got - 2010.06.03 16:44:36.
