data_PCOD9233002
_publ_section_title
;
Structure prediction by ZEFSAII (Michael W. Deem and Ramdas Pophale) SiO2 
 PCOD9233002
Probable space group: P 2/C
;
_chemical_formula_sum "Si O2"
_cell_formula_units_Z 22
_cell_length_a 24.299169
_cell_length_b 5.037290
_cell_length_c 27.285663
_cell_angle_alpha 90.000000
_cell_angle_beta 16.055423
_cell_angle_gamma 90.000000
_cell_volume 923.683856
_symmetry_space_group_name_H-M "P 2/C"
_symmetry_group_IT_number 13
_symmetry_cell_setting 'monoclinic'
loop_
_space_group_symop_operation_xyz
x,y,z
-x,y,1/2-z
-x,-y,-z
x,-y,1/2+z
loop_
_atom_site_type_symbol
_atom_site_label
_atom_site_fract_x
_atom_site_fract_y
_atom_site_fract_z
Si Si1 0.331802 0.376292 0.325229
Si Si2 0.787527 0.888006 0.022959
Si Si3 0.000000 0.205282 0.250000
Si Si4 0.777339 0.994086 0.311190
Si Si5 0.319320 0.525021 0.545776
Si Si6 0.972287 0.249238 0.559192
O O1 0.287095 0.590647 0.405521
O O2 0.138459 0.323150 0.457305
O O3 0.364296 0.092986 0.322769
O O4 0.496311 0.490967 0.148282
O O5 0.851915 0.953011 0.912471
O O6 0.995473 0.907633 0.875069
O O7 0.134801 0.378240 0.170779
O O8 0.654181 0.253083 0.433976
O O9 0.726678 0.759747 0.391967
O O10 0.781338 0.847747 0.255021
O O11 0.000000 0.500000 0.500000
O O12 0.000000 0.000000 0.500000
#
# Coordination Sequence:
#
# PCOD9233002 Si02
#       6
#     4   4   2   4   4   4
#     4  11  23  41  61  90 123 157 194 258 304 339
#     4  10  21  39  62  86 121 158 202 241 297 356
#     4  10  22  40  62  88 114 164 202 236 288 370
#     4  10  21  40  61  86 121 162 191 245 309 355
#     4  11  23  40  62  87 124 157 199 245 302 354
#     4  11  21  38  64  89 116 158 206 243 297 372
#
# _framework density 23.817671000000001
#
# number of rings (size 3 to 8) (size 9 to 14) (size 15 to 20)
#    0.000    1.455    0.000    8.727    0.000    7.273 
#    0.000    9.091    0.000    0.000    0.000    0.000 
#    0.000    0.000    0.000    0.000    0.000    0.000 
#
# Total GULP energy -122846.644115 kJ/mol
# GULP energy per Si atom -5583.938369 kJ/mol
# Density = 2.376346 g / cm^3
# Si number density = 23.817671 Si / 1000 Ang^3
#
#
#
# Elastic Constant Matrix: (Units=GPa)
#
#
# Indices 1 2 3 4 5 6 
#
# 1 53.0141 9.8997 3.9202 0.0000 10.3708 0.0000
# 2 9.8997 141.8676 30.9075 0.0000 12.3882 0.0000
# 3 3.9202 30.9075 124.2333 0.0000 32.4472 0.0000
# 4 0.0000 0.0000 0.0000 53.3985 0.0000 23.8968
# 5 10.3708 12.3882 32.4472 0.0000 37.0479 0.0000
# 6 0.0000 0.0000 0.0000 23.8968 0.0000 -34.8321
#
#
#
# Elastic Compliance Matrix: (Units=1/GPa)
#
#
# Indices 1 2 3 4 5 6 
#
# 1 0.020239 -0.001139 0.001329 0.000000 -0.006449 0.000000
# 2 -0.001139 0.007553 -0.001643 0.000000 -0.000768 0.000000
# 3 0.001329 -0.001643 0.010852 0.000000 -0.009327 0.000000
# 4 0.000000 0.000000 0.000000 0.014328 0.000000 0.009830
# 5 -0.006449 -0.000768 -0.009327 0.000000 0.037223 0.000000
# 6 0.000000 0.000000 0.000000 0.009830 0.000000 -0.021965
#
#
# Mechanical properties :
#
#
# Convention : Reuss Voigt Hill
#
# Bulk Modulus (GPa) = 27.98028 45.39666 36.68847
# Shear Modulus (GPa) = 60.20623 29.41536 44.81079
#
# Velocity S-wave (km/s) = 5.03317 3.51810 4.34223
# Velocity P-wave (km/s) = 6.74910 5.96692 6.37003
#
# Compressibility (1/GPa) = 0.03573946
#
# Stress axis : x y z
#
# Youngs Moduli (GPa) = 49.41010 132.39380 92.14753
#
# Poissons Ratio (x) = 0.15076 -0.12245
# Poissons Ratio (y) = 0.05626 0.15135
# Poissons Ratio (z) = -0.06566 0.21746
#
# Static dielectric constant tensor:
#      x y z
#    x 1.948470 0.000000 0.004190 
#    y 0.000000 1.902960 0.000000 
#    z 0.004190 0.000000 1.967250 
# 
# From -- ./inp_files/88712.got.cif
#   From: 2010.05.17/outbox.cif.g08.bks.cpg/sg13_45_cif.got.tgz:88712.got - 2010.06.03 16:44:36.
