data_PCOD9233589
_publ_section_title
;
Structure prediction by ZEFSAII (Michael W. Deem and Ramdas Pophale) SiO2 
 PCOD9233589
Probable space group: P 2/C
;
_chemical_formula_sum "Si O2"
_cell_formula_units_Z 20
_cell_length_a 8.792759
_cell_length_b 24.706063
_cell_length_c 5.433008
_cell_angle_alpha 90.000000
_cell_angle_beta 58.588731
_cell_angle_gamma 90.000000
_cell_volume 1007.270884
_symmetry_space_group_name_H-M "P 2/C"
_symmetry_group_IT_number 13
_symmetry_cell_setting 'monoclinic'
loop_
_space_group_symop_operation_xyz
x,y,z
-x,y,1/2-z
-x,-y,-z
x,-y,1/2+z
loop_
_atom_site_type_symbol
_atom_site_label
_atom_site_fract_x
_atom_site_fract_y
_atom_site_fract_z
Si Si1 0.500000 0.465036 0.750000
Si Si2 0.500000 0.807275 0.250000
Si Si3 0.798770 0.613640 0.819116
Si Si4 0.500000 0.125004 0.250000
Si Si5 0.000000 0.352870 0.750000
Si Si6 0.816481 0.275257 0.511994
Si Si7 0.788376 0.033587 0.924746
O O1 0.500000 0.500000 0.500000
O O2 0.668616 0.425981 0.564994
O O3 0.464709 0.841185 0.529437
O O4 0.331579 0.769231 0.329260
O O5 0.000000 0.608412 0.750000
O O6 0.845570 0.608777 0.493078
O O7 0.743837 0.676520 0.897101
O O8 0.331727 0.086491 0.448190
O O9 0.886924 0.311233 0.678752
O O10 0.000000 0.251041 0.250000
O O11 0.000000 0.045598 0.750000
O O12 0.749711 0.003620 0.697869
#
# Coordination Sequence:
#
# PCOD9233589 Si02
#       7
#     2   2   4   2   2   4   4
#     4  12  29  42  61  98 133 164 199 258 332 394
#     4  12  27  39  60  96 138 171 201 248 334 380
#     4   9  21  43  66  91 118 166 218 265 306 373
#     4  12  26  39  59  96 137 167 198 262 322 382
#     4   8  18  40  76  86 118 166 232 266 308 354
#     4   9  21  41  65  91 117 171 216 262 300 377
#     4  10  21  41  69  90 116 166 222 264 306 363
#
# _framework density 19.855630999999999
#
# number of rings (size 3 to 8) (size 9 to 14) (size 15 to 20)
#    0.000    2.400    0.000    2.400   11.200    2.400 
#    0.000    0.000    0.000    0.000    0.000    0.000 
#    0.000    0.000    0.000    0.000    0.000    0.000 
#
# Total GULP energy -111346.540967 kJ/mol
# GULP energy per Si atom -5567.327048 kJ/mol
# Density = 1.981044 g / cm^3
# Si number density = 19.855631 Si / 1000 Ang^3
#
#
#
# Elastic Constant Matrix: (Units=GPa)
#
#
# Indices 1 2 3 4 5 6 
#
# 1 54.6876 45.3223 52.3183 0.0000 -7.2363 0.0000
# 2 45.3223 94.3695 77.5814 0.0000 -20.1430 0.0000
# 3 52.3183 77.5814 155.3526 0.0000 -2.0993 0.0000
# 4 0.0000 0.0000 0.0000 -0.9573 0.0000 15.2365
# 5 -7.2363 -20.1430 -2.0993 0.0000 34.2029 0.0000
# 6 0.0000 0.0000 0.0000 15.2365 0.0000 20.3062
#
#
#
# Elastic Compliance Matrix: (Units=1/GPa)
#
#
# Indices 1 2 3 4 5 6 
#
# 1 0.032847 -0.011359 -0.005390 0.000000 -0.000071 0.000000
# 2 -0.011359 0.026171 -0.009076 0.000000 0.012453 0.000000
# 3 -0.005390 -0.009076 0.012708 0.000000 -0.005706 0.000000
# 4 0.000000 0.000000 0.000000 -0.080712 0.000000 0.060561
# 5 -0.000071 0.012453 -0.005706 0.000000 0.036206 0.000000
# 6 0.000000 0.000000 0.000000 0.060561 0.000000 0.003805
#
#
# Mechanical properties :
#
#
# Convention : Reuss Voigt Hill
#
# Bulk Modulus (GPa) = 49.81264 72.76153 61.28709
# Shear Modulus (GPa) = 55.94886 19.32287 37.63587
#
# Velocity S-wave (km/s) = 5.31404 3.12295 4.35843
# Velocity P-wave (km/s) = 7.92426 7.05185 7.50075
#
# Compressibility (1/GPa) = 0.02007522
#
# Stress axis : x y z
#
# Youngs Moduli (GPa) = 30.44447 38.20956 78.69276
#
# Poissons Ratio (x) = 0.43402 0.42417
# Poissons Ratio (y) = 0.34582 0.71422
# Poissons Ratio (z) = 0.16410 0.34679
#
# Static dielectric constant tensor:
#      x y z
#    x 1.771040 0.000000 0.162690 
#    y 0.000000 1.679580 0.000000 
#    z 0.162690 0.000000 1.976110 
# 
# From -- ./inp_files/2025.got.cif
#   From: 2010.05.17/outbox.cif.g08.bks.cpg/sg13_2_cif.got.tgz:2025.got - 2010.06.03 16:44:36.
