data_PCOD9233971
_publ_section_title
;
Structure prediction by ZEFSAII (Michael W. Deem and Ramdas Pophale) SiO2 
 PCOD9233971
Probable space group: P 2/C
;
_chemical_formula_sum "Si O2"
_cell_formula_units_Z 20
_cell_length_a 9.143296
_cell_length_b 6.924387
_cell_length_c 17.393429
_cell_angle_alpha 90.000000
_cell_angle_beta 131.730390
_cell_angle_gamma 90.000000
_cell_volume 821.815201
_symmetry_space_group_name_H-M "P 2/C"
_symmetry_group_IT_number 13
_symmetry_cell_setting 'monoclinic'
loop_
_space_group_symop_operation_xyz
x,y,z
-x,y,1/2-z
-x,-y,-z
x,-y,1/2+z
loop_
_atom_site_type_symbol
_atom_site_label
_atom_site_fract_x
_atom_site_fract_y
_atom_site_fract_z
Si Si1 0.437182 0.293777 0.012417
Si Si2 0.644626 0.416002 0.232412
Si Si3 0.046036 0.160667 0.180184
Si Si4 0.608640 0.140435 0.673556
Si Si5 0.197735 0.969843 0.519820
O O1 0.593255 0.292413 0.137575
O O2 0.500000 0.500000 0.000000
O O3 0.410553 0.163955 0.926374
O O4 0.245583 0.238180 0.997489
O O5 0.500000 0.366092 0.250000
O O6 0.856371 0.339333 0.329104
O O7 0.631338 0.641701 0.211554
O O8 0.000000 0.218501 0.250000
O O9 0.198413 0.980112 0.235059
O O10 0.848360 0.105058 0.069000
O O11 0.399840 0.049710 0.627110
O O12 0.000000 0.000000 0.500000
#
# Coordination Sequence:
#
# PCOD9233971 Si02
#       5
#     4   4   4   4   4
#     4  10  21  46  74 100 145 197 239 304 377 445
#     4  11  25  44  70 104 147 191 233 305 375 433
#     4  12  25  45  74 105 139 190 253 294 364 456
#     4  11  25  48  72  99 152 193 242 304 374 446
#     4  12  25  43  74 109 142 195 250 310 375 444
#
# _framework density 24.336369000000001
#
# number of rings (size 3 to 8) (size 9 to 14) (size 15 to 20)
#    0.000    0.800    4.000    3.000    2.800    0.800 
#    7.200    5.000    0.000    0.000    0.000    0.000 
#    0.000    0.000    0.000    0.000    0.000    0.000 
#
# Total GULP energy -111528.537391 kJ/mol
# GULP energy per Si atom -5576.426870 kJ/mol
# Density = 2.428098 g / cm^3
# Si number density = 24.336369 Si / 1000 Ang^3
#
#
#
# Elastic Constant Matrix: (Units=GPa)
#
#
# Indices 1 2 3 4 5 6 
#
# 1 160.2361 41.6226 10.2877 0.0000 13.8556 0.0000
# 2 41.6226 91.5098 25.8158 0.0000 15.9776 0.0000
# 3 10.2877 25.8158 76.3752 0.0000 8.5604 0.0000
# 4 0.0000 0.0000 0.0000 5.0595 0.0000 -4.5647
# 5 13.8556 15.9776 8.5604 0.0000 44.2386 0.0000
# 6 0.0000 0.0000 0.0000 -4.5647 0.0000 38.8796
#
#
#
# Elastic Compliance Matrix: (Units=1/GPa)
#
#
# Indices 1 2 3 4 5 6 
#
# 1 0.007133 -0.003104 0.000218 0.000000 -0.001155 0.000000
# 2 -0.003104 0.014037 -0.003953 0.000000 -0.003332 0.000000
# 3 0.000218 -0.003953 0.014564 0.000000 -0.001459 0.000000
# 4 0.000000 0.000000 0.000000 0.221066 0.000000 0.025955
# 5 -0.001155 -0.003332 -0.001459 0.000000 0.024452 0.000000
# 6 0.000000 0.000000 0.000000 0.025955 0.000000 0.028768
#
#
# Mechanical properties :
#
#
# Convention : Reuss Voigt Hill
#
# Bulk Modulus (GPa) = 45.34157 53.73038 49.53597
# Shear Modulus (GPa) = 15.10349 34.32853 24.71601
#
# Velocity S-wave (km/s) = 2.49392 3.75985 3.19031
# Velocity P-wave (km/s) = 5.19273 6.40116 5.82835
#
# Compressibility (1/GPa) = 0.02205482
#
# Stress axis : x y z
#
# Youngs Moduli (GPa) = 140.19297 71.24167 68.66461
#
# Poissons Ratio (x) = 0.22115 -0.01496
# Poissons Ratio (y) = 0.43519 0.27143
# Poissons Ratio (z) = -0.03055 0.28161
#
# Static dielectric constant tensor:
#      x y z
#    x 2.053360 0.000000 -0.067510 
#    y 0.000000 1.972580 0.000000 
#    z -0.067510 0.000000 1.992010 
# 
# From -- ./inp_files/63565.got.cif
#   From: 2010.05.17/outbox.cif.g08.bks.cpg/sg13_32_cif.got.tgz:63565.got - 2010.06.03 16:44:36.
