data_PCOD9233946
_publ_section_title
;
Structure prediction by ZEFSAII (Michael W. Deem and Ramdas Pophale) SiO2 
 PCOD9233946
Probable space group: P 2/C
;
_chemical_formula_sum "Si O2"
_cell_formula_units_Z 32
_cell_length_a 11.545187
_cell_length_b 16.057322
_cell_length_c 16.805559
_cell_angle_alpha 90.000000
_cell_angle_beta 156.430164
_cell_angle_gamma 90.000000
_cell_volume 1245.782208
_symmetry_space_group_name_H-M "P 2/C"
_symmetry_group_IT_number 13
_symmetry_cell_setting 'monoclinic'
loop_
_space_group_symop_operation_xyz
x,y,z
-x,y,1/2-z
-x,-y,-z
x,-y,1/2+z
loop_
_atom_site_type_symbol
_atom_site_label
_atom_site_fract_x
_atom_site_fract_y
_atom_site_fract_z
Si Si1 0.058790 0.098371 0.525259
Si Si2 0.688461 0.843367 0.479792
Si Si3 0.815711 0.158421 0.531236
Si Si4 0.750540 0.649811 0.523087
Si Si5 0.019884 0.402253 0.034713
Si Si6 0.770576 0.346657 0.481566
Si Si7 0.544868 0.096438 0.511877
Si Si8 0.558575 0.523613 0.947345
O O1 0.088075 0.128113 0.450701
O O2 0.384418 0.116584 0.760780
O O3 0.840528 0.143924 0.451229
O O4 0.000000 0.000000 0.500000
O O5 0.654921 0.744309 0.465284
O O6 0.692916 0.865571 0.577149
O O7 0.768349 0.256522 0.518277
O O8 0.578091 0.112279 0.437533
O O9 0.136237 0.128829 0.760220
O O10 0.556709 0.567301 0.408823
O O11 0.000000 0.639179 0.750000
O O12 0.835015 0.638919 0.485068
O O13 0.988618 0.349775 0.935145
O O14 0.323331 0.407523 0.274944
O O15 0.000000 0.500000 0.000000
O O16 0.500000 0.359314 0.250000
O O17 0.820310 0.426140 0.569571
O O18 0.500000 0.000000 0.500000
O O19 0.500000 0.500000 0.000000
#
# Coordination Sequence:
#
# PCOD9233946 Si02
#       8
#     4   4   4   4   4   4   4   4
#     4  10  21  45  70 100 134 174 234 292 360 422
#     4  10  24  42  70 102 135 181 230 290 350 427
#     4  10  22  42  68 100 132 181 223 281 351 417
#     4  12  25  45  66 104 143 187 239 289 350 415
#     4  11  23  42  68 101 136 184 235 294 345 407
#     4  10  23  43  64 100 141 177 233 285 342 405
#     4  10  22  44  67  99 135 170 229 285 352 419
#     4  11  24  43  70  97 143 191 232 286 347 423
#
# _framework density 25.686672999999999
#
# number of rings (size 3 to 8) (size 9 to 14) (size 15 to 20)
#    0.000    1.500    2.500    1.500    1.750    4.000 
#   18.000    0.000    0.000    0.000    0.000    0.000 
#    0.000    0.000    0.000    0.000    0.000    0.000 
#
# Total GULP energy -178350.313155 kJ/mol
# GULP energy per Si atom -5573.447286 kJ/mol
# Density = 2.562821 g / cm^3
# Si number density = 25.686673 Si / 1000 Ang^3
#
#
#
# Elastic Constant Matrix: (Units=GPa)
#
#
# Indices 1 2 3 4 5 6 
#
# 1 265.2887 83.5076 33.5828 0.0000 -0.8872 0.0000
# 2 83.5076 202.5264 5.1465 0.0000 0.6282 0.0000
# 3 33.5828 5.1465 74.2260 0.0000 -23.9540 0.0000
# 4 0.0000 0.0000 0.0000 7.4285 0.0000 -9.3586
# 5 -0.8872 0.6282 -23.9540 0.0000 34.4251 0.0000
# 6 0.0000 0.0000 0.0000 -9.3586 0.0000 44.4371
#
#
#
# Elastic Compliance Matrix: (Units=1/GPa)
#
#
# Indices 1 2 3 4 5 6 
#
# 1 0.004663 -0.001855 -0.002491 0.000000 -0.001579 0.000000
# 2 -0.001855 0.005689 0.000510 0.000000 0.000204 0.000000
# 3 -0.002491 0.000510 0.018751 0.000000 0.012974 0.000000
# 4 0.000000 0.000000 0.000000 0.183234 0.000000 0.038590
# 5 -0.001579 0.000204 0.012974 0.000000 0.038032 0.000000
# 6 0.000000 0.000000 0.000000 0.038590 0.000000 0.030631
#
#
# Mechanical properties :
#
#
# Convention : Reuss Voigt Hill
#
# Bulk Modulus (GPa) = 46.65802 87.39055 67.02428
# Shear Modulus (GPa) = 16.90253 45.24506 31.07380
#
# Velocity S-wave (km/s) = 2.56799 4.20148 3.48188
# Velocity P-wave (km/s) = 5.19581 7.59159 6.50495
#
# Compressibility (1/GPa) = 0.02143254
#
# Stress axis : x y z
#
# Youngs Moduli (GPa) = 214.43935 175.78563 53.33083
#
# Poissons Ratio (x) = 0.32602 0.13284
# Poissons Ratio (y) = 0.39771 -0.02722
# Poissons Ratio (z) = 0.53415 -0.08971
#
# Static dielectric constant tensor:
#      x y z
#    x 2.534180 0.000000 0.262690 
#    y 0.000000 1.843920 0.000000 
#    z 0.262690 0.000000 2.298700 
# 
# From -- ./inp_files/66957.got.cif
#   From: 2010.05.17/outbox.cif.g08.bks.cpg/sg13_34_cif.got.tgz:66957.got - 2010.06.03 16:44:36.
