data_PCOD9233344
_publ_section_title
;
Structure prediction by ZEFSAII (Michael W. Deem and Ramdas Pophale) SiO2 
 PCOD9233344
Probable space group: P 2/C
;
_chemical_formula_sum "Si O2"
_cell_formula_units_Z 32
_cell_length_a 14.459373
_cell_length_b 12.155168
_cell_length_c 17.587924
_cell_angle_alpha 90.000000
_cell_angle_beta 152.452289
_cell_angle_gamma 90.000000
_cell_volume 1429.633155
_symmetry_space_group_name_H-M "P 2/C"
_symmetry_group_IT_number 13
_symmetry_cell_setting 'monoclinic'
loop_
_space_group_symop_operation_xyz
x,y,z
-x,y,1/2-z
-x,-y,-z
x,-y,1/2+z
loop_
_atom_site_type_symbol
_atom_site_label
_atom_site_fract_x
_atom_site_fract_y
_atom_site_fract_z
Si Si1 0.201961 0.140572 0.405897
Si Si2 0.800991 0.697890 0.154913
Si Si3 0.734590 0.871628 0.818495
Si Si4 0.107262 0.095765 0.506026
Si Si5 0.322975 0.536218 0.312891
Si Si6 0.428374 0.737866 0.286268
Si Si7 0.416062 0.640477 0.769310
Si Si8 0.641691 0.065137 0.546025
O O1 0.201790 0.110390 0.493299
O O2 0.398817 0.208413 0.536139
O O3 0.000000 0.208727 0.250000
O O4 0.196881 0.026300 0.357854
O O5 0.821050 0.606210 0.236025
O O6 0.739853 0.819582 0.140699
O O7 0.000000 0.705537 0.250000
O O8 0.614054 0.665537 0.964213
O O9 0.702581 0.754094 0.833368
O O10 0.512063 0.911929 0.635526
O O11 0.853563 0.967869 0.947732
O O12 0.878738 0.864274 0.849355
O O13 0.242643 0.178032 0.654702
O O14 0.500000 0.500000 0.500000
O O15 0.386725 0.622945 0.295021
O O16 0.278047 0.431393 0.226250
O O17 0.500000 0.724933 0.250000
O O18 0.500000 0.594942 0.750000
O O19 0.500000 0.000000 0.500000
#
# Coordination Sequence:
#
# PCOD9233344 Si02
#       8
#     4   4   4   4   4   4   4   4
#     4  11  22  36  59  93 127 164 209 253 316 392
#     4  10  23  40  63  94 126 168 217 270 325 383
#     4  10  22  38  61  90 128 167 202 258 316 393
#     4  10  22  39  61  92 129 165 209 254 324 391
#     4  10  22  44  66  89 127 169 220 275 329 379
#     4  10  21  40  66  93 127 167 213 267 327 386
#     4  10  23  42  67  92 125 170 219 268 329 385
#     4  11  21  36  59  92 129 169 207 254 321 389
#
# _framework density 22.383362999999999
#
# number of rings (size 3 to 8) (size 9 to 14) (size 15 to 20)
#    0.000    1.750    1.250    2.250    3.500    3.000 
#    0.000   10.000    0.000    0.000    0.000    0.000 
#    0.000    0.000    0.000    0.000    0.000    0.000 
#
# Total GULP energy -178409.818194 kJ/mol
# GULP energy per Si atom -5575.306819 kJ/mol
# Density = 2.233242 g / cm^3
# Si number density = 22.383363 Si / 1000 Ang^3
#
#
#
# Elastic Constant Matrix: (Units=GPa)
#
#
# Indices 1 2 3 4 5 6 
#
# 1 102.1786 34.5259 4.8597 0.0000 6.2761 0.0000
# 2 34.5259 86.6993 21.9375 0.0000 -1.1039 0.0000
# 3 4.8597 21.9375 48.1385 0.0000 13.1031 0.0000
# 4 0.0000 0.0000 0.0000 -4.2435 0.0000 5.9119
# 5 6.2761 -1.1039 13.1031 0.0000 35.8233 0.0000
# 6 0.0000 0.0000 0.0000 5.9119 0.0000 27.6776
#
#
#
# Elastic Compliance Matrix: (Units=1/GPa)
#
#
# Indices 1 2 3 4 5 6 
#
# 1 0.011616 -0.005162 0.001974 0.000000 -0.002916 0.000000
# 2 -0.005162 0.015601 -0.007736 0.000000 0.004215 0.000000
# 3 0.001974 -0.007736 0.026941 0.000000 -0.010438 0.000000
# 4 0.000000 0.000000 0.000000 -0.181611 0.000000 0.038792
# 5 -0.002916 0.004215 -0.010438 0.000000 0.032374 0.000000
# 6 0.000000 0.000000 0.000000 0.038792 0.000000 0.027844
#
#
# Mechanical properties :
#
#
# Convention : Reuss Voigt Hill
#
# Bulk Modulus (GPa) = 30.95099 39.96252 35.45675
# Shear Modulus (GPa) = -144.44143 23.56437 -60.43853
#
# Velocity S-wave (km/s) = -8.04182 3.24815 -5.20194
# Velocity P-wave (km/s) = 8.50706 5.65329 4.49501
#
# Compressibility (1/GPa) = 0.03230914
#
# Stress axis : x y z
#
# Youngs Moduli (GPa) = 86.08504 64.09862 37.11855
#
# Poissons Ratio (x) = 0.33091 -0.07326
# Poissons Ratio (y) = 0.44441 0.28714
# Poissons Ratio (z) = -0.16990 0.49585
#
# Static dielectric constant tensor:
#      x y z
#    x 1.898970 0.000000 -0.031960 
#    y 0.000000 1.996310 0.000000 
#    z -0.031960 0.000000 1.885310 
# 
# From -- ./inp_files/68699.got.cif
#   From: 2010.05.17/outbox.cif.g08.bks.cpg/sg13_35_cif.got.tgz:68699.got - 2010.06.03 16:44:36.
