data_PCOD9233013
_publ_section_title
;
Structure prediction by ZEFSAII (Michael W. Deem and Ramdas Pophale) SiO2 
 PCOD9233013
Probable space group: P 2/C
;
_chemical_formula_sum "Si O2"
_cell_formula_units_Z 16
_cell_length_a 19.147037
_cell_length_b 7.812593
_cell_length_c 12.967617
_cell_angle_alpha 90.000000
_cell_angle_beta 20.677827
_cell_angle_gamma 90.000000
_cell_volume 684.968220
_symmetry_space_group_name_H-M "P 2/C"
_symmetry_group_IT_number 13
_symmetry_cell_setting 'monoclinic'
loop_
_space_group_symop_operation_xyz
x,y,z
-x,y,1/2-z
-x,-y,-z
x,-y,1/2+z
loop_
_atom_site_type_symbol
_atom_site_label
_atom_site_fract_x
_atom_site_fract_y
_atom_site_fract_z
Si Si1 0.665413 0.718804 0.613551
Si Si2 0.765480 0.042675 0.601304
Si Si3 0.315693 0.343100 0.929133
Si Si4 0.066849 0.190257 0.935797
O O1 0.672533 0.524846 0.644601
O O2 0.858687 0.733069 0.273661
O O3 0.680406 0.859108 0.683706
O O4 0.500000 0.742293 0.750000
O O5 0.660294 0.177087 0.672936
O O6 0.767480 0.140179 0.708218
O O7 0.000000 0.035576 0.250000
O O8 0.106969 0.305558 0.275305
O O9 0.500000 0.348532 0.750000
O O10 0.000000 0.000000 0.000000
#
# Coordination Sequence:
#
# PCOD9233013 Si02
#       4
#     4   4   4   4
#     4  11  23  42  63  91 125 163 202 251 306 358
#     4  10  21  39  62  91 121 160 204 248 302 359
#     4  10  22  42  62  90 126 160 200 254 301 362
#     4  11  22  41  64  91 122 164 203 249 308 356
#
# _framework density 23.358747999999999
#
# number of rings (size 3 to 8) (size 9 to 14) (size 15 to 20)
#    0.000    1.500    5.000    1.500    0.000    4.000 
#    4.500    2.500    0.000    0.000    0.000    0.000 
#    0.000    0.000    0.000    0.000    0.000    0.000 
#
# Total GULP energy -89217.848007 kJ/mol
# GULP energy per Si atom -5576.115500 kJ/mol
# Density = 2.330558 g / cm^3
# Si number density = 23.358748 Si / 1000 Ang^3
#
#
#
# Elastic Constant Matrix: (Units=GPa)
#
#
# Indices 1 2 3 4 5 6 
#
# 1 38.0604 27.5339 14.5090 0.0000 -2.9524 0.0000
# 2 27.5339 190.1936 16.1397 0.0000 -19.2438 0.0000
# 3 14.5090 16.1397 61.8819 0.0000 -3.0962 0.0000
# 4 0.0000 0.0000 0.0000 6.5819 0.0000 -21.2542
# 5 -2.9524 -19.2438 -3.0962 0.0000 28.7811 0.0000
# 6 0.0000 0.0000 0.0000 -21.2542 0.0000 -86.4162
#
#
#
# Elastic Compliance Matrix: (Units=1/GPa)
#
#
# Indices 1 2 3 4 5 6 
#
# 1 0.031620 -0.004053 -0.006364 0.000000 -0.000151 0.000000
# 2 -0.004053 0.006263 -0.000497 0.000000 0.003718 0.000000
# 3 -0.006364 -0.000497 0.017828 0.000000 0.000933 0.000000
# 4 0.000000 0.000000 0.000000 0.084678 0.000000 -0.020827
# 5 -0.000151 0.003718 0.000933 0.000000 0.037316 0.000000
# 6 0.000000 0.000000 0.000000 -0.020827 0.000000 -0.006450
#
#
# Mechanical properties :
#
#
# Convention : Reuss Voigt Hill
#
# Bulk Modulus (GPa) = 29.51331 45.16680 37.34005
# Shear Modulus (GPa) = 24.46430 5.25291 14.85860
#
# Velocity S-wave (km/s) = 3.23976 1.50123 2.52485
# Velocity P-wave (km/s) = 5.16303 4.73107 4.95176
#
# Compressibility (1/GPa) = 0.03388302
#
# Stress axis : x y z
#
# Youngs Moduli (GPa) = 31.62518 159.66977 56.09046
#
# Poissons Ratio (x) = 0.64711 0.35698
# Poissons Ratio (y) = 0.12817 0.02789
# Poissons Ratio (z) = 0.20127 0.07939
#
# Static dielectric constant tensor:
#      x y z
#    x 1.026350 0.000000 0.392330 
#    y 0.000000 1.859470 0.000000 
#    z 0.392330 0.000000 1.899050 
# 
# From -- ./inp_files/56759.got.cif
#   From: 2010.05.17/outbox.cif.g08.bks.cpg/sg13_29_cif.got.tgz:56759.got - 2010.06.03 16:44:36.
