data_PCOD9233553
_publ_section_title
;
Structure prediction by ZEFSAII (Michael W. Deem and Ramdas Pophale) SiO2 
 PCOD9233553
Probable space group: P 2/C
;
_chemical_formula_sum "Si O2"
_cell_formula_units_Z 24
_cell_length_a 9.794961
_cell_length_b 7.256828
_cell_length_c 14.474376
_cell_angle_alpha 90.000000
_cell_angle_beta 64.439580
_cell_angle_gamma 90.000000
_cell_volume 928.151562
_symmetry_space_group_name_H-M "P 2/C"
_symmetry_group_IT_number 13
_symmetry_cell_setting 'monoclinic'
loop_
_space_group_symop_operation_xyz
x,y,z
-x,y,1/2-z
-x,-y,-z
x,-y,1/2+z
loop_
_atom_site_type_symbol
_atom_site_label
_atom_site_fract_x
_atom_site_fract_y
_atom_site_fract_z
Si Si1 0.250887 0.553180 0.065026
Si Si2 0.235818 0.026368 0.581133
Si Si3 0.005598 0.300086 0.148254
Si Si4 0.525679 0.509984 0.847638
Si Si5 0.834646 0.033064 0.095565
Si Si6 0.604371 0.086819 0.796081
O O1 0.197165 0.758266 0.105420
O O2 0.117301 0.432667 0.060415
O O3 0.324666 0.453762 0.133764
O O4 0.385846 0.567200 0.952129
O O5 0.271785 0.011049 0.462438
O O6 0.365643 0.985477 0.616953
O O7 0.099771 0.887462 0.640099
O O8 0.000000 0.393525 0.250000
O O9 0.858146 0.232004 0.137381
O O10 0.500000 0.573400 0.750000
O O11 0.535901 0.286343 0.837441
O O12 0.767279 0.903531 0.195080
O O13 0.000000 0.000000 0.000000
O O14 0.500000 0.992661 0.750000
#
# Coordination Sequence:
#
# PCOD9233553 Si02
#       6
#     4   4   4   4   4   4
#     4  10  23  44  66 100 135 181 227 283 346 402
#     4  10  23  44  65  97 136 174 226 287 336 410
#     4  11  23  43  68  98 138 181 234 278 339 415
#     4   9  21  42  67  97 143 178 225 287 345 406
#     4  10  23  40  65  99 132 182 229 275 347 407
#     4  10  21  41  67 101 134 179 225 286 348 401
#
# _framework density 25.857845999999999
#
# number of rings (size 3 to 8) (size 9 to 14) (size 15 to 20)
#    0.000    2.000    1.667    0.000    9.333    3.333 
#    9.000    0.000    0.000    0.000    0.000    0.000 
#    0.000    0.000    0.000    0.000    0.000    0.000 
#
# Total GULP energy -134010.815594 kJ/mol
# GULP energy per Si atom -5583.783983 kJ/mol
# Density = 2.579899 g / cm^3
# Si number density = 25.857846 Si / 1000 Ang^3
#
#
#
# Elastic Constant Matrix: (Units=GPa)
#
#
# Indices 1 2 3 4 5 6 
#
# 1 94.2227 13.3167 38.2896 0.0000 23.2725 0.0000
# 2 13.3167 102.7513 -4.0389 0.0000 -14.6131 0.0000
# 3 38.2896 -4.0389 119.5910 0.0000 29.8418 0.0000
# 4 0.0000 0.0000 0.0000 28.2012 0.0000 -4.7927
# 5 23.2725 -14.6131 29.8418 0.0000 53.9747 0.0000
# 6 0.0000 0.0000 0.0000 -4.7927 0.0000 28.3440
#
#
#
# Elastic Compliance Matrix: (Units=1/GPa)
#
#
# Indices 1 2 3 4 5 6 
#
# 1 0.013440 -0.002537 -0.003215 0.000000 -0.004705 0.000000
# 2 -0.002537 0.010617 0.000210 0.000000 0.003853 0.000000
# 3 -0.003215 0.000210 0.010485 0.000000 -0.004354 0.000000
# 4 0.000000 0.000000 0.000000 0.036509 0.000000 0.006173
# 5 -0.004705 0.003853 -0.004354 0.000000 0.024006 0.000000
# 6 0.000000 0.000000 0.000000 0.006173 0.000000 0.036325
#
#
# Mechanical properties :
#
#
# Convention : Reuss Voigt Hill
#
# Bulk Modulus (GPa) = 42.63155 45.74443 44.18799
# Shear Modulus (GPa) = 33.26997 40.03714 36.65355
#
# Velocity S-wave (km/s) = 3.59088 3.93918 3.76906
# Velocity P-wave (km/s) = 5.80648 6.19828 6.00558
#
# Compressibility (1/GPa) = 0.02345681
#
# Stress axis : x y z
#
# Youngs Moduli (GPa) = 74.40354 94.18656 95.37733
#
# Poissons Ratio (x) = 0.23898 0.30663
# Poissons Ratio (y) = 0.18878 -0.01999
# Poissons Ratio (z) = 0.23920 -0.01974
#
# Static dielectric constant tensor:
#      x y z
#    x 2.210640 0.000000 0.008730 
#    y 0.000000 1.992740 0.000000 
#    z 0.008730 0.000000 2.090720 
# 
# From -- ./inp_files/49588.got.cif
#   From: 2010.05.17/outbox.cif.g08.bks.cpg/sg13_25_cif.got.tgz:49588.got - 2010.06.03 16:44:36.
