data_PCOD9233985
_publ_section_title
;
Structure prediction by ZEFSAII (Michael W. Deem and Ramdas Pophale) SiO2 
 PCOD9233985
Probable space group: P 2/C
;
_chemical_formula_sum "Si O2"
_cell_formula_units_Z 24
_cell_length_a 17.090398
_cell_length_b 9.312164
_cell_length_c 15.490348
_cell_angle_alpha 90.000000
_cell_angle_beta 153.120224
_cell_angle_gamma 90.000000
_cell_volume 1114.596278
_symmetry_space_group_name_H-M "P 2/C"
_symmetry_group_IT_number 13
_symmetry_cell_setting 'monoclinic'
loop_
_space_group_symop_operation_xyz
x,y,z
-x,y,1/2-z
-x,-y,-z
x,-y,1/2+z
loop_
_atom_site_type_symbol
_atom_site_label
_atom_site_fract_x
_atom_site_fract_y
_atom_site_fract_z
Si Si1 0.096514 0.898275 0.708799
Si Si2 0.311211 0.636963 0.461036
Si Si3 0.695392 0.389265 0.336936
Si Si4 0.233788 0.933798 0.653332
Si Si5 0.408787 0.953959 0.569132
Si Si6 0.008803 0.574024 0.653701
O O1 0.178330 0.943967 0.697794
O O2 0.052236 0.731389 0.663889
O O3 0.921026 0.988146 0.550722
O O4 0.255774 0.932103 0.929167
O O5 0.300085 0.624225 0.554334
O O6 0.498644 0.579637 0.617582
O O7 0.318096 0.806568 0.448043
O O8 0.154152 0.543011 0.272241
O O9 0.752048 0.233879 0.357701
O O10 0.827591 0.512907 0.442146
O O11 0.425593 0.996601 0.825458
O O12 0.500000 0.920582 0.750000
O O13 0.000000 0.582278 0.750000
#
# Coordination Sequence:
#
# PCOD9233985 Si02
#       6
#     4   4   4   4   4   4
#     4  11  25  38  56  91 125 154 185 242 306 345
#     4   9  17  36  58  84 106 146 201 242 274 331
#     4   9  17  36  58  81 109 151 197 233 280 341
#     4  10  22  42  61  82 121 158 196 237 287 357
#     4  11  21  39  65  87 110 156 208 242 279 344
#     4  10  22  34  55  87 120 148 188 245 292 339
#
# _framework density 21.53246
#
# number of rings (size 3 to 8) (size 9 to 14) (size 15 to 20)
#    0.000    2.000    3.333    1.500    2.333    2.000 
#    3.000    3.333    0.000    0.000    0.000    0.000 
#    0.000    0.000    0.000    0.000    0.000    0.000 
#
# Total GULP energy -134045.134538 kJ/mol
# GULP energy per Si atom -5585.213939 kJ/mol
# Density = 2.148345 g / cm^3
# Si number density = 21.532460 Si / 1000 Ang^3
#
#
#
# Elastic Constant Matrix: (Units=GPa)
#
#
# Indices 1 2 3 4 5 6 
#
# 1 50.8693 10.0333 28.5193 0.0000 18.4457 0.0000
# 2 10.0333 76.6881 56.3867 0.0000 21.8949 0.0000
# 3 28.5193 56.3867 97.0168 0.0000 35.7419 0.0000
# 4 0.0000 0.0000 0.0000 7.7784 0.0000 -1.4604
# 5 18.4457 21.8949 35.7419 0.0000 28.2505 0.0000
# 6 0.0000 0.0000 0.0000 -1.4604 0.0000 12.6344
#
#
#
# Elastic Compliance Matrix: (Units=1/GPa)
#
#
# Indices 1 2 3 4 5 6 
#
# 1 0.026921 0.004381 -0.005119 0.000000 -0.014496 0.000000
# 2 0.004381 0.023527 -0.013468 0.000000 -0.004055 0.000000
# 3 -0.005119 -0.013468 0.027277 0.000000 -0.020730 0.000000
# 4 0.000000 0.000000 0.000000 0.131413 0.000000 0.015190
# 5 -0.014496 -0.004055 -0.020730 0.000000 0.074232 0.000000
# 6 0.000000 0.000000 0.000000 0.015190 0.000000 0.080905
#
#
# Mechanical properties :
#
#
# Convention : Reuss Voigt Hill
#
# Bulk Modulus (GPa) = 20.27929 46.05032 33.16480
# Shear Modulus (GPa) = 12.22122 18.37499 15.29810
#
# Velocity S-wave (km/s) = 2.38496 2.92441 2.66835
# Velocity P-wave (km/s) = 4.12583 5.73025 4.99291
#
# Compressibility (1/GPa) = 0.04931139
#
# Stress axis : x y z
#
# Youngs Moduli (GPa) = 37.14629 42.50432 36.66102
#
# Poissons Ratio (x) = -0.18620 0.18768
# Poissons Ratio (y) = -0.16272 0.49374
# Poissons Ratio (z) = 0.19017 0.57244
#
# Static dielectric constant tensor:
#      x y z
#    x 1.834470 0.000000 -0.014770 
#    y 0.000000 1.730750 0.000000 
#    z -0.014770 0.000000 1.805990 
# 
# From -- ./inp_files/81728.got.cif
#   From: 2010.05.17/outbox.cif.g08.bks.cpg/sg13_41_cif.got.tgz:81728.got - 2010.06.03 16:44:36.
