data_PCOD9233758
_publ_section_title
;
Structure prediction by ZEFSAII (Michael W. Deem and Ramdas Pophale) SiO2 
 PCOD9233758
Probable space group: P 2/C
;
_chemical_formula_sum "Si O2"
_cell_formula_units_Z 32
_cell_length_a 11.920636
_cell_length_b 8.118550
_cell_length_c 29.549560
_cell_angle_alpha 90.000000
_cell_angle_beta 30.056394
_cell_angle_gamma 90.000000
_cell_volume 1432.314735
_symmetry_space_group_name_H-M "P 2/C"
_symmetry_group_IT_number 13
_symmetry_cell_setting 'monoclinic'
loop_
_space_group_symop_operation_xyz
x,y,z
-x,y,1/2-z
-x,-y,-z
x,-y,1/2+z
loop_
_atom_site_type_symbol
_atom_site_label
_atom_site_fract_x
_atom_site_fract_y
_atom_site_fract_z
Si Si1 0.286551 0.968170 0.604696
Si Si2 0.356563 0.467942 0.899282
Si Si3 0.974553 0.941431 0.573289
Si Si4 0.201551 0.578685 0.737077
Si Si5 0.821988 0.943227 0.724594
Si Si6 0.007326 0.725465 0.022335
Si Si7 0.480930 0.126594 0.893524
Si Si8 0.708313 0.570249 0.898177
O O1 0.287511 0.769252 0.606754
O O2 0.052385 0.019208 0.663782
O O3 0.500000 0.000000 0.500000
O O4 0.343118 0.072940 0.629609
O O5 0.604275 0.516549 0.798040
O O6 0.222000 0.625663 0.965768
O O7 0.398268 0.313742 0.918004
O O8 0.190386 0.401972 0.919122
O O9 0.244130 0.961561 0.483567
O O10 0.869411 0.888084 0.656950
O O11 0.928791 0.817825 0.547558
O O12 0.904492 0.127188 0.587056
O O13 0.215017 0.776472 0.734123
O O14 0.268367 0.521433 0.662874
O O15 0.949268 0.524827 0.835796
O O16 0.610577 0.062966 0.803844
O O17 0.500000 0.500000 0.000000
#
# Coordination Sequence:
#
# PCOD9233758 Si02
#       8
#     4   4   4   4   4   4   4   4
#     4  11  22  38  63  98 130 174 223 271 327 415
#     4  10  22  41  66  94 133 179 216 283 350 395
#     4  10  21  42  70  95 125 175 233 282 347 408
#     4  10  22  42  63  96 136 174 222 274 337 411
#     4  11  22  41  67  94 131 178 222 278 341 408
#     4   9  21  43  68  97 130 173 233 295 342 404
#     4  11  22  40  63  96 134 176 227 273 333 416
#     4  10  23  40  64  96 137 178 216 271 337 407
#
# _framework density 22.341459
#
# number of rings (size 3 to 8) (size 9 to 14) (size 15 to 20)
#    0.000    1.750    2.500    1.125    1.750    2.000 
#    2.250   15.000    0.000    0.000    0.000    0.000 
#    0.000    0.000    0.000    0.000    0.000    0.000 
#
# Total GULP energy -178476.916527 kJ/mol
# GULP energy per Si atom -5577.403641 kJ/mol
# Density = 2.229061 g / cm^3
# Si number density = 22.341459 Si / 1000 Ang^3
#
#
#
# Elastic Constant Matrix: (Units=GPa)
#
#
# Indices 1 2 3 4 5 6 
#
# 1 47.3936 23.0995 32.7822 0.0000 -8.4063 0.0000
# 2 23.0995 67.9060 29.5258 0.0000 -18.7741 0.0000
# 3 32.7822 29.5258 131.4260 0.0000 -9.0102 0.0000
# 4 0.0000 0.0000 0.0000 31.8733 0.0000 -8.6939
# 5 -8.4063 -18.7741 -9.0102 0.0000 31.7016 0.0000
# 6 0.0000 0.0000 0.0000 -8.6939 0.0000 35.4148
#
#
#
# Elastic Compliance Matrix: (Units=1/GPa)
#
#
# Indices 1 2 3 4 5 6 
#
# 1 0.028534 -0.006781 -0.005457 0.000000 0.002000 0.000000
# 2 -0.006781 0.020751 -0.002296 0.000000 0.009839 0.000000
# 3 -0.005457 -0.002296 0.009478 0.000000 -0.000113 0.000000
# 4 0.000000 0.000000 0.000000 0.033626 0.000000 0.008255
# 5 0.002000 0.009839 -0.000113 0.000000 0.037869 0.000000
# 6 0.000000 0.000000 0.000000 0.008255 0.000000 0.030263
#
#
# Mechanical properties :
#
#
# Convention : Reuss Voigt Hill
#
# Bulk Modulus (GPa) = 33.67479 46.39343 40.03411
# Shear Modulus (GPa) = 25.06421 30.55249 27.80835
#
# Velocity S-wave (km/s) = 3.35307 3.70202 3.53185
# Velocity P-wave (km/s) = 5.48600 6.25172 5.88133
#
# Compressibility (1/GPa) = 0.02969580
#
# Stress axis : x y z
#
# Youngs Moduli (GPa) = 35.04572 48.18978 105.50663
#
# Poissons Ratio (x) = 0.32677 0.57574
# Poissons Ratio (y) = 0.23764 0.24225
# Poissons Ratio (z) = 0.19124 0.11065
#
# Static dielectric constant tensor:
#      x y z
#    x 1.948080 0.000000 0.026140 
#    y 0.000000 1.967700 0.000000 
#    z 0.026140 0.000000 1.841720 
# 
# From -- ./inp_files/96656.got.cif
#   From: 2010.05.17/outbox.cif.g08.bks.cpg/sg13_49_cif.got.tgz:96656.got - 2010.06.03 16:44:36.
