data_PCOD9233916
_publ_section_title
;
Structure prediction by ZEFSAII (Michael W. Deem and Ramdas Pophale) SiO2 
 PCOD9233916
Probable space group: P 2/C
;
_chemical_formula_sum "Si O2"
_cell_formula_units_Z 22
_cell_length_a 13.083507
_cell_length_b 6.432001
_cell_length_c 12.148524
_cell_angle_alpha 90.000000
_cell_angle_beta 94.337392
_cell_angle_gamma 90.000000
_cell_volume 1019.408338
_symmetry_space_group_name_H-M "P 2/C"
_symmetry_group_IT_number 13
_symmetry_cell_setting 'monoclinic'
loop_
_space_group_symop_operation_xyz
x,y,z
-x,y,1/2-z
-x,-y,-z
x,-y,1/2+z
loop_
_atom_site_type_symbol
_atom_site_label
_atom_site_fract_x
_atom_site_fract_y
_atom_site_fract_z
Si Si1 0.410051 0.623673 0.553731
Si Si2 0.053957 0.311191 0.069297
Si Si3 0.858274 0.081772 0.049131
Si Si4 0.500000 0.083506 0.250000
Si Si5 0.221541 0.390549 0.647371
Si Si6 0.309124 0.868486 0.345701
O O1 0.500000 0.500000 0.500000
O O2 0.460416 0.773391 0.647801
O O3 0.327735 0.475453 0.605934
O O4 0.350155 0.757494 0.458100
O O5 0.140729 0.420914 0.148478
O O6 0.958736 0.184191 0.111271
O O7 0.000000 0.500000 0.000000
O O8 0.108877 0.145741 0.992793
O O9 0.763874 0.056391 0.123370
O O10 0.823384 0.219790 0.941655
O O11 0.405847 0.946075 0.284403
O O12 0.243629 0.286657 0.765548
#
# Coordination Sequence:
#
# PCOD9233916 Si02
#       6
#     4   4   4   2   4   4
#     4  12  24  44  68  98 139 182 228 288 349 409
#     4   9  20  43  71  96 136 177 228 288 334 413
#     4  10  21  44  69  99 139 179 225 289 342 404
#     4  12  26  44  70 104 138 178 238 288 344 428
#     4  11  23  42  70 101 136 178 232 279 342 422
#     4  12  24  42  70 103 138 182 227 287 351 406
#
# _framework density 21.581144999999999
#
# number of rings (size 3 to 8) (size 9 to 14) (size 15 to 20)
#    0.000    1.091    1.818    4.909    0.000    0.000 
#    0.000   10.000    0.000    0.000    0.000    0.000 
#    0.000    0.000    0.000    0.000    0.000    0.000 
#
# Total GULP energy -123133.170701 kJ/mol
# GULP energy per Si atom -5596.962305 kJ/mol
# Density = 2.153203 g / cm^3
# Si number density = 21.581145 Si / 1000 Ang^3
#
#
#
# Elastic Constant Matrix: (Units=GPa)
#
#
# Indices 1 2 3 4 5 6 
#
# 1 127.2456 35.6024 36.2266 0.0000 9.9570 0.0000
# 2 35.6024 93.8268 37.8645 0.0000 16.3469 0.0000
# 3 36.2266 37.8645 111.1047 0.0000 24.0167 0.0000
# 4 0.0000 0.0000 0.0000 -31.1738 0.0000 -4.1658
# 5 9.9570 16.3469 24.0167 0.0000 30.1255 0.0000
# 6 0.0000 0.0000 0.0000 -4.1658 0.0000 63.6479
#
#
#
# Elastic Compliance Matrix: (Units=1/GPa)
#
#
# Indices 1 2 3 4 5 6 
#
# 1 0.009196 -0.002651 -0.002113 0.000000 0.000084 0.000000
# 2 -0.002651 0.013544 -0.002842 0.000000 -0.004207 0.000000
# 3 -0.002113 -0.002842 0.012292 0.000000 -0.007559 0.000000
# 4 0.000000 0.000000 0.000000 -0.031800 0.000000 -0.002081
# 5 0.000084 -0.004207 -0.007559 0.000000 0.041476 0.000000
# 6 0.000000 0.000000 0.000000 -0.002081 0.000000 0.015575
#
#
# Mechanical properties :
#
#
# Convention : Reuss Voigt Hill
#
# Bulk Modulus (GPa) = 50.45518 61.28489 55.87003
# Shear Modulus (GPa) = 60.90085 27.35214 44.12649
#
# Velocity S-wave (km/s) = 5.31796 3.56393 4.52672
# Velocity P-wave (km/s) = 7.81906 6.73755 7.29836
#
# Compressibility (1/GPa) = 0.01981957
#
# Stress axis : x y z
#
# Youngs Moduli (GPa) = 108.74796 73.83467 81.35448
#
# Poissons Ratio (x) = 0.19575 0.17189
# Poissons Ratio (y) = 0.28831 0.23119
# Poissons Ratio (z) = 0.22977 0.20982
#
# Static dielectric constant tensor:
#      x y z
#    x 1.788540 0.000000 -0.002600 
#    y 0.000000 1.776470 0.000000 
#    z -0.002600 0.000000 1.768050 
# 
# From -- ./inp_files/35429.got.cif
#   From: 2010.05.17/outbox.cif.g08.bks.cpg/sg13_18_cif.got.tgz:35429.got - 2010.06.03 16:44:36.
