data_PCOD9233695
_publ_section_title
;
Structure prediction by ZEFSAII (Michael W. Deem and Ramdas Pophale) SiO2 
 PCOD9233695
Probable space group: P 2/C
;
_chemical_formula_sum "Si O2"
_cell_formula_units_Z 22
_cell_length_a 10.297579
_cell_length_b 12.343751
_cell_length_c 10.715146
_cell_angle_alpha 90.000000
_cell_angle_beta 39.817271
_cell_angle_gamma 90.000000
_cell_volume 872.151361
_symmetry_space_group_name_H-M "P 2/C"
_symmetry_group_IT_number 13
_symmetry_cell_setting 'monoclinic'
loop_
_space_group_symop_operation_xyz
x,y,z
-x,y,1/2-z
-x,-y,-z
x,-y,1/2+z
loop_
_atom_site_type_symbol
_atom_site_label
_atom_site_fract_x
_atom_site_fract_y
_atom_site_fract_z
Si Si1 0.334942 0.747545 0.066767
Si Si2 0.759333 0.198673 0.349429
Si Si3 0.500000 0.864120 0.250000
Si Si4 0.111141 0.659154 0.475496
Si Si5 0.827514 0.562299 0.480934
Si Si6 0.805253 0.963390 0.225749
O O1 0.300420 0.660447 0.983643
O O2 0.210517 0.861542 0.166292
O O3 0.252902 0.698687 0.257997
O O4 0.573124 0.770315 0.897075
O O5 0.659152 0.212649 0.559924
O O6 0.966660 0.254106 0.153563
O O7 0.775559 0.069747 0.328751
O O8 0.629911 0.934191 0.253371
O O9 0.923697 0.600752 0.538949
O O10 0.231001 0.563350 0.458946
O O11 0.000000 0.552924 0.250000
O O12 0.000000 0.000000 0.000000
#
# Coordination Sequence:
#
# PCOD9233695 Si02
#       6
#     4   4   2   4   4   4
#     4  10  21  43  68 103 148 183 243 301 364 448
#     4  11  24  43  69 107 144 187 239 298 369 446
#     4  10  24  42  66 110 150 186 240 298 362 464
#     4  10  21  42  66  98 138 185 249 294 360 428
#     4   9  21  41  66  97 135 188 241 305 351 423
#     4  11  23  45  70 111 150 188 242 300 378 451
#
# _framework density 25.224982000000001
#
# number of rings (size 3 to 8) (size 9 to 14) (size 15 to 20)
#    0.000    1.818    1.818    2.182    0.000    7.273 
#    6.545   11.818    0.000    0.000    0.000    0.000 
#    0.000    0.000    0.000    0.000    0.000    0.000 
#
# Total GULP energy -122732.480044 kJ/mol
# GULP energy per Si atom -5578.749093 kJ/mol
# Density = 2.516757 g / cm^3
# Si number density = 25.224982 Si / 1000 Ang^3
#
#
#
# Elastic Constant Matrix: (Units=GPa)
#
#
# Indices 1 2 3 4 5 6 
#
# 1 76.4235 47.3311 23.8558 0.0000 -11.8569 0.0000
# 2 47.3311 195.7252 58.4919 0.0000 -3.3263 0.0000
# 3 23.8558 58.4919 122.9821 0.0000 -30.1818 0.0000
# 4 0.0000 0.0000 0.0000 -19.8751 0.0000 -17.4643
# 5 -11.8569 -3.3263 -30.1818 0.0000 44.7628 0.0000
# 6 0.0000 0.0000 0.0000 -17.4643 0.0000 34.2146
#
#
#
# Elastic Compliance Matrix: (Units=1/GPa)
#
#
# Indices 1 2 3 4 5 6 
#
# 1 0.016084 -0.003688 -0.000464 0.000000 0.003673 0.000000
# 2 -0.003688 0.006919 -0.003222 0.000000 -0.002635 0.000000
# 3 -0.000464 -0.003222 0.011581 0.000000 0.007446 0.000000
# 4 0.000000 0.000000 0.000000 -0.034735 0.000000 -0.017730
# 5 0.003673 -0.002635 0.007446 0.000000 0.028138 0.000000
# 6 0.000000 0.000000 0.000000 -0.017730 0.000000 0.020177
#
#
# Mechanical properties :
#
#
# Convention : Reuss Voigt Hill
#
# Bulk Modulus (GPa) = 50.41580 72.72095 61.56837
# Shear Modulus (GPa) = 71.91503 29.51726 50.71614
#
# Velocity S-wave (km/s) = 5.34522 3.42447 4.48878
# Velocity P-wave (km/s) = 7.62397 6.67289 7.16423
#
# Compressibility (1/GPa) = 0.01983505
#
# Stress axis : x y z
#
# Youngs Moduli (GPa) = 62.17328 144.52331 86.34593
#
# Poissons Ratio (x) = 0.53305 0.04009
# Poissons Ratio (y) = 0.22932 0.27823
# Poissons Ratio (z) = 0.02886 0.46569
#
# Static dielectric constant tensor:
#      x y z
#    x 2.196460 0.000000 0.026950 
#    y 0.000000 2.134440 0.000000 
#    z 0.026950 0.000000 2.052710 
# 
# From -- ./inp_files/33649.got.cif
#   From: 2010.05.17/outbox.cif.g08.bks.cpg/sg13_17_cif.got.tgz:33649.got - 2010.06.03 16:44:36.
