data_PCOD9233680
_publ_section_title
;
Structure prediction by ZEFSAII (Michael W. Deem and Ramdas Pophale) SiO2 
 PCOD9233680
Probable space group: P 2/C
;
_chemical_formula_sum "Si O2"
_cell_formula_units_Z 12
_cell_length_a 13.328751
_cell_length_b 6.807686
_cell_length_c 12.902201
_cell_angle_alpha 90.000000
_cell_angle_beta 22.504353
_cell_angle_gamma 90.000000
_cell_volume 448.097049
_symmetry_space_group_name_H-M "P 2/C"
_symmetry_group_IT_number 13
_symmetry_cell_setting 'monoclinic'
loop_
_space_group_symop_operation_xyz
x,y,z
-x,y,1/2-z
-x,-y,-z
x,-y,1/2+z
loop_
_atom_site_type_symbol
_atom_site_label
_atom_site_fract_x
_atom_site_fract_y
_atom_site_fract_z
Si Si1 0.126358 0.695044 0.016845
Si Si2 0.054468 0.235640 0.045408
Si Si3 0.548255 0.004964 0.074646
O O1 0.084288 0.462648 0.046691
O O2 0.000000 0.750600 0.250000
O O3 0.987023 0.770671 0.041966
O O4 0.424318 0.779884 0.723071
O O5 0.818896 0.114254 0.321821
O O6 0.316666 0.133989 0.834634
O O7 0.500000 0.000000 0.000000
#
# Coordination Sequence:
#
# PCOD9233680 Si02
#       3
#     4   4   4
#     4  10  22  41  67  96 129 174 221 269 330 396
#     4  10  23  43  64  93 132 169 215 272 328 390
#     4  10  21  42  66  89 126 172 214 269 333 388
#
# _framework density 26.779914000000002
#
# number of rings (size 3 to 8) (size 9 to 14) (size 15 to 20)
#    0.000    2.000    0.000    4.000    0.000   16.000 
#    0.000   33.333    0.000    0.000    0.000    0.000 
#    0.000    0.000    0.000    0.000    0.000    0.000 
#
# Total GULP energy -66920.869100 kJ/mol
# GULP energy per Si atom -5576.739092 kJ/mol
# Density = 2.671896 g / cm^3
# Si number density = 26.779914 Si / 1000 Ang^3
#
#
#
# Elastic Constant Matrix: (Units=GPa)
#
#
# Indices 1 2 3 4 5 6 
#
# 1 163.1171 46.4112 61.0450 0.0000 43.1146 0.0000
# 2 46.4112 226.4507 115.4841 0.0000 -10.6021 0.0000
# 3 61.0450 115.4841 248.3182 0.0000 -10.4517 0.0000
# 4 0.0000 0.0000 0.0000 -17.5990 0.0000 82.5001
# 5 43.1146 -10.6021 -10.4517 0.0000 73.8682 0.0000
# 6 0.0000 0.0000 0.0000 82.5001 0.0000 -94.8480
#
#
#
# Elastic Compliance Matrix: (Units=1/GPa)
#
#
# Indices 1 2 3 4 5 6 
#
# 1 0.008548 -0.001071 -0.001831 0.000000 -0.005402 0.000000
# 2 -0.001071 0.005938 -0.002451 0.000000 0.001131 0.000000
# 3 -0.001831 -0.002451 0.005681 0.000000 0.001521 0.000000
# 4 0.000000 0.000000 0.000000 0.018464 0.000000 0.016060
# 5 -0.005402 0.001131 0.001521 0.000000 0.017068 0.000000
# 6 0.000000 0.000000 0.000000 0.016060 0.000000 0.003426
#
#
# Mechanical properties :
#
#
# Convention : Reuss Voigt Hill
#
# Bulk Modulus (GPa) = 105.68405 120.41851 113.05128
# Shear Modulus (GPa) = 68.50759 19.94728 44.22743
#
# Velocity S-wave (km/s) = 5.06332 2.73217 4.06829
# Velocity P-wave (km/s) = 8.58677 7.41732 8.02338
#
# Compressibility (1/GPa) = 0.00946217
#
# Stress axis : x y z
#
# Youngs Moduli (GPa) = 116.98126 168.39836 176.02965
#
# Poissons Ratio (x) = 0.18041 0.32224
# Poissons Ratio (y) = 0.12533 0.43140
# Poissons Ratio (z) = 0.21415 0.41270
#
# Static dielectric constant tensor:
#      x y z
#    x 2.218340 0.000000 0.037390 
#    y 0.000000 2.071200 0.000000 
#    z 0.037390 0.000000 2.189870 
# 
# From -- ./inp_files/52708.got.cif
#   From: 2010.05.17/outbox.cif.g08.bks.cpg/sg13_27_cif.got.tgz:52708.got - 2010.06.03 16:44:36.
