data_PCOD9233017
_publ_section_title
;
Structure prediction by ZEFSAII (Michael W. Deem and Ramdas Pophale) SiO2 
 PCOD9233017
Probable space group: P 2/C
;
_chemical_formula_sum "Si O2"
_cell_formula_units_Z 32
_cell_length_a 35.602613
_cell_length_b 8.755005
_cell_length_c 13.616379
_cell_angle_alpha 90.000000
_cell_angle_beta 21.274017
_cell_angle_gamma 90.000000
_cell_volume 1539.931893
_symmetry_space_group_name_H-M "P 2/C"
_symmetry_group_IT_number 13
_symmetry_cell_setting 'monoclinic'
loop_
_space_group_symop_operation_xyz
x,y,z
-x,y,1/2-z
-x,-y,-z
x,-y,1/2+z
loop_
_atom_site_type_symbol
_atom_site_label
_atom_site_fract_x
_atom_site_fract_y
_atom_site_fract_z
Si Si1 0.846041 0.743754 0.178530
Si Si2 0.103589 0.480278 0.310211
Si Si3 0.790351 0.895463 0.518486
Si Si4 0.696839 0.595719 0.796690
Si Si5 0.425168 0.404360 0.555529
Si Si6 0.361580 0.397458 0.389145
Si Si7 0.229932 0.811038 0.551774
Si Si8 0.889830 0.046276 0.980143
O O1 0.895237 0.582357 0.092593
O O2 0.842642 0.830117 0.291945
O O3 0.731018 0.711755 0.417488
O O4 0.892304 0.861934 0.987656
O O5 0.138174 0.308534 0.250633
O O6 0.000000 0.500000 0.500000
O O7 0.197011 0.540636 0.013197
O O8 0.699861 0.776659 0.770068
O O9 0.865433 0.906560 0.428909
O O10 0.758809 0.063697 0.561393
O O11 0.608143 0.498461 0.959295
O O12 0.689061 0.537693 0.926561
O O13 0.539736 0.335923 0.290476
O O14 0.409406 0.536579 0.674010
O O15 0.336834 0.280829 0.792763
O O16 0.198482 0.890201 0.731081
O O17 0.000000 0.104626 0.750000
#
# Coordination Sequence:
#
# PCOD9233017 Si02
#       8
#     4   4   4   4   4   4   4   4
#     4  10  23  42  61  92 126 164 220 268 321 387
#     4  10  22  39  64  91 124 167 211 272 323 366
#     4  10  22  41  61  84 136 163 206 268 323 382
#     4  10  21  39  62  92 125 167 216 264 319 392
#     4  10  21  40  67  95 121 169 216 274 333 375
#     4  11  20  39  71  90 125 165 222 271 326 387
#     4  10  22  42  63  92 129 165 217 267 327 388
#     4  11  26  39  63  91 129 184 214 257 334 396
#
# _framework density 20.780139999999999
#
# number of rings (size 3 to 8) (size 9 to 14) (size 15 to 20)
#    0.000    1.750    3.750    1.125    8.750    1.000 
#    0.000    3.125    5.500    0.000    0.000    0.000 
#    0.000    0.000    0.000    0.000    0.000    0.000 
#
# Total GULP energy -178375.672609 kJ/mol
# GULP energy per Si atom -5574.239769 kJ/mol
# Density = 2.073284 g / cm^3
# Si number density = 20.780140 Si / 1000 Ang^3
#
#
#
# Elastic Constant Matrix: (Units=GPa)
#
#
# Indices 1 2 3 4 5 6 
#
# 1 124.2061 34.9615 30.5894 0.0000 -18.9336 0.0000
# 2 34.9615 70.2099 24.1116 0.0000 -19.8369 0.0000
# 3 30.5894 24.1116 53.7713 0.0000 -24.6857 0.0000
# 4 0.0000 0.0000 0.0000 8.7280 0.0000 5.4915
# 5 -18.9336 -19.8369 -24.6857 0.0000 36.4808 0.0000
# 6 0.0000 0.0000 0.0000 5.4915 0.0000 33.2849
#
#
#
# Elastic Compliance Matrix: (Units=1/GPa)
#
#
# Indices 1 2 3 4 5 6 
#
# 1 0.010093 -0.003500 -0.003831 0.000000 0.000742 0.000000
# 2 -0.003500 0.018963 -0.003789 0.000000 0.005931 0.000000
# 3 -0.003831 -0.003789 0.029908 0.000000 0.016189 0.000000
# 4 0.000000 0.000000 0.000000 0.127845 0.000000 -0.021092
# 5 0.000742 0.005931 0.016189 0.000000 0.041977 0.000000
# 6 0.000000 0.000000 0.000000 -0.021092 0.000000 0.033524
#
#
# Mechanical properties :
#
#
# Convention : Reuss Voigt Hill
#
# Bulk Modulus (GPa) = 27.23128 47.50136 37.36632
# Shear Modulus (GPa) = 16.84679 26.26706 21.55692
#
# Velocity S-wave (km/s) = 2.85040 3.55920 3.22433
# Velocity P-wave (km/s) = 4.89550 6.30866 5.64646
#
# Compressibility (1/GPa) = 0.03672247
#
# Stress axis : x y z
#
# Youngs Moduli (GPa) = 99.07679 52.73433 33.43549
#
# Poissons Ratio (x) = 0.18459 0.12810
# Poissons Ratio (y) = 0.34681 0.12669
# Poissons Ratio (z) = 0.37960 0.19982
#
# Static dielectric constant tensor:
#      x y z
#    x 1.881280 0.000000 -0.069990 
#    y 0.000000 1.799360 0.000000 
#    z -0.069990 0.000000 1.825240 
# 
# From -- ./inp_files/42752.got.cif
#   From: 2010.05.17/outbox.cif.g08.bks.cpg/sg13_22_cif.got.tgz:42752.got - 2010.06.03 16:44:36.
