data_PCOD9233378
_publ_section_title
;
Structure prediction by ZEFSAII (Michael W. Deem and Ramdas Pophale) SiO2 
 PCOD9233378
Probable space group: P 2/C
;
_chemical_formula_sum "Si O2"
_cell_formula_units_Z 28
_cell_length_a 15.128050
_cell_length_b 8.396027
_cell_length_c 18.532176
_cell_angle_alpha 90.000000
_cell_angle_beta 148.939467
_cell_angle_gamma 90.000000
_cell_volume 1214.465668
_symmetry_space_group_name_H-M "P 2/C"
_symmetry_group_IT_number 13
_symmetry_cell_setting 'monoclinic'
loop_
_space_group_symop_operation_xyz
x,y,z
-x,y,1/2-z
-x,-y,-z
x,-y,1/2+z
loop_
_atom_site_type_symbol
_atom_site_label
_atom_site_fract_x
_atom_site_fract_y
_atom_site_fract_z
Si Si1 0.962363 0.794369 0.139501
Si Si2 0.549957 0.164302 0.075192
Si Si3 0.165664 0.671745 0.167788
Si Si4 0.866702 0.443781 0.091062
Si Si5 0.905597 0.302237 0.361857
Si Si6 0.537652 0.286128 0.913660
Si Si7 0.380507 0.945838 0.596480
O O1 0.880826 0.619631 0.068100
O O2 0.000000 0.813783 0.250000
O O3 0.138264 0.784285 0.218113
O O4 0.814730 0.916644 0.016995
O O5 0.750057 0.183645 0.237467
O O6 0.441132 0.171614 0.073196
O O7 0.528316 0.289291 0.994485
O O8 0.500000 0.000000 0.000000
O O9 0.165002 0.484582 0.186888
O O10 0.343638 0.697350 0.252148
O O11 0.004254 0.717220 0.005611
O O12 0.000000 0.444697 0.250000
O O13 0.944697 0.310962 0.092889
O O14 0.675879 0.410975 0.983100
O O15 0.601819 0.118101 0.927721
O O16 0.500000 0.930255 0.750000
#
# Coordination Sequence:
#
# PCOD9233378 Si02
#       7
#     4   4   4   4   4   4   4
#     4  10  22  44  65  92 128 171 220 267 332 401
#     4  10  22  42  65  96 132 176 225 270 334 410
#     4  10  23  40  65  99 129 175 219 279 345 393
#     4  10  21  40  67  99 126 167 217 280 333 384
#     4  10  21  41  65  95 137 167 219 280 342 400
#     4  11  24  42  66  99 131 169 228 274 332 402
#     4  11  25  43  61  94 133 174 222 266 330 398
#
# _framework density 23.055408
#
# number of rings (size 3 to 8) (size 9 to 14) (size 15 to 20)
#    0.000    1.714    1.429    1.714    4.000    1.143 
#    5.143    3.571    0.000    0.000    0.000    0.000 
#    0.000    0.000    0.000    0.000    0.000    0.000 
#
# Total GULP energy -156425.642977 kJ/mol
# GULP energy per Si atom -5586.630106 kJ/mol
# Density = 2.300293 g / cm^3
# Si number density = 23.055408 Si / 1000 Ang^3
#
#
#
# Elastic Constant Matrix: (Units=GPa)
#
#
# Indices 1 2 3 4 5 6 
#
# 1 72.6604 14.5524 20.1150 0.0000 2.7862 0.0000
# 2 14.5524 56.8027 33.4076 0.0000 13.9333 0.0000
# 3 20.1150 33.4076 120.2527 0.0000 13.5028 0.0000
# 4 0.0000 0.0000 0.0000 37.3555 0.0000 -4.9555
# 5 2.7862 13.9333 13.5028 0.0000 47.0355 0.0000
# 6 0.0000 0.0000 0.0000 -4.9555 0.0000 33.7841
#
#
#
# Elastic Compliance Matrix: (Units=1/GPa)
#
#
# Indices 1 2 3 4 5 6 
#
# 1 0.014802 -0.002894 -0.001725 0.000000 0.000476 0.000000
# 2 -0.002894 0.022668 -0.005248 0.000000 -0.005037 0.000000
# 3 -0.001725 -0.005248 0.010205 0.000000 -0.001273 0.000000
# 4 0.000000 0.000000 0.000000 0.027301 0.000000 0.004005
# 5 0.000476 -0.005037 -0.001273 0.000000 0.023090 0.000000
# 6 0.000000 0.000000 0.000000 0.004005 0.000000 0.030187
#
#
# Mechanical properties :
#
#
# Convention : Reuss Voigt Hill
#
# Bulk Modulus (GPa) = 35.79003 42.87398 39.33200
# Shear Modulus (GPa) = 31.78616 35.74442 33.76529
#
# Velocity S-wave (km/s) = 3.71709 3.94175 3.83107
# Velocity P-wave (km/s) = 5.82920 6.27319 6.05527
#
# Compressibility (1/GPa) = 0.02794074
#
# Stress axis : x y z
#
# Youngs Moduli (GPa) = 67.55997 44.11466 97.98865
#
# Poissons Ratio (x) = 0.12767 0.16906
# Poissons Ratio (y) = 0.19552 0.51423
# Poissons Ratio (z) = 0.11656 0.23151
#
# Static dielectric constant tensor:
#      x y z
#    x 1.947930 0.000000 0.092180 
#    y 0.000000 1.882480 0.000000 
#    z 0.092180 0.000000 2.246030 
# 
# From -- ./inp_files/79998.got.cif
#   From: 2010.05.17/outbox.cif.g08.bks.cpg/sg13_40_cif.got.tgz:79998.got - 2010.06.03 16:44:36.
