data_PCOD9233876
_publ_section_title
;
Structure prediction by ZEFSAII (Michael W. Deem and Ramdas Pophale) SiO2 
 PCOD9233876
Probable space group: P 2/C
;
_chemical_formula_sum "Si O2"
_cell_formula_units_Z 32
_cell_length_a 26.962686
_cell_length_b 5.007970
_cell_length_c 14.389424
_cell_angle_alpha 90.000000
_cell_angle_beta 40.822660
_cell_angle_gamma 90.000000
_cell_volume 1270.164625
_symmetry_space_group_name_H-M "P 2/C"
_symmetry_group_IT_number 13
_symmetry_cell_setting 'monoclinic'
loop_
_space_group_symop_operation_xyz
x,y,z
-x,y,1/2-z
-x,-y,-z
x,-y,1/2+z
loop_
_atom_site_type_symbol
_atom_site_label
_atom_site_fract_x
_atom_site_fract_y
_atom_site_fract_z
Si Si1 0.492067 0.389951 0.163324
Si Si2 0.643147 0.004303 0.129870
Si Si3 0.804608 0.581656 0.638468
Si Si4 0.151141 0.404440 0.113151
Si Si5 0.936754 0.907936 0.220820
Si Si6 0.281081 0.491511 0.066307
Si Si7 0.573242 0.802920 0.392334
Si Si8 0.101726 0.082112 0.943511
O O1 0.500000 0.534744 0.250000
O O2 0.439718 0.136138 0.262487
O O3 0.448384 0.566572 0.148768
O O4 0.570333 0.307621 0.001344
O O5 0.643650 0.943983 0.240893
O O6 0.697809 0.227799 0.009961
O O7 0.661154 0.735359 0.049216
O O8 0.794916 0.512799 0.544614
O O9 0.733916 0.508214 0.803160
O O10 0.873478 0.382106 0.568732
O O11 0.831764 0.880328 0.620997
O O12 0.081844 0.610184 0.221121
O O13 0.200418 0.409349 0.136211
O O14 0.117422 0.112192 0.147805
O O15 0.913261 0.933289 0.145666
O O16 0.023921 0.991162 0.102402
O O17 0.500000 0.000000 0.500000
#
# Coordination Sequence:
#
# PCOD9233876 Si02
#       8
#     4   4   4   4   4   4   4   4
#     4  10  21  43  72 106 138 171 216 280 333 384
#     4  11  23  44  68  97 133 181 218 261 327 382
#     4  12  25  43  66  95 131 177 222 280 333 391
#     4  12  25  43  67  94 128 179 224 276 339 392
#     4  11  22  41  68  97 126 173 221 277 358 399
#     4  12  24  46  64  89 142 180 221 270 316 395
#     4   9  20  41  69  99 137 172 210 267 334 387
#     4  11  22  41  68  95 131 167 220 287 345 405
#
# _framework density 25.193587000000001
#
# number of rings (size 3 to 8) (size 9 to 14) (size 15 to 20)
#    0.000    1.000    3.750    3.000    0.000    7.000 
#    4.500    0.000    0.000    0.000    0.000    0.000 
#    0.000    0.000    0.000    0.000    0.000    0.000 
#
# Total GULP energy -179131.376566 kJ/mol
# GULP energy per Si atom -5597.855518 kJ/mol
# Density = 2.513625 g / cm^3
# Si number density = 25.193587 Si / 1000 Ang^3
#
#
#
# Elastic Constant Matrix: (Units=GPa)
#
#
# Indices 1 2 3 4 5 6 
#
# 1 37.3110 0.8142 10.4319 0.0000 9.3595 0.0000
# 2 0.8142 95.7129 18.4197 0.0000 0.4173 0.0000
# 3 10.4319 18.4197 148.2800 0.0000 23.7714 0.0000
# 4 0.0000 0.0000 0.0000 48.7980 0.0000 -4.2663
# 5 9.3595 0.4173 23.7714 0.0000 41.6442 0.0000
# 6 0.0000 0.0000 0.0000 -4.2663 0.0000 23.3604
#
#
#
# Elastic Compliance Matrix: (Units=1/GPa)
#
#
# Indices 1 2 3 4 5 6 
#
# 1 0.028559 -0.000010 -0.001078 0.000000 -0.005803 0.000000
# 2 -0.000010 0.010723 -0.001447 0.000000 0.000721 0.000000
# 3 -0.001078 -0.001447 0.007659 0.000000 -0.004115 0.000000
# 4 0.000000 0.000000 0.000000 0.020825 0.000000 0.003803
# 5 -0.005803 0.000721 -0.004115 0.000000 0.027659 0.000000
# 6 0.000000 0.000000 0.000000 0.003803 0.000000 0.043502
#
#
# Mechanical properties :
#
#
# Convention : Reuss Voigt Hill
#
# Bulk Modulus (GPa) = 23.88219 37.84838 30.86528
# Shear Modulus (GPa) = 31.65462 39.53641 35.59552
#
# Velocity S-wave (km/s) = 3.54850 3.96574 3.76291
# Velocity P-wave (km/s) = 5.12730 6.00209 5.58186
#
# Compressibility (1/GPa) = 0.04187221
#
# Stress axis : x y z
#
# Youngs Moduli (GPa) = 35.01519 93.25478 130.56013
#
# Poissons Ratio (x) = 0.00096 0.14069
# Poissons Ratio (y) = 0.00036 0.18891
# Poissons Ratio (z) = 0.03773 0.13493
#
# Static dielectric constant tensor:
#      x y z
#    x 2.042320 0.000000 0.046390 
#    y 0.000000 1.955080 0.000000 
#    z 0.046390 0.000000 2.017380 
# 
# From -- ./inp_files/59756.got.cif
#   From: 2010.05.17/outbox.cif.g08.bks.cpg/sg13_30_cif.got.tgz:59756.got - 2010.06.03 16:44:36.
