data_PCOD9233962
_publ_section_title
;
Structure prediction by ZEFSAII (Michael W. Deem and Ramdas Pophale) SiO2 
 PCOD9233962
Probable space group: P 2/C
;
_chemical_formula_sum "Si O2"
_cell_formula_units_Z 18
_cell_length_a 21.997604
_cell_length_b 6.327123
_cell_length_c 24.267528
_cell_angle_alpha 90.000000
_cell_angle_beta 168.245153
_cell_angle_gamma 90.000000
_cell_volume 688.098505
_symmetry_space_group_name_H-M "P 2/C"
_symmetry_group_IT_number 13
_symmetry_cell_setting 'monoclinic'
loop_
_space_group_symop_operation_xyz
x,y,z
-x,y,1/2-z
-x,-y,-z
x,-y,1/2+z
loop_
_atom_site_type_symbol
_atom_site_label
_atom_site_fract_x
_atom_site_fract_y
_atom_site_fract_z
Si Si1 0.391264 0.632813 0.561370
Si Si2 0.500000 0.010944 0.250000
Si Si3 0.715799 0.925574 0.642489
Si Si4 0.217164 0.081048 0.144324
Si Si5 0.892203 0.367686 0.061059
O O1 0.594188 0.704510 0.688587
O O2 0.084749 0.529305 0.268686
O O3 0.401890 0.835646 0.612117
O O4 0.592930 0.466852 0.772345
O O5 0.779966 0.850664 0.489197
O O6 0.889497 0.705405 0.795323
O O7 0.500000 0.000000 0.500000
O O8 0.496533 0.920324 0.395671
O O9 0.991260 0.088555 0.892636
O O10 0.000000 0.000000 0.000000
#
# Coordination Sequence:
#
# PCOD9233962 Si02
#       5
#     4   2   4   4   4
#     4  12  28  50  80 115 149 208 268 309 398 473
#     4  12  30  54  80 104 176 198 266 356 372 448
#     4  10  21  45  76 105 154 197 237 317 397 443
#     4  10  21  45  76 105 154 197 237 317 397 443
#     4  12  28  50  80 115 149 208 268 309 398 473
#
# _framework density 26.159046
#
# number of rings (size 3 to 8) (size 9 to 14) (size 15 to 20)
#    0.000    0.889    2.222    3.333    0.000    5.333 
#    0.000   26.667    0.000    0.000    0.000    0.000 
#    0.000    0.000    0.000    0.000    0.000    0.000 
#
# Total GULP energy -100290.857389 kJ/mol
# GULP energy per Si atom -5571.714299 kJ/mol
# Density = 2.609951 g / cm^3
# Si number density = 26.159046 Si / 1000 Ang^3
#
#
#
# Elastic Constant Matrix: (Units=GPa)
#
#
# Indices 1 2 3 4 5 6 
#
# 1 106.3690 61.0225 27.2665 0.0000 11.8330 0.0000
# 2 61.0225 120.2278 52.5790 0.0000 -0.4398 0.0000
# 3 27.2665 52.5790 215.8626 0.0000 -36.0444 0.0000
# 4 0.0000 0.0000 0.0000 67.6526 0.0000 11.3418
# 5 11.8330 -0.4398 -36.0444 0.0000 37.2648 0.0000
# 6 0.0000 0.0000 0.0000 11.3418 0.0000 50.7696
#
#
#
# Elastic Compliance Matrix: (Units=1/GPa)
#
#
# Indices 1 2 3 4 5 6 
#
# 1 0.014172 -0.006737 -0.001090 0.000000 -0.005634 0.000000
# 2 -0.006737 0.012709 -0.002221 0.000000 0.000141 0.000000
# 3 -0.001090 -0.002221 0.006398 0.000000 0.006508 0.000000
# 4 0.000000 0.000000 0.000000 0.015357 0.000000 -0.003431
# 5 -0.005634 0.000141 0.006508 0.000000 0.034921 0.000000
# 6 0.000000 0.000000 0.000000 -0.003431 0.000000 0.020463
#
#
# Mechanical properties :
#
#
# Convention : Reuss Voigt Hill
#
# Bulk Modulus (GPa) = 75.85559 80.46616 78.16087
# Shear Modulus (GPa) = 38.90721 51.24347 45.07534
#
# Velocity S-wave (km/s) = 3.86078 4.43077 4.15556
# Velocity P-wave (km/s) = 6.99535 7.55002 7.27797
#
# Compressibility (1/GPa) = 0.01318294
#
# Stress axis : x y z
#
# Youngs Moduli (GPa) = 70.55929 78.68466 156.29911
#
# Poissons Ratio (x) = 0.53012 0.17035
# Poissons Ratio (y) = 0.47538 0.34714
# Poissons Ratio (z) = 0.07690 0.17476
#
# Static dielectric constant tensor:
#      x y z
#    x 2.706760 0.000000 -0.066620 
#    y 0.000000 2.106240 0.000000 
#    z -0.066620 0.000000 2.052690 
# 
# From -- ./inp_files/83048.got.cif
#   From: 2010.05.17/outbox.cif.g08.bks.cpg/sg13_42_cif.got.tgz:83048.got - 2010.06.03 16:44:36.
