data_PCOD9233338
_publ_section_title
;
Structure prediction by ZEFSAII (Michael W. Deem and Ramdas Pophale) SiO2 
 PCOD9233338
Probable space group: P 2/C
;
_chemical_formula_sum "Si O2"
_cell_formula_units_Z 24
_cell_length_a 14.263686
_cell_length_b 5.771359
_cell_length_c 14.785337
_cell_angle_alpha 90.000000
_cell_angle_beta 59.299148
_cell_angle_gamma 90.000000
_cell_volume 1046.552684
_symmetry_space_group_name_H-M "P 2/C"
_symmetry_group_IT_number 13
_symmetry_cell_setting 'monoclinic'
loop_
_space_group_symop_operation_xyz
x,y,z
-x,y,1/2-z
-x,-y,-z
x,-y,1/2+z
loop_
_atom_site_type_symbol
_atom_site_label
_atom_site_fract_x
_atom_site_fract_y
_atom_site_fract_z
Si Si1 0.400189 0.378452 0.600870
Si Si2 0.961916 0.558134 0.369129
Si Si3 0.688827 0.403359 0.664462
Si Si4 0.741855 0.250716 0.987835
Si Si5 0.091768 0.799159 0.457043
Si Si6 0.455736 0.065684 0.864452
O O1 0.500000 0.500000 0.500000
O O2 0.355023 0.479350 0.717002
O O3 0.301543 0.384287 0.578935
O O4 0.448298 0.130833 0.613472
O O5 0.871164 0.764068 0.409680
O O6 0.915729 0.331214 0.442763
O O7 0.000000 0.507776 0.250000
O O8 0.055766 0.636161 0.391386
O O9 0.737240 0.615381 0.585239
O O10 0.777744 0.191985 0.625057
O O11 0.592766 0.307006 0.648839
O O12 0.647706 0.059069 0.041312
O O13 0.000000 0.000000 0.500000
O O14 0.500000 0.946987 0.750000
#
# Coordination Sequence:
#
# PCOD9233338 Si02
#       6
#     4   4   4   4   4   4
#     4  11  22  38  61  89 126 166 206 260 309 372
#     4  10  22  40  63  93 124 161 209 261 318 378
#     4  10  22  40  59  91 123 162 208 254 314 374
#     4  11  22  39  63  85 124 165 203 253 316 369
#     4  10  21  40  66  90 126 162 208 263 322 380
#     4  10  22  37  59  90 125 161 209 252 304 372
#
# _framework density 22.932433
#
# number of rings (size 3 to 8) (size 9 to 14) (size 15 to 20)
#    0.000    1.667    1.667    2.500    2.333    0.667 
#    0.000    3.333    3.667    0.000    0.000    0.000 
#    0.000    0.000    0.000    0.000    0.000    0.000 
#
# Total GULP energy -133695.288365 kJ/mol
# GULP energy per Si atom -5570.637015 kJ/mol
# Density = 2.288024 g / cm^3
# Si number density = 22.932433 Si / 1000 Ang^3
#
#
#
# Elastic Constant Matrix: (Units=GPa)
#
#
# Indices 1 2 3 4 5 6 
#
# 1 110.5013 0.6914 35.4088 0.0000 2.1185 0.0000
# 2 0.6914 28.2170 23.6508 0.0000 2.8291 0.0000
# 3 35.4088 23.6508 172.3119 0.0000 27.8919 0.0000
# 4 0.0000 0.0000 0.0000 14.1912 0.0000 -7.3380
# 5 2.1185 2.8291 27.8919 0.0000 39.2463 0.0000
# 6 0.0000 0.0000 0.0000 -7.3380 0.0000 33.3784
#
#
#
# Elastic Compliance Matrix: (Units=1/GPa)
#
#
# Indices 1 2 3 4 5 6 
#
# 1 0.009793 0.001678 -0.002415 0.000000 0.001067 0.000000
# 2 0.001678 0.040380 -0.006103 0.000000 0.001336 0.000000
# 3 -0.002415 -0.006103 0.007961 0.000000 -0.005087 0.000000
# 4 0.000000 0.000000 0.000000 0.079504 0.000000 0.017478
# 5 0.001067 0.001336 -0.005087 0.000000 0.028942 0.000000
# 6 0.000000 0.000000 0.000000 0.017478 0.000000 0.033802
#
#
# Mechanical properties :
#
#
# Convention : Reuss Voigt Hill
#
# Bulk Modulus (GPa) = 22.49640 47.83689 35.16665
# Shear Modulus (GPa) = 21.84539 34.11512 27.98025
#
# Velocity S-wave (km/s) = 3.08977 3.86117 3.49681
# Velocity P-wave (km/s) = 4.74974 6.38619 5.62776
#
# Compressibility (1/GPa) = 0.04445156
#
# Stress axis : x y z
#
# Youngs Moduli (GPa) = 102.11728 24.76452 125.61272
#
# Poissons Ratio (x) = -0.04154 0.30339
# Poissons Ratio (y) = -0.17130 0.76667
# Poissons Ratio (z) = 0.24664 0.15115
#
# Static dielectric constant tensor:
#      x y z
#    x 1.862020 0.000000 -0.061750 
#    y 0.000000 1.958580 0.000000 
#    z -0.061750 0.000000 1.907550 
# 
# From -- ./inp_files/52096.got.cif
#   From: 2010.05.17/outbox.cif.g08.bks.cpg/sg13_27_cif.got.tgz:52096.got - 2010.06.03 16:44:36.
