data_PCOD9233121
_publ_section_title
;
Structure prediction by ZEFSAII (Michael W. Deem and Ramdas Pophale) SiO2 
 PCOD9233121
Probable space group: P 2/C
;
_chemical_formula_sum "Si O2"
_cell_formula_units_Z 22
_cell_length_a 25.592910
_cell_length_b 5.402744
_cell_length_c 11.644619
_cell_angle_alpha 90.000000
_cell_angle_beta 144.624244
_cell_angle_gamma 90.000000
_cell_volume 932.159126
_symmetry_space_group_name_H-M "P 2/C"
_symmetry_group_IT_number 13
_symmetry_cell_setting 'monoclinic'
loop_
_space_group_symop_operation_xyz
x,y,z
-x,y,1/2-z
-x,-y,-z
x,-y,1/2+z
loop_
_atom_site_type_symbol
_atom_site_label
_atom_site_fract_x
_atom_site_fract_y
_atom_site_fract_z
Si Si1 0.319953 0.862324 0.832235
Si Si2 0.428586 0.316249 0.310497
Si Si3 0.889611 0.732463 0.259021
Si Si4 0.269142 0.377659 0.847738
Si Si5 0.945146 0.768965 0.769225
Si Si6 0.500000 0.977270 0.250000
O O1 0.362035 0.811204 0.783258
O O2 0.257113 0.634802 0.758252
O O3 0.283825 0.138042 0.792191
O O4 0.407807 0.835884 0.071256
O O5 0.500000 0.500000 0.500000
O O6 0.491547 0.134498 0.350424
O O7 0.357314 0.403680 0.086696
O O8 0.812634 0.684062 0.214121
O O9 0.896009 0.495065 0.187819
O O10 0.982262 0.753814 0.497449
O O11 0.882092 0.993440 0.179592
O O12 0.000000 0.800986 0.750000
#
# Coordination Sequence:
#
# PCOD9233121 Si02
#       6
#     4   4   4   4   4   2
#     4  11  23  39  59  85 116 158 200 250 306 357
#     4  11  22  40  63  87 119 162 206 253 308 362
#     4  10  22  40  60  92 124 155 200 248 297 361
#     4  11  25  40  60  90 124 156 201 254 301 360
#     4  10  21  39  66  90 121 161 198 242 300 364
#     4  10  22  40  60  86 118 156 210 260 302 362
#
# _framework density 23.601122
#
# number of rings (size 3 to 8) (size 9 to 14) (size 15 to 20)
#    0.000    1.455    0.000    5.455    0.000    8.000 
#    0.000    0.000    0.000    0.000    0.000    0.000 
#    0.000    0.000    0.000    0.000    0.000    0.000 
#
# Total GULP energy -122989.998676 kJ/mol
# GULP energy per Si atom -5590.454485 kJ/mol
# Density = 2.354740 g / cm^3
# Si number density = 23.601122 Si / 1000 Ang^3
#
#
#
# Elastic Constant Matrix: (Units=GPa)
#
#
# Indices 1 2 3 4 5 6 
#
# 1 166.6841 95.0862 -20.1784 0.0000 -1.2167 0.0000
# 2 95.0862 158.3018 25.5882 0.0000 -11.2669 0.0000
# 3 -20.1784 25.5882 68.0542 0.0000 -5.7388 0.0000
# 4 0.0000 0.0000 0.0000 2.4645 0.0000 34.2981
# 5 -1.2167 -11.2669 -5.7388 0.0000 36.6675 0.0000
# 6 0.0000 0.0000 0.0000 34.2981 0.0000 -61.2822
#
#
#
# Elastic Compliance Matrix: (Units=1/GPa)
#
#
# Indices 1 2 3 4 5 6 
#
# 1 0.011176 -0.007782 0.006151 0.000000 -0.001058 0.000000
# 2 -0.007782 0.012250 -0.006706 0.000000 0.002456 0.000000
# 3 0.006151 -0.006706 0.019135 0.000000 0.001138 0.000000
# 4 0.000000 0.000000 0.000000 0.046167 0.000000 0.025839
# 5 -0.001058 0.002456 0.001138 0.000000 0.028170 0.000000
# 6 0.000000 0.000000 0.000000 0.025839 0.000000 -0.001857
#
#
# Mechanical properties :
#
#
# Convention : Reuss Voigt Hill
#
# Bulk Modulus (GPa) = 38.63222 66.00357 52.31789
# Shear Modulus (GPa) = 35.62595 15.07292 25.34943
#
# Velocity S-wave (km/s) = 3.88945 2.52990 3.28087
# Velocity P-wave (km/s) = 6.04770 6.04656 6.04713
#
# Compressibility (1/GPa) = 0.02588513
#
# Stress axis : x y z
#
# Youngs Moduli (GPa) = 89.47983 81.62945 52.25907
#
# Poissons Ratio (x) = 0.63527 -0.32142
# Poissons Ratio (y) = 0.69636 0.35048
# Poissons Ratio (z) = -0.55035 0.54745
#
# Static dielectric constant tensor:
#      x y z
#    x 1.840980 0.000000 -0.038690 
#    y 0.000000 1.955550 0.000000 
#    z -0.038690 0.000000 2.141200 
# 
# From -- ./inp_files/41340.got.cif
#   From: 2010.05.17/outbox.cif.g08.bks.cpg/sg13_21_cif.got.tgz:41340.got - 2010.06.03 16:44:36.
