data_PCOD9233051
_publ_section_title
;
Structure prediction by ZEFSAII (Michael W. Deem and Ramdas Pophale) SiO2 
 PCOD9233051
Probable space group: P 2/C
;
_chemical_formula_sum "Si O2"
_cell_formula_units_Z 24
_cell_length_a 14.616657
_cell_length_b 12.024978
_cell_length_c 18.740106
_cell_angle_alpha 90.000000
_cell_angle_beta 159.742505
_cell_angle_gamma 90.000000
_cell_volume 1140.463404
_symmetry_space_group_name_H-M "P 2/C"
_symmetry_group_IT_number 13
_symmetry_cell_setting 'monoclinic'
loop_
_space_group_symop_operation_xyz
x,y,z
-x,y,1/2-z
-x,-y,-z
x,-y,1/2+z
loop_
_atom_site_type_symbol
_atom_site_label
_atom_site_fract_x
_atom_site_fract_y
_atom_site_fract_z
Si Si1 0.733617 0.908217 0.598660
Si Si2 0.246473 0.947254 0.722283
Si Si3 0.007373 0.305829 0.830367
Si Si4 0.551917 0.514687 0.868023
Si Si5 0.161695 0.720247 0.592095
Si Si6 0.586741 0.319448 0.635465
O O1 0.790853 0.953316 0.719934
O O2 0.598226 0.787046 0.504088
O O3 0.000000 0.902649 0.750000
O O4 0.514180 0.986862 0.402443
O O5 0.270930 0.818809 0.718766
O O6 0.000000 0.000000 0.500000
O O7 0.000000 0.243288 0.750000
O O8 0.725712 0.335590 0.659691
O O9 0.179796 0.415221 0.941520
O O10 0.158709 0.245514 0.005890
O O11 0.500000 0.467935 0.750000
O O12 0.322542 0.606079 0.715502
O O13 0.552742 0.423607 0.930258
O O14 0.849085 0.702019 0.376351
#
# Coordination Sequence:
#
# PCOD9233051 Si02
#       6
#     4   4   4   4   4   4
#     4  11  27  49  71 110 137 179 240 291 362 426
#     4  11  23  52  73  98 140 184 230 295 356 424
#     4   9  21  39  58  97 135 175 236 273 343 413
#     4  10  21  39  64 101 134 184 239 278 352 420
#     4   9  21  40  68  96 132 180 235 283 348 416
#     4  10  22  43  66  96 145 178 226 296 344 419
#
# _framework density 21.044077000000001
#
# number of rings (size 3 to 8) (size 9 to 14) (size 15 to 20)
#    1.000    1.000    1.667    0.500    2.333    3.333 
#   15.000    0.000    0.000    0.000    0.000    0.000 
#    0.000    0.000    0.000    0.000    0.000    0.000 
#
# Total GULP energy -133950.496136 kJ/mol
# GULP energy per Si atom -5581.270672 kJ/mol
# Density = 2.099618 g / cm^3
# Si number density = 21.044077 Si / 1000 Ang^3
#
#
#
# Elastic Constant Matrix: (Units=GPa)
#
#
# Indices 1 2 3 4 5 6 
#
# 1 50.9108 4.1561 43.4410 0.0000 21.2450 0.0000
# 2 4.1561 56.9655 37.7489 0.0000 16.4796 0.0000
# 3 43.4410 37.7489 113.4851 0.0000 26.3365 0.0000
# 4 0.0000 0.0000 0.0000 -1.1985 0.0000 -1.5990
# 5 21.2450 16.4796 26.3365 0.0000 42.8217 0.0000
# 6 0.0000 0.0000 0.0000 -1.5990 0.0000 19.5866
#
#
#
# Elastic Compliance Matrix: (Units=1/GPa)
#
#
# Indices 1 2 3 4 5 6 
#
# 1 0.036829 0.010881 -0.014587 0.000000 -0.013488 0.000000
# 2 0.010881 0.026587 -0.010944 0.000000 -0.008900 0.000000
# 3 -0.014587 -0.010944 0.017939 0.000000 0.000415 0.000000
# 4 0.000000 0.000000 0.000000 -0.752401 0.000000 -0.061424
# 5 -0.013488 -0.008900 0.000415 0.000000 0.033214 0.000000
# 6 0.000000 0.000000 0.000000 -0.061424 0.000000 0.046041
#
#
# Mechanical properties :
#
#
# Convention : Reuss Voigt Hill
#
# Bulk Modulus (GPa) = 19.20980 43.56151 31.38565
# Shear Modulus (GPa) = -9.17197 21.30964 6.06883
#
# Velocity S-wave (km/s) = -2.08996 3.18562 1.70004
# Velocity P-wave (km/s) = 1.82326 5.85457 4.33591
#
# Compressibility (1/GPa) = 0.05205677
#
# Stress axis : x y z
#
# Youngs Moduli (GPa) = 27.15225 37.61208 55.74318
#
# Poissons Ratio (x) = -0.40927 0.81314
# Poissons Ratio (y) = -0.29545 0.61004
# Poissons Ratio (z) = 0.39608 0.41162
#
# Static dielectric constant tensor:
#      x y z
#    x 1.789340 0.000000 -0.030930 
#    y 0.000000 1.732500 0.000000 
#    z -0.030930 0.000000 1.797650 
# 
# From -- ./inp_files/80196.got.cif
#   From: 2010.05.17/outbox.cif.g08.bks.cpg/sg13_41_cif.got.tgz:80196.got - 2010.06.03 16:44:36.
