data_PCOD9233995
_publ_section_title
;
Structure prediction by ZEFSAII (Michael W. Deem and Ramdas Pophale) SiO2 
 PCOD9233995
Probable space group: P 2/C
;
_chemical_formula_sum "Si O2"
_cell_formula_units_Z 22
_cell_length_a 8.144467
_cell_length_b 5.051035
_cell_length_c 23.724929
_cell_angle_alpha 90.000000
_cell_angle_beta 53.509518
_cell_angle_gamma 90.000000
_cell_volume 784.657383
_symmetry_space_group_name_H-M "P 2/C"
_symmetry_group_IT_number 13
_symmetry_cell_setting 'monoclinic'
loop_
_space_group_symop_operation_xyz
x,y,z
-x,y,1/2-z
-x,-y,-z
x,-y,1/2+z
loop_
_atom_site_type_symbol
_atom_site_label
_atom_site_fract_x
_atom_site_fract_y
_atom_site_fract_z
Si Si1 0.361418 0.487921 0.184180
Si Si2 0.734372 0.866746 0.389912
Si Si3 0.903895 0.947889 0.608958
Si Si4 0.658122 0.881934 0.567492
Si Si5 0.000000 0.794656 0.750000
Si Si6 0.500000 0.888949 0.250000
Si Si7 0.000000 0.500000 0.000000
O O1 0.517600 0.248637 0.145055
O O2 0.148477 0.397206 0.253994
O O3 0.305800 0.585164 0.132056
O O4 0.455923 0.705250 0.204860
O O5 0.505211 0.983781 0.439200
O O6 0.891825 0.924271 0.407893
O O7 0.854760 0.024959 0.316223
O O8 0.815697 0.087195 0.567695
O O9 0.718602 0.975857 0.690975
O O10 0.955223 0.663714 0.571390
O O11 0.788339 0.636056 0.519987
#
# Coordination Sequence:
#
# PCOD9233995 Si02
#       7
#     4   4   4   4   2   2   2
#     4  11  22  37  60  95 128 164 215 264 327 390
#     4  11  21  39  59  90 127 164 207 275 317 380
#     4  10  22  40  66  86 129 168 207 266 327 373
#     4   9  22  42  60  91 123 167 216 261 317 396
#     4  10  22  34  58  88 130 162 212 248 326 390
#     4  12  22  36  64  96 128 164 210 274 324 376
#     4   8  20  44  62  92 124 172 218 260 322 396
#
# _framework density 28.037718000000002
#
# number of rings (size 3 to 8) (size 9 to 14) (size 15 to 20)
#    1.091    0.727    1.818    2.727    5.091    0.727 
#    0.000    4.545    0.000    0.000    0.000    0.000 
#    0.000    0.000    0.000    0.000    0.000    0.000 
#
# Total GULP energy -122522.417126 kJ/mol
# GULP energy per Si atom -5569.200778 kJ/mol
# Density = 2.797390 g / cm^3
# Si number density = 28.037718 Si / 1000 Ang^3
#
#
#
# Elastic Constant Matrix: (Units=GPa)
#
#
# Indices 1 2 3 4 5 6 
#
# 1 220.1045 44.9567 45.6132 0.0000 -13.0420 0.0000
# 2 44.9567 46.0789 -3.3455 0.0000 13.1643 0.0000
# 3 45.6132 -3.3455 107.8329 0.0000 -25.5127 0.0000
# 4 0.0000 0.0000 0.0000 33.4872 0.0000 -6.2477
# 5 -13.0420 13.1643 -25.5127 0.0000 52.0255 0.0000
# 6 0.0000 0.0000 0.0000 -6.2477 0.0000 44.0247
#
#
#
# Elastic Compliance Matrix: (Units=1/GPa)
#
#
# Indices 1 2 3 4 5 6 
#
# 1 0.006714 -0.007395 -0.002521 0.000000 0.002318 0.000000
# 2 -0.007395 0.031595 0.002012 0.000000 -0.008862 0.000000
# 3 -0.002521 0.002012 0.011462 0.000000 0.004480 0.000000
# 4 0.000000 0.000000 0.000000 0.030674 0.000000 0.004353
# 5 0.002318 -0.008862 0.004480 0.000000 0.024242 0.000000
# 6 0.000000 0.000000 0.000000 0.004353 0.000000 0.023332
#
#
# Mechanical properties :
#
#
# Convention : Reuss Voigt Hill
#
# Bulk Modulus (GPa) = 29.44468 60.94057 45.19263
# Shear Modulus (GPa) = 32.22715 45.02695 38.62705
#
# Velocity S-wave (km/s) = 3.39399 4.01177 3.71574
# Velocity P-wave (km/s) = 5.08758 6.57582 5.87899
#
# Compressibility (1/GPa) = 0.03396199
#
# Stress axis : x y z
#
# Youngs Moduli (GPa) = 148.95231 31.65059 87.24280
#
# Poissons Ratio (x) = 0.23407 0.21992
# Poissons Ratio (y) = 1.10155 -0.17551
# Poissons Ratio (z) = 0.37548 -0.06367
#
# Static dielectric constant tensor:
#      x y z
#    x 2.370060 0.000000 0.130640 
#    y 0.000000 1.365590 0.000000 
#    z 0.130640 0.000000 2.186290 
# 
# From -- ./inp_files/95345.got.cif
#   From: 2010.05.17/outbox.cif.g08.bks.cpg/sg13_48_cif.got.tgz:95345.got - 2010.06.03 16:44:36.
