data_PCOD9233967
_publ_section_title
;
Structure prediction by ZEFSAII (Michael W. Deem and Ramdas Pophale) SiO2 
 PCOD9233967
Probable space group: P 2/C
;
_chemical_formula_sum "Si O2"
_cell_formula_units_Z 20
_cell_length_a 21.354635
_cell_length_b 5.032493
_cell_length_c 11.181583
_cell_angle_alpha 90.000000
_cell_angle_beta 40.046236
_cell_angle_gamma 90.000000
_cell_volume 773.149437
_symmetry_space_group_name_H-M "P 2/C"
_symmetry_group_IT_number 13
_symmetry_cell_setting 'monoclinic'
loop_
_space_group_symop_operation_xyz
x,y,z
-x,y,1/2-z
-x,-y,-z
x,-y,1/2+z
loop_
_atom_site_type_symbol
_atom_site_label
_atom_site_fract_x
_atom_site_fract_y
_atom_site_fract_z
Si Si1 0.341841 0.075283 0.750124
Si Si2 0.775544 0.280159 0.390334
Si Si3 0.490905 0.317914 0.129942
Si Si4 0.804874 0.757504 0.206797
Si Si5 0.013566 0.819622 0.861182
O O1 0.415464 0.128218 0.532934
O O2 0.237669 0.065096 0.838628
O O3 0.394783 0.854928 0.750088
O O4 0.313036 0.301954 0.887688
O O5 0.752089 0.484400 0.318396
O O6 0.884775 0.339373 0.280172
O O7 0.790792 0.970019 0.333972
O O8 0.500000 0.429181 0.250000
O O9 0.500000 0.500000 0.000000
O O10 0.913103 0.658865 0.018079
O O11 0.000000 0.954663 0.750000
O O12 0.000000 0.000000 0.000000
#
# Coordination Sequence:
#
# PCOD9233967 Si02
#       5
#     4   4   4   4   4
#     4  11  26  47  75 108 151 204 265 328 399 480
#     4  11  25  44  74 112 156 204 264 319 392 467
#     4  11  28  50  79 113 156 201 265 337 418 485
#     4  11  25  44  75 111 156 206 263 319 392 470
#     4  10  21  46  71 115 162 213 264 325 386 473
#
# _framework density 25.868220999999998
#
# number of rings (size 3 to 8) (size 9 to 14) (size 15 to 20)
#    0.000    1.200    2.000    1.800    8.400    3.200 
#    3.600    2.000    0.000    0.000    0.000    0.000 
#    0.000    0.000    0.000    0.000    0.000    0.000 
#
# Total GULP energy -111424.718104 kJ/mol
# GULP energy per Si atom -5571.235905 kJ/mol
# Density = 2.580934 g / cm^3
# Si number density = 25.868221 Si / 1000 Ang^3
#
#
#
# Elastic Constant Matrix: (Units=GPa)
#
#
# Indices 1 2 3 4 5 6 
#
# 1 141.6359 24.6314 52.5425 0.0000 20.7017 0.0000
# 2 24.6314 54.9300 37.0796 0.0000 -0.0611 0.0000
# 3 52.5425 37.0796 140.3481 0.0000 4.3052 0.0000
# 4 0.0000 0.0000 0.0000 32.7350 0.0000 9.8646
# 5 20.7017 -0.0611 4.3052 0.0000 58.9700 0.0000
# 6 0.0000 0.0000 0.0000 9.8646 0.0000 25.2282
#
#
#
# Elastic Compliance Matrix: (Units=1/GPa)
#
#
# Indices 1 2 3 4 5 6 
#
# 1 0.008848 -0.002185 -0.002646 0.000000 -0.002915 0.000000
# 2 -0.002185 0.022708 -0.005217 0.000000 0.001171 0.000000
# 3 -0.002646 -0.005217 0.009487 0.000000 0.000231 0.000000
# 4 0.000000 0.000000 0.000000 0.034629 0.000000 -0.013540
# 5 -0.002915 0.001171 0.000231 0.000000 0.017966 0.000000
# 6 0.000000 0.000000 0.000000 -0.013540 0.000000 0.044933
#
#
# Mechanical properties :
#
#
# Convention : Reuss Voigt Hill
#
# Bulk Modulus (GPa) = 47.73974 62.82457 55.28216
# Shear Modulus (GPa) = 30.18454 38.23067 34.20761
#
# Velocity S-wave (km/s) = 3.41964 3.84852 3.64040
# Velocity P-wave (km/s) = 5.83840 6.63982 6.25197
#
# Compressibility (1/GPa) = 0.02094691
#
# Stress axis : x y z
#
# Youngs Moduli (GPa) = 113.02129 44.03753 105.40756
#
# Poissons Ratio (x) = 0.09621 0.27888
# Poissons Ratio (y) = 0.24693 0.54995
# Poissons Ratio (z) = 0.29903 0.22976
#
# Static dielectric constant tensor:
#      x y z
#    x 2.162590 0.000000 0.008750 
#    y 0.000000 2.149750 0.000000 
#    z 0.008750 0.000000 2.149980 
# 
# From -- ./inp_files/39718.got.cif
#   From: 2010.05.17/outbox.cif.g08.bks.cpg/sg13_20_cif.got.tgz:39718.got - 2010.06.03 16:44:36.
