data_PCOD9233055
_publ_section_title
;
Structure prediction by ZEFSAII (Michael W. Deem and Ramdas Pophale) SiO2 
 PCOD9233055
Probable space group: P 2/C
;
_chemical_formula_sum "Si O2"
_cell_formula_units_Z 30
_cell_length_a 9.277364
_cell_length_b 10.958576
_cell_length_c 17.909234
_cell_angle_alpha 90.000000
_cell_angle_beta 118.676604
_cell_angle_gamma 90.000000
_cell_volume 1597.440690
_symmetry_space_group_name_H-M "P 2/C"
_symmetry_group_IT_number 13
_symmetry_cell_setting 'monoclinic'
loop_
_space_group_symop_operation_xyz
x,y,z
-x,y,1/2-z
-x,-y,-z
x,-y,1/2+z
loop_
_atom_site_type_symbol
_atom_site_label
_atom_site_fract_x
_atom_site_fract_y
_atom_site_fract_z
Si Si1 0.741539 0.946901 0.545491
Si Si2 0.648058 0.184757 0.428468
Si Si3 0.643833 0.599172 0.045054
Si Si4 0.686398 0.919859 0.704158
Si Si5 0.586449 0.267983 0.915483
Si Si6 0.890596 0.566447 0.535964
Si Si7 0.929157 0.193621 0.374618
Si Si8 0.500000 0.119276 0.750000
O O1 0.725391 0.962268 0.630056
O O2 0.629032 0.835466 0.487755
O O3 0.926676 0.903955 0.574210
O O4 0.686423 0.067193 0.488958
O O5 0.638949 0.304087 0.476735
O O6 0.476606 0.162129 0.344189
O O7 0.793525 0.192812 0.405363
O O8 0.587106 0.670930 0.105044
O O9 0.814179 0.528269 0.076558
O O10 0.500000 0.500000 0.000000
O O11 0.835483 0.844789 0.776339
O O12 0.635168 0.031709 0.744915
O O13 0.576917 0.201505 0.834100
O O14 0.734407 0.365803 0.957923
O O15 0.000000 0.500000 0.500000
O O16 0.989023 0.673234 0.602444
#
# Coordination Sequence:
#
# PCOD9233055 Si02
#       8
#     4   4   4   4   4   4   4   2
#     4  11  22  38  63  97 124 168 199 255 326 388
#     4  12  20  38  66  94 120 166 213 252 316 385
#     4  10  21  39  64  89 115 165 218 254 296 374
#     4  12  22  38  60  97 132 160 203 261 316 384
#     4  10  21  39  66  89 126 160 208 262 314 378
#     4  10  21  41  64  86 121 170 214 254 306 373
#     4  11  23  38  60  95 130 160 208 264 316 368
#     4  12  22  38  64  96 132 150 206 264 322 378
#
# _framework density 18.78004
#
# number of rings (size 3 to 8) (size 9 to 14) (size 15 to 20)
#    0.000    1.067    5.333    2.000    0.000    1.067 
#    0.000    2.667    2.933    0.000    0.000    0.000 
#    0.000    0.000    0.000    0.000    0.000    0.000 
#
# Total GULP energy -167546.693513 kJ/mol
# GULP energy per Si atom -5584.889784 kJ/mol
# Density = 1.873730 g / cm^3
# Si number density = 18.780040 Si / 1000 Ang^3
#
#
#
# Elastic Constant Matrix: (Units=GPa)
#
#
# Indices 1 2 3 4 5 6 
#
# 1 82.0941 28.1706 23.2889 0.0000 5.5384 0.0000
# 2 28.1706 94.8352 38.0031 0.0000 6.3799 0.0000
# 3 23.2889 38.0031 88.4101 0.0000 2.7504 0.0000
# 4 0.0000 0.0000 0.0000 20.0936 0.0000 -4.0580
# 5 5.5384 6.3799 2.7504 0.0000 33.7836 0.0000
# 6 0.0000 0.0000 0.0000 -4.0580 0.0000 34.0638
#
#
#
# Elastic Compliance Matrix: (Units=1/GPa)
#
#
# Indices 1 2 3 4 5 6 
#
# 1 0.014012 -0.003141 -0.002294 0.000000 -0.001517 0.000000
# 2 -0.003141 0.013574 -0.004956 0.000000 -0.001645 0.000000
# 3 -0.002294 -0.004956 0.014040 0.000000 0.000169 0.000000
# 4 0.000000 0.000000 0.000000 0.050994 0.000000 0.006075
# 5 -0.001517 -0.001645 0.000169 0.000000 0.030146 0.000000
# 6 0.000000 0.000000 0.000000 0.006075 0.000000 0.030080
#
#
# Mechanical properties :
#
#
# Convention : Reuss Voigt Hill
#
# Bulk Modulus (GPa) = 47.97390 49.36274 48.66832
# Shear Modulus (GPa) = 27.68895 29.31333 28.50114
#
# Velocity S-wave (km/s) = 3.84393 3.95508 3.89990
# Velocity P-wave (km/s) = 6.73065 6.87012 6.80075
#
# Compressibility (1/GPa) = 0.02084467
#
# Stress axis : x y z
#
# Youngs Moduli (GPa) = 71.36732 73.66762 71.22318
#
# Poissons Ratio (x) = 0.23139 0.16336
# Poissons Ratio (y) = 0.22417 0.35301
# Poissons Ratio (z) = 0.16369 0.36513
#
# Static dielectric constant tensor:
#      x y z
#    x 1.683050 0.000000 -0.001170 
#    y 0.000000 1.651560 0.000000 
#    z -0.001170 0.000000 1.621660 
# 
# From -- ./inp_files/64455.got.cif
#   From: 2010.05.17/outbox.cif.g08.bks.cpg/sg13_33_cif.got.tgz:64455.got - 2010.06.03 16:44:36.
