data_PCOD9233090
_publ_section_title
;
Structure prediction by ZEFSAII (Michael W. Deem and Ramdas Pophale) SiO2 
 PCOD9233090
Probable space group: P 2/C
;
_chemical_formula_sum "Si O2"
_cell_formula_units_Z 16
_cell_length_a 7.709143
_cell_length_b 9.679302
_cell_length_c 15.858077
_cell_angle_alpha 90.000000
_cell_angle_beta 143.308045
_cell_angle_gamma 90.000000
_cell_volume 707.046057
_symmetry_space_group_name_H-M "P 2/C"
_symmetry_group_IT_number 13
_symmetry_cell_setting 'monoclinic'
loop_
_space_group_symop_operation_xyz
x,y,z
-x,y,1/2-z
-x,-y,-z
x,-y,1/2+z
loop_
_atom_site_type_symbol
_atom_site_label
_atom_site_fract_x
_atom_site_fract_y
_atom_site_fract_z
Si Si1 0.411780 0.672407 0.577580
Si Si2 0.345059 0.799332 0.371222
Si Si3 0.135732 0.545651 0.208178
Si Si4 0.327523 0.981293 0.601789
O O1 0.463627 0.718704 0.499796
O O2 0.664774 0.587440 0.721238
O O3 0.124859 0.576882 0.457245
O O4 0.368369 0.819442 0.602748
O O5 0.327741 0.684735 0.290714
O O6 0.547234 0.927053 0.425700
O O7 0.000000 0.839814 0.250000
O O8 0.000000 0.533542 0.250000
O O9 0.500000 0.029213 0.750000
O O10 0.000000 0.000000 0.500000
#
# Coordination Sequence:
#
# PCOD9233090 Si02
#       4
#     4   4   4   4
#     4  10  21  39  65  92 122 163 208 257 309 369
#     4   9  19  40  67  93 121 161 212 265 312 368
#     4   9  18  36  62  94 120 150 207 270 307 356
#     4  12  26  43  61  93 133 170 207 256 313 373
#
# _framework density 22.629359000000001
#
# number of rings (size 3 to 8) (size 9 to 14) (size 15 to 20)
#    0.000    2.500    0.000    6.750    0.000    5.000 
#    0.000    6.250    0.000    0.000    0.000    0.000 
#    0.000    0.000    0.000    0.000    0.000    0.000 
#
# Total GULP energy -89349.299030 kJ/mol
# GULP energy per Si atom -5584.331189 kJ/mol
# Density = 2.257785 g / cm^3
# Si number density = 22.629359 Si / 1000 Ang^3
#
#
#
# Elastic Constant Matrix: (Units=GPa)
#
#
# Indices 1 2 3 4 5 6 
#
# 1 56.1951 54.0757 25.5395 0.0000 14.3001 0.0000
# 2 54.0757 175.7760 52.7231 0.0000 43.3287 0.0000
# 3 25.5395 52.7231 65.2142 0.0000 19.5022 0.0000
# 4 0.0000 0.0000 0.0000 33.2302 0.0000 -3.9710
# 5 14.3001 43.3287 19.5022 0.0000 28.8309 0.0000
# 6 0.0000 0.0000 0.0000 -3.9710 0.0000 -15.4954
#
#
#
# Elastic Compliance Matrix: (Units=1/GPa)
#
#
# Indices 1 2 3 4 5 6 
#
# 1 0.026457 -0.006723 -0.005043 0.000000 0.000393 0.000000
# 2 -0.006723 0.011697 -0.003214 0.000000 -0.012069 0.000000
# 3 -0.005043 -0.003214 0.022207 0.000000 -0.007690 0.000000
# 4 0.000000 0.000000 0.000000 0.029199 0.000000 -0.007483
# 5 0.000393 -0.012069 -0.007690 0.000000 0.057831 0.000000
# 6 0.000000 0.000000 0.000000 -0.007483 0.000000 -0.062618
#
#
# Mechanical properties :
#
#
# Convention : Reuss Voigt Hill
#
# Bulk Modulus (GPa) = 32.89475 62.42908 47.66192
# Shear Modulus (GPa) = 40.04278 20.30295 30.17287
#
# Velocity S-wave (km/s) = 4.21111 2.99857 3.65547
# Velocity P-wave (km/s) = 6.18163 6.29572 6.23893
#
# Compressibility (1/GPa) = 0.03039998
#
# Stress axis : x y z
#
# Youngs Moduli (GPa) = 37.79722 85.49547 45.03065
#
# Poissons Ratio (x) = 0.57483 0.22709
# Poissons Ratio (y) = 0.25413 0.14472
# Poissons Ratio (z) = 0.19061 0.27476
#
# Static dielectric constant tensor:
#      x y z
#    x 1.886740 0.000000 -0.012880 
#    y 0.000000 1.832820 0.000000 
#    z -0.012880 0.000000 1.835340 
# 
# From -- ./inp_files/75478.got.cif
#   From: 2010.05.17/outbox.cif.g08.bks.cpg/sg13_38_cif.got.tgz:75478.got - 2010.06.03 16:44:36.
