data_PCOD9233697
_publ_section_title
;
Structure prediction by ZEFSAII (Michael W. Deem and Ramdas Pophale) SiO2 
 PCOD9233697
Probable space group: P 2/C
;
_chemical_formula_sum "Si O2"
_cell_formula_units_Z 32
_cell_length_a 22.561698
_cell_length_b 9.303053
_cell_length_c 14.933077
_cell_angle_alpha 90.000000
_cell_angle_beta 30.542838
_cell_angle_gamma 90.000000
_cell_volume 1592.818265
_symmetry_space_group_name_H-M "P 2/C"
_symmetry_group_IT_number 13
_symmetry_cell_setting 'monoclinic'
loop_
_space_group_symop_operation_xyz
x,y,z
-x,y,1/2-z
-x,-y,-z
x,-y,1/2+z
loop_
_atom_site_type_symbol
_atom_site_label
_atom_site_fract_x
_atom_site_fract_y
_atom_site_fract_z
Si Si1 0.582523 0.678371 0.054907
Si Si2 0.297354 0.552844 0.214603
Si Si3 0.862249 0.583688 0.909819
Si Si4 0.885219 0.920817 0.181352
Si Si5 0.451379 0.961493 0.178140
Si Si6 0.343952 0.876834 0.140805
Si Si7 0.751994 0.156119 0.452229
Si Si8 0.896009 0.587021 0.184410
O O1 0.500000 0.638795 0.250000
O O2 0.523061 0.813010 0.084155
O O3 0.607664 0.557868 0.947714
O O4 0.705421 0.739198 0.933978
O O5 0.215198 0.519799 0.407751
O O6 0.347254 0.711520 0.164940
O O7 0.211285 0.571239 0.242841
O O8 0.803434 0.735542 0.958979
O O9 0.863969 0.481271 0.821187
O O10 0.000000 0.606391 0.750000
O O11 0.778549 0.911231 0.247837
O O12 0.917010 0.757758 0.166296
O O13 0.840881 0.031353 0.313541
O O14 0.000000 0.000000 0.000000
O O15 0.373422 0.971998 0.189935
O O16 0.362243 0.932978 0.372727
O O17 0.544825 0.087033 0.065787
O O18 0.000000 0.500000 0.000000
#
# Coordination Sequence:
#
# PCOD9233697 Si02
#       8
#     4   4   4   4   4   4   4   4
#     4  10  22  42  67  95 130 181 220 283 345 400
#     4  11  23  42  68  97 137 174 229 278 343 408
#     4  12  24  42  71 100 134 184 228 279 346 411
#     4  11  25  41  68  97 132 178 226 273 339 411
#     4  10  21  42  67  90 132 172 223 282 334 401
#     4  10  22  42  62  98 125 171 224 273 343 394
#     4  11  22  43  66  96 132 179 227 273 344 413
#     4  11  23  44  67  96 136 177 218 281 334 399
#
# _framework density 20.090176
#
# number of rings (size 3 to 8) (size 9 to 14) (size 15 to 20)
#    0.000    1.250    5.000    0.750    1.750    0.500 
#    9.000    0.625    0.000    0.000    0.000    0.000 
#    0.000    0.000    0.000    0.000    0.000    0.000 
#
# Total GULP energy -178401.264383 kJ/mol
# GULP energy per Si atom -5575.039512 kJ/mol
# Density = 2.004445 g / cm^3
# Si number density = 20.090176 Si / 1000 Ang^3
#
#
#
# Elastic Constant Matrix: (Units=GPa)
#
#
# Indices 1 2 3 4 5 6 
#
# 1 74.5813 17.6201 21.3276 0.0000 7.1868 0.0000
# 2 17.6201 105.9851 84.2888 0.0000 10.7574 0.0000
# 3 21.3276 84.2888 125.6073 0.0000 9.5637 0.0000
# 4 0.0000 0.0000 0.0000 39.2873 0.0000 1.3103
# 5 7.1868 10.7574 9.5637 0.0000 32.0858 0.0000
# 6 0.0000 0.0000 0.0000 1.3103 0.0000 26.0590
#
#
#
# Elastic Compliance Matrix: (Units=1/GPa)
#
#
# Indices 1 2 3 4 5 6 
#
# 1 0.014318 -0.000744 -0.001746 0.000000 -0.002437 0.000000
# 2 -0.000744 0.020521 -0.013438 0.000000 -0.002708 0.000000
# 3 -0.001746 -0.013438 0.017295 0.000000 -0.000259 0.000000
# 4 0.000000 0.000000 0.000000 0.025496 0.000000 -0.001282
# 5 -0.002437 -0.002708 -0.000259 0.000000 0.032697 0.000000
# 6 0.000000 0.000000 0.000000 -0.001282 0.000000 0.038439
#
#
# Mechanical properties :
#
#
# Convention : Reuss Voigt Hill
#
# Bulk Modulus (GPa) = 49.31639 61.40519 55.36079
# Shear Modulus (GPa) = 26.68330 31.68223 29.18276
#
# Velocity S-wave (km/s) = 3.64837 3.97546 3.81542
# Velocity P-wave (km/s) = 6.50755 7.19051 6.85754
#
# Compressibility (1/GPa) = 0.02027724
#
# Stress axis : x y z
#
# Youngs Moduli (GPa) = 69.84114 48.73040 57.81973
#
# Poissons Ratio (x) = 0.03628 0.10096
# Poissons Ratio (y) = 0.05199 0.77699
# Poissons Ratio (z) = 0.12195 0.65484
#
# Static dielectric constant tensor:
#      x y z
#    x 1.785280 0.000000 -0.006690 
#    y 0.000000 1.713630 0.000000 
#    z -0.006690 0.000000 1.710440 
# 
# From -- ./inp_files/58805.got.cif
#   From: 2010.05.17/outbox.cif.g08.bks.cpg/sg13_30_cif.got.tgz:58805.got - 2010.06.03 16:44:36.
