data_PCOD9233395
_publ_section_title
;
Structure prediction by ZEFSAII (Michael W. Deem and Ramdas Pophale) SiO2 
 PCOD9233395
Probable space group: P 2/C
;
_chemical_formula_sum "Si O2"
_cell_formula_units_Z 18
_cell_length_a 11.326960
_cell_length_b 5.189983
_cell_length_c 14.168836
_cell_angle_alpha 90.000000
_cell_angle_beta 105.805692
_cell_angle_gamma 90.000000
_cell_volume 801.446873
_symmetry_space_group_name_H-M "P 2/C"
_symmetry_group_IT_number 13
_symmetry_cell_setting 'monoclinic'
loop_
_space_group_symop_operation_xyz
x,y,z
-x,y,1/2-z
-x,-y,-z
x,-y,1/2+z
loop_
_atom_site_type_symbol
_atom_site_label
_atom_site_fract_x
_atom_site_fract_y
_atom_site_fract_z
Si Si1 0.500000 0.841795 0.750000
Si Si2 0.822052 0.845621 0.132701
Si Si3 0.267251 0.053310 0.095301
Si Si4 0.259458 0.349130 0.274675
Si Si5 0.956025 0.747393 0.434603
O O1 0.593445 0.989727 0.839676
O O2 0.593619 0.682799 0.704766
O O3 0.771482 0.624198 0.189719
O O4 0.963452 0.774146 0.141639
O O5 0.798412 0.126209 0.171769
O O6 0.752598 0.851231 0.015571
O O7 0.188425 0.797292 0.096366
O O8 0.216595 0.262511 0.160503
O O9 0.000000 0.500000 0.500000
O O10 0.000000 0.000000 0.500000
#
# Coordination Sequence:
#
# PCOD9233395 Si02
#       5
#     2   4   4   4   4
#     4   8  22  48  62 104 142 190 228 296 348 404
#     4  11  22  41  70  96 134 185 234 284 356 411
#     4   9  22  45  65 102 146 177 232 299 331 424
#     4  10  24  42  65 104 134 185 236 280 356 411
#     4  10  21  40  68  97 131 177 228 289 351 403
#
# _framework density 22.459381
#
# number of rings (size 3 to 8) (size 9 to 14) (size 15 to 20)
#    1.333    0.889    0.000    2.667    0.000    8.889 
#    0.000    2.222    0.000    0.000    0.000    0.000 
#    0.000    0.000    0.000    0.000    0.000    0.000 
#
# Total GULP energy -100402.029316 kJ/mol
# GULP energy per Si atom -5577.890518 kJ/mol
# Density = 2.240826 g / cm^3
# Si number density = 22.459381 Si / 1000 Ang^3
#
#
#
# Elastic Constant Matrix: (Units=GPa)
#
#
# Indices 1 2 3 4 5 6 
#
# 1 88.1270 25.8251 -2.0492 0.0000 -6.0186 0.0000
# 2 25.8251 122.1136 41.0263 0.0000 9.5046 0.0000
# 3 -2.0492 41.0263 149.8389 0.0000 10.7821 0.0000
# 4 0.0000 0.0000 0.0000 27.4401 0.0000 -7.4339
# 5 -6.0186 9.5046 10.7821 0.0000 32.6938 0.0000
# 6 0.0000 0.0000 0.0000 -7.4339 0.0000 32.0264
#
#
#
# Elastic Compliance Matrix: (Units=1/GPa)
#
#
# Indices 1 2 3 4 5 6 
#
# 1 0.012489 -0.003146 0.000820 0.000000 0.002943 0.000000
# 2 -0.003146 0.009922 -0.002571 0.000000 -0.002616 0.000000
# 3 0.000820 -0.002571 0.007503 0.000000 -0.001576 0.000000
# 4 0.000000 0.000000 0.000000 0.038889 0.000000 0.009027
# 5 0.002943 -0.002616 -0.001576 0.000000 0.032409 0.000000
# 6 0.000000 0.000000 0.000000 0.009027 0.000000 0.033319
#
#
# Mechanical properties :
#
#
# Convention : Reuss Voigt Hill
#
# Bulk Modulus (GPa) = 49.70282 54.40932 52.05607
# Shear Modulus (GPa) = 33.10579 38.11722 35.61150
#
# Velocity S-wave (km/s) = 3.84347 4.12413 3.98627
# Velocity P-wave (km/s) = 6.47105 6.85246 6.66449
#
# Compressibility (1/GPa) = 0.02011958
#
# Stress axis : x y z
#
# Youngs Moduli (GPa) = 80.06884 100.78679 133.28867
#
# Poissons Ratio (x) = 0.31707 -0.10935
# Poissons Ratio (y) = 0.25190 0.34275
# Poissons Ratio (z) = -0.06569 0.25917
#
# Static dielectric constant tensor:
#      x y z
#    x 1.926830 0.000000 0.064180 
#    y 0.000000 1.869420 0.000000 
#    z 0.064180 0.000000 1.852180 
# 
# From -- ./inp_files/48449.got.cif
#   From: 2010.05.17/outbox.cif.g08.bks.cpg/sg13_25_cif.got.tgz:48449.got - 2010.06.03 16:44:36.
