data_PCOD9233893
_publ_section_title
;
Structure prediction by ZEFSAII (Michael W. Deem and Ramdas Pophale) SiO2 
 PCOD9233893
Probable space group: P 2/C
;
_chemical_formula_sum "Si O2"
_cell_formula_units_Z 20
_cell_length_a 30.128238
_cell_length_b 4.874136
_cell_length_c 13.214842
_cell_angle_alpha 90.000000
_cell_angle_beta 151.941867
_cell_angle_gamma 90.000000
_cell_volume 912.788907
_symmetry_space_group_name_H-M "P 2/C"
_symmetry_group_IT_number 13
_symmetry_cell_setting 'monoclinic'
loop_
_space_group_symop_operation_xyz
x,y,z
-x,y,1/2-z
-x,-y,-z
x,-y,1/2+z
loop_
_atom_site_type_symbol
_atom_site_label
_atom_site_fract_x
_atom_site_fract_y
_atom_site_fract_z
Si Si1 0.679425 0.503281 0.865011
Si Si2 0.578944 0.728883 0.475217
Si Si3 0.882708 0.230454 0.805132
Si Si4 0.026944 0.747927 0.419336
Si Si5 0.601109 0.999935 0.818783
O O1 0.643389 0.557144 0.678806
O O2 0.660036 0.195762 0.862075
O O3 0.618683 0.692830 0.819466
O O4 0.784058 0.622600 0.087199
O O5 0.509531 0.919322 0.402949
O O6 0.629302 0.914884 0.490946
O O7 0.500000 0.564181 0.250000
O O8 0.937482 0.183312 0.810182
O O9 0.944565 0.438959 0.996697
O O10 0.887263 0.944345 0.873513
O O11 0.000000 0.783933 0.250000
#
# Coordination Sequence:
#
# PCOD9233893 Si02
#       5
#     4   4   4   4   4
#     4  12  20  39  57  89 118 146 195 245 270 335
#     4   8  22  39  58  84 116 163 193 225 285 340
#     4  10  23  35  63  90 110 149 195 230 287 345
#     4  10  21  44  60  81 119 151 181 236 296 347
#     4   9  23  36  59  80 119 157 193 228 288 324
#
# _framework density 21.910871
#
# number of rings (size 3 to 8) (size 9 to 14) (size 15 to 20)
#    1.200    0.800    0.000    3.000    0.000    8.000 
#    0.000    0.000    0.000    0.000    0.000    0.000 
#    0.000    0.000    0.000    0.000    0.000    0.000 
#
# Total GULP energy -111649.388364 kJ/mol
# GULP energy per Si atom -5582.469418 kJ/mol
# Density = 2.186100 g / cm^3
# Si number density = 21.910871 Si / 1000 Ang^3
#
#
#
# Elastic Constant Matrix: (Units=GPa)
#
#
# Indices 1 2 3 4 5 6 
#
# 1 65.1436 10.3294 50.7710 0.0000 -26.2524 0.0000
# 2 10.3294 71.1799 3.2590 0.0000 -12.0373 0.0000
# 3 50.7710 3.2590 97.0875 0.0000 -15.4749 0.0000
# 4 0.0000 0.0000 0.0000 15.2341 0.0000 7.8594
# 5 -26.2524 -12.0373 -15.4749 0.0000 34.5447 0.0000
# 6 0.0000 0.0000 0.0000 7.8594 0.0000 22.6578
#
#
#
# Elastic Compliance Matrix: (Units=1/GPa)
#
#
# Indices 1 2 3 4 5 6 
#
# 1 0.035403 -0.001113 -0.015345 0.000000 0.019642 0.000000
# 2 -0.001113 0.014975 0.000836 0.000000 0.004747 0.000000
# 3 -0.015345 0.000836 0.017752 0.000000 -0.003418 0.000000
# 4 0.000000 0.000000 0.000000 0.079949 0.000000 -0.027732
# 5 0.019642 0.004747 -0.003418 0.000000 0.043998 0.000000
# 6 0.000000 0.000000 0.000000 -0.027732 0.000000 0.053754
#
#
# Mechanical properties :
#
#
# Convention : Reuss Voigt Hill
#
# Bulk Modulus (GPa) = 27.11178 40.23664 33.67421
# Shear Modulus (GPa) = 17.27888 25.75743 21.51815
#
# Velocity S-wave (km/s) = 2.81125 3.43236 3.13721
# Velocity P-wave (km/s) = 4.78936 5.84053 5.34087
#
# Compressibility (1/GPa) = 0.03688433
#
# Stress axis : x y z
#
# Youngs Moduli (GPa) = 28.24657 66.77852 56.33244
#
# Poissons Ratio (x) = 0.07434 0.86444
# Poissons Ratio (y) = 0.03144 -0.04710
# Poissons Ratio (z) = 0.43345 -0.05583
#
# Static dielectric constant tensor:
#      x y z
#    x 1.812020 0.000000 0.005520 
#    y 0.000000 1.783680 0.000000 
#    z 0.005520 0.000000 1.807200 
# 
# From -- ./inp_files/35297.got.cif
#   From: 2010.05.17/outbox.cif.g08.bks.cpg/sg13_18_cif.got.tgz:35297.got - 2010.06.03 16:44:36.
