data_PCOD9233579
_publ_section_title
;
Structure prediction by ZEFSAII (Michael W. Deem and Ramdas Pophale) SiO2 
 PCOD9233579
Probable space group: P 2/C
;
_chemical_formula_sum "Si O2"
_cell_formula_units_Z 30
_cell_length_a 12.048585
_cell_length_b 7.934287
_cell_length_c 30.984689
_cell_angle_alpha 90.000000
_cell_angle_beta 150.832074
_cell_angle_gamma 90.000000
_cell_volume 1443.612749
_symmetry_space_group_name_H-M "P 2/C"
_symmetry_group_IT_number 13
_symmetry_cell_setting 'monoclinic'
loop_
_space_group_symop_operation_xyz
x,y,z
-x,y,1/2-z
-x,-y,-z
x,-y,1/2+z
loop_
_atom_site_type_symbol
_atom_site_label
_atom_site_fract_x
_atom_site_fract_y
_atom_site_fract_z
Si Si1 0.166023 0.659400 0.561694
Si Si2 0.448008 0.183816 0.534879
Si Si3 0.657843 0.556398 0.724762
Si Si4 0.033361 0.852837 0.079394
Si Si5 0.042890 0.238618 0.113034
Si Si6 0.174335 0.755766 0.270655
Si Si7 0.790068 0.837903 0.077743
Si Si8 0.500000 0.674343 0.250000
O O1 0.416398 0.628251 0.628302
O O2 0.164509 0.684326 0.612440
O O3 0.000000 0.500000 0.500000
O O4 0.070259 0.817323 0.502520
O O5 0.601600 0.166116 0.630336
O O6 0.613221 0.246396 0.551879
O O7 0.222053 0.288771 0.470221
O O8 0.342713 0.006813 0.482228
O O9 0.821078 0.701671 0.798654
O O10 0.767726 0.427192 0.728705
O O11 0.589451 0.437632 0.741496
O O12 0.287901 0.785268 0.163703
O O13 0.879734 0.755797 0.063581
O O14 0.042655 0.041762 0.100430
O O15 0.000000 0.733930 0.250000
O O16 0.027833 0.859731 0.185367
#
# Coordination Sequence:
#
# PCOD9233579 Si02
#       8
#     4   4   4   4   4   4   4   2
#     4  12  23  41  63  92 129 171 217 267 329 396
#     4   9  20  40  66  94 129 172 216 280 331 392
#     4  12  23  43  65  93 134 172 213 275 331 393
#     4  11  24  40  63  95 125 172 216 265 326 396
#     4  11  24  42  62  93 132 168 219 269 329 393
#     4  10  21  41  68  95 128 175 228 272 333 404
#     4   9  19  41  65  94 129 171 220 270 334 390
#     4  12  22  38  68  88 126 168 206 258 330 388
#
# _framework density 20.781196999999999
#
# number of rings (size 3 to 8) (size 9 to 14) (size 15 to 20)
#    0.000    1.333    4.000    1.200    1.867    0.000 
#   12.000    1.333    0.000    0.000    0.000    0.000 
#    0.000    0.000    0.000    0.000    0.000    0.000 
#
# Total GULP energy -167159.825746 kJ/mol
# GULP energy per Si atom -5571.994192 kJ/mol
# Density = 2.073390 g / cm^3
# Si number density = 20.781197 Si / 1000 Ang^3
#
#
#
# Elastic Constant Matrix: (Units=GPa)
#
#
# Indices 1 2 3 4 5 6 
#
# 1 40.0187 -1.7643 18.1939 0.0000 -7.0403 0.0000
# 2 -1.7643 64.4420 45.8433 0.0000 -4.4985 0.0000
# 3 18.1939 45.8433 155.0258 0.0000 6.9713 0.0000
# 4 0.0000 0.0000 0.0000 29.1777 0.0000 -1.3537
# 5 -7.0403 -4.4985 6.9713 0.0000 34.0027 0.0000
# 6 0.0000 0.0000 0.0000 -1.3537 0.0000 11.1512
#
#
#
# Elastic Compliance Matrix: (Units=1/GPa)
#
#
# Indices 1 2 3 4 5 6 
#
# 1 0.028957 0.005064 -0.005244 0.000000 0.007741 0.000000
# 2 0.005064 0.021043 -0.007054 0.000000 0.005279 0.000000
# 3 -0.005244 -0.007054 0.009329 0.000000 -0.003932 0.000000
# 4 0.000000 0.000000 0.000000 0.034467 0.000000 0.004184
# 5 0.007741 0.005279 -0.003932 0.000000 0.032517 0.000000
# 6 0.000000 0.000000 0.000000 0.004184 0.000000 0.090185
#
#
# Mechanical properties :
#
#
# Convention : Reuss Voigt Hill
#
# Bulk Modulus (GPa) = 22.29152 42.67025 32.48088
# Shear Modulus (GPa) = 20.33175 28.01389 24.17282
#
# Velocity S-wave (km/s) = 3.13129 3.67555 3.41428
# Velocity P-wave (km/s) = 4.88092 6.21213 5.58632
#
# Compressibility (1/GPa) = 0.04486011
#
# Stress axis : x y z
#
# Youngs Moduli (GPa) = 34.53350 47.52074 107.19404
#
# Poissons Ratio (x) = -0.24063 0.56212
# Poissons Ratio (y) = -0.17486 0.75620
# Poissons Ratio (z) = 0.18109 0.33523
#
# Static dielectric constant tensor:
#      x y z
#    x 1.798360 0.000000 0.027360 
#    y 0.000000 1.788680 0.000000 
#    z 0.027360 0.000000 1.813240 
# 
# From -- ./inp_files/96629.got.cif
#   From: 2010.05.17/outbox.cif.g08.bks.cpg/sg13_49_cif.got.tgz:96629.got - 2010.06.03 16:44:36.
