data_PCOD9233665
_publ_section_title
;
Structure prediction by ZEFSAII (Michael W. Deem and Ramdas Pophale) SiO2 
 PCOD9233665
Probable space group: P 2/C
;
_chemical_formula_sum "Si O2"
_cell_formula_units_Z 24
_cell_length_a 12.471853
_cell_length_b 8.514056
_cell_length_c 10.909090
_cell_angle_alpha 90.000000
_cell_angle_beta 107.455786
_cell_angle_gamma 90.000000
_cell_volume 1105.047733
_symmetry_space_group_name_H-M "P 2/C"
_symmetry_group_IT_number 13
_symmetry_cell_setting 'monoclinic'
loop_
_space_group_symop_operation_xyz
x,y,z
-x,y,1/2-z
-x,-y,-z
x,-y,1/2+z
loop_
_atom_site_type_symbol
_atom_site_label
_atom_site_fract_x
_atom_site_fract_y
_atom_site_fract_z
Si Si1 0.176122 0.309941 0.497710
Si Si2 0.796203 0.329770 0.496178
Si Si3 0.121760 0.178408 0.744047
Si Si4 0.427980 0.179176 0.598176
Si Si5 0.959269 0.870647 0.886414
Si Si6 0.432038 0.192309 0.102235
O O1 0.167599 0.493429 0.467230
O O2 0.149114 0.268622 0.629899
O O3 0.306616 0.259678 0.533670
O O4 0.074346 0.221057 0.391326
O O5 0.797606 0.224824 0.619298
O O6 0.877441 0.251332 0.424226
O O7 0.668516 0.314096 0.413831
O O8 0.000000 0.230229 0.750000
O O9 0.111901 0.991579 0.721385
O O10 0.500000 0.212703 0.750000
O O11 0.503330 0.216442 0.504222
O O12 0.399180 0.992735 0.590187
O O13 0.000000 0.000000 0.000000
O O14 0.500000 0.209500 0.250000
#
# Coordination Sequence:
#
# PCOD9233665 Si02
#       6
#     4   4   4   4   4   4
#     4  11  24  42  67 101 142 175 222 289 360 411
#     4  12  24  43  68 100 143 173 226 292 353 411
#     4  11  23  42  67  96 132 186 224 281 336 419
#     4  10  22  43  69  97 135 184 238 288 338 412
#     4  10  21  42  64  95 127 175 228 274 331 416
#     4  10  23  42  68 100 133 185 242 281 334 417
#
# _framework density 21.718520000000002
#
# number of rings (size 3 to 8) (size 9 to 14) (size 15 to 20)
#    0.000    1.333    3.333    3.500    0.000    5.333 
#    3.000    0.000    0.000    0.000    0.000    0.000 
#    0.000    0.000    0.000    0.000    0.000    0.000 
#
# Total GULP energy -133916.517751 kJ/mol
# GULP energy per Si atom -5579.854906 kJ/mol
# Density = 2.166909 g / cm^3
# Si number density = 21.718520 Si / 1000 Ang^3
#
#
#
# Elastic Constant Matrix: (Units=GPa)
#
#
# Indices 1 2 3 4 5 6 
#
# 1 84.8295 52.5824 12.5372 0.0000 -3.8729 0.0000
# 2 52.5824 130.6680 51.4422 0.0000 8.3990 0.0000
# 3 12.5372 51.4422 91.4824 0.0000 -7.5133 0.0000
# 4 0.0000 0.0000 0.0000 33.8527 0.0000 32.5140
# 5 -3.8729 8.3990 -7.5133 0.0000 21.3982 0.0000
# 6 0.0000 0.0000 0.0000 32.5140 0.0000 88.3609
#
#
#
# Elastic Compliance Matrix: (Units=1/GPa)
#
#
# Indices 1 2 3 4 5 6 
#
# 1 0.016955 -0.008518 0.003082 0.000000 0.007494 0.000000
# 2 -0.008518 0.014909 -0.008056 0.000000 -0.010222 0.000000
# 3 0.003082 -0.008056 0.015800 0.000000 0.009267 0.000000
# 4 0.000000 0.000000 0.000000 0.045686 0.000000 -0.016811
# 5 0.007494 -0.010222 0.009267 0.000000 0.055356 0.000000
# 6 0.000000 0.000000 0.000000 -0.016811 0.000000 0.017503
#
#
# Mechanical properties :
#
#
# Convention : Reuss Voigt Hill
#
# Bulk Modulus (GPa) = 48.35653 60.01152 54.18403
# Shear Modulus (GPa) = 24.98926 41.41689 33.20308
#
# Velocity S-wave (km/s) = 3.39573 4.37164 3.91422
# Velocity P-wave (km/s) = 6.13906 7.29199 6.74022
#
# Compressibility (1/GPa) = 0.02067973
#
# Stress axis : x y z
#
# Youngs Moduli (GPa) = 58.98024 67.07280 63.29163
#
# Poissons Ratio (x) = 0.57131 -0.19504
# Poissons Ratio (y) = 0.50238 0.50987
# Poissons Ratio (z) = -0.18175 0.54033
#
# Static dielectric constant tensor:
#      x y z
#    x 1.852780 0.000000 0.026510 
#    y 0.000000 1.772770 0.000000 
#    z 0.026510 0.000000 1.907040 
# 
# From -- ./inp_files/32709.got.cif
#   From: 2010.05.17/outbox.cif.g08.bks.cpg/sg13_17_cif.got.tgz:32709.got - 2010.06.03 16:44:36.
