data_PCOD9233259
_publ_section_title
;
Structure prediction by ZEFSAII (Michael W. Deem and Ramdas Pophale) SiO2 
 PCOD9233259
Probable space group: P 2/C
;
_chemical_formula_sum "Si O2"
_cell_formula_units_Z 26
_cell_length_a 8.967458
_cell_length_b 6.810107
_cell_length_c 21.542390
_cell_angle_alpha 90.000000
_cell_angle_beta 85.289030
_cell_angle_gamma 90.000000
_cell_volume 1311.135274
_symmetry_space_group_name_H-M "P 2/C"
_symmetry_group_IT_number 13
_symmetry_cell_setting 'monoclinic'
loop_
_space_group_symop_operation_xyz
x,y,z
-x,y,1/2-z
-x,-y,-z
x,-y,1/2+z
loop_
_atom_site_type_symbol
_atom_site_label
_atom_site_fract_x
_atom_site_fract_y
_atom_site_fract_z
Si Si1 0.000000 0.722900 0.750000
Si Si2 0.463707 0.570685 0.105628
Si Si3 0.040991 0.929400 0.149869
Si Si4 0.233922 0.385423 0.722256
Si Si5 0.571126 0.138945 0.086069
Si Si6 0.293269 0.107158 0.544044
Si Si7 0.699835 0.156331 0.658890
O O1 0.859175 0.573401 0.750274
O O2 0.974088 0.869824 0.809340
O O3 0.361430 0.549577 0.170216
O O4 0.532273 0.364986 0.085855
O O5 0.354455 0.676059 0.060169
O O6 0.602842 0.711931 0.115811
O O7 0.122691 0.764804 0.189862
O O8 0.141375 0.942600 0.084794
O O9 0.875196 0.858222 0.139884
O O10 0.307719 0.256763 0.773967
O O11 0.419321 0.032637 0.069746
O O12 0.626594 0.057184 0.150283
O O13 0.696569 0.089007 0.030102
#
# Coordination Sequence:
#
# PCOD9233259 Si02
#       7
#     2   4   4   4   4   4   4
#     4  12  20  36  66  80 112 160 204 232 300 364
#     4  10  22  38  61  86 116 154 197 242 299 346
#     4  11  22  39  61  86 119 155 192 249 302 345
#     4  11  22  40  56  86 119 156 195 245 292 358
#     4  10  21  40  63  87 116 158 200 239 294 351
#     4   9  21  41  63  85 116 153 202 248 284 352
#     4  11  22  38  55  87 129 144 190 249 296 349
#
# _framework density 19.830141999999999
#
# number of rings (size 3 to 8) (size 9 to 14) (size 15 to 20)
#    0.000    1.538    3.077    1.846    2.154    0.615 
#    2.769    0.769    0.000    0.000    0.000    0.000 
#    0.000    0.000    0.000    0.000    0.000    0.000 
#
# Total GULP energy -145094.727528 kJ/mol
# GULP energy per Si atom -5580.566443 kJ/mol
# Density = 1.978501 g / cm^3
# Si number density = 19.830142 Si / 1000 Ang^3
#
#
#
# Elastic Constant Matrix: (Units=GPa)
#
#
# Indices 1 2 3 4 5 6 
#
# 1 54.1198 12.4977 29.5065 0.0000 -9.1060 0.0000
# 2 12.4977 75.3228 15.3948 0.0000 -3.2699 0.0000
# 3 29.5065 15.3948 67.1601 0.0000 -18.5136 0.0000
# 4 0.0000 0.0000 0.0000 16.7884 0.0000 -7.7173
# 5 -9.1060 -3.2699 -18.5136 0.0000 30.4782 0.0000
# 6 0.0000 0.0000 0.0000 -7.7173 0.0000 -3.4402
#
#
#
# Elastic Compliance Matrix: (Units=1/GPa)
#
#
# Indices 1 2 3 4 5 6 
#
# 1 0.024597 -0.001978 -0.010073 0.000000 0.001018 0.000000
# 2 -0.001978 0.014095 -0.002532 0.000000 -0.000617 0.000000
# 3 -0.010073 -0.002532 0.022811 0.000000 0.010575 0.000000
# 4 0.000000 0.000000 0.000000 0.029325 0.000000 -0.065784
# 5 0.001018 -0.000617 0.010575 0.000000 0.039472 0.000000
# 6 0.000000 0.000000 0.000000 -0.065784 0.000000 -0.143107
#
#
# Mechanical properties :
#
#
# Convention : Reuss Voigt Hill
#
# Bulk Modulus (GPa) = 30.92368 34.60009 32.76189
# Shear Modulus (GPa) = 184.24361 18.04552 101.14456
#
# Velocity S-wave (km/s) = 9.64949 3.01990 7.14956
# Velocity P-wave (km/s) = 11.82279 5.44480 9.20391
#
# Compressibility (1/GPa) = 0.03233768
#
# Stress axis : x y z
#
# Youngs Moduli (GPa) = 40.65480 70.94653 43.83923
#
# Poissons Ratio (x) = 0.14036 0.44157
# Poissons Ratio (y) = 0.08043 0.11099
# Poissons Ratio (z) = 0.40950 0.17962
#
# Static dielectric constant tensor:
#      x y z
#    x 1.675980 0.000000 -0.004480 
#    y 0.000000 1.719190 0.000000 
#    z -0.004480 0.000000 1.726660 
# 
# From -- ./inp_files/84377.got.cif
#   From: 2010.05.17/outbox.cif.g08.bks.cpg/sg13_43_cif.got.tgz:84377.got - 2010.06.03 16:44:36.
