data_PCOD9233913
_publ_section_title
;
Structure prediction by ZEFSAII (Michael W. Deem and Ramdas Pophale) SiO2 
 PCOD9233913
Probable space group: P 2/C
;
_chemical_formula_sum "Si O2"
_cell_formula_units_Z 28
_cell_length_a 17.188637
_cell_length_b 11.508705
_cell_length_c 9.408700
_cell_angle_alpha 90.000000
_cell_angle_beta 35.129848
_cell_angle_gamma 90.000000
_cell_volume 1071.003931
_symmetry_space_group_name_H-M "P 2/C"
_symmetry_group_IT_number 13
_symmetry_cell_setting 'monoclinic'
loop_
_space_group_symop_operation_xyz
x,y,z
-x,y,1/2-z
-x,-y,-z
x,-y,1/2+z
loop_
_atom_site_type_symbol
_atom_site_label
_atom_site_fract_x
_atom_site_fract_y
_atom_site_fract_z
Si Si1 0.356888 0.782167 0.530132
Si Si2 0.178268 0.352259 0.902234
Si Si3 0.709346 0.967050 0.634682
Si Si4 0.630490 0.854174 0.462682
Si Si5 0.000000 0.935188 0.250000
Si Si6 0.596014 0.512695 0.991348
Si Si7 0.000000 0.538049 0.250000
Si Si8 0.941058 0.739013 0.565910
O O1 0.317168 0.851140 0.732321
O O2 0.385027 0.649271 0.522644
O O3 0.213215 0.771409 0.659014
O O4 0.500000 0.826807 0.250000
O O5 0.292307 0.253306 0.723438
O O6 0.262027 0.451126 0.695094
O O7 0.052220 0.287557 0.018549
O O8 0.119173 0.444115 0.108349
O O9 0.699378 0.935140 0.483448
O O10 0.862928 0.005495 0.438168
O O11 0.615694 0.062577 0.848925
O O12 0.500000 0.817919 0.750000
O O13 0.989228 0.849285 0.401020
O O14 0.500000 0.459201 0.250000
O O15 0.500000 0.500000 0.000000
O O16 0.045728 0.626166 0.057800
#
# Coordination Sequence:
#
# PCOD9233913 Si02
#       8
#     4   4   4   4   2   4   2   4
#     4  10  23  45  73 105 147 198 242 297 369 444
#     4  12  26  44  71 102 150 191 246 301 366 440
#     4  11  25  50  77 106 143 194 249 305 374 437
#     4  12  28  50  74 107 145 195 248 315 365 438
#     4   9  20  43  76 100 144 187 237 298 370 434
#     4  11  27  43  71 109 147 193 243 300 367 438
#     4  11  24  39  70 106 146 189 241 294 362 444
#     4  10  21  44  69 104 145 195 240 291 366 443
#
# _framework density 26.143694
#
# number of rings (size 3 to 8) (size 9 to 14) (size 15 to 20)
#    0.000    1.143    2.857    1.714    6.000    2.286 
#    7.714    0.000    0.000    0.000    0.000    0.000 
#    0.000    0.000    0.000    0.000    0.000    0.000 
#
# Total GULP energy -156150.736564 kJ/mol
# GULP energy per Si atom -5576.812020 kJ/mol
# Density = 2.608419 g / cm^3
# Si number density = 26.143694 Si / 1000 Ang^3
#
#
#
# Elastic Constant Matrix: (Units=GPa)
#
#
# Indices 1 2 3 4 5 6 
#
# 1 91.2582 13.2766 38.6810 0.0000 -4.4275 0.0000
# 2 13.2766 105.0392 25.0025 0.0000 1.5042 0.0000
# 3 38.6810 25.0025 159.0962 0.0000 -9.7404 0.0000
# 4 0.0000 0.0000 0.0000 19.0001 0.0000 -6.3324
# 5 -4.4275 1.5042 -9.7404 0.0000 38.3389 0.0000
# 6 0.0000 0.0000 0.0000 -6.3324 0.0000 16.8396
#
#
#
# Elastic Compliance Matrix: (Units=1/GPa)
#
#
# Indices 1 2 3 4 5 6 
#
# 1 0.012315 -0.000899 -0.002807 0.000000 0.000744 0.000000
# 2 -0.000899 0.009980 -0.001402 0.000000 -0.000852 0.000000
# 3 -0.002807 -0.001402 0.007285 0.000000 0.001582 0.000000
# 4 0.000000 0.000000 0.000000 0.060172 0.000000 0.022627
# 5 0.000744 -0.000852 0.001582 0.000000 0.026604 0.000000
# 6 0.000000 0.000000 0.000000 0.022627 0.000000 0.067893
#
#
# Mechanical properties :
#
#
# Convention : Reuss Voigt Hill
#
# Bulk Modulus (GPa) = 51.64388 56.59043 54.11715
# Shear Modulus (GPa) = 24.88553 33.39795 29.14174
#
# Velocity S-wave (km/s) = 3.08859 3.57806 3.34230
# Velocity P-wave (km/s) = 5.70228 6.22599 5.96988
#
# Compressibility (1/GPa) = 0.01936338
#
# Stress axis : x y z
#
# Youngs Moduli (GPa) = 81.20384 100.20266 137.26505
#
# Poissons Ratio (x) = 0.09008 0.38533
# Poissons Ratio (y) = 0.07300 0.19243
# Poissons Ratio (z) = 0.22796 0.14048
#
# Static dielectric constant tensor:
#      x y z
#    x 2.105710 0.000000 -0.018810 
#    y 0.000000 1.947470 0.000000 
#    z -0.018810 0.000000 2.179790 
# 
# From -- ./inp_files/40796.got.cif
#   From: 2010.05.17/outbox.cif.g08.bks.cpg/sg13_21_cif.got.tgz:40796.got - 2010.06.03 16:44:36.
