data_PCOD9233988
_publ_section_title
;
Structure prediction by ZEFSAII (Michael W. Deem and Ramdas Pophale) SiO2 
 PCOD9233988
Probable space group: P 2/C
;
_chemical_formula_sum "Si O2"
_cell_formula_units_Z 30
_cell_length_a 27.239034
_cell_length_b 10.966276
_cell_length_c 26.981616
_cell_angle_alpha 90.000000
_cell_angle_beta 169.489512
_cell_angle_gamma 90.000000
_cell_volume 1470.214110
_symmetry_space_group_name_H-M "P 2/C"
_symmetry_group_IT_number 13
_symmetry_cell_setting 'monoclinic'
loop_
_space_group_symop_operation_xyz
x,y,z
-x,y,1/2-z
-x,-y,-z
x,-y,1/2+z
loop_
_atom_site_type_symbol
_atom_site_label
_atom_site_fract_x
_atom_site_fract_y
_atom_site_fract_z
Si Si1 0.508772 0.569156 0.133628
Si Si2 0.852792 0.098363 0.216074
Si Si3 0.745035 0.268561 0.722050
Si Si4 0.256172 0.303745 0.472592
Si Si5 0.658960 0.945900 0.768483
Si Si6 0.500000 0.000000 0.500000
Si Si7 0.271703 0.319952 0.186848
Si Si8 0.012924 0.683239 0.590069
O O1 0.653812 0.441426 0.268368
O O2 0.753816 0.664842 0.368675
O O3 0.374884 0.593677 0.053684
O O4 0.261275 0.594680 0.849812
O O5 0.836082 0.192918 0.154509
O O6 0.867730 0.182842 0.280512
O O7 0.096585 0.006456 0.460368
O O8 0.594601 0.016255 0.962739
O O9 0.682918 0.125966 0.669970
O O10 0.458344 0.323562 0.421502
O O11 0.880459 0.325962 0.905088
O O12 0.963197 0.296877 0.895905
O O13 0.000000 0.344398 0.250000
O O14 0.500000 0.264849 0.750000
O O15 0.641394 0.801334 0.755766
O O16 0.666926 0.975085 0.717572
#
# Coordination Sequence:
#
# PCOD9233988 Si02
#       8
#     4   4   4   4   4   2   4   4
#     4  11  24  42  63  87 129 159 211 262 326 396
#     4  11  22  38  62  94 124 155 204 269 328 372
#     4  11  23  36  57  86 128 175 231 264 297 356
#     4  11  23  42  70  99 115 147 201 270 345 402
#     4  11  22  36  60  87 129 175 208 255 303 361
#     4  10  22  34  56  86 128 176 230 258 284 368
#     4  11  25  40  55  90 126 182 215 254 300 376
#     4  11  22  37  61  89 121 174 210 272 315 352
#
# _framework density 20.405192
#
# number of rings (size 3 to 8) (size 9 to 14) (size 15 to 20)
#    0.000    1.067    1.333    7.200    3.733    5.867 
#    0.000    0.000    0.000    3.200    0.000    1.867 
#    0.000    0.000    0.000    0.000    0.000    0.000 
#
# Total GULP energy -167153.524743 kJ/mol
# GULP energy per Si atom -5571.784158 kJ/mol
# Density = 2.035875 g / cm^3
# Si number density = 20.405192 Si / 1000 Ang^3
#
#
#
# Elastic Constant Matrix: (Units=GPa)
#
#
# Indices 1 2 3 4 5 6 
#
# 1 55.7439 18.5461 18.7665 0.0000 -1.6016 0.0000
# 2 18.5461 52.0111 21.3534 0.0000 -6.1099 0.0000
# 3 18.7665 21.3534 131.5671 0.0000 0.8435 0.0000
# 4 0.0000 0.0000 0.0000 28.0699 0.0000 8.0678
# 5 -1.6016 -6.1099 0.8435 0.0000 38.2384 0.0000
# 6 0.0000 0.0000 0.0000 8.0678 0.0000 8.0060
#
#
#
# Elastic Compliance Matrix: (Units=1/GPa)
#
#
# Indices 1 2 3 4 5 6 
#
# 1 0.020783 -0.006655 -0.001883 0.000000 -0.000151 0.000000
# 2 -0.006655 0.023173 -0.002834 0.000000 0.003486 0.000000
# 3 -0.001883 -0.002834 0.008334 0.000000 -0.000716 0.000000
# 4 0.000000 0.000000 0.000000 0.050151 0.000000 -0.050538
# 5 -0.000151 0.003486 -0.000716 0.000000 0.026718 0.000000
# 6 0.000000 0.000000 0.000000 -0.050538 0.000000 0.175835
#
#
# Mechanical properties :
#
#
# Convention : Reuss Voigt Hill
#
# Bulk Modulus (GPa) = 33.84734 39.62824 36.73779
# Shear Modulus (GPa) = 14.81094 26.90658 20.85876
#
# Velocity S-wave (km/s) = 2.69707 3.63521 3.20070
# Velocity P-wave (km/s) = 5.13055 6.08954 5.63050
#
# Compressibility (1/GPa) = 0.02954442
#
# Stress axis : x y z
#
# Youngs Moduli (GPa) = 48.11592 43.15372 119.99227
#
# Poissons Ratio (x) = 0.28721 0.22598
# Poissons Ratio (y) = 0.32023 0.34006
# Poissons Ratio (z) = 0.09062 0.12230
#
# Static dielectric constant tensor:
#      x y z
#    x 1.756070 0.000000 0.003570 
#    y 0.000000 1.732500 0.000000 
#    z 0.003570 0.000000 1.756580 
# 
# From -- ./inp_files/94227.got.cif
#   From: 2010.05.17/outbox.cif.g08.bks.cpg/sg13_48_cif.got.tgz:94227.got - 2010.06.03 16:44:36.
