data_PCOD9233904
_publ_section_title
;
Structure prediction by ZEFSAII (Michael W. Deem and Ramdas Pophale) SiO2 
 PCOD9233904
Probable space group: P 2/C
;
_chemical_formula_sum "Si O2"
_cell_formula_units_Z 18
_cell_length_a 6.558162
_cell_length_b 8.572905
_cell_length_c 20.206967
_cell_angle_alpha 90.000000
_cell_angle_beta 47.781801
_cell_angle_gamma 90.000000
_cell_volume 841.375439
_symmetry_space_group_name_H-M "P 2/C"
_symmetry_group_IT_number 13
_symmetry_cell_setting 'monoclinic'
loop_
_space_group_symop_operation_xyz
x,y,z
-x,y,1/2-z
-x,-y,-z
x,-y,1/2+z
loop_
_atom_site_type_symbol
_atom_site_label
_atom_site_fract_x
_atom_site_fract_y
_atom_site_fract_z
Si Si1 0.201136 0.423874 0.902730
Si Si2 0.694559 0.777650 0.337931
Si Si3 0.390781 0.070959 0.363267
Si Si4 0.500000 0.343493 0.250000
Si Si5 0.882083 0.112875 0.935791
O O1 0.483484 0.364644 0.875515
O O2 0.266164 0.542047 0.828965
O O3 0.061279 0.268292 0.906556
O O4 0.000000 0.500000 0.000000
O O5 0.711649 0.852799 0.407207
O O6 0.000000 0.732527 0.250000
O O7 0.584235 0.919903 0.316799
O O8 0.538273 0.222379 0.301931
O O9 0.300702 0.095567 0.458650
O O10 0.101969 0.029741 0.388834
#
# Coordination Sequence:
#
# PCOD9233904 Si02
#       5
#     4   4   4   2   4
#     4  11  24  44  67  96 138 183 219 272 343 401
#     4  11  23  42  67  99 130 175 227 276 335 404
#     4  10  22  40  68  96 128 173 225 283 338 395
#     4  12  22  42  66  96 132 174 228 276 328 406
#     4  10  21  44  67  92 133 176 220 280 340 399
#
# _framework density 21.393540999999999
#
# number of rings (size 3 to 8) (size 9 to 14) (size 15 to 20)
#    0.000    1.333    2.222    3.333    0.000    4.444 
#    4.000    5.556    0.000    0.000    0.000    0.000 
#    0.000    0.000    0.000    0.000    0.000    0.000 
#
# Total GULP energy -100538.072253 kJ/mol
# GULP energy per Si atom -5585.448458 kJ/mol
# Density = 2.134485 g / cm^3
# Si number density = 21.393541 Si / 1000 Ang^3
#
#
#
# Elastic Constant Matrix: (Units=GPa)
#
#
# Indices 1 2 3 4 5 6 
#
# 1 89.6998 29.2749 40.7090 0.0000 -3.0071 0.0000
# 2 29.2749 108.0705 56.9954 0.0000 -17.2032 0.0000
# 3 40.7090 56.9954 154.1152 0.0000 -3.7009 0.0000
# 4 0.0000 0.0000 0.0000 51.3665 0.0000 3.1091
# 5 -3.0071 -17.2032 -3.7009 0.0000 30.9544 0.0000
# 6 0.0000 0.0000 0.0000 3.1091 0.0000 16.5207
#
#
#
# Elastic Compliance Matrix: (Units=1/GPa)
#
#
# Indices 1 2 3 4 5 6 
#
# 1 0.013053 -0.002181 -0.002648 0.000000 -0.000261 0.000000
# 2 -0.002181 0.013044 -0.004090 0.000000 0.006548 0.000000
# 3 -0.002648 -0.004090 0.008665 0.000000 -0.001495 0.000000
# 4 0.000000 0.000000 0.000000 0.019692 0.000000 -0.003706
# 5 -0.000261 0.006548 -0.001495 0.000000 0.035741 0.000000
# 6 0.000000 0.000000 0.000000 -0.003706 0.000000 0.061227
#
#
# Mechanical properties :
#
#
# Convention : Reuss Voigt Hill
#
# Bulk Modulus (GPa) = 59.09015 67.31601 63.20308
# Shear Modulus (GPa) = 28.58756 34.76208 31.67482
#
# Velocity S-wave (km/s) = 3.65947 4.03536 3.85200
# Velocity P-wave (km/s) = 6.74805 7.29699 7.02788
#
# Compressibility (1/GPa) = 0.01692329
#
# Stress axis : x y z
#
# Youngs Moduli (GPa) = 76.61111 76.66538 115.40868
#
# Poissons Ratio (x) = 0.16721 0.30555
# Poissons Ratio (y) = 0.16709 0.47208
# Poissons Ratio (z) = 0.20283 0.31360
#
# Static dielectric constant tensor:
#      x y z
#    x 1.808190 0.000000 0.007040 
#    y 0.000000 1.742070 0.000000 
#    z 0.007040 0.000000 1.795130 
# 
# From -- ./inp_files/60473.got.cif
#   From: 2010.05.17/outbox.cif.g08.bks.cpg/sg13_31_cif.got.tgz:60473.got - 2010.06.03 16:44:36.
