data_PCOD9233467
_publ_section_title
;
Structure prediction by ZEFSAII (Michael W. Deem and Ramdas Pophale) SiO2 
 PCOD9233467
Probable space group: P 2/C
;
_chemical_formula_sum "Si O2"
_cell_formula_units_Z 24
_cell_length_a 19.808699
_cell_length_b 7.733070
_cell_length_c 19.463774
_cell_angle_alpha 90.000000
_cell_angle_beta 157.514131
_cell_angle_gamma 90.000000
_cell_volume 1140.291609
_symmetry_space_group_name_H-M "P 2/C"
_symmetry_group_IT_number 13
_symmetry_cell_setting 'monoclinic'
loop_
_space_group_symop_operation_xyz
x,y,z
-x,y,1/2-z
-x,-y,-z
x,-y,1/2+z
loop_
_atom_site_type_symbol
_atom_site_label
_atom_site_fract_x
_atom_site_fract_y
_atom_site_fract_z
Si Si1 0.500000 0.500000 0.500000
Si Si2 0.343411 0.786033 0.448644
Si Si3 0.715099 0.849255 0.855406
Si Si4 0.867232 0.658706 0.867708
Si Si5 0.957380 0.924110 0.838084
Si Si6 0.000000 0.690906 0.750000
Si Si7 0.307182 0.570278 0.549129
O O1 0.410446 0.686261 0.444407
O O2 0.687671 0.594921 0.664277
O O3 0.516386 0.882179 0.642868
O O4 0.300258 0.636893 0.464448
O O5 0.180633 0.916670 0.287663
O O6 0.807653 0.726524 0.885969
O O7 0.711521 0.740850 0.921919
O O8 0.842863 0.010127 0.982543
O O9 0.944723 0.811217 0.894718
O O10 0.000000 0.500000 0.000000
O O11 0.922998 0.807142 0.738889
O O12 0.844712 0.565574 0.577912
O O13 0.500000 0.497600 0.750000
#
# Coordination Sequence:
#
# PCOD9233467 Si02
#       7
#     2   4   4   4   4   2   4
#     4  10  22  40  62  86 116 156 198 244 300 364
#     4  10  22  40  63  88 118 157 200 251 306 362
#     4  10  22  39  61  85 116 156 196 248 303 355
#     4  11  23  39  60  86 119 159 198 244 300 361
#     4  12  24  38  60  91 123 157 202 254 304 362
#     4  12  24  36  60  90 120 160 200 250 302 362
#     4  10  21  41  63  86 118 159 203 248 304 367
#
# _framework density 21.047248
#
# number of rings (size 3 to 8) (size 9 to 14) (size 15 to 20)
#    0.000    1.333    0.000    5.500    0.000    5.333 
#    0.000    0.000    0.000    0.000    0.000    0.000 
#    0.000    0.000    0.000    0.000    0.000    0.000 
#
# Total GULP energy -133615.755347 kJ/mol
# GULP energy per Si atom -5567.323139 kJ/mol
# Density = 2.099934 g / cm^3
# Si number density = 21.047248 Si / 1000 Ang^3
#
#
#
# Elastic Constant Matrix: (Units=GPa)
#
#
# Indices 1 2 3 4 5 6 
#
# 1 60.9073 8.1241 17.8222 0.0000 11.9404 0.0000
# 2 8.1241 65.1215 46.6631 0.0000 4.6645 0.0000
# 3 17.8222 46.6631 65.7334 0.0000 20.4918 0.0000
# 4 0.0000 0.0000 0.0000 13.5426 0.0000 12.4582
# 5 11.9404 4.6645 20.4918 0.0000 18.6514 0.0000
# 6 0.0000 0.0000 0.0000 12.4582 0.0000 36.0328
#
#
#
# Elastic Compliance Matrix: (Units=1/GPa)
#
#
# Indices 1 2 3 4 5 6 
#
# 1 0.018963 -0.000487 -0.001596 0.000000 -0.010265 0.000000
# 2 -0.000487 0.041623 -0.039951 0.000000 0.033795 0.000000
# 3 -0.001596 -0.039951 0.061708 0.000000 -0.056784 0.000000
# 4 0.000000 0.000000 0.000000 0.108282 0.000000 -0.037438
# 5 -0.010265 0.033795 -0.056784 0.000000 0.114122 0.000000
# 6 0.000000 0.000000 0.000000 -0.037438 0.000000 0.040697
#
#
# Mechanical properties :
#
#
# Convention : Reuss Voigt Hill
#
# Bulk Modulus (GPa) = 26.15978 37.44233 31.80105
# Shear Modulus (GPa) = 10.36907 21.58887 15.97897
#
# Velocity S-wave (km/s) = 2.22200 3.20618 2.75834
# Velocity P-wave (km/s) = 4.36338 5.61555 5.02859
#
# Compressibility (1/GPa) = 0.03822662
#
# Stress axis : x y z
#
# Youngs Moduli (GPa) = 52.73550 24.02523 16.20534
#
# Poissons Ratio (x) = 0.01170 0.02586
# Poissons Ratio (y) = 0.02569 0.64742
# Poissons Ratio (z) = 0.08414 0.95983
#
# Static dielectric constant tensor:
#      x y z
#    x 1.765960 0.000000 -0.021930 
#    y 0.000000 1.723900 0.000000 
#    z -0.021930 0.000000 1.785670 
# 
# From -- ./inp_files/88824.got.cif
#   From: 2010.05.17/outbox.cif.g08.bks.cpg/sg13_45_cif.got.tgz:88824.got - 2010.06.03 16:44:36.
