data_PCOD9233157
_publ_section_title
;
Structure prediction by ZEFSAII (Michael W. Deem and Ramdas Pophale) SiO2 
 PCOD9233157
Probable space group: P 2/C
;
_chemical_formula_sum "Si O2"
_cell_formula_units_Z 32
_cell_length_a 7.316743
_cell_length_b 14.660419
_cell_length_c 21.572598
_cell_angle_alpha 90.000000
_cell_angle_beta 35.481574
_cell_angle_gamma 90.000000
_cell_volume 1343.150873
_symmetry_space_group_name_H-M "P 2/C"
_symmetry_group_IT_number 13
_symmetry_cell_setting 'monoclinic'
loop_
_space_group_symop_operation_xyz
x,y,z
-x,y,1/2-z
-x,-y,-z
x,-y,1/2+z
loop_
_atom_site_type_symbol
_atom_site_label
_atom_site_fract_x
_atom_site_fract_y
_atom_site_fract_z
Si Si1 0.282599 0.116702 0.523569
Si Si2 0.229386 0.832484 0.245340
Si Si3 0.661513 0.619502 0.272227
Si Si4 0.159594 0.230336 0.375432
Si Si5 0.062742 0.594118 0.517767
Si Si6 0.745796 0.729937 0.869640
Si Si7 0.827050 0.467294 0.381242
Si Si8 0.716416 0.076565 0.525963
O O1 0.431361 0.209757 0.455416
O O2 0.510676 0.096459 0.519984
O O3 0.939301 0.125625 0.648579
O O4 0.277161 0.032472 0.477943
O O5 0.248247 0.725211 0.253613
O O6 0.542423 0.879822 0.133254
O O7 0.000000 0.843318 0.250000
O O8 0.500000 0.599730 0.250000
O O9 0.417881 0.612638 0.396742
O O10 0.950182 0.549834 0.200837
O O11 0.500000 0.230578 0.250000
O O12 0.124196 0.310575 0.436669
O O13 0.901331 0.254955 0.393958
O O14 0.042239 0.131451 0.429312
O O15 0.995606 0.570429 0.607358
O O16 0.000000 0.500000 0.500000
O O17 0.730939 0.619786 0.865674
O O18 0.000000 0.765349 0.750000
O O19 0.500000 0.500000 0.500000
#
# Coordination Sequence:
#
# PCOD9233157 Si02
#       8
#     4   4   4   4   4   4   4   4
#     4   9  19  37  64  93 126 157 210 271 338 392
#     4  10  21  39  67  96 126 169 218 276 330 394
#     4  12  25  43  64  93 135 179 221 272 328 399
#     4  10  22  40  63  91 129 169 218 263 321 397
#     4  11  24  41  63  89 130 179 222 258 325 392
#     4  10  23  39  59  93 128 164 212 269 328 387
#     4  11  26  39  61  95 128 171 224 272 325 385
#     4   9  18  37  64  95 121 163 211 268 330 395
#
# _framework density 23.824574999999999
#
# number of rings (size 3 to 8) (size 9 to 14) (size 15 to 20)
#    0.000    1.750    2.500    0.750    8.750    3.500 
#    2.250    0.625    0.000    2.250    0.000    0.000 
#    0.000    0.000    0.000    0.000    0.000    0.000 
#
# Total GULP energy -178677.467590 kJ/mol
# GULP energy per Si atom -5583.670862 kJ/mol
# Density = 2.377035 g / cm^3
# Si number density = 23.824575 Si / 1000 Ang^3
#
#
#
# Elastic Constant Matrix: (Units=GPa)
#
#
# Indices 1 2 3 4 5 6 
#
# 1 62.1352 43.4578 10.8429 0.0000 14.4052 0.0000
# 2 43.4578 187.6269 94.4071 0.0000 -5.4250 0.0000
# 3 10.8429 94.4071 169.8297 0.0000 -13.5045 0.0000
# 4 0.0000 0.0000 0.0000 36.3687 0.0000 -0.3338
# 5 14.4052 -5.4250 -13.5045 0.0000 27.3244 0.0000
# 6 0.0000 0.0000 0.0000 -0.3338 0.0000 26.9513
#
#
#
# Elastic Compliance Matrix: (Units=1/GPa)
#
#
# Indices 1 2 3 4 5 6 
#
# 1 0.023340 -0.006263 0.000951 0.000000 -0.013078 0.000000
# 2 -0.006263 0.009089 -0.004420 0.000000 0.002922 0.000000
# 3 0.000951 -0.004420 0.008509 0.000000 0.002826 0.000000
# 4 0.000000 0.000000 0.000000 0.027499 0.000000 0.000341
# 5 -0.013078 0.002922 0.002826 0.000000 0.045469 0.000000
# 6 0.000000 0.000000 0.000000 0.000341 0.000000 0.037108
#
#
# Mechanical properties :
#
#
# Convention : Reuss Voigt Hill
#
# Bulk Modulus (GPa) = 46.56573 79.66750 63.11662
# Shear Modulus (GPa) = 28.14730 36.18780 32.16755
#
# Velocity S-wave (km/s) = 3.44094 3.90157 3.67847
# Velocity P-wave (km/s) = 5.94764 7.33540 6.67767
#
# Compressibility (1/GPa) = 0.02147502
#
# Stress axis : x y z
#
# Youngs Moduli (GPa) = 42.84462 110.02410 117.51614
#
# Poissons Ratio (x) = 0.68906 -0.11180
# Poissons Ratio (y) = 0.26833 0.51946
# Poissons Ratio (z) = -0.04076 0.48634
#
# Static dielectric constant tensor:
#      x y z
#    x 2.025680 0.000000 0.063150 
#    y 0.000000 1.994980 0.000000 
#    z 0.063150 0.000000 1.942970 
# 
# From -- ./inp_files/85317.got.cif
#   From: 2010.05.17/outbox.cif.g08.bks.cpg/sg13_43_cif.got.tgz:85317.got - 2010.06.03 16:44:36.
