data_PCOD9233600
_publ_section_title
;
Structure prediction by ZEFSAII (Michael W. Deem and Ramdas Pophale) SiO2 
 PCOD9233600
Probable space group: P 2/C
;
_chemical_formula_sum "Si O2"
_cell_formula_units_Z 14
_cell_length_a 11.801439
_cell_length_b 9.751437
_cell_length_c 8.177822
_cell_angle_alpha 90.000000
_cell_angle_beta 42.120446
_cell_angle_gamma 90.000000
_cell_volume 631.195573
_symmetry_space_group_name_H-M "P 2/C"
_symmetry_group_IT_number 13
_symmetry_cell_setting 'monoclinic'
loop_
_space_group_symop_operation_xyz
x,y,z
-x,y,1/2-z
-x,-y,-z
x,-y,1/2+z
loop_
_atom_site_type_symbol
_atom_site_label
_atom_site_fract_x
_atom_site_fract_y
_atom_site_fract_z
Si Si1 0.570916 0.238216 0.353969
Si Si2 0.000000 0.171251 0.250000
Si Si3 0.654422 0.063864 0.706266
Si Si4 0.070264 0.355082 0.488714
O O1 0.500000 0.267692 0.250000
O O2 0.401267 0.202851 0.639030
O O3 0.658585 0.087848 0.277948
O O4 0.723132 0.342201 0.232167
O O5 0.832341 0.083459 0.435054
O O6 0.007489 0.254192 0.412189
O O7 0.500000 0.046289 0.750000
O O8 0.000000 0.328918 0.750000
O O9 0.000000 0.500000 0.500000
#
# Coordination Sequence:
#
# PCOD9233600 Si02
#       4
#     4   2   4   4
#     4  10  22  43  69 105 146 180 238 297 361 433
#     4  12  24  44  76 106 146 184 240 302 366 424
#     4  10  21  41  70 109 144 181 226 301 371 427
#     4  12  26  46  70 101 143 195 249 288 348 436
#
# _framework density 22.180129000000001
#
# number of rings (size 3 to 8) (size 9 to 14) (size 15 to 20)
#    0.000    1.143    4.286    1.714    2.000    1.143 
#    0.000    7.143    0.000    0.000    0.000    0.000 
#    0.000    0.000    0.000    0.000    0.000    0.000 
#
# Total GULP energy -77950.179034 kJ/mol
# GULP energy per Si atom -5567.869931 kJ/mol
# Density = 2.212965 g / cm^3
# Si number density = 22.180129 Si / 1000 Ang^3
#
#
#
# Elastic Constant Matrix: (Units=GPa)
#
#
# Indices 1 2 3 4 5 6 
#
# 1 134.9691 34.0997 42.4417 0.0000 -13.8116 0.0000
# 2 34.0997 41.7138 35.0758 0.0000 -13.8609 0.0000
# 3 42.4417 35.0758 138.4954 0.0000 -26.7722 0.0000
# 4 0.0000 0.0000 0.0000 27.1762 0.0000 -7.9000
# 5 -13.8116 -13.8609 -26.7722 0.0000 51.0761 0.0000
# 6 0.0000 0.0000 0.0000 -7.9000 0.0000 35.1973
#
#
#
# Elastic Compliance Matrix: (Units=1/GPa)
#
#
# Indices 1 2 3 4 5 6 
#
# 1 0.009492 -0.006725 -0.001182 0.000000 0.000122 0.000000
# 2 -0.006725 0.036273 -0.006203 0.000000 0.004774 0.000000
# 3 -0.001182 -0.006203 0.009755 0.000000 0.003110 0.000000
# 4 0.000000 0.000000 0.000000 0.039365 0.000000 0.008835
# 5 0.000122 0.004774 0.003110 0.000000 0.022537 0.000000
# 6 0.000000 0.000000 0.000000 0.008835 0.000000 0.030394
#
#
# Mechanical properties :
#
#
# Convention : Reuss Voigt Hill
#
# Bulk Modulus (GPa) = 36.63041 59.82362 48.22701
# Shear Modulus (GPa) = 27.00704 36.26066 31.63385
#
# Velocity S-wave (km/s) = 3.49323 4.04769 3.78064
# Velocity P-wave (km/s) = 5.72897 6.99109 6.39126
#
# Compressibility (1/GPa) = 0.02729972
#
# Stress axis : x y z
#
# Youngs Moduli (GPa) = 105.34713 27.56909 102.51305
#
# Poissons Ratio (x) = 0.18541 0.12118
# Poissons Ratio (y) = 0.70848 0.63586
# Poissons Ratio (z) = 0.12453 0.17100
#
# Static dielectric constant tensor:
#      x y z
#    x 1.871810 0.000000 0.090370 
#    y 0.000000 1.872590 0.000000 
#    z 0.090370 0.000000 1.986940 
# 
# From -- ./inp_files/10675.got.cif
#   From: 2010.05.17/outbox.cif.g08.bks.cpg/sg13_6_cif.got.tgz:10675.got - 2010.06.03 16:44:36.
