data_PCOD9233399
_publ_section_title
;
Structure prediction by ZEFSAII (Michael W. Deem and Ramdas Pophale) SiO2 
 PCOD9233399
Probable space group: P 2/C
;
_chemical_formula_sum "Si O2"
_cell_formula_units_Z 32
_cell_length_a 12.064156
_cell_length_b 13.976248
_cell_length_c 8.572929
_cell_angle_alpha 90.000000
_cell_angle_beta 95.078119
_cell_angle_gamma 90.000000
_cell_volume 1439.821930
_symmetry_space_group_name_H-M "P 2/C"
_symmetry_group_IT_number 13
_symmetry_cell_setting 'monoclinic'
loop_
_space_group_symop_operation_xyz
x,y,z
-x,y,1/2-z
-x,-y,-z
x,-y,1/2+z
loop_
_atom_site_type_symbol
_atom_site_label
_atom_site_fract_x
_atom_site_fract_y
_atom_site_fract_z
Si Si1 0.390929 0.433919 0.668279
Si Si2 0.871362 0.623155 0.777231
Si Si3 0.585479 0.079935 0.452182
Si Si4 0.554121 0.229203 0.922297
Si Si5 0.798782 0.197010 0.078951
Si Si6 0.938364 0.912745 0.403545
Si Si7 0.233370 0.553834 0.423820
Si Si8 0.265286 0.996654 0.782116
O O1 0.500000 0.485641 0.750000
O O2 0.440553 0.342903 0.584837
O O3 0.321437 0.499272 0.544790
O O4 0.307748 0.397384 0.796305
O O5 0.805271 0.712417 0.693411
O O6 0.835172 0.526637 0.680032
O O7 0.000000 0.637920 0.750000
O O8 0.841191 0.610711 0.957878
O O9 0.526116 0.181248 0.461137
O O10 0.629446 0.048453 0.291633
O O11 0.500000 0.000000 0.500000
O O12 0.691410 0.067980 0.579997
O O13 0.500000 0.196090 0.750000
O O14 0.681548 0.199797 0.971331
O O15 0.799920 0.096260 0.168297
O O16 0.911171 0.185375 0.991021
O O17 0.000000 0.894283 0.250000
O O18 0.816118 0.949761 0.343257
O O19 0.000000 0.000000 0.500000
#
# Coordination Sequence:
#
# PCOD9233399 Si02
#       8
#     4   4   4   4   4   4   4   4
#     4  10  21  40  69 101 137 176 215 274 343 421
#     4  11  25  46  73 102 139 177 231 294 339 408
#     4  12  22  39  63  91 126 179 216 272 336 393
#     4  11  23  40  64  94 141 169 218 279 333 401
#     4  12  25  43  66 103 134 172 237 282 330 415
#     4  12  24  44  67  90 129 185 229 283 346 393
#     4  10  22  46  73 100 135 183 225 275 360 410
#     4  12  24  42  65  92 133 178 235 275 332 402
#
# _framework density 22.224969999999999
#
# number of rings (size 3 to 8) (size 9 to 14) (size 15 to 20)
#    0.000    0.750    5.000    2.625    1.750    2.000 
#    2.250    0.625    0.000    0.000    0.000    0.000 
#    0.000    0.000    0.000    0.000    0.000    0.000 
#
# Total GULP energy -178723.346081 kJ/mol
# GULP energy per Si atom -5585.104565 kJ/mol
# Density = 2.217439 g / cm^3
# Si number density = 22.224970 Si / 1000 Ang^3
#
#
#
# Elastic Constant Matrix: (Units=GPa)
#
#
# Indices 1 2 3 4 5 6 
#
# 1 76.8759 12.5082 10.4624 0.0000 -3.4258 0.0000
# 2 12.5082 64.3696 14.8000 0.0000 -7.6055 0.0000
# 3 10.4624 14.8000 73.4999 0.0000 -15.5175 0.0000
# 4 0.0000 0.0000 0.0000 26.1946 0.0000 -7.6101
# 5 -3.4258 -7.6055 -15.5175 0.0000 50.8542 0.0000
# 6 0.0000 0.0000 0.0000 -7.6101 0.0000 29.1508
#
#
#
# Elastic Compliance Matrix: (Units=1/GPa)
#
#
# Indices 1 2 3 4 5 6 
#
# 1 0.013583 -0.002292 -0.001444 0.000000 0.000132 0.000000
# 2 -0.002292 0.016789 -0.002733 0.000000 0.001523 0.000000
# 3 -0.001444 -0.002733 0.015236 0.000000 0.004143 0.000000
# 4 0.000000 0.000000 0.000000 0.041309 0.000000 0.010784
# 5 0.000132 0.001523 0.004143 0.000000 0.021165 0.000000
# 6 0.000000 0.000000 0.000000 0.010784 0.000000 0.037120
#
#
# Mechanical properties :
#
#
# Convention : Reuss Voigt Hill
#
# Bulk Modulus (GPa) = 30.60905 32.25409 31.43157
# Shear Modulus (GPa) = 29.58061 33.03823 31.30942
#
# Velocity S-wave (km/s) = 3.65219 3.85975 3.75740
# Velocity P-wave (km/s) = 5.62023 5.86580 5.74432
#
# Compressibility (1/GPa) = 0.03267008
#
# Stress axis : x y z
#
# Youngs Moduli (GPa) = 73.61978 59.56320 65.63388
#
# Poissons Ratio (x) = 0.13651 0.09479
# Poissons Ratio (y) = 0.16873 0.17937
# Poissons Ratio (z) = 0.10633 0.16278
#
# Static dielectric constant tensor:
#      x y z
#    x 1.884130 0.000000 -0.041780 
#    y 0.000000 1.799900 0.000000 
#    z -0.041780 0.000000 1.901610 
# 
# From -- ./inp_files/16765.got.cif
#   From: 2010.05.17/outbox.cif.g08.bks.cpg/sg13_9_cif.got.tgz:16765.got - 2010.06.03 16:44:36.
