data_PCOD9233073
_publ_section_title
;
Structure prediction by ZEFSAII (Michael W. Deem and Ramdas Pophale) SiO2 
 PCOD9233073
Probable space group: P 2/C
;
_chemical_formula_sum "Si O2"
_cell_formula_units_Z 24
_cell_length_a 4.962663
_cell_length_b 9.156261
_cell_length_c 24.623551
_cell_angle_alpha 90.000000
_cell_angle_beta 99.356447
_cell_angle_gamma 90.000000
_cell_volume 1103.994759
_symmetry_space_group_name_H-M "P 2/C"
_symmetry_group_IT_number 13
_symmetry_cell_setting 'monoclinic'
loop_
_space_group_symop_operation_xyz
x,y,z
-x,y,1/2-z
-x,-y,-z
x,-y,1/2+z
loop_
_atom_site_type_symbol
_atom_site_label
_atom_site_fract_x
_atom_site_fract_y
_atom_site_fract_z
Si Si1 0.035342 0.145797 0.080370
Si Si2 0.342891 0.108851 0.532112
Si Si3 0.340263 0.634061 0.403830
Si Si4 0.143317 0.530205 0.562789
Si Si5 0.418056 0.792181 0.187945
Si Si6 0.909084 0.994572 0.186344
O O1 0.158365 0.307323 0.087951
O O2 0.865761 0.173612 0.018583
O O3 0.198778 0.996344 0.071003
O O4 0.913737 0.104702 0.135442
O O5 0.566855 0.220007 0.561653
O O6 0.500000 0.000000 0.500000
O O7 0.034395 0.578570 0.403773
O O8 0.463655 0.671578 0.349002
O O9 0.542639 0.512642 0.433641
O O10 0.000000 0.500000 0.500000
O O11 0.500000 0.740466 0.250000
O O12 0.109092 0.855196 0.179127
O O13 0.604599 0.934443 0.182613
O O14 0.000000 0.046978 0.250000
#
# Coordination Sequence:
#
# PCOD9233073 Si02
#       6
#     4   4   4   4   4   4
#     4  11  24  39  60  95 123 165 210 262 317 377
#     4  11  23  37  66  90 122 159 217 263 306 372
#     4  12  24  42  63  91 126 168 211 252 316 386
#     4  12  26  42  60  91 135 172 203 252 330 382
#     4  10  21  40  66  93 122 159 213 265 311 366
#     4  10  21  39  64  93 123 159 208 268 320 366
#
# _framework density 21.739234
#
# number of rings (size 3 to 8) (size 9 to 14) (size 15 to 20)
#    0.000    1.000    3.333    3.500    4.667    0.000 
#    0.000    1.667    0.000    0.000    0.000    0.000 
#    0.000    0.000    0.000    0.000    0.000    0.000 
#
# Total GULP energy -133743.771954 kJ/mol
# GULP energy per Si atom -5572.657165 kJ/mol
# Density = 2.168975 g / cm^3
# Si number density = 21.739234 Si / 1000 Ang^3
#
#
#
# Elastic Constant Matrix: (Units=GPa)
#
#
# Indices 1 2 3 4 5 6 
#
# 1 71.3797 2.0174 2.5837 0.0000 -7.4675 0.0000
# 2 2.0174 75.0460 19.5593 0.0000 -9.4280 0.0000
# 3 2.5837 19.5593 132.6521 0.0000 -21.4573 0.0000
# 4 0.0000 0.0000 0.0000 28.3553 0.0000 -7.9410
# 5 -7.4675 -9.4280 -21.4573 0.0000 28.7524 0.0000
# 6 0.0000 0.0000 0.0000 -7.9410 0.0000 3.1887
#
#
#
# Elastic Compliance Matrix: (Units=1/GPa)
#
#
# Indices 1 2 3 4 5 6 
#
# 1 0.014417 0.000023 0.000367 0.000000 0.004026 0.000000
# 2 0.000023 0.014162 -0.001520 0.000000 0.003515 0.000000
# 3 0.000367 -0.001520 0.008746 0.000000 0.006124 0.000000
# 4 0.000000 0.000000 0.000000 0.116560 0.000000 0.290276
# 5 0.004026 0.003515 0.006124 0.000000 0.041548 0.000000
# 6 0.000000 0.000000 0.000000 0.290276 0.000000 1.036503
#
#
# Mechanical properties :
#
#
# Convention : Reuss Voigt Hill
#
# Bulk Modulus (GPa) = 28.51901 36.37760 32.44831
# Shear Modulus (GPa) = 4.01321 29.05376 16.53348
#
# Velocity S-wave (km/s) = 1.36017 3.65974 2.76077
# Velocity P-wave (km/s) = 3.95145 5.88457 5.01209
#
# Compressibility (1/GPa) = 0.03506433
#
# Stress axis : x y z
#
# Youngs Moduli (GPa) = 69.36348 70.60973 114.33700
#
# Poissons Ratio (x) = -0.00159 -0.04197
# Poissons Ratio (y) = -0.00156 0.17379
# Poissons Ratio (z) = -0.02546 0.10733
#
# Static dielectric constant tensor:
#      x y z
#    x 1.772410 0.000000 -0.001240 
#    y 0.000000 1.736990 0.000000 
#    z -0.001240 0.000000 1.833450 
# 
# From -- ./inp_files/83356.got.cif
#   From: 2010.05.17/outbox.cif.g08.bks.cpg/sg13_42_cif.got.tgz:83356.got - 2010.06.03 16:44:36.
