data_PCOD9233025
_publ_section_title
;
Structure prediction by ZEFSAII (Michael W. Deem and Ramdas Pophale) SiO2 
 PCOD9233025
Probable space group: P 2/C
;
_chemical_formula_sum "Si O2"
_cell_formula_units_Z 32
_cell_length_a 21.411924
_cell_length_b 7.719130
_cell_length_c 29.134924
_cell_angle_alpha 90.000000
_cell_angle_beta 160.794897
_cell_angle_gamma 90.000000
_cell_volume 1584.049782
_symmetry_space_group_name_H-M "P 2/C"
_symmetry_group_IT_number 13
_symmetry_cell_setting 'monoclinic'
loop_
_space_group_symop_operation_xyz
x,y,z
-x,y,1/2-z
-x,-y,-z
x,-y,1/2+z
loop_
_atom_site_type_symbol
_atom_site_label
_atom_site_fract_x
_atom_site_fract_y
_atom_site_fract_z
Si Si1 0.232718 0.441255 0.831800
Si Si2 0.086898 0.128868 0.619275
Si Si3 0.828886 0.784802 0.868204
Si Si4 0.525366 0.948763 0.822463
Si Si5 0.138907 0.187256 0.306417
Si Si6 0.050725 0.852872 0.372751
Si Si7 0.587428 0.460812 0.136654
Si Si8 0.485168 0.202117 0.607735
O O1 0.191493 0.644309 0.813039
O O2 0.055212 0.318218 0.718995
O O3 0.298716 0.437692 0.824505
O O4 0.412030 0.378252 0.986789
O O5 0.004669 0.142118 0.612342
O O6 0.310856 0.145385 0.769174
O O7 0.984327 0.266266 0.514307
O O8 0.058100 0.931994 0.581802
O O9 0.655706 0.860251 0.778932
O O10 0.731318 0.657912 0.764453
O O11 0.500000 0.958119 0.750000
O O12 0.541432 0.134015 0.859365
O O13 0.721889 0.853595 0.972020
O O14 0.327112 0.126747 0.463886
O O15 0.000000 0.251357 0.250000
O O16 0.038378 0.026386 0.211674
O O17 0.488304 0.592405 0.103323
#
# Coordination Sequence:
#
# PCOD9233025 Si02
#       8
#     4   4   4   4   4   4   4   4
#     4  10  24  41  65  99 135 162 221 277 320 387
#     4  10  21  39  62  96 122 167 225 264 313 388
#     4  10  22  39  66  90 127 173 215 271 320 383
#     4  11  23  42  63  93 132 167 217 266 323 398
#     4  11  24  41  63  97 134 167 213 266 327 397
#     4  12  23  41  68  94 128 178 209 267 336 387
#     4  10  21  43  64  96 129 170 215 281 323 377
#     4  10  22  42  64  91 128 165 217 268 321 389
#
# _framework density 20.201387
#
# number of rings (size 3 to 8) (size 9 to 14) (size 15 to 20)
#    0.000    1.500    3.750    0.750    3.500    3.500 
#    0.000    0.625    0.000    0.000    0.000    0.000 
#    0.000    0.000    0.000    0.000    0.000    0.000 
#
# Total GULP energy -178439.407291 kJ/mol
# GULP energy per Si atom -5576.231478 kJ/mol
# Density = 2.015541 g / cm^3
# Si number density = 20.201387 Si / 1000 Ang^3
#
#
#
# Elastic Constant Matrix: (Units=GPa)
#
#
# Indices 1 2 3 4 5 6 
#
# 1 55.0504 2.4301 4.5313 0.0000 4.2379 0.0000
# 2 2.4301 36.9302 2.7017 0.0000 -7.8935 0.0000
# 3 4.5313 2.7017 76.2867 0.0000 17.6492 0.0000
# 4 0.0000 0.0000 0.0000 30.7395 0.0000 -1.9123
# 5 4.2379 -7.8935 17.6492 0.0000 28.8509 0.0000
# 6 0.0000 0.0000 0.0000 -1.9123 0.0000 21.3537
#
#
#
# Elastic Compliance Matrix: (Units=1/GPa)
#
#
# Indices 1 2 3 4 5 6 
#
# 1 0.018506 -0.001838 -0.000337 0.000000 -0.003015 0.000000
# 2 -0.001838 0.029677 -0.003358 0.000000 0.010444 0.000000
# 3 -0.000337 -0.003358 0.015666 0.000000 -0.010453 0.000000
# 4 0.000000 0.000000 0.000000 0.032714 0.000000 0.002930
# 5 -0.003015 0.010444 -0.010453 0.000000 0.044355 0.000000
# 6 0.000000 0.000000 0.000000 0.002930 0.000000 0.047093
#
#
# Mechanical properties :
#
#
# Convention : Reuss Voigt Hill
#
# Bulk Modulus (GPa) = 18.94506 20.84372 19.89439
# Shear Modulus (GPa) = 23.07659 26.76241 24.91950
#
# Velocity S-wave (km/s) = 3.38350 3.64370 3.51601
# Velocity P-wave (km/s) = 4.96614 5.29551 5.13347
#
# Compressibility (1/GPa) = 0.05278422
#
# Stress axis : x y z
#
# Youngs Moduli (GPa) = 54.03617 33.69616 63.83410
#
# Poissons Ratio (x) = 0.06192 0.02149
# Poissons Ratio (y) = 0.09930 0.21436
# Poissons Ratio (z) = 0.01819 0.11315
#
# Static dielectric constant tensor:
#      x y z
#    x 1.693740 0.000000 -0.033500 
#    y 0.000000 1.762770 0.000000 
#    z -0.033500 0.000000 1.785940 
# 
# From -- ./inp_files/93593.got.cif
#   From: 2010.05.17/outbox.cif.g08.bks.cpg/sg13_47_cif.got.tgz:93593.got - 2010.06.03 16:44:36.
