data_PCOD9233699
_publ_section_title
;
Structure prediction by ZEFSAII (Michael W. Deem and Ramdas Pophale) SiO2 
 PCOD9233699
Probable space group: P 2/C
;
_chemical_formula_sum "Si O2"
_cell_formula_units_Z 20
_cell_length_a 8.643785
_cell_length_b 12.444862
_cell_length_c 9.624992
_cell_angle_alpha 90.000000
_cell_angle_beta 83.543323
_cell_angle_gamma 90.000000
_cell_volume 1028.800077
_symmetry_space_group_name_H-M "P 2/C"
_symmetry_group_IT_number 13
_symmetry_cell_setting 'monoclinic'
loop_
_space_group_symop_operation_xyz
x,y,z
-x,y,1/2-z
-x,-y,-z
x,-y,1/2+z
loop_
_atom_site_type_symbol
_atom_site_label
_atom_site_fract_x
_atom_site_fract_y
_atom_site_fract_z
Si Si1 0.703377 0.821700 0.345661
Si Si2 0.181327 0.587524 0.196448
Si Si3 0.108197 0.032360 0.117164
Si Si4 0.341458 0.435581 0.978918
Si Si5 0.373750 0.813268 0.473899
O O1 0.767684 0.703045 0.370522
O O2 0.555218 0.845727 0.459140
O O3 0.660879 0.816543 0.187272
O O4 0.821541 0.918779 0.343884
O O5 0.287547 0.564701 0.322861
O O6 0.000000 0.593941 0.250000
O O7 0.211791 0.494732 0.082672
O O8 0.000000 0.078761 0.250000
O O9 0.249426 0.111437 0.062322
O O10 0.000000 0.000000 0.000000
O O11 0.359838 0.311059 0.018396
O O12 0.500000 0.500000 0.000000
#
# Coordination Sequence:
#
# PCOD9233699 Si02
#       5
#     4   4   4   4   4
#     4  10  21  42  67  91 127 177 220 258 331 406
#     4  11  23  40  67  96 131 176 221 276 336 396
#     4  12  24  43  65  97 133 168 216 274 330 388
#     4  11  22  43  65  98 132 171 221 272 331 397
#     4  10  22  41  68  93 129 174 218 264 329 399
#
# _framework density 19.440121999999999
#
# number of rings (size 3 to 8) (size 9 to 14) (size 15 to 20)
#    0.000    1.200    4.000    2.400    2.800    0.800 
#    3.600    0.000    0.000    0.000    0.000    0.000 
#    0.000    0.000    0.000    0.000    0.000    0.000 
#
# Total GULP energy -111658.523421 kJ/mol
# GULP energy per Si atom -5582.926171 kJ/mol
# Density = 1.939588 g / cm^3
# Si number density = 19.440122 Si / 1000 Ang^3
#
#
#
# Elastic Constant Matrix: (Units=GPa)
#
#
# Indices 1 2 3 4 5 6 
#
# 1 117.4097 51.5346 32.0616 0.0000 -30.0748 0.0000
# 2 51.5346 106.3991 37.8316 0.0000 -9.1112 0.0000
# 3 32.0616 37.8316 62.0919 0.0000 -28.4758 0.0000
# 4 0.0000 0.0000 0.0000 30.6500 0.0000 -4.6256
# 5 -30.0748 -9.1112 -28.4758 0.0000 40.7997 0.0000
# 6 0.0000 0.0000 0.0000 -4.6256 0.0000 32.5840
#
#
#
# Elastic Compliance Matrix: (Units=1/GPa)
#
#
# Indices 1 2 3 4 5 6 
#
# 1 0.013191 -0.005962 0.000985 0.000000 0.009080 0.000000
# 2 -0.005962 0.015055 -0.009660 0.000000 -0.007775 0.000000
# 3 0.000985 -0.009660 0.030630 0.000000 0.019947 0.000000
# 4 0.000000 0.000000 0.000000 0.033341 0.000000 0.004733
# 5 0.009080 -0.007775 0.019947 0.000000 0.043388 0.000000
# 6 0.000000 0.000000 0.000000 0.004733 0.000000 0.031362
#
#
# Mechanical properties :
#
#
# Convention : Reuss Voigt Hill
#
# Bulk Modulus (GPa) = 33.78060 58.75070 46.26565
# Shear Modulus (GPa) = 24.25922 31.77161 28.01541
#
# Velocity S-wave (km/s) = 3.53639 4.04707 3.80032
# Velocity P-wave (km/s) = 5.83859 7.21979 6.56561
#
# Compressibility (1/GPa) = 0.02960279
#
# Stress axis : x y z
#
# Youngs Moduli (GPa) = 75.81107 66.42246 32.64782
#
# Poissons Ratio (x) = 0.39599 -0.03217
# Poissons Ratio (y) = 0.45197 0.31538
# Poissons Ratio (z) = -0.07470 0.64164
#
# Static dielectric constant tensor:
#      x y z
#    x 1.773980 0.000000 0.001400 
#    y 0.000000 1.652470 0.000000 
#    z 0.001400 0.000000 1.681190 
# 
# From -- ./inp_files/11648.got.cif
#   From: 2010.05.17/outbox.cif.g08.bks.cpg/sg13_6_cif.got.tgz:11648.got - 2010.06.03 16:44:36.
