data_PCOD9233273
_publ_section_title
;
Structure prediction by ZEFSAII (Michael W. Deem and Ramdas Pophale) SiO2 
 PCOD9233273
Probable space group: P 2/C
;
_chemical_formula_sum "Si O2"
_cell_formula_units_Z 30
_cell_length_a 13.701182
_cell_length_b 8.549287
_cell_length_c 12.453180
_cell_angle_alpha 90.000000
_cell_angle_beta 90.105561
_cell_angle_gamma 90.000000
_cell_volume 1458.704962
_symmetry_space_group_name_H-M "P 2/C"
_symmetry_group_IT_number 13
_symmetry_cell_setting 'monoclinic'
loop_
_space_group_symop_operation_xyz
x,y,z
-x,y,1/2-z
-x,-y,-z
x,-y,1/2+z
loop_
_atom_site_type_symbol
_atom_site_label
_atom_site_fract_x
_atom_site_fract_y
_atom_site_fract_z
Si Si1 0.072781 0.767997 0.051052
Si Si2 0.462466 0.248810 0.497427
Si Si3 0.064585 0.111200 0.139775
Si Si4 0.729009 0.252014 0.307510
Si Si5 0.436277 0.982295 0.657156
Si Si6 0.184396 0.426611 0.379726
Si Si7 0.347425 0.573447 0.488922
Si Si8 0.000000 0.559731 0.250000
O O1 0.038097 0.662531 0.150286
O O2 0.094299 0.937006 0.102092
O O3 0.152974 0.671082 0.984585
O O4 0.994014 0.807389 0.957582
O O5 0.496251 0.158348 0.390148
O O6 0.395097 0.400765 0.487733
O O7 0.565999 0.310186 0.546107
O O8 0.416266 0.112911 0.568710
O O9 0.162955 0.205591 0.156864
O O10 0.000000 0.105211 0.250000
O O11 0.662044 0.099381 0.305645
O O12 0.742522 0.326209 0.192012
O O13 0.682782 0.373464 0.391674
O O14 0.500000 0.057879 0.750000
O O15 0.248758 0.573544 0.418892
O O16 0.090283 0.467205 0.305771
#
# Coordination Sequence:
#
# PCOD9233273 Si02
#       8
#     4   4   4   4   4   4   4   2
#     4  11  24  41  66  90 129 178 218 281 331 385
#     4   9  21  42  64  90 131 163 212 278 321 401
#     4  11  22  45  65  93 133 174 229 274 330 391
#     4  11  23  40  64  93 127 173 214 269 324 402
#     4  10  21  40  63  94 127 164 211 265 336 391
#     4  12  23  39  64  95 131 173 216 273 332 396
#     4  10  22  41  64  94 126 172 216 265 340 396
#     4  12  24  42  64  98 136 172 228 276 336 394
#
# _framework density 20.566186999999999
#
# number of rings (size 3 to 8) (size 9 to 14) (size 15 to 20)
#    0.000    1.333    2.000    3.600    1.867    1.067 
#    4.800    1.333    0.000    0.000    0.000    0.000 
#    0.000    0.000    0.000    0.000    0.000    0.000 
#
# Total GULP energy -167450.703764 kJ/mol
# GULP energy per Si atom -5581.690125 kJ/mol
# Density = 2.051938 g / cm^3
# Si number density = 20.566187 Si / 1000 Ang^3
#
#
#
# Elastic Constant Matrix: (Units=GPa)
#
#
# Indices 1 2 3 4 5 6 
#
# 1 63.9273 25.7655 29.2407 0.0000 -2.7445 0.0000
# 2 25.7655 71.1836 32.3624 0.0000 -14.9655 0.0000
# 3 29.2407 32.3624 107.6640 0.0000 -18.0036 0.0000
# 4 0.0000 0.0000 0.0000 35.5412 0.0000 5.0011
# 5 -2.7445 -14.9655 -18.0036 0.0000 28.4050 0.0000
# 6 0.0000 0.0000 0.0000 5.0011 0.0000 27.0169
#
#
#
# Elastic Compliance Matrix: (Units=1/GPa)
#
#
# Indices 1 2 3 4 5 6 
#
# 1 0.019865 -0.006105 -0.004225 0.000000 -0.003975 0.000000
# 2 -0.006105 0.019159 -0.002809 0.000000 0.007724 0.000000
# 3 -0.004225 -0.002809 0.012264 0.000000 0.005885 0.000000
# 4 0.000000 0.000000 0.000000 0.028889 0.000000 -0.005348
# 5 -0.003975 0.007724 0.005885 0.000000 0.042620 0.000000
# 6 0.000000 0.000000 0.000000 -0.005348 0.000000 0.038004
#
#
# Mechanical properties :
#
#
# Convention : Reuss Voigt Hill
#
# Bulk Modulus (GPa) = 39.98458 46.39024 43.18741
# Shear Modulus (GPa) = 25.58636 28.55304 27.06970
#
# Velocity S-wave (km/s) = 3.53100 3.73010 3.63192
# Velocity P-wave (km/s) = 6.00900 6.41537 6.21551
#
# Compressibility (1/GPa) = 0.02500964
#
# Stress axis : x y z
#
# Youngs Moduli (GPa) = 50.33907 52.19457 81.53906
#
# Poissons Ratio (x) = 0.31867 0.34448
# Poissons Ratio (y) = 0.30734 0.22906
# Poissons Ratio (z) = 0.21267 0.14663
#
# Static dielectric constant tensor:
#      x y z
#    x 1.748040 0.000000 0.018140 
#    y 0.000000 1.729390 0.000000 
#    z 0.018140 0.000000 1.732200 
# 
# From -- ./inp_files/36225.got.cif
#   From: 2010.05.17/outbox.cif.g08.bks.cpg/sg13_19_cif.got.tgz:36225.got - 2010.06.03 16:44:36.
