data_PCOD9233729
_publ_section_title
;
Structure prediction by ZEFSAII (Michael W. Deem and Ramdas Pophale) SiO2 
 PCOD9233729
Probable space group: P 2/C
;
_chemical_formula_sum "Si O2"
_cell_formula_units_Z 24
_cell_length_a 5.354482
_cell_length_b 12.052357
_cell_length_c 22.886230
_cell_angle_alpha 90.000000
_cell_angle_beta 127.530107
_cell_angle_gamma 90.000000
_cell_volume 1171.264980
_symmetry_space_group_name_H-M "P 2/C"
_symmetry_group_IT_number 13
_symmetry_cell_setting 'monoclinic'
loop_
_space_group_symop_operation_xyz
x,y,z
-x,y,1/2-z
-x,-y,-z
x,-y,1/2+z
loop_
_atom_site_type_symbol
_atom_site_label
_atom_site_fract_x
_atom_site_fract_y
_atom_site_fract_z
Si Si1 0.652081 0.521149 0.671895
Si Si2 0.296306 0.660372 0.054164
Si Si3 0.000000 0.812973 0.750000
Si Si4 0.500000 0.663956 0.750000
Si Si5 0.664343 0.101473 0.092395
Si Si6 0.235738 0.096315 0.517159
Si Si7 0.576742 0.336537 0.464410
O O1 0.512097 0.405216 0.630364
O O2 0.420761 0.580559 0.685675
O O3 0.639516 0.601503 0.613695
O O4 0.000000 0.512670 0.750000
O O5 0.282988 0.793255 0.060591
O O6 0.442012 0.644565 0.010033
O O7 0.934221 0.622342 0.008567
O O8 0.234910 0.739814 0.743027
O O9 0.188433 0.885022 0.823600
O O10 0.420778 0.204741 0.051013
O O11 0.557286 0.975441 0.066217
O O12 0.866939 0.128948 0.063434
O O13 0.000000 0.000000 0.500000
#
# Coordination Sequence:
#
# PCOD9233729 Si02
#       7
#     4   4   2   2   4   4   4
#     4  12  27  44  67  98 139 175 218 278 338 400
#     4  11  26  43  69  96 134 179 226 265 334 408
#     4  12  26  42  70 102 132 174 222 282 340 396
#     4  12  26  42  66  98 140 168 218 274 352 384
#     4  10  22  40  68  99 133 167 227 278 337 385
#     4  10  21  42  68  95 132 176 220 282 326 386
#     4  11  23  42  68  99 130 172 227 277 328 396
#
# _framework density 20.490666999999998
#
# number of rings (size 3 to 8) (size 9 to 14) (size 15 to 20)
#    0.000    1.000    4.167    1.000   11.667    0.000 
#    1.500    0.000    0.000    0.000    0.000    0.000 
#    0.000    0.000    0.000    0.000    0.000    0.000 
#
# Total GULP energy -133810.324314 kJ/mol
# GULP energy per Si atom -5575.430180 kJ/mol
# Density = 2.044403 g / cm^3
# Si number density = 20.490667 Si / 1000 Ang^3
#
#
#
# Elastic Constant Matrix: (Units=GPa)
#
#
# Indices 1 2 3 4 5 6 
#
# 1 115.0806 31.0361 48.6083 0.0000 -1.9511 0.0000
# 2 31.0361 110.8933 47.5305 0.0000 -2.4537 0.0000
# 3 48.6083 47.5305 129.1472 0.0000 -2.7728 0.0000
# 4 0.0000 0.0000 0.0000 33.5029 0.0000 -7.5350
# 5 -1.9511 -2.4537 -2.7728 0.0000 28.3979 0.0000
# 6 0.0000 0.0000 0.0000 -7.5350 0.0000 22.5491
#
#
#
# Elastic Compliance Matrix: (Units=1/GPa)
#
#
# Indices 1 2 3 4 5 6 
#
# 1 0.010535 -0.001479 -0.003415 0.000000 0.000263 0.000000
# 2 -0.001479 0.010922 -0.003452 0.000000 0.000505 0.000000
# 3 -0.003415 -0.003452 0.010309 0.000000 0.000474 0.000000
# 4 0.000000 0.000000 0.000000 0.032274 0.000000 0.010785
# 5 0.000263 0.000505 0.000474 0.000000 0.035322 0.000000
# 6 0.000000 0.000000 0.000000 0.010785 0.000000 0.047952
#
#
# Mechanical properties :
#
#
# Convention : Reuss Voigt Hill
#
# Bulk Modulus (GPa) = 66.33956 67.71897 67.02927
# Shear Modulus (GPa) = 29.58014 32.08640 30.83327
#
# Velocity S-wave (km/s) = 3.80358 3.96144 3.88332
# Velocity P-wave (km/s) = 7.19274 7.35149 7.27255
#
# Compressibility (1/GPa) = 0.01507396
#
# Stress axis : x y z
#
# Youngs Moduli (GPa) = 94.91743 91.55417 96.99930
#
# Poissons Ratio (x) = 0.13540 0.33129
# Poissons Ratio (y) = 0.14037 0.33488
# Poissons Ratio (z) = 0.32418 0.31608
#
# Static dielectric constant tensor:
#      x y z
#    x 1.873060 0.000000 0.045900 
#    y 0.000000 1.808400 0.000000 
#    z 0.045900 0.000000 1.736600 
# 
# From -- ./inp_files/83774.got.cif
#   From: 2010.05.17/outbox.cif.g08.bks.cpg/sg13_42_cif.got.tgz:83774.got - 2010.06.03 16:44:36.
