data_PCOD9233479
_publ_section_title
;
Structure prediction by ZEFSAII (Michael W. Deem and Ramdas Pophale) SiO2 
 PCOD9233479
Probable space group: P 2/C
;
_chemical_formula_sum "Si O2"
_cell_formula_units_Z 22
_cell_length_a 5.201606
_cell_length_b 11.143668
_cell_length_c 16.679370
_cell_angle_alpha 90.000000
_cell_angle_beta 91.896279
_cell_angle_gamma 90.000000
_cell_volume 966.289725
_symmetry_space_group_name_H-M "P 2/C"
_symmetry_group_IT_number 13
_symmetry_cell_setting 'monoclinic'
loop_
_space_group_symop_operation_xyz
x,y,z
-x,y,1/2-z
-x,-y,-z
x,-y,1/2+z
loop_
_atom_site_type_symbol
_atom_site_label
_atom_site_fract_x
_atom_site_fract_y
_atom_site_fract_z
Si Si1 0.104098 0.558195 0.918424
Si Si2 0.048963 0.805345 0.525579
Si Si3 0.262406 0.032289 0.603231
Si Si4 0.623128 0.773308 0.117740
Si Si5 0.393180 0.543042 0.159353
Si Si6 0.000000 0.154868 0.750000
O O1 0.096948 0.701568 0.929199
O O2 0.883758 0.516242 0.854027
O O3 0.385987 0.515518 0.894818
O O4 0.000000 0.500000 0.000000
O O5 0.235688 0.743219 0.462696
O O6 0.864017 0.889099 0.469759
O O7 0.213132 0.894975 0.582739
O O8 0.547952 0.086371 0.610107
O O9 0.141381 0.072366 0.686173
O O10 0.389970 0.682841 0.131308
O O11 0.806459 0.764933 0.196198
O O12 0.500000 0.533396 0.250000
#
# Coordination Sequence:
#
# PCOD9233479 Si02
#       6
#     4   4   4   4   4   2
#     4  12  25  46  70 102 136 185 233 280 343 415
#     4  10  23  40  67  93 130 174 224 281 331 409
#     4  10  21  41  63  96 129 168 222 278 344 397
#     4  11  22  39  69  94 129 168 230 282 341 391
#     4  12  27  44  70 100 144 180 231 288 350 408
#     4  10  22  38  60 100 122 170 214 278 338 408
#
# _framework density 22.767498
#
# number of rings (size 3 to 8) (size 9 to 14) (size 15 to 20)
#    0.000    1.091    1.818    4.364    7.636    0.000 
#    3.273    0.000    0.000    0.000    0.000    0.000 
#    0.000    0.000    0.000    0.000    0.000    0.000 
#
# Total GULP energy -123139.394438 kJ/mol
# GULP energy per Si atom -5597.245202 kJ/mol
# Density = 2.271568 g / cm^3
# Si number density = 22.767498 Si / 1000 Ang^3
#
#
#
# Elastic Constant Matrix: (Units=GPa)
#
#
# Indices 1 2 3 4 5 6 
#
# 1 62.6559 10.2451 9.8031 0.0000 0.2555 0.0000
# 2 10.2451 120.2517 27.2560 0.0000 -3.9335 0.0000
# 3 9.8031 27.2560 74.7459 0.0000 -3.4675 0.0000
# 4 0.0000 0.0000 0.0000 13.8644 0.0000 1.7628
# 5 0.2555 -3.9335 -3.4675 0.0000 30.4110 0.0000
# 6 0.0000 0.0000 0.0000 1.7628 0.0000 34.1021
#
#
#
# Elastic Compliance Matrix: (Units=1/GPa)
#
#
# Indices 1 2 3 4 5 6 
#
# 1 0.016409 -0.001004 -0.001808 0.000000 -0.000474 0.000000
# 2 -0.001004 0.009146 -0.003165 0.000000 0.000831 0.000000
# 3 -0.001808 -0.003165 0.014830 0.000000 0.001297 0.000000
# 4 0.000000 0.000000 0.000000 0.072605 0.000000 -0.003753
# 5 -0.000474 0.000831 0.001297 0.000000 0.033142 0.000000
# 6 0.000000 0.000000 0.000000 -0.003753 0.000000 0.029518
#
#
# Mechanical properties :
#
#
# Convention : Reuss Voigt Hill
#
# Bulk Modulus (GPa) = 35.17194 39.14021 37.15607
# Shear Modulus (GPa) = 25.37040 29.69878 27.53459
#
# Velocity S-wave (km/s) = 3.34177 3.61562 3.48139
# Velocity P-wave (km/s) = 5.51106 5.88718 5.70222
#
# Compressibility (1/GPa) = 0.02843176
#
# Stress axis : x y z
#
# Youngs Moduli (GPa) = 60.94171 109.33843 67.43073
#
# Poissons Ratio (x) = 0.10974 0.12192
# Poissons Ratio (y) = 0.06117 0.21341
# Poissons Ratio (z) = 0.11019 0.34604
#
# Static dielectric constant tensor:
#      x y z
#    x 1.917280 0.000000 0.010450 
#    y 0.000000 1.845650 0.000000 
#    z 0.010450 0.000000 1.853800 
# 
# From -- ./inp_files/43747.got.cif
#   From: 2010.05.17/outbox.cif.g08.bks.cpg/sg13_22_cif.got.tgz:43747.got - 2010.06.03 16:44:36.
