data_PCOD9233759
_publ_section_title
;
Structure prediction by ZEFSAII (Michael W. Deem and Ramdas Pophale) SiO2 
 PCOD9233759
Probable space group: P 2/C
;
_chemical_formula_sum "Si O2"
_cell_formula_units_Z 20
_cell_length_a 5.120145
_cell_length_b 11.503271
_cell_length_c 16.004075
_cell_angle_alpha 90.000000
_cell_angle_beta 100.496980
_cell_angle_gamma 90.000000
_cell_volume 926.839542
_symmetry_space_group_name_H-M "P 2/C"
_symmetry_group_IT_number 13
_symmetry_cell_setting 'monoclinic'
loop_
_space_group_symop_operation_xyz
x,y,z
-x,y,1/2-z
-x,-y,-z
x,-y,1/2+z
loop_
_atom_site_type_symbol
_atom_site_label
_atom_site_fract_x
_atom_site_fract_y
_atom_site_fract_z
Si Si1 0.143688 0.624049 0.011822
Si Si2 0.852921 0.337400 0.329606
Si Si3 0.500000 0.455984 0.750000
Si Si4 0.288414 0.910843 0.303764
Si Si5 0.702826 0.690147 0.108549
Si Si6 0.500000 0.863492 0.750000
O O1 0.988529 0.678197 0.081842
O O2 0.458634 0.636423 0.041280
O O3 0.054081 0.674133 0.917487
O O4 0.000000 0.500000 0.000000
O O5 0.674707 0.455062 0.317269
O O6 0.675139 0.222506 0.315250
O O7 0.000000 0.342671 0.250000
O O8 0.327389 0.377586 0.804262
O O9 0.500000 0.864535 0.250000
O O10 0.335661 0.828916 0.384859
O O11 0.000000 0.889373 0.250000
O O12 0.341942 0.048828 0.302582
#
# Coordination Sequence:
#
# PCOD9233759 Si02
#       6
#     4   4   2   4   4   2
#     4  12  26  43  64 102 148 172 218 279 333 400
#     4  11  24  42  68  94 133 186 228 265 340 407
#     4  11  23  38  68  98 131 183 224 260 336 417
#     4  10  21  42  70  95 127 170 226 281 326 391
#     4  12  25  42  68 103 135 177 218 277 338 396
#     4   9  23  42  72  94 125 179 232 288 320 405
#
# _framework density 21.578707000000001
#
# number of rings (size 3 to 8) (size 9 to 14) (size 15 to 20)
#    0.600    0.400    3.000    3.600    5.600    0.000 
#    0.000    2.000    0.000    0.000    0.000    0.000 
#    0.000    0.000    0.000    0.000    0.000    0.000 
#
# Total GULP energy -111565.734017 kJ/mol
# GULP energy per Si atom -5578.286701 kJ/mol
# Density = 2.152959 g / cm^3
# Si number density = 21.578707 Si / 1000 Ang^3
#
#
#
# Elastic Constant Matrix: (Units=GPa)
#
#
# Indices 1 2 3 4 5 6 
#
# 1 77.3433 7.4802 -3.4198 0.0000 2.5558 0.0000
# 2 7.4802 103.0130 21.5254 0.0000 10.0714 0.0000
# 3 -3.4198 21.5254 60.1641 0.0000 3.0787 0.0000
# 4 0.0000 0.0000 0.0000 23.7332 0.0000 -2.9174
# 5 2.5558 10.0714 3.0787 0.0000 43.5903 0.0000
# 6 0.0000 0.0000 0.0000 -2.9174 0.0000 37.4105
#
#
#
# Elastic Compliance Matrix: (Units=1/GPa)
#
#
# Indices 1 2 3 4 5 6 
#
# 1 0.013112 -0.001142 0.001184 0.000000 -0.000589 0.000000
# 2 -0.001142 0.010799 -0.003818 0.000000 -0.002159 0.000000
# 3 0.001184 -0.003818 0.018078 0.000000 -0.000464 0.000000
# 4 0.000000 0.000000 0.000000 0.042543 0.000000 0.003318
# 5 -0.000589 -0.002159 -0.000464 0.000000 0.023507 0.000000
# 6 0.000000 0.000000 0.000000 0.003318 0.000000 0.026989
#
#
# Mechanical properties :
#
#
# Convention : Reuss Voigt Hill
#
# Bulk Modulus (GPa) = 29.03868 32.41023 30.72446
# Shear Modulus (GPa) = 32.45498 35.27578 33.86538
#
# Velocity S-wave (km/s) = 3.88239 4.04759 3.96585
# Velocity P-wave (km/s) = 5.79513 6.07422 5.93632
#
# Compressibility (1/GPa) = 0.03443682
#
# Stress axis : x y z
#
# Youngs Moduli (GPa) = 76.26830 92.59844 55.31490
#
# Poissons Ratio (x) = 0.10574 -0.06549
# Poissons Ratio (y) = 0.08709 0.21120
# Poissons Ratio (z) = -0.09030 0.35356
#
# Static dielectric constant tensor:
#      x y z
#    x 1.816980 0.000000 -0.041580 
#    y 0.000000 1.852320 0.000000 
#    z -0.041580 0.000000 1.860050 
# 
# From -- ./inp_files/43464.got.cif
#   From: 2010.05.17/outbox.cif.g08.bks.cpg/sg13_22_cif.got.tgz:43464.got - 2010.06.03 16:44:36.
