data_PCOD9233241
_publ_section_title
;
Structure prediction by ZEFSAII (Michael W. Deem and Ramdas Pophale) SiO2 
 PCOD9233241
Probable space group: P 2/C
;
_chemical_formula_sum "Si O2"
_cell_formula_units_Z 28
_cell_length_a 8.609775
_cell_length_b 6.749175
_cell_length_c 26.732361
_cell_angle_alpha 90.000000
_cell_angle_beta 56.856794
_cell_angle_gamma 90.000000
_cell_volume 1300.661723
_symmetry_space_group_name_H-M "P 2/C"
_symmetry_group_IT_number 13
_symmetry_cell_setting 'monoclinic'
loop_
_space_group_symop_operation_xyz
x,y,z
-x,y,1/2-z
-x,-y,-z
x,-y,1/2+z
loop_
_atom_site_type_symbol
_atom_site_label
_atom_site_fract_x
_atom_site_fract_y
_atom_site_fract_z
Si Si1 0.203753 0.716318 0.823420
Si Si2 0.580327 0.447311 0.394007
Si Si3 0.580925 0.156382 0.306619
Si Si4 0.976925 0.630703 0.314588
Si Si5 0.012915 0.078745 0.891240
Si Si6 0.372091 0.824623 0.389494
Si Si7 0.368247 0.115845 0.485445
O O1 0.268836 0.832783 0.762596
O O2 0.393573 0.726380 0.822000
O O3 0.125785 0.512559 0.815683
O O4 0.053422 0.843907 0.880271
O O5 0.640549 0.275758 0.344563
O O6 0.774401 0.556430 0.368558
O O7 0.443714 0.614541 0.395814
O O8 0.466567 0.324209 0.455277
O O9 0.526760 0.932086 0.328156
O O10 0.000000 0.628519 0.250000
O O11 0.998584 0.841200 0.337425
O O12 0.186208 0.176279 0.889674
O O13 0.830300 0.132484 0.953839
O O14 0.347096 0.979984 0.439580
O O15 0.500000 0.000000 0.500000
#
# Coordination Sequence:
#
# PCOD9233241 Si02
#       7
#     4   4   4   4   4   4   4
#     4  10  21  40  62  86 127 164 204 260 309 374
#     4  11  23  41  64  92 128 162 210 262 317 375
#     4   9  20  39  63  90 119 164 209 252 315 374
#     4  12  25  39  60  96 130 168 210 259 320 380
#     4  11  25  42  64  97 127 166 219 262 316 387
#     4  10  23  42  68  93 124 169 211 266 321 378
#     4  11  24  44  67  94 126 170 215 266 324 382
#
# _framework density 21.527501999999998
#
# number of rings (size 3 to 8) (size 9 to 14) (size 15 to 20)
#    0.000    1.429    1.429    3.000    2.000    5.714 
#    0.000    0.000    0.000    0.000    0.000    0.000 
#    0.000    0.000    0.000    0.000    0.000    0.000 
#
# Total GULP energy -156388.329017 kJ/mol
# GULP energy per Si atom -5585.297465 kJ/mol
# Density = 2.147850 g / cm^3
# Si number density = 21.527502 Si / 1000 Ang^3
#
#
#
# Elastic Constant Matrix: (Units=GPa)
#
#
# Indices 1 2 3 4 5 6 
#
# 1 40.8856 12.2087 1.2625 0.0000 4.1957 0.0000
# 2 12.2087 56.8196 12.1658 0.0000 -1.4329 0.0000
# 3 1.2625 12.1658 71.9290 0.0000 -6.3838 0.0000
# 4 0.0000 0.0000 0.0000 29.0223 0.0000 12.8131
# 5 4.1957 -1.4329 -6.3838 0.0000 26.6350 0.0000
# 6 0.0000 0.0000 0.0000 12.8131 0.0000 29.5553
#
#
#
# Elastic Compliance Matrix: (Units=1/GPa)
#
#
# Indices 1 2 3 4 5 6 
#
# 1 0.026668 -0.005870 0.000127 0.000000 -0.004486 0.000000
# 2 -0.005870 0.019555 -0.003095 0.000000 0.001235 0.000000
# 3 0.000127 -0.003095 0.014720 0.000000 0.003342 0.000000
# 4 0.000000 0.000000 0.000000 0.042612 0.000000 -0.018474
# 5 -0.004486 0.001235 0.003342 0.000000 0.039119 0.000000
# 6 0.000000 0.000000 0.000000 -0.018474 0.000000 0.041844
#
#
# Mechanical properties :
#
#
# Convention : Reuss Voigt Hill
#
# Bulk Modulus (GPa) = 23.11282 24.54537 23.82909
# Shear Modulus (GPa) = 23.08229 26.64234 24.86232
#
# Velocity S-wave (km/s) = 3.27803 3.52176 3.40208
# Velocity P-wave (km/s) = 5.00870 5.28807 5.15028
#
# Compressibility (1/GPa) = 0.04326604
#
# Stress axis : x y z
#
# Youngs Moduli (GPa) = 37.49831 51.13868 67.93300
#
# Poissons Ratio (x) = 0.30020 -0.00860
# Poissons Ratio (y) = 0.22013 0.21024
# Poissons Ratio (z) = -0.00475 0.15826
#
# Static dielectric constant tensor:
#      x y z
#    x 1.792100 0.000000 0.011910 
#    y 0.000000 1.780900 0.000000 
#    z 0.011910 0.000000 1.803210 
# 
# From -- ./inp_files/95585.got.cif
#   From: 2010.05.17/outbox.cif.g08.bks.cpg/sg13_48_cif.got.tgz:95585.got - 2010.06.03 16:44:36.
