data_PCOD9233380
_publ_section_title
;
Structure prediction by ZEFSAII (Michael W. Deem and Ramdas Pophale) SiO2 
 PCOD9233380
Probable space group: P 2/C
;
_chemical_formula_sum "Si O2"
_cell_formula_units_Z 22
_cell_length_a 6.778428
_cell_length_b 7.180804
_cell_length_c 21.420198
_cell_angle_alpha 90.000000
_cell_angle_beta 64.994454
_cell_angle_gamma 90.000000
_cell_volume 944.890859
_symmetry_space_group_name_H-M "P 2/C"
_symmetry_group_IT_number 13
_symmetry_cell_setting 'monoclinic'
loop_
_space_group_symop_operation_xyz
x,y,z
-x,y,1/2-z
-x,-y,-z
x,-y,1/2+z
loop_
_atom_site_type_symbol
_atom_site_label
_atom_site_fract_x
_atom_site_fract_y
_atom_site_fract_z
Si Si1 0.500000 0.291695 0.250000
Si Si2 0.398636 0.403154 0.666869
Si Si3 0.710543 0.547817 0.012823
Si Si4 0.759072 0.029046 0.505661
Si Si5 0.649419 0.948804 0.155580
Si Si6 0.103673 0.733554 0.097108
O O1 0.625247 0.431471 0.280228
O O2 0.646253 0.141837 0.193151
O O3 0.611751 0.455683 0.595892
O O4 0.457900 0.203939 0.690130
O O5 0.200585 0.364735 0.645420
O O6 0.758570 0.757750 0.987924
O O7 0.500000 0.500000 0.000000
O O8 0.895196 0.410566 0.961435
O O9 0.622854 0.995709 0.586295
O O10 0.730658 0.890583 0.452050
O O11 0.000000 0.000000 0.500000
O O12 0.874044 0.835681 0.136919
#
# Coordination Sequence:
#
# PCOD9233380 Si02
#       6
#     2   4   4   4   4   4
#     4  12  24  44  62  82 124 180 226 264 308 362
#     4  10  23  41  63  92 129 168 213 265 317 381
#     4   9  19  35  62  98 128 154 194 256 328 388
#     4   9  19  35  62  98 128 154 194 256 328 388
#     4  10  23  41  63  92 129 168 213 265 317 381
#     4  10  21  40  67  99 128 159 206 266 330 388
#
# _framework density 23.283113
#
# number of rings (size 3 to 8) (size 9 to 14) (size 15 to 20)
#    0.000    2.182    0.000    1.636    0.000   18.909 
#    0.000    5.455    0.000    8.727    0.000    0.000 
#    0.000    0.000    0.000    0.000    0.000    0.000 
#
# Total GULP energy -122805.521864 kJ/mol
# GULP energy per Si atom -5582.069176 kJ/mol
# Density = 2.323012 g / cm^3
# Si number density = 23.283113 Si / 1000 Ang^3
#
#
#
# Elastic Constant Matrix: (Units=GPa)
#
#
# Indices 1 2 3 4 5 6 
#
# 1 88.5890 40.7388 29.6561 0.0000 22.1022 0.0000
# 2 40.7388 189.2025 54.3370 0.0000 20.7582 0.0000
# 3 29.6561 54.3370 74.7769 0.0000 31.9763 0.0000
# 4 0.0000 0.0000 0.0000 65.4515 0.0000 2.4239
# 5 22.1022 20.7582 31.9763 0.0000 27.0529 0.0000
# 6 0.0000 0.0000 0.0000 2.4239 0.0000 30.9578
#
#
#
# Elastic Compliance Matrix: (Units=1/GPa)
#
#
# Indices 1 2 3 4 5 6 
#
# 1 0.014868 -0.002085 0.000261 0.000000 -0.010855 0.000000
# 2 -0.002085 0.006992 -0.005435 0.000000 0.002763 0.000000
# 3 0.000261 -0.005435 0.031396 0.000000 -0.033152 0.000000
# 4 0.000000 0.000000 0.000000 0.015323 0.000000 -0.001200
# 5 -0.010855 0.002763 -0.033152 0.000000 0.082899 0.000000
# 6 0.000000 0.000000 0.000000 -0.001200 0.000000 0.032396
#
#
# Mechanical properties :
#
#
# Convention : Reuss Voigt Hill
#
# Bulk Modulus (GPa) = 25.81576 66.89249 46.35412
# Shear Modulus (GPa) = 23.66233 39.88152 31.77192
#
# Velocity S-wave (km/s) = 3.19138 4.14320 3.69804
# Velocity P-wave (km/s) = 4.96908 7.18892 6.17950
#
# Compressibility (1/GPa) = 0.03873602
#
# Stress axis : x y z
#
# Youngs Moduli (GPa) = 67.25831 143.01658 31.85110
#
# Poissons Ratio (x) = 0.29822 -0.00830
# Poissons Ratio (y) = 0.14025 0.17313
# Poissons Ratio (z) = -0.01752 0.77736
#
# Static dielectric constant tensor:
#      x y z
#    x 1.919110 0.000000 -0.029040 
#    y 0.000000 1.873510 0.000000 
#    z -0.029040 0.000000 1.995790 
# 
# From -- ./inp_files/74468.got.cif
#   From: 2010.05.17/outbox.cif.g08.bks.cpg/sg13_38_cif.got.tgz:74468.got - 2010.06.03 16:44:36.
