data_PCOD9233595
_publ_section_title
;
Structure prediction by ZEFSAII (Michael W. Deem and Ramdas Pophale) SiO2 
 PCOD9233595
Probable space group: P 2/C
;
_chemical_formula_sum "Si O2"
_cell_formula_units_Z 16
_cell_length_a 5.252074
_cell_length_b 8.621874
_cell_length_c 13.399262
_cell_angle_alpha 90.000000
_cell_angle_beta 77.779515
_cell_angle_gamma 90.000000
_cell_volume 593.006132
_symmetry_space_group_name_H-M "P 2/C"
_symmetry_group_IT_number 13
_symmetry_cell_setting 'monoclinic'
loop_
_space_group_symop_operation_xyz
x,y,z
-x,y,1/2-z
-x,-y,-z
x,-y,1/2+z
loop_
_atom_site_type_symbol
_atom_site_label
_atom_site_fract_x
_atom_site_fract_y
_atom_site_fract_z
Si Si1 0.259711 0.130306 0.221334
Si Si2 0.253318 0.450970 0.335924
Si Si3 0.349618 0.837968 0.489603
Si Si4 0.149347 0.675657 0.060710
O O1 0.500000 0.042405 0.250000
O O2 0.218214 0.276992 0.296926
O O3 0.303393 0.201642 0.109568
O O4 0.000000 0.031169 0.250000
O O5 0.500000 0.506047 0.250000
O O6 0.005144 0.562512 0.354093
O O7 0.256814 0.421288 0.455635
O O8 0.071641 0.802134 0.459353
O O9 0.584721 0.745647 0.418881
O O10 0.500000 0.000000 0.500000
#
# Coordination Sequence:
#
# PCOD9233595 Si02
#       4
#     4   4   4   4
#     4  11  20  39  64  94 121 174 217 258 327 388
#     4  10  21  41  69  97 132 163 218 275 333 389
#     4  12  24  44  65  96 135 178 222 262 317 401
#     4  11  24  40  68 102 126 171 220 272 329 380
#
# _framework density 26.981172999999998
#
# number of rings (size 3 to 8) (size 9 to 14) (size 15 to 20)
#    0.000    1.000    7.500    0.750    0.000    8.000 
#    0.000    3.750    0.000    0.000    0.000    0.000 
#    0.000    0.000    0.000    0.000    0.000    0.000 
#
# Total GULP energy -89285.455686 kJ/mol
# GULP energy per Si atom -5580.340980 kJ/mol
# Density = 2.691976 g / cm^3
# Si number density = 26.981173 Si / 1000 Ang^3
#
#
#
# Elastic Constant Matrix: (Units=GPa)
#
#
# Indices 1 2 3 4 5 6 
#
# 1 208.7280 16.0352 42.2755 0.0000 -44.5251 0.0000
# 2 16.0352 62.2129 34.0290 0.0000 -21.6163 0.0000
# 3 42.2755 34.0290 141.4135 0.0000 -34.5836 0.0000
# 4 0.0000 0.0000 0.0000 14.1947 0.0000 -6.3748
# 5 -44.5251 -21.6163 -34.5836 0.0000 62.7807 0.0000
# 6 0.0000 0.0000 0.0000 -6.3748 0.0000 24.1328
#
#
#
# Elastic Compliance Matrix: (Units=1/GPa)
#
#
# Indices 1 2 3 4 5 6 
#
# 1 0.005732 0.000283 -0.000883 0.000000 0.003677 0.000000
# 2 0.000283 0.019710 -0.003604 0.000000 0.005002 0.000000
# 3 -0.000883 -0.003604 0.008952 0.000000 0.003064 0.000000
# 4 0.000000 0.000000 0.000000 0.079931 0.000000 0.021114
# 5 0.003677 0.005002 0.003064 0.000000 0.021946 0.000000
# 6 0.000000 0.000000 0.000000 0.021114 0.000000 0.047015
#
#
# Mechanical properties :
#
#
# Convention : Reuss Voigt Hill
#
# Bulk Modulus (GPa) = 38.48196 66.33709 52.40952
# Shear Modulus (GPa) = 24.95545 41.55595 33.25570
#
# Velocity S-wave (km/s) = 3.04455 3.92877 3.51458
# Velocity P-wave (km/s) = 5.16261 6.72459 5.99469
#
# Compressibility (1/GPa) = 0.02598620
#
# Stress axis : x y z
#
# Youngs Moduli (GPa) = 174.45231 50.73494 111.70617
#
# Poissons Ratio (x) = -0.01434 0.09859
# Poissons Ratio (y) = -0.04932 0.40263
# Poissons Ratio (z) = 0.15396 0.18287
#
# Static dielectric constant tensor:
#      x y z
#    x 2.462440 0.000000 -0.085730 
#    y 0.000000 2.215680 0.000000 
#    z -0.085730 0.000000 2.293570 
# 
# From -- ./inp_files/43215.got.cif
#   From: 2010.05.17/outbox.cif.g08.bks.cpg/sg13_22_cif.got.tgz:43215.got - 2010.06.03 16:44:36.
