data_PCOD9233340
_publ_section_title
;
Structure prediction by ZEFSAII (Michael W. Deem and Ramdas Pophale) SiO2 
 PCOD9233340
Probable space group: P 2/C
;
_chemical_formula_sum "Si O2"
_cell_formula_units_Z 24
_cell_length_a 16.423479
_cell_length_b 6.480927
_cell_length_c 22.645923
_cell_angle_alpha 90.000000
_cell_angle_beta 30.096608
_cell_angle_gamma 90.000000
_cell_volume 1208.726919
_symmetry_space_group_name_H-M "P 2/C"
_symmetry_group_IT_number 13
_symmetry_cell_setting 'monoclinic'
loop_
_space_group_symop_operation_xyz
x,y,z
-x,y,1/2-z
-x,-y,-z
x,-y,1/2+z
loop_
_atom_site_type_symbol
_atom_site_label
_atom_site_fract_x
_atom_site_fract_y
_atom_site_fract_z
Si Si1 0.607132 0.922353 0.806075
Si Si2 0.408828 0.572969 0.866064
Si Si3 0.255913 0.403923 0.188994
Si Si4 0.877743 0.189527 0.578335
Si Si5 0.943777 0.516022 0.440953
Si Si6 0.544167 0.701949 0.049081
O O1 0.509865 0.769482 0.824958
O O2 0.715864 0.777074 0.780175
O O3 0.710488 0.088693 0.704428
O O4 0.488660 0.057691 0.920780
O O5 0.500000 0.496484 0.750000
O O6 0.411669 0.406746 0.916889
O O7 0.222177 0.629929 0.970915
O O8 0.378339 0.589295 0.130988
O O9 0.067772 0.464612 0.310787
O O10 0.319424 0.335157 0.085552
O O11 0.882174 0.312035 0.514139
O O12 0.945932 0.351602 0.583393
O O13 0.000000 0.000000 0.500000
#
# Coordination Sequence:
#
# PCOD9233340 Si02
#       6
#     4   4   4   4   4   4
#     4  11  21  40  64  93 125 166 212 257 311 381
#     4  11  25  40  60  91 130 165 204 259 328 370
#     4  10  21  40  66  92 120 165 217 253 308 372
#     4  11  21  37  65  94 124 164 215 255 308 375
#     4  11  23  39  64  93 129 166 206 266 313 368
#     4  10  22  41  64  89 126 167 205 259 310 378
#
# _framework density 19.855602000000001
#
# number of rings (size 3 to 8) (size 9 to 14) (size 15 to 20)
#    0.000    1.333    3.333    2.500    4.667    4.000 
#    0.000    0.000    0.000    0.000    0.000    0.000 
#    0.000    0.000    0.000    0.000    0.000    0.000 
#
# Total GULP energy -134088.589985 kJ/mol
# GULP energy per Si atom -5587.024583 kJ/mol
# Density = 1.981041 g / cm^3
# Si number density = 19.855602 Si / 1000 Ang^3
#
#
#
# Elastic Constant Matrix: (Units=GPa)
#
#
# Indices 1 2 3 4 5 6 
#
# 1 52.9431 3.6258 43.2923 0.0000 2.9677 0.0000
# 2 3.6258 59.1743 13.7376 0.0000 4.6834 0.0000
# 3 43.2923 13.7376 160.3018 0.0000 3.7896 0.0000
# 4 0.0000 0.0000 0.0000 36.8906 0.0000 -0.0468
# 5 2.9677 4.6834 3.7896 0.0000 25.6822 0.0000
# 6 0.0000 0.0000 0.0000 -0.0468 0.0000 7.8670
#
#
#
# Elastic Compliance Matrix: (Units=1/GPa)
#
#
# Indices 1 2 3 4 5 6 
#
# 1 0.024331 0.000177 -0.006542 0.000000 -0.001878 0.000000
# 2 0.000177 0.017467 -0.001474 0.000000 -0.002988 0.000000
# 3 -0.006542 -0.001474 0.008135 0.000000 -0.000176 0.000000
# 4 0.000000 0.000000 0.000000 0.027107 0.000000 0.000161
# 5 -0.001878 -0.002988 -0.000176 0.000000 0.039725 0.000000
# 6 0.000000 0.000000 0.000000 0.000161 0.000000 0.127115
#
#
# Mechanical properties :
#
#
# Convention : Reuss Voigt Hill
#
# Bulk Modulus (GPa) = 29.19281 43.74784 36.47032
# Shear Modulus (GPa) = 18.45177 28.20553 23.32865
#
# Velocity S-wave (km/s) = 3.05175 3.77308 3.43142
# Velocity P-wave (km/s) = 5.21076 6.40799 5.84014
#
# Compressibility (1/GPa) = 0.03425501
#
# Stress axis : x y z
#
# Youngs Moduli (GPa) = 41.10054 57.25050 122.91990
#
# Poissons Ratio (x) = -0.01011 0.80409
# Poissons Ratio (y) = -0.00726 0.18118
# Poissons Ratio (z) = 0.26886 0.08438
#
# Static dielectric constant tensor:
#      x y z
#    x 1.713520 0.000000 -0.000490 
#    y 0.000000 1.688180 0.000000 
#    z -0.000490 0.000000 1.731160 
# 
# From -- ./inp_files/77304.got.cif
#   From: 2010.05.17/outbox.cif.g08.bks.cpg/sg13_39_cif.got.tgz:77304.got - 2010.06.03 16:44:36.
