data_PCOD9233085
_publ_section_title
;
Structure prediction by ZEFSAII (Michael W. Deem and Ramdas Pophale) SiO2 
 PCOD9233085
Probable space group: P 2/C
;
_chemical_formula_sum "Si O2"
_cell_formula_units_Z 26
_cell_length_a 12.711983
_cell_length_b 8.546166
_cell_length_c 26.026414
_cell_angle_alpha 90.000000
_cell_angle_beta 155.427093
_cell_angle_gamma 90.000000
_cell_volume 1175.808256
_symmetry_space_group_name_H-M "P 2/C"
_symmetry_group_IT_number 13
_symmetry_cell_setting 'monoclinic'
loop_
_space_group_symop_operation_xyz
x,y,z
-x,y,1/2-z
-x,-y,-z
x,-y,1/2+z
loop_
_atom_site_type_symbol
_atom_site_label
_atom_site_fract_x
_atom_site_fract_y
_atom_site_fract_z
Si Si1 0.424367 0.374332 0.008886
Si Si2 0.596873 0.948268 0.598387
Si Si3 0.547619 0.583108 0.387205
Si Si4 0.088914 0.775195 0.219046
Si Si5 0.196386 0.891469 0.155081
Si Si6 0.295170 0.070472 0.559957
Si Si7 0.500000 0.622596 0.250000
O O1 0.174881 0.285928 0.877982
O O2 0.500000 0.500000 0.000000
O O3 0.631464 0.238646 0.111191
O O4 0.345356 0.451792 0.028106
O O5 0.500000 0.000000 0.500000
O O6 0.819781 0.063829 0.714526
O O7 0.387965 0.984968 0.549326
O O8 0.299733 0.638643 0.309513
O O9 0.703317 0.744967 0.452489
O O10 0.504674 0.538886 0.307851
O O11 0.085021 0.816552 0.157239
O O12 0.528274 0.957778 0.203787
O O13 0.261952 0.743467 0.148213
O O14 0.978386 0.012546 0.044042
#
# Coordination Sequence:
#
# PCOD9233085 Si02
#       7
#     4   4   4   4   4   4   2
#     4  12  23  41  67 101 138 172 227 293 364 424
#     4  10  21  39  65  88 128 179 226 273 345 423
#     4   9  21  39  63  94 139 175 223 288 358 413
#     4   9  21  43  59  92 133 174 227 283 338 427
#     4   9  17  35  64  90 131 176 235 289 332 412
#     4   9  18  37  60  93 133 182 229 287 340 414
#     4   8  18  38  66  98 132 192 228 292 354 422
#
# _framework density 22.112449000000002
#
# number of rings (size 3 to 8) (size 9 to 14) (size 15 to 20)
#    0.000    3.077    1.538    1.846    0.000    4.923 
#    5.538    4.615    0.000   14.769    0.000    0.000 
#    0.000    0.000    0.000    0.000    0.000    0.000 
#
# Total GULP energy -144845.541812 kJ/mol
# GULP energy per Si atom -5570.982377 kJ/mol
# Density = 2.206212 g / cm^3
# Si number density = 22.112449 Si / 1000 Ang^3
#
#
#
# Elastic Constant Matrix: (Units=GPa)
#
#
# Indices 1 2 3 4 5 6 
#
# 1 113.2228 47.0069 50.3273 0.0000 -34.4279 0.0000
# 2 47.0069 101.4366 51.6578 0.0000 -9.2825 0.0000
# 3 50.3273 51.6578 85.5775 0.0000 11.2654 0.0000
# 4 0.0000 0.0000 0.0000 35.6892 0.0000 0.1951
# 5 -34.4279 -9.2825 11.2654 0.0000 41.0514 0.0000
# 6 0.0000 0.0000 0.0000 0.1951 0.0000 25.4251
#
#
#
# Elastic Compliance Matrix: (Units=1/GPa)
#
#
# Indices 1 2 3 4 5 6 
#
# 1 0.024371 0.000022 -0.017676 0.000000 0.025294 0.000000
# 2 0.000022 0.015694 -0.010330 0.000000 0.006402 0.000000
# 3 -0.017676 -0.010330 0.031720 0.000000 -0.025864 0.000000
# 4 0.000000 0.000000 0.000000 0.028021 0.000000 -0.000215
# 5 0.025294 0.006402 -0.025864 0.000000 0.054118 0.000000
# 6 0.000000 0.000000 0.000000 -0.000215 0.000000 0.039333
#
#
# Mechanical properties :
#
#
# Convention : Reuss Voigt Hill
#
# Bulk Modulus (GPa) = 63.21160 66.46899 64.84030
# Shear Modulus (GPa) = 19.64660 30.51613 25.08137
#
# Velocity S-wave (km/s) = 2.98398 3.71892 3.37154
# Velocity P-wave (km/s) = 6.36559 6.96888 6.67405
#
# Compressibility (1/GPa) = 0.01581988
#
# Stress axis : x y z
#
# Youngs Moduli (GPa) = 41.03249 63.71695 31.52546
#
# Poissons Ratio (x) = -0.00143 0.55723
# Poissons Ratio (y) = -0.00092 0.32565
# Poissons Ratio (z) = 0.72527 0.65818
#
# Static dielectric constant tensor:
#      x y z
#    x 1.903300 0.000000 -0.011910 
#    y 0.000000 1.844000 0.000000 
#    z -0.011910 0.000000 1.940610 
# 
# From -- ./inp_files/52585.got.cif
#   From: 2010.05.17/outbox.cif.g08.bks.cpg/sg13_27_cif.got.tgz:52585.got - 2010.06.03 16:44:36.
