data_PCOD9233642
_publ_section_title
;
Structure prediction by ZEFSAII (Michael W. Deem and Ramdas Pophale) SiO2 
 PCOD9233642
Probable space group: P 2/C
;
_chemical_formula_sum "Si O2"
_cell_formula_units_Z 32
_cell_length_a 12.422781
_cell_length_b 5.332598
_cell_length_c 22.149823
_cell_angle_alpha 90.000000
_cell_angle_beta 112.634724
_cell_angle_gamma 90.000000
_cell_volume 1354.312486
_symmetry_space_group_name_H-M "P 2/C"
_symmetry_group_IT_number 13
_symmetry_cell_setting 'monoclinic'
loop_
_space_group_symop_operation_xyz
x,y,z
-x,y,1/2-z
-x,-y,-z
x,-y,1/2+z
loop_
_atom_site_type_symbol
_atom_site_label
_atom_site_fract_x
_atom_site_fract_y
_atom_site_fract_z
Si Si1 0.657095 0.460052 0.609521
Si Si2 0.868351 0.433581 0.988057
Si Si3 0.879812 0.857318 0.205859
Si Si4 0.276111 0.885171 0.732221
Si Si5 0.391666 0.135252 0.007942
Si Si6 0.189305 0.831458 0.907668
Si Si7 0.259780 0.069594 0.085345
Si Si8 0.411114 0.384873 0.784532
O O1 0.618622 0.389707 0.533388
O O2 0.710960 0.733465 0.616345
O O3 0.557786 0.426511 0.638130
O O4 0.769257 0.302227 0.657737
O O5 0.797891 0.675167 0.951695
O O6 0.813837 0.184038 0.945230
O O7 0.859160 0.377967 0.057891
O O8 0.000000 0.500000 0.000000
O O9 0.904909 0.035137 0.153705
O O10 0.000000 0.722629 0.250000
O O11 0.833483 0.020680 0.252064
O O12 0.372254 0.096782 0.769725
O O13 0.263643 0.911073 0.657924
O O14 0.311653 0.598588 0.753729
O O15 0.266313 0.013958 0.964736
O O16 0.386012 0.088948 0.078483
O O17 0.500000 0.000000 0.000000
O O18 0.500000 0.437734 0.750000
#
# Coordination Sequence:
#
# PCOD9233642 Si02
#       8
#     4   4   4   4   4   4   4   4
#     4  10  21  42  62  92 128 161 223 267 308 394
#     4  11  24  42  67  94 129 174 209 263 330 378
#     4  10  23  40  64  92 125 170 211 265 324 371
#     4  11  24  43  62  95 131 162 217 268 315 395
#     4  10  23  40  65  94 127 172 210 266 327 378
#     4  10  21  42  64  90 129 161 219 265 307 391
#     4  11  24  43  62  98 131 162 219 265 317 396
#     4  11  24  42  66  91 127 173 210 264 331 374
#
# _framework density 23.628225
#
# number of rings (size 3 to 8) (size 9 to 14) (size 15 to 20)
#    0.000    1.500    2.500    1.500    3.500    3.000 
#    0.000    0.000    0.000    0.000    0.000    0.000 
#    0.000    0.000    0.000    0.000    0.000    0.000 
#
# Total GULP energy -178461.876315 kJ/mol
# GULP energy per Si atom -5576.933635 kJ/mol
# Density = 2.357445 g / cm^3
# Si number density = 23.628225 Si / 1000 Ang^3
#
#
#
# Elastic Constant Matrix: (Units=GPa)
#
#
# Indices 1 2 3 4 5 6 
#
# 1 79.2392 8.2868 26.5547 0.0000 -9.0013 0.0000
# 2 8.2868 99.4285 29.7239 0.0000 3.0748 0.0000
# 3 26.5547 29.7239 87.6955 0.0000 -28.5034 0.0000
# 4 0.0000 0.0000 0.0000 39.5043 0.0000 -0.9947
# 5 -9.0013 3.0748 -28.5034 0.0000 35.6391 0.0000
# 6 0.0000 0.0000 0.0000 -0.9947 0.0000 20.3229
#
#
#
# Elastic Compliance Matrix: (Units=1/GPa)
#
#
# Indices 1 2 3 4 5 6 
#
# 1 0.014047 0.000090 -0.004234 0.000000 0.000154 0.000000
# 2 0.000090 0.012019 -0.005987 0.000000 -0.005803 0.000000
# 3 -0.004234 -0.005987 0.019640 0.000000 0.015155 0.000000
# 4 0.000000 0.000000 0.000000 0.025345 0.000000 0.001241
# 5 0.000154 -0.005803 0.015155 0.000000 0.040719 0.000000
# 6 0.000000 0.000000 0.000000 0.001241 0.000000 0.049266
#
#
# Mechanical properties :
#
#
# Convention : Reuss Voigt Hill
#
# Bulk Modulus (GPa) = 39.30128 43.94375 41.62252
# Shear Modulus (GPa) = 26.34621 32.54646 29.44633
#
# Velocity S-wave (km/s) = 3.34283 3.71541 3.53404
# Velocity P-wave (km/s) = 5.61860 6.08639 5.85716
#
# Compressibility (1/GPa) = 0.02544446
#
# Stress axis : x y z
#
# Youngs Moduli (GPa) = 71.18965 83.19986 50.91551
#
# Poissons Ratio (x) = -0.00751 0.21559
# Poissons Ratio (y) = -0.00643 0.30484
# Poissons Ratio (z) = 0.30143 0.49813
#
# Static dielectric constant tensor:
#      x y z
#    x 1.978980 0.000000 -0.040220 
#    y 0.000000 1.943570 0.000000 
#    z -0.040220 0.000000 2.021930 
# 
# From -- ./inp_files/86008.got.cif
#   From: 2010.05.17/outbox.cif.g08.bks.cpg/sg13_44_cif.got.tgz:86008.got - 2010.06.03 16:44:36.
