data_PCOD9233570
_publ_section_title
;
Structure prediction by ZEFSAII (Michael W. Deem and Ramdas Pophale) SiO2 
 PCOD9233570
Probable space group: P 2/C
;
_chemical_formula_sum "Si O2"
_cell_formula_units_Z 20
_cell_length_a 26.693648
_cell_length_b 6.327354
_cell_length_c 12.258557
_cell_angle_alpha 90.000000
_cell_angle_beta 154.298766
_cell_angle_gamma 90.000000
_cell_volume 897.919279
_symmetry_space_group_name_H-M "P 2/C"
_symmetry_group_IT_number 13
_symmetry_cell_setting 'monoclinic'
loop_
_space_group_symop_operation_xyz
x,y,z
-x,y,1/2-z
-x,-y,-z
x,-y,1/2+z
loop_
_atom_site_type_symbol
_atom_site_label
_atom_site_fract_x
_atom_site_fract_y
_atom_site_fract_z
Si Si1 0.806180 0.585260 0.909060
Si Si2 0.500000 0.237446 0.250000
Si Si3 0.105234 0.023688 0.789328
Si Si4 0.332252 0.217903 0.734549
Si Si5 0.000000 0.302448 0.250000
Si Si6 0.400832 0.346589 0.636285
O O1 0.729919 0.428017 0.836061
O O2 0.719893 0.703935 0.658618
O O3 0.896110 0.455493 0.010664
O O4 0.877225 0.746338 0.123891
O O5 0.585012 0.136764 0.505901
O O6 0.579204 0.399496 0.333454
O O7 0.066145 0.852722 0.800661
O O8 0.232215 0.945072 0.003541
O O9 0.000000 0.000000 0.500000
O O10 0.402244 0.274486 0.762960
O O11 0.500000 0.264489 0.750000
#
# Coordination Sequence:
#
# PCOD9233570 Si02
#       6
#     4   2   4   4   2   4
#     4  10  23  41  66  98 134 175 221 274 334 403
#     4   8  18  38  64  96 130 172 226 268 326 404
#     4  11  26  42  65 104 133 176 225 274 332 404
#     4  10  21  41  67  97 134 180 218 277 342 389
#     4  10  24  42  68  94 134 182 216 278 330 396
#     4   9  20  38  70  94 127 178 220 270 332 401
#
# _framework density 22.273717999999999
#
# number of rings (size 3 to 8) (size 9 to 14) (size 15 to 20)
#    0.600    1.600    0.000    1.200    8.400    1.600 
#    1.800    1.000    0.000    0.000    0.000    0.000 
#    0.000    0.000    0.000    0.000    0.000    0.000 
#
# Total GULP energy -111480.632805 kJ/mol
# GULP energy per Si atom -5574.031640 kJ/mol
# Density = 2.222302 g / cm^3
# Si number density = 22.273718 Si / 1000 Ang^3
#
#
#
# Elastic Constant Matrix: (Units=GPa)
#
#
# Indices 1 2 3 4 5 6 
#
# 1 93.0491 8.3090 11.6393 0.0000 14.5777 0.0000
# 2 8.3090 59.1034 28.0470 0.0000 -1.6784 0.0000
# 3 11.6393 28.0470 132.9463 0.0000 -3.4656 0.0000
# 4 0.0000 0.0000 0.0000 29.3158 0.0000 10.8835
# 5 14.5777 -1.6784 -3.4656 0.0000 24.8637 0.0000
# 6 0.0000 0.0000 0.0000 10.8835 0.0000 -2.0313
#
#
#
# Elastic Compliance Matrix: (Units=1/GPa)
#
#
# Indices 1 2 3 4 5 6 
#
# 1 0.012148 -0.001468 -0.000946 0.000000 -0.007354 0.000000
# 2 -0.001468 0.018992 -0.003836 0.000000 0.001608 0.000000
# 3 -0.000946 -0.003836 0.008452 0.000000 0.001474 0.000000
# 4 0.000000 0.000000 0.000000 0.011412 0.000000 0.061144
# 5 -0.007354 0.001608 0.001474 0.000000 0.044845 0.000000
# 6 0.000000 0.000000 0.000000 0.061144 0.000000 -0.164696
#
#
# Mechanical properties :
#
#
# Convention : Reuss Voigt Hill
#
# Bulk Modulus (GPa) = 36.90961 42.34327 39.62644
# Shear Modulus (GPa) = -105.67131 26.23655 -39.71738
#
# Velocity S-wave (km/s) = -6.89530 3.43580 -4.22732
# Velocity P-wave (km/s) = 6.84008 5.89842 2.44901
#
# Compressibility (1/GPa) = 0.02709322
#
# Stress axis : x y z
#
# Youngs Moduli (GPa) = 82.31511 52.65380 118.31049
#
# Poissons Ratio (x) = 0.07729 0.11187
# Poissons Ratio (y) = 0.12084 0.45386
# Poissons Ratio (z) = 0.07784 0.20199
#
# Static dielectric constant tensor:
#      x y z
#    x 1.814920 0.000000 0.044100 
#    y 0.000000 2.456740 0.000000 
#    z 0.044100 0.000000 1.855540 
# 
# From -- ./inp_files/42081.got.cif
#   From: 2010.05.17/outbox.cif.g08.bks.cpg/sg13_22_cif.got.tgz:42081.got - 2010.06.03 16:44:36.
