data_PCOD9233842
_publ_section_title
;
Structure prediction by ZEFSAII (Michael W. Deem and Ramdas Pophale) SiO2 
 PCOD9233842
Probable space group: P 2/C
;
_chemical_formula_sum "Si O2"
_cell_formula_units_Z 28
_cell_length_a 9.638940
_cell_length_b 5.360474
_cell_length_c 24.166244
_cell_angle_alpha 90.000000
_cell_angle_beta 118.844288
_cell_angle_gamma 90.000000
_cell_volume 1093.737315
_symmetry_space_group_name_H-M "P 2/C"
_symmetry_group_IT_number 13
_symmetry_cell_setting 'monoclinic'
loop_
_space_group_symop_operation_xyz
x,y,z
-x,y,1/2-z
-x,-y,-z
x,-y,1/2+z
loop_
_atom_site_type_symbol
_atom_site_label
_atom_site_fract_x
_atom_site_fract_y
_atom_site_fract_z
Si Si1 0.688115 0.270864 0.494992
Si Si2 0.000000 0.477559 0.250000
Si Si3 0.663521 0.693764 0.180042
Si Si4 0.644223 0.652144 0.578136
Si Si5 0.500000 0.388505 0.250000
Si Si6 0.070346 0.041575 0.382608
Si Si7 0.931008 0.747341 0.959556
Si Si8 0.781098 0.097847 0.275166
O O1 0.677882 0.536586 0.524203
O O2 0.509382 0.177328 0.456480
O O3 0.751635 0.265248 0.445010
O O4 0.814985 0.128997 0.557961
O O5 0.148120 0.647181 0.296206
O O6 0.097734 0.299855 0.226734
O O7 0.599248 0.573659 0.111122
O O8 0.570713 0.549066 0.212147
O O9 0.674593 0.970941 0.207036
O O10 0.798495 0.804523 0.626407
O O11 0.652665 0.215017 0.291699
O O12 0.981196 0.235431 0.406216
O O13 0.913972 0.911329 0.326502
O O14 0.000000 0.500000 0.000000
O O15 0.000000 0.000000 0.000000
#
# Coordination Sequence:
#
# PCOD9233842 Si02
#       8
#     4   2   4   4   2   4   4   4
#     4  10  24  40  67 107 143 184 238 286 369 450
#     4  10  22  40  66  98 132 168 238 298 350 436
#     4  11  24  43  70  97 140 187 238 302 365 435
#     4  11  23  43  68 102 143 186 231 300 367 444
#     4  10  26  46  62 100 136 180 238 308 366 454
#     4  11  23  42  72 100 142 188 236 305 365 449
#     4  10  21  43  68 102 147 187 245 297 358 445
#     4  11  24  43  69 102 136 182 246 299 375 438
#
# _framework density 25.600294999999999
#
# number of rings (size 3 to 8) (size 9 to 14) (size 15 to 20)
#    0.000    1.429    2.857    1.286    6.000    0.000 
#    0.000    2.857    0.000    0.000    0.000    0.000 
#    0.000    0.000    0.000    0.000    0.000    0.000 
#
# Total GULP energy -156093.109834 kJ/mol
# GULP energy per Si atom -5574.753923 kJ/mol
# Density = 2.554203 g / cm^3
# Si number density = 25.600295 Si / 1000 Ang^3
#
#
#
# Elastic Constant Matrix: (Units=GPa)
#
#
# Indices 1 2 3 4 5 6 
#
# 1 225.3334 39.6355 48.2492 0.0000 11.5604 0.0000
# 2 39.6355 68.2075 9.8016 0.0000 -0.4600 0.0000
# 3 48.2492 9.8016 83.7994 0.0000 5.0004 0.0000
# 4 0.0000 0.0000 0.0000 27.1780 0.0000 -5.2585
# 5 11.5604 -0.4600 5.0004 0.0000 48.0948 0.0000
# 6 0.0000 0.0000 0.0000 -5.2585 0.0000 46.7228
#
#
#
# Elastic Compliance Matrix: (Units=1/GPa)
#
#
# Indices 1 2 3 4 5 6 
#
# 1 0.005601 -0.002856 -0.002826 0.000000 -0.001080 0.000000
# 2 -0.002856 0.016373 -0.000323 0.000000 0.000877 0.000000
# 3 -0.002826 -0.000323 0.013643 0.000000 -0.000742 0.000000
# 4 0.000000 0.000000 0.000000 0.037614 0.000000 0.004233
# 5 -0.001080 0.000877 -0.000742 0.000000 0.021137 0.000000
# 6 0.000000 0.000000 0.000000 0.004233 0.000000 0.021879
#
#
# Mechanical properties :
#
#
# Convention : Reuss Voigt Hill
#
# Bulk Modulus (GPa) = 42.36207 63.63477 52.99842
# Shear Modulus (GPa) = 36.73082 43.04274 39.88678
#
# Velocity S-wave (km/s) = 3.79196 4.10486 3.95151
# Velocity P-wave (km/s) = 5.97958 6.88313 6.44720
#
# Compressibility (1/GPa) = 0.02360602
#
# Stress axis : x y z
#
# Youngs Moduli (GPa) = 178.54742 61.07632 73.29964
#
# Poissons Ratio (x) = 0.17442 0.20717
# Poissons Ratio (y) = 0.50989 0.02368
# Poissons Ratio (z) = 0.50463 0.01974
#
# Static dielectric constant tensor:
#      x y z
#    x 1.990540 0.000000 -0.015900 
#    y 0.000000 2.144690 0.000000 
#    z -0.015900 0.000000 2.309090 
# 
# From -- ./inp_files/95528.got.cif
#   From: 2010.05.17/outbox.cif.g08.bks.cpg/sg13_48_cif.got.tgz:95528.got - 2010.06.03 16:44:36.
