data_PCOD9233538
_publ_section_title
;
Structure prediction by ZEFSAII (Michael W. Deem and Ramdas Pophale) SiO2 
 PCOD9233538
Probable space group: P 2/C
;
_chemical_formula_sum "Si O2"
_cell_formula_units_Z 18
_cell_length_a 5.752985
_cell_length_b 9.216496
_cell_length_c 20.242859
_cell_angle_alpha 90.000000
_cell_angle_beta 128.538235
_cell_angle_gamma 90.000000
_cell_volume 839.546224
_symmetry_space_group_name_H-M "P 2/C"
_symmetry_group_IT_number 13
_symmetry_cell_setting 'monoclinic'
loop_
_space_group_symop_operation_xyz
x,y,z
-x,y,1/2-z
-x,-y,-z
x,-y,1/2+z
loop_
_atom_site_type_symbol
_atom_site_label
_atom_site_fract_x
_atom_site_fract_y
_atom_site_fract_z
Si Si1 0.000000 0.364372 0.250000
Si Si2 0.293437 0.902421 0.045799
Si Si3 0.386957 0.826279 0.910498
Si Si4 0.025669 0.642061 0.459508
Si Si5 0.185944 0.639001 0.222004
O O1 0.863088 0.263672 0.170119
O O2 0.762021 0.477668 0.238299
O O3 0.245787 0.753084 0.075087
O O4 0.549922 0.015877 0.110501
O O5 0.318670 0.860391 0.974040
O O6 0.000000 0.000000 0.000000
O O7 0.681092 0.727004 0.965149
O O8 0.000000 0.500000 0.500000
O O9 0.022156 0.619156 0.379810
O O10 0.500000 0.697188 0.250000
O O11 0.000000 0.711785 0.250000
#
# Coordination Sequence:
#
# PCOD9233538 Si02
#       5
#     2   4   4   4   4
#     4  10  22  38  66  96 134 170 230 280 342 402
#     4   9  21  40  62  90 126 172 226 273 334 415
#     4  10  21  41  66  93 131 178 226 281 342 412
#     4  11  22  38  70  97 133 179 228 282 351 410
#     4  10  24  41  61 102 141 171 225 291 341 411
#
# _framework density 21.440155000000001
#
# number of rings (size 3 to 8) (size 9 to 14) (size 15 to 20)
#    0.667    1.333    0.000    2.667    3.111    3.556 
#    0.000    6.667    0.000    0.000    0.000    0.000 
#    0.000    0.000    0.000    0.000    0.000    0.000 
#
# Total GULP energy -100316.930426 kJ/mol
# GULP energy per Si atom -5573.162801 kJ/mol
# Density = 2.139136 g / cm^3
# Si number density = 21.440155 Si / 1000 Ang^3
#
#
#
# Elastic Constant Matrix: (Units=GPa)
#
#
# Indices 1 2 3 4 5 6 
#
# 1 110.4118 37.7891 10.3150 0.0000 -13.1423 0.0000
# 2 37.7891 102.8480 12.3935 0.0000 -18.8272 0.0000
# 3 10.3150 12.3935 55.9447 0.0000 -12.9225 0.0000
# 4 0.0000 0.0000 0.0000 25.2241 0.0000 -15.3984
# 5 -13.1423 -18.8272 -12.9225 0.0000 26.3802 0.0000
# 6 0.0000 0.0000 0.0000 -15.3984 0.0000 27.2706
#
#
#
# Elastic Compliance Matrix: (Units=1/GPa)
#
#
# Indices 1 2 3 4 5 6 
#
# 1 0.010563 -0.003335 -0.000612 0.000000 0.002583 0.000000
# 2 -0.003335 0.012262 -0.000523 0.000000 0.006834 0.000000
# 3 -0.000612 -0.000523 0.020237 0.000000 0.009235 0.000000
# 4 0.000000 0.000000 0.000000 0.060498 0.000000 0.034161
# 5 0.002583 0.006834 0.009235 0.000000 0.048595 0.000000
# 6 0.000000 0.000000 0.000000 0.034161 0.000000 0.055959
#
#
# Mechanical properties :
#
#
# Convention : Reuss Voigt Hill
#
# Bulk Modulus (GPa) = 29.30668 43.35553 36.33110
# Shear Modulus (GPa) = 21.88878 29.68876 25.78877
#
# Velocity S-wave (km/s) = 3.19866 3.72523 3.47194
# Velocity P-wave (km/s) = 5.22883 6.22645 5.74932
#
# Compressibility (1/GPa) = 0.03412191
#
# Stress axis : x y z
#
# Youngs Moduli (GPa) = 94.67114 81.55049 49.41524
#
# Poissons Ratio (x) = 0.27193 0.03026
# Poissons Ratio (y) = 0.31569 0.02585
# Poissons Ratio (z) = 0.05797 0.04266
#
# Static dielectric constant tensor:
#      x y z
#    x 1.833310 0.000000 0.001470 
#    y 0.000000 1.811100 0.000000 
#    z 0.001470 0.000000 1.753610 
# 
# From -- ./inp_files/60654.got.cif
#   From: 2010.05.17/outbox.cif.g08.bks.cpg/sg13_31_cif.got.tgz:60654.got - 2010.06.03 16:44:36.
