data_PCOD9233199
_publ_section_title
;
Structure prediction by ZEFSAII (Michael W. Deem and Ramdas Pophale) SiO2 
 PCOD9233199
Probable space group: P 2/C
;
_chemical_formula_sum "Si O2"
_cell_formula_units_Z 22
_cell_length_a 27.262266
_cell_length_b 7.057460
_cell_length_c 5.394107
_cell_angle_alpha 90.000000
_cell_angle_beta 72.075377
_cell_angle_gamma 90.000000
_cell_volume 987.464487
_symmetry_space_group_name_H-M "P 2/C"
_symmetry_group_IT_number 13
_symmetry_cell_setting 'monoclinic'
loop_
_space_group_symop_operation_xyz
x,y,z
-x,y,1/2-z
-x,-y,-z
x,-y,1/2+z
loop_
_atom_site_type_symbol
_atom_site_label
_atom_site_fract_x
_atom_site_fract_y
_atom_site_fract_z
Si Si1 0.141281 0.727379 0.189641
Si Si2 0.500000 0.620771 0.250000
Si Si3 0.977959 0.215463 0.534243
Si Si4 0.818502 0.295253 0.372195
Si Si5 0.599944 0.879893 0.136497
Si Si6 0.284982 0.874523 0.596260
O O1 0.083206 0.765417 0.361874
O O2 0.157663 0.505580 0.135646
O O3 0.176508 0.794161 0.363224
O O4 0.149309 0.802164 0.898870
O O5 0.500000 0.500000 0.500000
O O6 0.551742 0.744712 0.173245
O O7 0.000000 0.301042 0.750000
O O8 0.000000 0.000000 0.500000
O O9 0.000000 0.300170 0.250000
O O10 0.759852 0.279528 0.372465
O O11 0.597000 0.966728 0.417713
O O12 0.657144 0.793030 0.015680
O O13 0.280066 0.022549 0.371936
#
# Coordination Sequence:
#
# PCOD9233199 Si02
#       6
#     4   2   4   4   4   4
#     4  10  21  40  62  85 120 154 197 236 308 392
#     4  12  24  40  60 106 140 178 226 288 338 380
#     4  10  21  40  59  86 116 147 193 247 297 362
#     4  10  21  40  58  90 117 156 197 249 312 372
#     4  10  21  41  68  90 131 183 233 269 330 401
#     4  10  21  40  62  94 122 162 216 267 307 372
#
# _framework density 22.279285999999999
#
# number of rings (size 3 to 8) (size 9 to 14) (size 15 to 20)
#    0.000    1.818    0.000    3.818    0.000    0.000 
#   26.182   10.909    0.000    0.000    0.000    0.000 
#    0.000    0.000    0.000    0.000    0.000    0.000 
#
# Total GULP energy -122840.427078 kJ/mol
# GULP energy per Si atom -5583.655776 kJ/mol
# Density = 2.222858 g / cm^3
# Si number density = 22.279286 Si / 1000 Ang^3
#
#
#
# Elastic Constant Matrix: (Units=GPa)
#
#
# Indices 1 2 3 4 5 6 
#
# 1 146.2534 14.8315 9.0056 0.0000 -21.7126 0.0000
# 2 14.8315 79.0596 -9.8325 0.0000 -17.4968 0.0000
# 3 9.0056 -9.8325 141.4111 0.0000 21.7012 0.0000
# 4 0.0000 0.0000 0.0000 53.8864 0.0000 666.5549
# 5 -21.7126 -17.4968 21.7012 0.0000 56.7495 0.0000
# 6 0.0000 0.0000 0.0000 666.5549 0.0000 7534.2363
#
#
#
# Elastic Compliance Matrix: (Units=1/GPa)
#
#
# Indices 1 2 3 4 5 6 
#
# 1 0.007424 -0.000862 -0.000986 0.000000 0.002951 0.000000
# 2 -0.000862 0.013689 0.000435 0.000000 0.003724 0.000000
# 3 -0.000986 0.000435 0.007651 0.000000 -0.003169 0.000000
# 4 0.000000 0.000000 0.000000 -0.196702 0.000000 0.017402
# 5 0.002951 0.003724 -0.003169 0.000000 0.021110 0.000000
# 6 0.000000 0.000000 0.000000 0.017402 0.000000 -0.001407
#
#
# Mechanical properties :
#
#
# Convention : Reuss Voigt Hill
#
# Bulk Modulus (GPa) = 38.55311 43.85926 41.20619
# Shear Modulus (GPa) = -36.55946 1552.48906 757.96480
#
# Velocity S-wave (km/s) = -4.05527 26.42619 18.46481
# Velocity P-wave (km/s) = 2.14125 30.83591 21.75165
#
# Compressibility (1/GPa) = 0.02593824
#
# Stress axis : x y z
#
# Youngs Moduli (GPa) = 134.70305 73.05274 130.70390
#
# Poissons Ratio (x) = 0.06298 0.12883
# Poissons Ratio (y) = 0.11612 -0.05688
# Poissons Ratio (z) = 0.13277 -0.03179
#
# Static dielectric constant tensor:
#      x y z
#    x 1.817230 0.000000 0.022370 
#    y 0.000000 1.519090 0.000000 
#    z 0.022370 0.000000 1.878490 
# 
# From -- ./inp_files/7327.got.cif
#   From: 2010.05.17/outbox.cif.g08.bks.cpg/sg13_4_cif.got.tgz:7327.got - 2010.06.03 16:44:36.
