data_PCOD9233072
_publ_section_title
;
Structure prediction by ZEFSAII (Michael W. Deem and Ramdas Pophale) SiO2 
 PCOD9233072
Probable space group: P 2/C
;
_chemical_formula_sum "Si O2"
_cell_formula_units_Z 16
_cell_length_a 7.534071
_cell_length_b 19.693728
_cell_length_c 8.007516
_cell_angle_alpha 90.000000
_cell_angle_beta 143.750027
_cell_angle_gamma 90.000000
_cell_volume 702.538526
_symmetry_space_group_name_H-M "P 2/C"
_symmetry_group_IT_number 13
_symmetry_cell_setting 'monoclinic'
loop_
_space_group_symop_operation_xyz
x,y,z
-x,y,1/2-z
-x,-y,-z
x,-y,1/2+z
loop_
_atom_site_type_symbol
_atom_site_label
_atom_site_fract_x
_atom_site_fract_y
_atom_site_fract_z
Si Si1 0.834460 0.290075 0.446551
Si Si2 0.678222 0.817016 0.540192
Si Si3 0.343524 0.933874 0.459076
Si Si4 0.156270 0.434483 0.041950
O O1 0.500000 0.305214 0.250000
O O2 0.789392 0.232781 0.272199
O O3 0.917279 0.362483 0.424086
O O4 0.000000 0.271522 0.750000
O O5 0.426674 0.871113 0.404220
O O6 0.000000 0.853420 0.750000
O O7 0.500000 0.781482 0.250000
O O8 0.000000 0.944654 0.250000
O O9 0.500000 0.000000 0.500000
O O10 0.500000 0.916003 0.750000
O O11 0.500000 0.448907 0.250000
O O12 0.000000 0.420203 0.750000
O O13 0.000000 0.500000 0.000000
#
# Coordination Sequence:
#
# PCOD9233072 Si02
#       4
#     4   4   4   4
#     4  10  22  42  65  93 130 178 223 269 333 401
#     4  12  25  42  66 100 135 172 221 276 329 392
#     4  12  25  45  71  99 134 176 219 270 326 391
#     4  10  21  39  64  92 127 168 219 275 332 394
#
# _framework density 22.774550000000001
#
# number of rings (size 3 to 8) (size 9 to 14) (size 15 to 20)
#    0.000    1.000    0.000    6.750    0.000    3.000 
#    0.000    2.500    0.000    0.000    0.000    0.000 
#    0.000    0.000    0.000    0.000    0.000    0.000 
#
# Total GULP energy -89158.276876 kJ/mol
# GULP energy per Si atom -5572.392305 kJ/mol
# Density = 2.272271 g / cm^3
# Si number density = 22.774550 Si / 1000 Ang^3
#
#
#
# Elastic Constant Matrix: (Units=GPa)
#
#
# Indices 1 2 3 4 5 6 
#
# 1 81.0250 53.4362 34.0736 0.0000 23.9682 0.0000
# 2 53.4362 153.4341 24.9512 0.0000 -1.3586 0.0000
# 3 34.0736 24.9512 143.2643 0.0000 14.3268 0.0000
# 4 0.0000 0.0000 0.0000 17.5606 0.0000 22.0727
# 5 23.9682 -1.3586 14.3268 0.0000 50.9696 0.0000
# 6 0.0000 0.0000 0.0000 22.0727 0.0000 -17.3072
#
#
#
# Elastic Compliance Matrix: (Units=1/GPa)
#
#
# Indices 1 2 3 4 5 6 
#
# 1 0.020754 -0.006849 -0.002829 0.000000 -0.009147 0.000000
# 2 -0.006849 0.008981 -0.000289 0.000000 0.003541 0.000000
# 3 -0.002829 -0.000289 0.007790 0.000000 -0.000867 0.000000
# 4 0.000000 0.000000 0.000000 0.021877 0.000000 0.027900
# 5 -0.009147 0.003541 -0.000867 0.000000 0.024259 0.000000
# 6 0.000000 0.000000 0.000000 0.027900 0.000000 -0.022197
#
#
# Mechanical properties :
#
#
# Convention : Reuss Voigt Hill
#
# Bulk Modulus (GPa) = 56.84606 66.96061 61.90334
# Shear Modulus (GPa) = 57.29901 27.92877 42.61389
#
# Velocity S-wave (km/s) = 5.02134 3.50568 4.33034
# Velocity P-wave (km/s) = 7.65722 6.77139 7.22789
#
# Compressibility (1/GPa) = 0.01759137
#
# Stress axis : x y z
#
# Youngs Moduli (GPa) = 48.18326 111.34411 128.37031
#
# Poissons Ratio (x) = 0.76260 0.36310
# Poissons Ratio (y) = 0.33001 0.03715
# Poissons Ratio (z) = 0.13629 0.03222
#
# Static dielectric constant tensor:
#      x y z
#    x 2.061900 0.000000 -0.115370 
#    y 0.000000 1.927210 0.000000 
#    z -0.115370 0.000000 1.897120 
# 
# From -- ./inp_files/13220.got.cif
#   From: 2010.05.17/outbox.cif.g08.bks.cpg/sg13_7_cif.got.tgz:13220.got - 2010.06.03 16:44:36.
