data_PCOD9233161
_publ_section_title
;
Structure prediction by ZEFSAII (Michael W. Deem and Ramdas Pophale) SiO2 
 PCOD9233161
Probable space group: P 2/C
;
_chemical_formula_sum "Si O2"
_cell_formula_units_Z 20
_cell_length_a 12.531161
_cell_length_b 13.030703
_cell_length_c 11.927626
_cell_angle_alpha 90.000000
_cell_angle_beta 26.691076
_cell_angle_gamma 90.000000
_cell_volume 874.849671
_symmetry_space_group_name_H-M "P 2/C"
_symmetry_group_IT_number 13
_symmetry_cell_setting 'monoclinic'
loop_
_space_group_symop_operation_xyz
x,y,z
-x,y,1/2-z
-x,-y,-z
x,-y,1/2+z
loop_
_atom_site_type_symbol
_atom_site_label
_atom_site_fract_x
_atom_site_fract_y
_atom_site_fract_z
Si Si1 0.310291 0.914966 0.646235
Si Si2 0.238537 0.529705 0.703135
Si Si3 0.639262 0.750127 0.219096
Si Si4 0.000000 0.398314 0.750000
Si Si5 0.000000 0.101628 0.250000
Si Si6 0.072471 0.723066 0.958736
O O1 0.463499 0.830749 0.438057
O O2 0.159155 0.841498 0.871988
O O3 0.131520 0.961578 0.722158
O O4 0.500000 0.000000 0.500000
O O5 0.500000 0.500000 0.500000
O O6 0.224270 0.652730 0.729651
O O7 0.189056 0.474606 0.631392
O O8 0.000000 0.500000 0.000000
O O9 0.500000 0.689534 0.250000
O O10 0.828669 0.821355 0.976390
O O11 0.802923 0.706234 0.165307
O O12 0.095578 0.325810 0.560369
#
# Coordination Sequence:
#
# PCOD9233161 Si02
#       6
#     4   4   4   2   2   4
#     4  10  21  39  67  98 142 185 236 293 357 437
#     4  10  24  45  70  97 145 192 237 298 374 442
#     4   9  19  39  66  93 133 178 234 281 356 428
#     4  10  24  47  69 106 148 184 246 310 370 436
#     4   8  18  37  59  88 128 176 232 276 340 422
#     4  10  23  42  68 103 140 187 238 303 364 442
#
# _framework density 22.861070999999999
#
# number of rings (size 3 to 8) (size 9 to 14) (size 15 to 20)
#    0.000    2.400    0.000    0.000    5.600   11.200 
#    0.000    8.000    0.000    0.000    0.000    0.000 
#    0.000    0.000    0.000    0.000    0.000    0.000 
#
# Total GULP energy -111373.568950 kJ/mol
# GULP energy per Si atom -5568.678448 kJ/mol
# Density = 2.280904 g / cm^3
# Si number density = 22.861071 Si / 1000 Ang^3
#
#
#
# Elastic Constant Matrix: (Units=GPa)
#
#
# Indices 1 2 3 4 5 6 
#
# 1 201.2028 73.5793 42.8257 0.0000 -25.8777 0.0000
# 2 73.5793 113.1499 29.1108 0.0000 -7.1464 0.0000
# 3 42.8257 29.1108 77.4711 0.0000 -9.6769 0.0000
# 4 0.0000 0.0000 0.0000 34.8054 0.0000 -12.7689
# 5 -25.8777 -7.1464 -9.6769 0.0000 48.7809 0.0000
# 6 0.0000 0.0000 0.0000 -12.7689 0.0000 34.3777
#
#
#
# Elastic Compliance Matrix: (Units=1/GPa)
#
#
# Indices 1 2 3 4 5 6 
#
# 1 0.007249 -0.003980 -0.002158 0.000000 0.002835 0.000000
# 2 -0.003980 0.011994 -0.002411 0.000000 -0.000832 0.000000
# 3 -0.002158 -0.002411 0.015196 0.000000 0.001517 0.000000
# 4 0.000000 0.000000 0.000000 0.033264 0.000000 0.012355
# 5 0.002835 -0.000832 0.001517 0.000000 0.022182 0.000000
# 6 0.000000 0.000000 0.000000 0.012355 0.000000 0.033678
#
#
# Mechanical properties :
#
#
# Convention : Reuss Voigt Hill
#
# Bulk Modulus (GPa) = 57.66261 75.87284 66.76772
# Shear Modulus (GPa) = 34.14349 40.01333 37.07841
#
# Velocity S-wave (km/s) = 3.86880 4.18818 4.03165
# Velocity P-wave (km/s) = 6.72567 7.52652 7.13734
#
# Compressibility (1/GPa) = 0.01734226
#
# Stress axis : x y z
#
# Youngs Moduli (GPa) = 137.94151 83.37812 65.80604
#
# Poissons Ratio (x) = 0.33184 0.14200
# Poissons Ratio (y) = 0.54900 0.15863
# Poissons Ratio (z) = 0.29766 0.20099
#
# Static dielectric constant tensor:
#      x y z
#    x 2.033750 0.000000 -0.077560 
#    y 0.000000 1.894800 0.000000 
#    z -0.077560 0.000000 1.973130 
# 
# From -- ./inp_files/34550.got.cif
#   From: 2010.05.17/outbox.cif.g08.bks.cpg/sg13_18_cif.got.tgz:34550.got - 2010.06.03 16:44:36.
