data_PCOD9233374
_publ_section_title
;
Structure prediction by ZEFSAII (Michael W. Deem and Ramdas Pophale) SiO2 
 PCOD9233374
Probable space group: P 2/C
;
_chemical_formula_sum "Si O2"
_cell_formula_units_Z 26
_cell_length_a 8.068664
_cell_length_b 15.395412
_cell_length_c 11.849362
_cell_angle_alpha 90.000000
_cell_angle_beta 130.005659
_cell_angle_gamma 90.000000
_cell_volume 1127.472308
_symmetry_space_group_name_H-M "P 2/C"
_symmetry_group_IT_number 13
_symmetry_cell_setting 'monoclinic'
loop_
_space_group_symop_operation_xyz
x,y,z
-x,y,1/2-z
-x,-y,-z
x,-y,1/2+z
loop_
_atom_site_type_symbol
_atom_site_label
_atom_site_fract_x
_atom_site_fract_y
_atom_site_fract_z
Si Si1 0.205997 0.527447 0.269144
Si Si2 0.307778 0.046846 0.845316
Si Si3 0.500000 0.167324 0.750000
Si Si4 0.240258 0.255601 0.452777
Si Si5 0.000000 0.096414 0.250000
Si Si6 0.516898 0.626110 0.917773
Si Si7 0.000000 0.807241 0.250000
Si Si8 0.029399 0.673069 0.468983
O O1 0.345132 0.587612 0.415310
O O2 0.370287 0.452203 0.306690
O O3 0.000000 0.492268 0.250000
O O4 0.098487 0.586179 0.125366
O O5 0.352075 0.099263 0.751084
O O6 0.192524 0.124933 0.864627
O O7 0.146250 0.969072 0.743806
O O8 0.500000 0.000000 0.000000
O O9 0.421265 0.233265 0.621565
O O10 0.350364 0.304772 0.397737
O O11 0.151562 0.161275 0.382989
O O12 0.055491 0.303516 0.444145
O O13 0.710918 0.662610 0.925740
O O14 0.969410 0.744922 0.345821
#
# Coordination Sequence:
#
# PCOD9233374 Si02
#       8
#     4   4   2   4   2   4   2   4
#     4   9  19  39  67  97 138 174 226 294 342 402
#     4  11  24  42  68 101 140 180 225 297 355 416
#     4  12  22  42  74 102 130 192 246 266 356 442
#     4  12  25  44  73 105 138 190 239 290 347 429
#     4  11  28  46  63 104 150 176 225 306 362 395
#     4  10  21  40  67  97 141 179 225 295 349 400
#     4  11  20  40  69  96 142 172 239 294 338 417
#     4  11  21  42  71 102 133 188 241 281 346 432
#
# _framework density 23.060434000000001
#
# number of rings (size 3 to 8) (size 9 to 14) (size 15 to 20)
#    0.000    1.231    5.385    1.846    1.077    1.846 
#    0.000   10.000    0.000    0.000    0.000    0.000 
#    0.000    0.000    0.000    0.000    0.000    0.000 
#
# Total GULP energy -145193.870028 kJ/mol
# GULP energy per Si atom -5584.379616 kJ/mol
# Density = 2.300795 g / cm^3
# Si number density = 23.060434 Si / 1000 Ang^3
#
#
#
# Elastic Constant Matrix: (Units=GPa)
#
#
# Indices 1 2 3 4 5 6 
#
# 1 133.5880 70.9537 16.1832 0.0000 28.6057 0.0000
# 2 70.9537 124.2703 40.1023 0.0000 22.1576 0.0000
# 3 16.1832 40.1023 52.5978 0.0000 21.7106 0.0000
# 4 0.0000 0.0000 0.0000 51.2351 0.0000 14.5181
# 5 28.6057 22.1576 21.7106 0.0000 28.4810 0.0000
# 6 0.0000 0.0000 0.0000 14.5181 0.0000 40.4850
#
#
#
# Elastic Compliance Matrix: (Units=1/GPa)
#
#
# Indices 1 2 3 4 5 6 
#
# 1 0.013467 -0.007652 0.007027 0.000000 -0.012930 0.000000
# 2 -0.007652 0.015207 -0.010985 0.000000 0.004228 0.000000
# 3 0.007027 -0.010985 0.035910 0.000000 -0.025886 0.000000
# 4 0.000000 0.000000 0.000000 0.021726 0.000000 -0.007791
# 5 -0.012930 0.004228 -0.025886 0.000000 0.064541 0.000000
# 6 0.000000 0.000000 0.000000 -0.007791 0.000000 0.027494
#
#
# Mechanical properties :
#
#
# Convention : Reuss Voigt Hill
#
# Bulk Modulus (GPa) = 24.17467 62.77049 43.47258
# Shear Modulus (GPa) = 23.21777 36.25470 29.73623
#
# Velocity S-wave (km/s) = 3.17649 3.96935 3.59484
# Velocity P-wave (km/s) = 4.89483 6.94887 6.01025
#
# Compressibility (1/GPa) = 0.04136560
#
# Stress axis : x y z
#
# Youngs Moduli (GPa) = 74.25434 65.76027 27.84711
#
# Poissons Ratio (x) = 0.50317 -0.19569
# Poissons Ratio (y) = 0.56816 0.30591
# Poissons Ratio (z) = -0.52182 0.72239
#
# Static dielectric constant tensor:
#      x y z
#    x 1.930070 0.000000 0.078630 
#    y 0.000000 2.084050 0.000000 
#    z 0.078630 0.000000 1.851840 
# 
# From -- ./inp_files/47848.got.cif
#   From: 2010.05.17/outbox.cif.g08.bks.cpg/sg13_24_cif.got.tgz:47848.got - 2010.06.03 16:44:36.
