data_PCOD9233256
_publ_section_title
;
Structure prediction by ZEFSAII (Michael W. Deem and Ramdas Pophale) SiO2 
 PCOD9233256
Probable space group: P 2/C
;
_chemical_formula_sum "Si O2"
_cell_formula_units_Z 28
_cell_length_a 8.824602
_cell_length_b 11.198222
_cell_length_c 15.395043
_cell_angle_alpha 90.000000
_cell_angle_beta 115.033293
_cell_angle_gamma 90.000000
_cell_volume 1378.424720
_symmetry_space_group_name_H-M "P 2/C"
_symmetry_group_IT_number 13
_symmetry_cell_setting 'monoclinic'
loop_
_space_group_symop_operation_xyz
x,y,z
-x,y,1/2-z
-x,-y,-z
x,-y,1/2+z
loop_
_atom_site_type_symbol
_atom_site_label
_atom_site_fract_x
_atom_site_fract_y
_atom_site_fract_z
Si Si1 0.368387 0.389809 0.402138
Si Si2 0.300894 0.267127 0.212553
Si Si3 0.790996 0.785569 0.517676
Si Si4 0.066606 0.636679 0.504033
Si Si5 0.325986 0.658984 0.424666
Si Si6 0.458101 0.137942 0.841711
Si Si7 0.182954 0.940323 0.800629
O O1 0.290362 0.352587 0.293144
O O2 0.256654 0.344297 0.454298
O O3 0.385337 0.530521 0.405437
O O4 0.539066 0.318444 0.465092
O O5 0.500000 0.245008 0.250000
O O6 0.206478 0.331377 0.110983
O O7 0.210931 0.147143 0.224691
O O8 0.636257 0.848895 0.432873
O O9 0.824960 0.863667 0.612089
O O10 0.934787 0.744924 0.486761
O O11 0.149665 0.648998 0.429254
O O12 0.000000 0.500000 0.500000
O O13 0.350215 0.752175 0.354023
O O14 0.500000 0.141835 0.750000
O O15 0.344872 0.024576 0.839047
O O16 0.000000 0.000589 0.750000
#
# Coordination Sequence:
#
# PCOD9233256 Si02
#       7
#     4   4   4   4   4   4   4
#     4   9  19  37  64  92 134 179 218 271 348 412
#     4  11  22  39  68  98 131 178 234 282 340 417
#     4  10  22  43  67 102 138 177 221 289 348 412
#     4  12  23  40  67 109 144 176 224 286 358 429
#     4  10  21  40  62  96 138 175 221 280 345 413
#     4  11  26  46  67  94 139 186 234 283 345 411
#     4  11  23  45  72 100 132 176 241 290 337 403
#
# _framework density 20.313040999999998
#
# number of rings (size 3 to 8) (size 9 to 14) (size 15 to 20)
#    0.000    1.429    4.286    0.857    0.000    2.857 
#    2.571    2.857    0.000    0.000    0.000    0.000 
#    0.000    0.000    0.000    0.000    0.000    0.000 
#
# Total GULP energy -155990.920251 kJ/mol
# GULP energy per Si atom -5571.104295 kJ/mol
# Density = 2.026681 g / cm^3
# Si number density = 20.313041 Si / 1000 Ang^3
#
#
#
# Elastic Constant Matrix: (Units=GPa)
#
#
# Indices 1 2 3 4 5 6 
#
# 1 131.1113 36.2739 30.3515 0.0000 -0.4924 0.0000
# 2 36.2739 82.5680 19.1555 0.0000 0.2900 0.0000
# 3 30.3515 19.1555 51.8610 0.0000 7.4457 0.0000
# 4 0.0000 0.0000 0.0000 20.9291 0.0000 6.1127
# 5 -0.4924 0.2900 7.4457 0.0000 25.8279 0.0000
# 6 0.0000 0.0000 0.0000 6.1127 0.0000 33.9274
#
#
#
# Elastic Compliance Matrix: (Units=1/GPa)
#
#
# Indices 1 2 3 4 5 6 
#
# 1 0.009581 -0.003130 -0.004676 0.000000 0.001566 0.000000
# 2 -0.003130 0.014312 -0.003571 0.000000 0.000809 0.000000
# 3 -0.004676 -0.003571 0.024353 0.000000 -0.007070 0.000000
# 4 0.000000 0.000000 0.000000 0.050434 0.000000 -0.009087
# 5 0.001566 0.000809 -0.007070 0.000000 0.040777 0.000000
# 6 0.000000 0.000000 0.000000 -0.009087 0.000000 0.031112
#
#
# Mechanical properties :
#
#
# Convention : Reuss Voigt Hill
#
# Bulk Modulus (GPa) = 39.22714 48.56693 43.89704
# Shear Modulus (GPa) = 24.77454 28.12083 26.44769
#
# Velocity S-wave (km/s) = 3.49612 3.72475 3.61225
# Velocity P-wave (km/s) = 5.97079 6.51610 6.24940
#
# Compressibility (1/GPa) = 0.02549255
#
# Stress axis : x y z
#
# Youngs Moduli (GPa) = 104.36821 69.87236 41.06290
#
# Poissons Ratio (x) = 0.21870 0.19202
# Poissons Ratio (y) = 0.32667 0.14662
# Poissons Ratio (z) = 0.48805 0.24949
#
# Static dielectric constant tensor:
#      x y z
#    x 1.811610 0.000000 0.030940 
#    y 0.000000 1.716780 0.000000 
#    z 0.030940 0.000000 1.732980 
# 
# From -- ./inp_files/47314.got.cif
#   From: 2010.05.17/outbox.cif.g08.bks.cpg/sg13_24_cif.got.tgz:47314.got - 2010.06.03 16:44:36.
