data_PCOD9233653
_publ_section_title
;
Structure prediction by ZEFSAII (Michael W. Deem and Ramdas Pophale) SiO2 
 PCOD9233653
Probable space group: P 2/C
;
_chemical_formula_sum "Si O2"
_cell_formula_units_Z 20
_cell_length_a 17.939683
_cell_length_b 5.637737
_cell_length_c 17.728474
_cell_angle_alpha 90.000000
_cell_angle_beta 30.792186
_cell_angle_gamma 90.000000
_cell_volume 917.905300
_symmetry_space_group_name_H-M "P 2/C"
_symmetry_group_IT_number 13
_symmetry_cell_setting 'monoclinic'
loop_
_space_group_symop_operation_xyz
x,y,z
-x,y,1/2-z
-x,-y,-z
x,-y,1/2+z
loop_
_atom_site_type_symbol
_atom_site_label
_atom_site_fract_x
_atom_site_fract_y
_atom_site_fract_z
Si Si1 0.945435 0.660855 0.188260
Si Si2 0.313318 0.265434 0.694913
Si Si3 0.804084 0.574097 0.953610
Si Si4 0.000000 0.968741 0.750000
Si Si5 0.574070 0.229481 0.346027
Si Si6 0.500000 0.375304 0.250000
O O1 0.845246 0.689193 0.203644
O O2 0.844012 0.602089 0.349687
O O3 0.080119 0.479224 0.079731
O O4 0.012975 0.903918 0.158461
O O5 0.434232 0.239359 0.523061
O O6 0.351587 0.510874 0.705267
O O7 0.331090 0.008282 0.719866
O O8 0.852180 0.819226 0.875731
O O9 0.641194 0.537728 0.117518
O O10 0.522596 0.221709 0.304852
#
# Coordination Sequence:
#
# PCOD9233653 Si02
#       6
#     4   4   4   2   4   2
#     4   9  18  38  63  89 117 168 218 256 302 392
#     4  10  21  42  63  93 122 175 212 262 301 401
#     4   9  20  35  60  92 123 163 209 258 326 367
#     4   8  18  34  60  92 112 172 210 260 304 392
#     4  10  24  38  64  93 129 167 213 254 334 361
#     4  12  22  44  58  98 132 160 204 280 316 394
#
# _framework density 21.788739
#
# number of rings (size 3 to 8) (size 9 to 14) (size 15 to 20)
#    0.000    2.800    2.000    0.000    5.600    2.400 
#    7.200    2.000    0.000    0.000    0.000    0.000 
#    0.000    0.000    0.000    0.000    0.000    0.000 
#
# Total GULP energy -111375.548081 kJ/mol
# GULP energy per Si atom -5568.777404 kJ/mol
# Density = 2.173915 g / cm^3
# Si number density = 21.788739 Si / 1000 Ang^3
#
#
#
# Elastic Constant Matrix: (Units=GPa)
#
#
# Indices 1 2 3 4 5 6 
#
# 1 142.1284 46.8778 8.8565 0.0000 -4.5744 0.0000
# 2 46.8778 102.4846 -3.3175 0.0000 -0.8708 0.0000
# 3 8.8565 -3.3175 71.6673 0.0000 -18.1778 0.0000
# 4 0.0000 0.0000 0.0000 -12.1848 0.0000 -3.5553
# 5 -4.5744 -0.8708 -18.1778 0.0000 31.5477 0.0000
# 6 0.0000 0.0000 0.0000 -3.5553 0.0000 1.1973
#
#
#
# Elastic Compliance Matrix: (Units=1/GPa)
#
#
# Indices 1 2 3 4 5 6 
#
# 1 0.008397 -0.003872 -0.001095 0.000000 0.000480 0.000000
# 2 -0.003872 0.011568 0.001116 0.000000 0.000401 0.000000
# 3 -0.001095 0.001116 0.016523 0.000000 0.009392 0.000000
# 4 0.000000 0.000000 0.000000 -0.043972 0.000000 -0.130571
# 5 0.000480 0.000401 0.009392 0.000000 0.037191 0.000000
# 6 0.000000 0.000000 0.000000 -0.130571 0.000000 0.447499
#
#
# Mechanical properties :
#
#
# Convention : Reuss Voigt Hill
#
# Bulk Modulus (GPa) = 34.74142 46.79044 40.76593
# Shear Modulus (GPa) = 10.11114 21.70293 15.90704
#
# Velocity S-wave (km/s) = 2.15653 3.15947 2.70489
# Velocity P-wave (km/s) = 4.70957 5.90177 5.33905
#
# Compressibility (1/GPa) = 0.02878408
#
# Stress axis : x y z
#
# Youngs Moduli (GPa) = 119.09421 86.44344 60.52300
#
# Poissons Ratio (x) = 0.33472 0.06629
# Poissons Ratio (y) = 0.46115 -0.06752
# Poissons Ratio (z) = 0.13044 -0.09644
#
# Static dielectric constant tensor:
#      x y z
#    x 1.805750 0.000000 -0.001220 
#    y 0.000000 1.941530 0.000000 
#    z -0.001220 0.000000 1.804190 
# 
# From -- ./inp_files/65128.got.cif
#   From: 2010.05.17/outbox.cif.g08.bks.cpg/sg13_33_cif.got.tgz:65128.got - 2010.06.03 16:44:36.
