data_PCOD9233168
_publ_section_title
;
Structure prediction by ZEFSAII (Michael W. Deem and Ramdas Pophale) SiO2 
 PCOD9233168
Probable space group: P 2/C
;
_chemical_formula_sum "Si O2"
_cell_formula_units_Z 22
_cell_length_a 22.156713
_cell_length_b 6.979602
_cell_length_c 14.043236
_cell_angle_alpha 90.000000
_cell_angle_beta 152.871646
_cell_angle_gamma 90.000000
_cell_volume 990.271122
_symmetry_space_group_name_H-M "P 2/C"
_symmetry_group_IT_number 13
_symmetry_cell_setting 'monoclinic'
loop_
_space_group_symop_operation_xyz
x,y,z
-x,y,1/2-z
-x,-y,-z
x,-y,1/2+z
loop_
_atom_site_type_symbol
_atom_site_label
_atom_site_fract_x
_atom_site_fract_y
_atom_site_fract_z
Si Si1 0.858277 0.789069 0.844777
Si Si2 0.542439 0.205133 0.597834
Si Si3 0.319209 0.982487 0.046952
Si Si4 0.500000 0.673548 0.750000
Si Si5 0.670072 0.502328 0.155308
Si Si6 0.963924 0.906174 0.801522
O O1 0.584451 0.658935 0.588701
O O2 0.728882 0.904891 0.623235
O O3 0.807803 0.592502 0.818956
O O4 0.944669 0.771836 0.868289
O O5 0.592375 0.172918 0.774976
O O6 0.661021 0.306758 0.705923
O O7 0.500000 0.000000 0.500000
O O8 0.396788 0.179815 0.153190
O O9 0.181951 0.999782 0.911091
O O10 0.414905 0.552965 0.557178
O O11 0.935595 0.072439 0.524803
O O12 0.000000 0.821014 0.750000
#
# Coordination Sequence:
#
# PCOD9233168 Si02
#       6
#     4   4   4   2   4   4
#     4   9  21  42  65  99 133 182 234 285 343 413
#     4  11  23  40  62 104 133 182 222 281 353 414
#     4  10  21  39  68  92 137 184 222 279 355 409
#     4  12  22  38  62 100 134 176 218 288 346 416
#     4  11  24  37  66  98 141 169 234 282 344 421
#     4   9  21  39  72  96 129 186 237 278 344 413
#
# _framework density 22.216138999999998
#
# number of rings (size 3 to 8) (size 9 to 14) (size 15 to 20)
#    1.091    0.727    1.818    2.182    2.545    0.000 
#    0.000    0.909    0.000    0.000    0.000    0.000 
#    0.000    0.000    0.000    0.000    0.000    0.000 
#
# Total GULP energy -122764.724974 kJ/mol
# GULP energy per Si atom -5580.214772 kJ/mol
# Density = 2.216557 g / cm^3
# Si number density = 22.216139 Si / 1000 Ang^3
#
#
#
# Elastic Constant Matrix: (Units=GPa)
#
#
# Indices 1 2 3 4 5 6 
#
# 1 98.8118 41.9738 6.5816 0.0000 10.1490 0.0000
# 2 41.9738 107.0464 21.0257 0.0000 12.9976 0.0000
# 3 6.5816 21.0257 64.4370 0.0000 9.1464 0.0000
# 4 0.0000 0.0000 0.0000 34.4729 0.0000 11.2643
# 5 10.1490 12.9976 9.1464 0.0000 25.0991 0.0000
# 6 0.0000 0.0000 0.0000 11.2643 0.0000 44.3391
#
#
#
# Elastic Compliance Matrix: (Units=1/GPa)
#
#
# Indices 1 2 3 4 5 6 
#
# 1 0.012330 -0.004618 0.000649 0.000000 -0.002831 0.000000
# 2 -0.004618 0.012150 -0.003021 0.000000 -0.003323 0.000000
# 3 0.000649 -0.003021 0.017140 0.000000 -0.004944 0.000000
# 4 0.000000 0.000000 0.000000 0.031634 0.000000 -0.008037
# 5 -0.002831 -0.003323 -0.004944 0.000000 0.044509 0.000000
# 6 0.000000 0.000000 0.000000 -0.008037 0.000000 0.024595
#
#
# Mechanical properties :
#
#
# Convention : Reuss Voigt Hill
#
# Bulk Modulus (GPa) = 36.18009 45.49526 40.83768
# Shear Modulus (GPa) = 30.20214 34.16315 32.18264
#
# Velocity S-wave (km/s) = 3.69110 3.92569 3.81020
# Velocity P-wave (km/s) = 5.87252 6.40866 6.14644
#
# Compressibility (1/GPa) = 0.02763951
#
# Stress axis : x y z
#
# Youngs Moduli (GPa) = 81.10600 82.30773 58.34223
#
# Poissons Ratio (x) = 0.38013 -0.03789
# Poissons Ratio (y) = 0.37458 0.17625
# Poissons Ratio (z) = -0.05267 0.24865
#
# Static dielectric constant tensor:
#      x y z
#    x 1.915370 0.000000 0.024640 
#    y 0.000000 1.798100 0.000000 
#    z 0.024640 0.000000 1.823270 
# 
# From -- ./inp_files/56915.got.cif
#   From: 2010.05.17/outbox.cif.g08.bks.cpg/sg13_29_cif.got.tgz:56915.got - 2010.06.03 16:44:36.
