data_PCOD9233288
_publ_section_title
;
Structure prediction by ZEFSAII (Michael W. Deem and Ramdas Pophale) SiO2 
 PCOD9233288
Probable space group: P 2/C
;
_chemical_formula_sum "Si O2"
_cell_formula_units_Z 26
_cell_length_a 27.497893
_cell_length_b 7.723168
_cell_length_c 9.551393
_cell_angle_alpha 90.000000
_cell_angle_beta 145.700851
_cell_angle_gamma 90.000000
_cell_volume 1143.052438
_symmetry_space_group_name_H-M "P 2/C"
_symmetry_group_IT_number 13
_symmetry_cell_setting 'monoclinic'
loop_
_space_group_symop_operation_xyz
x,y,z
-x,y,1/2-z
-x,-y,-z
x,-y,1/2+z
loop_
_atom_site_type_symbol
_atom_site_label
_atom_site_fract_x
_atom_site_fract_y
_atom_site_fract_z
Si Si1 0.000000 0.942758 0.250000
Si Si2 0.741936 0.186738 0.393617
Si Si3 0.115575 0.116695 0.283435
Si Si4 0.366983 0.645162 0.610299
Si Si5 0.473006 0.116962 0.058215
Si Si6 0.216517 0.567019 0.028368
Si Si7 0.326996 0.721421 0.067666
O O1 0.066013 0.856543 0.517949
O O2 0.941272 0.042306 0.224576
O O3 0.678902 0.240877 0.374775
O O4 0.799160 0.363300 0.516253
O O5 0.804147 0.019022 0.552206
O O6 0.691080 0.187672 0.123314
O O7 0.143802 0.304473 0.404385
O O8 0.453179 0.734982 0.759983
O O9 0.297685 0.606010 0.323083
O O10 0.387933 0.448418 0.705018
O O11 0.500000 0.998555 0.250000
O O12 0.374771 0.160868 0.794844
O O13 0.500000 0.000000 0.000000
O O14 0.242233 0.639832 0.936044
#
# Coordination Sequence:
#
# PCOD9233288 Si02
#       7
#     2   4   4   4   4   4   4
#     4  10  24  42  62  98 120 166 196 230 322 394
#     4  10  23  38  66  97 117 161 218 253 308 372
#     4  11  22  42  66  87 132 156 196 255 306 372
#     4  10  22  40  60  86 122 165 213 263 314 363
#     4  12  27  40  56  86 128 168 217 266 314 369
#     4  10  21  40  64  91 121 163 210 255 308 366
#     4  10  22  40  60  86 122 165 213 263 314 363
#
# _framework density 22.746115
#
# number of rings (size 3 to 8) (size 9 to 14) (size 15 to 20)
#    0.000    1.538    1.538    2.308    6.462    0.000 
#    0.000    4.615    0.000    0.000    0.000    0.000 
#    0.000    0.000    0.000    0.000    0.000    0.000 
#
# Total GULP energy -144834.953881 kJ/mol
# GULP energy per Si atom -5570.575149 kJ/mol
# Density = 2.269434 g / cm^3
# Si number density = 22.746115 Si / 1000 Ang^3
#
#
#
# Elastic Constant Matrix: (Units=GPa)
#
#
# Indices 1 2 3 4 5 6 
#
# 1 69.7235 -9.1657 19.5538 0.0000 -15.2989 0.0000
# 2 -9.1657 58.2619 25.1188 0.0000 10.8472 0.0000
# 3 19.5538 25.1188 95.1677 0.0000 -12.3597 0.0000
# 4 0.0000 0.0000 0.0000 -27.7581 0.0000 -53.6624
# 5 -15.2989 10.8472 -12.3597 0.0000 39.9691 0.0000
# 6 0.0000 0.0000 0.0000 -53.6624 0.0000 -50.6598
#
#
#
# Elastic Compliance Matrix: (Units=1/GPa)
#
#
# Indices 1 2 3 4 5 6 
#
# 1 0.016817 0.003489 -0.003816 0.000000 0.004310 0.000000
# 2 0.003489 0.022256 -0.007503 0.000000 -0.007025 0.000000
# 3 -0.003816 -0.007503 0.013906 0.000000 0.004876 0.000000
# 4 0.000000 0.000000 0.000000 0.034382 0.000000 -0.036420
# 5 0.004310 -0.007025 0.004876 0.000000 0.030083 0.000000
# 6 0.000000 0.000000 0.000000 -0.036420 0.000000 0.018839
#
#
# Mechanical properties :
#
#
# Convention : Reuss Voigt Hill
#
# Bulk Modulus (GPa) = 26.79829 32.68523 29.74176
# Shear Modulus (GPa) = 30.41670 4.81998 17.61834
#
# Velocity S-wave (km/s) = 3.66078 1.45727 2.78612
# Velocity P-wave (km/s) = 5.44752 4.15118 4.84292
#
# Compressibility (1/GPa) = 0.03731581
#
# Stress axis : x y z
#
# Youngs Moduli (GPa) = 59.46374 44.93268 71.91381
#
# Poissons Ratio (x) = -0.15675 0.27445
# Poissons Ratio (y) = -0.20744 0.53959
# Poissons Ratio (z) = 0.22693 0.33714
#
# Static dielectric constant tensor:
#      x y z
#    x 1.952540 0.000000 -0.143730 
#    y 0.000000 1.901870 0.000000 
#    z -0.143730 0.000000 2.948680 
# 
# From -- ./inp_files/24469.got.cif
#   From: 2010.05.17/outbox.cif.g08.bks.cpg/sg13_13_cif.got.tgz:24469.got - 2010.06.03 16:44:36.
