data_PCOD9233305
_publ_section_title
;
Structure prediction by ZEFSAII (Michael W. Deem and Ramdas Pophale) SiO2 
 PCOD9233305
Probable space group: P 2/C
;
_chemical_formula_sum "Si O2"
_cell_formula_units_Z 16
_cell_length_a 14.611940
_cell_length_b 8.453151
_cell_length_c 13.945715
_cell_angle_alpha 90.000000
_cell_angle_beta 158.608628
_cell_angle_gamma 90.000000
_cell_volume 628.270414
_symmetry_space_group_name_H-M "P 2/C"
_symmetry_group_IT_number 13
_symmetry_cell_setting 'monoclinic'
loop_
_space_group_symop_operation_xyz
x,y,z
-x,y,1/2-z
-x,-y,-z
x,-y,1/2+z
loop_
_atom_site_type_symbol
_atom_site_label
_atom_site_fract_x
_atom_site_fract_y
_atom_site_fract_z
Si Si1 0.209232 0.633530 0.579915
Si Si2 0.426814 0.090937 0.525307
Si Si3 0.284031 0.238909 0.937002
Si Si4 0.068952 0.723832 0.929440
O O1 0.248159 0.671575 0.503476
O O2 0.133465 0.454316 0.523540
O O3 0.969235 0.740061 0.369895
O O4 0.478478 0.681670 0.882974
O O5 0.334045 0.945391 0.501525
O O6 0.500000 0.000000 0.500000
O O7 0.186927 0.203603 0.277944
O O8 0.677397 0.175847 0.807382
O O9 0.000000 0.715182 0.750000
#
# Coordination Sequence:
#
# PCOD9233305 Si02
#       4
#     4   4   4   4
#     4  10  21  40  67 100 129 166 234 295 327 382
#     4  12  28  46  67 104 148 185 218 279 361 419
#     4  10  21  40  64  96 136 168 224 284 334 399
#     4  12  25  44  74 102 131 179 243 289 332 404
#
# _framework density 25.466740000000001
#
# number of rings (size 3 to 8) (size 9 to 14) (size 15 to 20)
#    0.000    1.000    2.500    4.500   14.000    0.000 
#    0.000    7.500    0.000    0.000    0.000    0.000 
#    0.000    0.000    0.000    0.000    0.000    0.000 
#
# Total GULP energy -89628.542449 kJ/mol
# GULP energy per Si atom -5601.783903 kJ/mol
# Density = 2.540878 g / cm^3
# Si number density = 25.466740 Si / 1000 Ang^3
#
#
#
# Elastic Constant Matrix: (Units=GPa)
#
#
# Indices 1 2 3 4 5 6 
#
# 1 65.6593 30.4805 35.0583 0.0000 11.3121 0.0000
# 2 30.4805 125.5020 62.4398 0.0000 23.5235 0.0000
# 3 35.0583 62.4398 253.7078 0.0000 46.2612 0.0000
# 4 0.0000 0.0000 0.0000 60.4907 0.0000 10.3595
# 5 11.3121 23.5235 46.2612 0.0000 47.2972 0.0000
# 6 0.0000 0.0000 0.0000 10.3595 0.0000 33.4104
#
#
#
# Elastic Compliance Matrix: (Units=1/GPa)
#
#
# Indices 1 2 3 4 5 6 
#
# 1 0.017759 -0.003393 -0.001402 0.000000 -0.001188 0.000000
# 2 -0.003393 0.010052 -0.001511 0.000000 -0.002710 0.000000
# 3 -0.001402 -0.001511 0.005244 0.000000 -0.004043 0.000000
# 4 0.000000 0.000000 0.000000 0.017459 0.000000 -0.005413
# 5 -0.001188 -0.002710 -0.004043 0.000000 0.026729 0.000000
# 6 0.000000 0.000000 0.000000 -0.005413 0.000000 0.031609
#
#
# Mechanical properties :
#
#
# Convention : Reuss Voigt Hill
#
# Bulk Modulus (GPa) = 48.91652 77.86959 63.39306
# Shear Modulus (GPa) = 38.97815 49.36570 44.17192
#
# Velocity S-wave (km/s) = 3.91647 4.40755 4.16924
# Velocity P-wave (km/s) = 6.30090 7.51966 6.93710
#
# Compressibility (1/GPa) = 0.02044299
#
# Stress axis : x y z
#
# Youngs Moduli (GPa) = 56.31093 99.48685 190.68401
#
# Poissons Ratio (x) = 0.33752 0.26740
# Poissons Ratio (y) = 0.19104 0.28809
# Poissons Ratio (z) = 0.07897 0.15031
#
# Static dielectric constant tensor:
#      x y z
#    x 2.362480 0.000000 -0.105580 
#    y 0.000000 1.952450 0.000000 
#    z -0.105580 0.000000 2.090610 
# 
# From -- ./inp_files/69578.got.cif
#   From: 2010.05.17/outbox.cif.g08.bks.cpg/sg13_35_cif.got.tgz:69578.got - 2010.06.03 16:44:36.
