data_PCOD9233000
_publ_section_title
;
Structure prediction by ZEFSAII (Michael W. Deem and Ramdas Pophale) SiO2 
 PCOD9233000
Probable space group: P 2/C
;
_chemical_formula_sum "Si O2"
_cell_formula_units_Z 20
_cell_length_a 11.685585
_cell_length_b 6.113661
_cell_length_c 20.415601
_cell_angle_alpha 90.000000
_cell_angle_beta 144.912684
_cell_angle_gamma 90.000000
_cell_volume 838.395548
_symmetry_space_group_name_H-M "P 2/C"
_symmetry_group_IT_number 13
_symmetry_cell_setting 'monoclinic'
loop_
_space_group_symop_operation_xyz
x,y,z
-x,y,1/2-z
-x,-y,-z
x,-y,1/2+z
loop_
_atom_site_type_symbol
_atom_site_label
_atom_site_fract_x
_atom_site_fract_y
_atom_site_fract_z
Si Si1 0.356986 0.270707 0.591247
Si Si2 0.918991 0.091825 0.601979
Si Si3 0.179711 0.699368 0.756039
Si Si4 0.775745 0.372675 0.831762
Si Si5 0.248233 0.515551 0.416373
O O1 0.233204 0.063280 0.508213
O O2 0.582730 0.231532 0.719071
O O3 0.242130 0.379530 0.598668
O O4 0.365780 0.432420 0.534128
O O5 0.100136 0.946446 0.716381
O O6 0.792234 0.225716 0.596948
O O7 0.028019 0.251749 0.601793
O O8 0.246452 0.603465 0.717103
O O9 0.307906 0.614135 0.878223
O O10 0.973388 0.573263 0.672493
#
# Coordination Sequence:
#
# PCOD9233000 Si02
#       5
#     4   4   4   4   4
#     4  10  22  38  57  86 122 158 198 244 292 344
#     4  10  21  39  62  86 115 157 200 240 293 355
#     4   9  20  37  58  84 117 152 194 243 294 348
#     4  10  22  38  57  86 122 158 198 244 292 344
#     4   9  20  37  58  84 117 152 194 243 294 348
#
# _framework density 23.855089
#
# number of rings (size 3 to 8) (size 9 to 14) (size 15 to 20)
#    0.000    2.400    0.000    0.600    0.000   24.000 
#    0.000    6.000    0.000    0.000    0.000    0.000 
#    0.000    0.000    0.000    0.000    0.000    0.000 
#
# Total GULP energy -111543.327678 kJ/mol
# GULP energy per Si atom -5577.166384 kJ/mol
# Density = 2.380079 g / cm^3
# Si number density = 23.855089 Si / 1000 Ang^3
#
#
#
# Elastic Constant Matrix: (Units=GPa)
#
#
# Indices 1 2 3 4 5 6 
#
# 1 71.7239 26.5567 27.6629 0.0000 -3.3361 0.0000
# 2 26.5567 87.4951 37.6844 0.0000 -11.4726 0.0000
# 3 27.6629 37.6844 86.6198 0.0000 -22.4317 0.0000
# 4 0.0000 0.0000 0.0000 13.2902 0.0000 4.0335
# 5 -3.3361 -11.4726 -22.4317 0.0000 32.8548 0.0000
# 6 0.0000 0.0000 0.0000 4.0335 0.0000 18.4855
#
#
#
# Elastic Compliance Matrix: (Units=1/GPa)
#
#
# Indices 1 2 3 4 5 6 
#
# 1 0.016870 -0.003508 -0.004537 0.000000 -0.002610 0.000000
# 2 -0.003508 0.014816 -0.004954 0.000000 0.001435 0.000000
# 3 -0.004537 -0.004954 0.017713 0.000000 0.009903 0.000000
# 4 0.000000 0.000000 0.000000 0.080579 0.000000 -0.017582
# 5 -0.002610 0.001435 0.009903 0.000000 0.037435 0.000000
# 6 0.000000 0.000000 0.000000 -0.017582 0.000000 0.057933
#
#
# Mechanical properties :
#
#
# Convention : Reuss Voigt Hill
#
# Bulk Modulus (GPa) = 42.73330 47.73854 45.23592
# Shear Modulus (GPa) = 19.29426 23.18843 21.24135
#
# Velocity S-wave (km/s) = 2.84705 3.12116 2.98725
# Velocity P-wave (km/s) = 5.36285 5.74841 5.55897
#
# Compressibility (1/GPa) = 0.02340096
#
# Stress axis : x y z
#
# Youngs Moduli (GPa) = 59.27719 67.49553 56.45446
#
# Poissons Ratio (x) = 0.23681 0.25614
# Poissons Ratio (y) = 0.20797 0.27965
# Poissons Ratio (z) = 0.26894 0.33434
#
# Static dielectric constant tensor:
#      x y z
#    x 1.929270 0.000000 0.001120 
#    y 0.000000 2.018000 0.000000 
#    z 0.001120 0.000000 2.090740 
# 
# From -- ./inp_files/77355.got.cif
#   From: 2010.05.17/outbox.cif.g08.bks.cpg/sg13_39_cif.got.tgz:77355.got - 2010.06.03 16:44:36.
