data_PCOD9233537
_publ_section_title
;
Structure prediction by ZEFSAII (Michael W. Deem and Ramdas Pophale) SiO2 
 PCOD9233537
Probable space group: P 2/C
;
_chemical_formula_sum "Si O2"
_cell_formula_units_Z 20
_cell_length_a 12.169401
_cell_length_b 16.819300
_cell_length_c 14.716364
_cell_angle_alpha 90.000000
_cell_angle_beta 18.333629
_cell_angle_gamma 90.000000
_cell_volume 947.473022
_symmetry_space_group_name_H-M "P 2/C"
_symmetry_group_IT_number 13
_symmetry_cell_setting 'monoclinic'
loop_
_space_group_symop_operation_xyz
x,y,z
-x,y,1/2-z
-x,-y,-z
x,-y,1/2+z
loop_
_atom_site_type_symbol
_atom_site_label
_atom_site_fract_x
_atom_site_fract_y
_atom_site_fract_z
Si Si1 0.778712 0.945411 0.334593
Si Si2 0.900691 0.454494 0.930762
Si Si3 0.093784 0.625449 0.781991
Si Si4 0.717939 0.161702 0.165244
Si Si5 0.176516 0.686128 0.331036
O O1 0.558606 0.869300 0.544035
O O2 0.000000 0.976388 0.250000
O O3 0.500000 0.000000 0.500000
O O4 0.069785 0.915251 0.035946
O O5 0.000000 0.431757 0.750000
O O6 0.127635 0.531897 0.778604
O O7 0.944757 0.380104 0.961946
O O8 0.500000 0.481700 0.250000
O O9 0.450112 0.675613 0.509820
O O10 0.000000 0.628030 0.750000
O O11 0.816552 0.660103 0.069647
O O12 0.500000 0.192542 0.250000
O O13 0.995010 0.228772 0.972161
#
# Coordination Sequence:
#
# PCOD9233537 Si02
#       5
#     4   4   4   4   4
#     4  10  21  41  66  93 125 160 196 242 299 368
#     4  11  22  37  58  85 113 151 206 260 307 362
#     4  11  23  39  54  78 117 162 206 252 300 356
#     4  10  22  39  62  92 122 150 191 247 304 355
#     4  12  22  38  61  84 115 157 199 249 308 363
#
# _framework density 21.108779999999999
#
# number of rings (size 3 to 8) (size 9 to 14) (size 15 to 20)
#    0.000    1.200    0.000    7.800    0.000    2.400 
#    0.000    6.000    0.000    0.000    0.000    0.000 
#    0.000    0.000    0.000    0.000    0.000    0.000 
#
# Total GULP energy -111702.366296 kJ/mol
# GULP energy per Si atom -5585.118315 kJ/mol
# Density = 2.106074 g / cm^3
# Si number density = 21.108780 Si / 1000 Ang^3
#
#
#
# Elastic Constant Matrix: (Units=GPa)
#
#
# Indices 1 2 3 4 5 6 
#
# 1 73.5074 35.9507 15.3358 0.0000 1.5477 0.0000
# 2 35.9507 48.7935 -0.5894 0.0000 -14.1553 0.0000
# 3 15.3358 -0.5894 97.8575 0.0000 2.0314 0.0000
# 4 0.0000 0.0000 0.0000 68.0414 0.0000 -19.1862
# 5 1.5477 -14.1553 2.0314 0.0000 41.2783 0.0000
# 6 0.0000 0.0000 0.0000 -19.1862 0.0000 18.4314
#
#
#
# Elastic Compliance Matrix: (Units=1/GPa)
#
#
# Indices 1 2 3 4 5 6 
#
# 1 0.024506 -0.020338 -0.003803 0.000000 -0.007706 0.000000
# 2 -0.020338 0.039637 0.003131 0.000000 0.014201 0.000000
# 3 -0.003803 0.003131 0.010820 0.000000 0.000684 0.000000
# 4 0.000000 0.000000 0.000000 0.020803 0.000000 0.021655
# 5 -0.007706 0.014201 0.000684 0.000000 0.029351 0.000000
# 6 0.000000 0.000000 0.000000 0.021655 0.000000 0.076798
#
#
# Mechanical properties :
#
#
# Convention : Reuss Voigt Hill
#
# Bulk Modulus (GPa) = 30.35484 35.72807 33.04145
# Shear Modulus (GPa) = 19.61442 36.84765 28.23103
#
# Velocity S-wave (km/s) = 3.05160 4.18258 3.66103
# Velocity P-wave (km/s) = 5.17955 6.34726 5.79290
#
# Compressibility (1/GPa) = 0.03294368
#
# Stress axis : x y z
#
# Youngs Moduli (GPa) = 40.80572 25.22915 92.42485
#
# Poissons Ratio (x) = 0.51310 0.35150
# Poissons Ratio (y) = 0.82989 -0.28940
# Poissons Ratio (z) = 0.15519 -0.07900
#
# Static dielectric constant tensor:
#      x y z
#    x 1.771330 0.000000 -0.024180 
#    y 0.000000 1.735910 0.000000 
#    z -0.024180 0.000000 1.757860 
# 
# From -- ./inp_files/26310.got.cif
#   From: 2010.05.17/outbox.cif.g08.bks.cpg/sg13_14_cif.got.tgz:26310.got - 2010.06.03 16:44:36.
