data_PCOD9233536
_publ_section_title
;
Structure prediction by ZEFSAII (Michael W. Deem and Ramdas Pophale) SiO2 
 PCOD9233536
Probable space group: P 2/C
;
_chemical_formula_sum "Si O2"
_cell_formula_units_Z 24
_cell_length_a 14.649917
_cell_length_b 8.926366
_cell_length_c 28.648962
_cell_angle_alpha 90.000000
_cell_angle_beta 162.200849
_cell_angle_gamma 90.000000
_cell_volume 1145.216166
_symmetry_space_group_name_H-M "P 2/C"
_symmetry_group_IT_number 13
_symmetry_cell_setting 'monoclinic'
loop_
_space_group_symop_operation_xyz
x,y,z
-x,y,1/2-z
-x,-y,-z
x,-y,1/2+z
loop_
_atom_site_type_symbol
_atom_site_label
_atom_site_fract_x
_atom_site_fract_y
_atom_site_fract_z
Si Si1 0.362125 0.749290 0.612299
Si Si2 0.305436 0.190208 0.537713
Si Si3 0.965983 0.077989 0.842893
Si Si4 0.457197 0.504653 0.873334
Si Si5 0.909370 0.649920 0.153298
Si Si6 0.935712 0.838043 0.946403
O O1 0.498116 0.609052 0.650341
O O2 0.639069 0.838332 0.769783
O O3 0.142031 0.724060 0.549354
O O4 0.167656 0.845249 0.481439
O O5 0.621175 0.106325 0.686023
O O6 0.349643 0.355178 0.539854
O O7 0.202174 0.199675 0.541089
O O8 0.062306 0.093996 0.390788
O O9 0.045057 0.174561 0.835780
O O10 0.132648 0.439332 0.727134
O O11 0.583510 0.597527 0.978738
O O12 0.000000 0.617201 0.250000
O O13 0.000000 0.000000 0.000000
#
# Coordination Sequence:
#
# PCOD9233536 Si02
#       6
#     4   4   4   4   4   4
#     4  10  22  39  59  89 125 161 206 260 298 364
#     4  11  22  38  60  88 124 169 211 251 313 360
#     4  10  22  38  60  88 123 163 207 258 312 366
#     4  10  22  41  64  91 126 165 203 257 323 372
#     4  10  21  41  66  93 122 161 209 261 318 381
#     4  11  22  35  63  89 121 160 215 249 298 360
#
# _framework density 20.956741999999998
#
# number of rings (size 3 to 8) (size 9 to 14) (size 15 to 20)
#    0.000    1.667    1.667    2.500    2.333    2.667 
#    0.000    7.500    0.000    0.000    0.000    0.000 
#    0.000    0.000    0.000    0.000    0.000    0.000 
#
# Total GULP energy -134011.884645 kJ/mol
# GULP energy per Si atom -5583.828527 kJ/mol
# Density = 2.090904 g / cm^3
# Si number density = 20.956742 Si / 1000 Ang^3
#
#
#
# Elastic Constant Matrix: (Units=GPa)
#
#
# Indices 1 2 3 4 5 6 
#
# 1 50.4766 31.6497 17.6307 0.0000 -7.7746 0.0000
# 2 31.6497 74.4911 24.8701 0.0000 -0.0277 0.0000
# 3 17.6307 24.8701 61.2916 0.0000 -4.0630 0.0000
# 4 0.0000 0.0000 0.0000 35.3323 0.0000 -1.5607
# 5 -7.7746 -0.0277 -4.0630 0.0000 24.7885 0.0000
# 6 0.0000 0.0000 0.0000 -1.5607 0.0000 25.6223
#
#
#
# Elastic Compliance Matrix: (Units=1/GPa)
#
#
# Indices 1 2 3 4 5 6 
#
# 1 0.029449 -0.011420 -0.003261 0.000000 0.008689 0.000000
# 2 -0.011420 0.019983 -0.005115 0.000000 -0.004398 0.000000
# 3 -0.003261 -0.005115 0.019472 0.000000 0.002163 0.000000
# 4 0.000000 0.000000 0.000000 0.028379 0.000000 0.001729
# 5 0.008689 -0.004398 0.002163 0.000000 0.043416 0.000000
# 6 0.000000 0.000000 0.000000 0.001729 0.000000 0.039134
#
#
# Mechanical properties :
#
#
# Convention : Reuss Voigt Hill
#
# Bulk Modulus (GPa) = 34.11601 37.17338 35.64470
# Shear Modulus (GPa) = 21.81534 24.62254 23.21894
#
# Velocity S-wave (km/s) = 3.22991 3.43143 3.33219
# Velocity P-wave (km/s) = 5.49767 5.78587 5.64361
#
# Compressibility (1/GPa) = 0.02931175
#
# Stress axis : x y z
#
# Youngs Moduli (GPa) = 33.95660 50.04324 51.35499
#
# Poissons Ratio (x) = 0.57151 0.16748
# Poissons Ratio (y) = 0.38780 0.26267
# Poissons Ratio (z) = 0.11074 0.25596
#
# Static dielectric constant tensor:
#      x y z
#    x 1.767190 0.000000 0.026470 
#    y 0.000000 1.758980 0.000000 
#    z 0.026470 0.000000 1.772880 
# 
# From -- ./inp_files/18014.got.cif
#   From: 2010.05.17/outbox.cif.g08.bks.cpg/sg13_10_cif.got.tgz:18014.got - 2010.06.03 16:44:36.
