data_PCOD9233942
_publ_section_title
;
Structure prediction by ZEFSAII (Michael W. Deem and Ramdas Pophale) SiO2 
 PCOD9233942
Probable space group: P 2/C
;
_chemical_formula_sum "Si O2"
_cell_formula_units_Z 14
_cell_length_a 7.772746
_cell_length_b 9.015664
_cell_length_c 10.283761
_cell_angle_alpha 90.000000
_cell_angle_beta 58.160154
_cell_angle_gamma 90.000000
_cell_volume 612.210612
_symmetry_space_group_name_H-M "P 2/C"
_symmetry_group_IT_number 13
_symmetry_cell_setting 'monoclinic'
loop_
_space_group_symop_operation_xyz
x,y,z
-x,y,1/2-z
-x,-y,-z
x,-y,1/2+z
loop_
_atom_site_type_symbol
_atom_site_label
_atom_site_fract_x
_atom_site_fract_y
_atom_site_fract_z
Si Si1 0.500000 0.200795 0.250000
Si Si2 0.207579 0.644766 0.314614
Si Si3 0.856114 0.016446 0.682563
Si Si4 0.267855 0.434207 0.513037
O O1 0.401261 0.305094 0.398232
O O2 0.324184 0.100792 0.257518
O O3 0.237553 0.818314 0.279837
O O4 0.286931 0.581476 0.418708
O O5 0.965456 0.618957 0.411275
O O6 0.292350 0.552809 0.157734
O O7 0.000000 0.996726 0.750000
O O8 0.000000 0.000000 0.500000
#
# Coordination Sequence:
#
# PCOD9233942 Si02
#       4
#     2   4   4   4
#     4  12  26  44  76 112 142 192 246 292 366 440
#     4  10  21  45  68 100 145 188 233 299 354 414
#     4  12  25  47  72 107 149 190 237 302 364 426
#     4  10  22  42  71 102 139 187 245 288 352 426
#
# _framework density 22.867947999999998
#
# number of rings (size 3 to 8) (size 9 to 14) (size 15 to 20)
#    0.000    1.143    5.714    0.000    0.000    9.143 
#    0.000    0.000    0.000    0.000    0.000    0.000 
#    0.000    0.000    0.000    0.000    0.000    0.000 
#
# Total GULP energy -78445.618558 kJ/mol
# GULP energy per Si atom -5603.258468 kJ/mol
# Density = 2.281590 g / cm^3
# Si number density = 22.867948 Si / 1000 Ang^3
#
#
#
# Elastic Constant Matrix: (Units=GPa)
#
#
# Indices 1 2 3 4 5 6 
#
# 1 158.8036 72.5287 61.2277 0.0000 -0.2400 0.0000
# 2 72.5287 105.3760 45.0529 0.0000 7.9567 0.0000
# 3 61.2277 45.0529 173.1889 0.0000 9.8782 0.0000
# 4 0.0000 0.0000 0.0000 33.1551 0.0000 -6.7174
# 5 -0.2400 7.9567 9.8782 0.0000 19.0529 0.0000
# 6 0.0000 0.0000 0.0000 -6.7174 0.0000 36.9414
#
#
#
# Elastic Compliance Matrix: (Units=1/GPa)
#
#
# Indices 1 2 3 4 5 6 
#
# 1 0.009974 -0.006248 -0.002119 0.000000 0.003834 0.000000
# 2 -0.006248 0.014774 -0.001317 0.000000 -0.005566 0.000000
# 3 -0.002119 -0.001317 0.007044 0.000000 -0.003129 0.000000
# 4 0.000000 0.000000 0.000000 0.031315 0.000000 0.005694
# 5 0.003834 -0.005566 -0.003129 0.000000 0.056480 0.000000
# 6 0.000000 0.000000 0.000000 0.005694 0.000000 0.028105
#
#
# Mechanical properties :
#
#
# Convention : Reuss Voigt Hill
#
# Bulk Modulus (GPa) = 80.49527 88.33190 84.41358
# Shear Modulus (GPa) = 29.20537 35.06715 32.13626
#
# Velocity S-wave (km/s) = 3.57757 3.92019 3.75280
# Velocity P-wave (km/s) = 7.23477 7.69424 7.46804
#
# Compressibility (1/GPa) = 0.01242309
#
# Stress axis : x y z
#
# Youngs Moduli (GPa) = 100.26480 67.68869 141.95881
#
# Poissons Ratio (x) = 0.42292 0.30085
# Poissons Ratio (y) = 0.62646 0.18693
# Poissons Ratio (z) = 0.21249 0.08913
#
# Static dielectric constant tensor:
#      x y z
#    x 1.883530 0.000000 -0.016020 
#    y 0.000000 1.820050 0.000000 
#    z -0.016020 0.000000 1.841110 
# 
# From -- ./inp_files/10811.got.cif
#   From: 2010.05.17/outbox.cif.g08.bks.cpg/sg13_6_cif.got.tgz:10811.got - 2010.06.03 16:44:36.
