data_PCOD9233038
_publ_section_title
;
Structure prediction by ZEFSAII (Michael W. Deem and Ramdas Pophale) SiO2 
 PCOD9233038
Probable space group: P 2/C
;
_chemical_formula_sum "Si O2"
_cell_formula_units_Z 24
_cell_length_a 18.870585
_cell_length_b 8.115541
_cell_length_c 24.311614
_cell_angle_alpha 90.000000
_cell_angle_beta 161.928973
_cell_angle_gamma 90.000000
_cell_volume 1154.921481
_symmetry_space_group_name_H-M "P 2/C"
_symmetry_group_IT_number 13
_symmetry_cell_setting 'monoclinic'
loop_
_space_group_symop_operation_xyz
x,y,z
-x,y,1/2-z
-x,-y,-z
x,-y,1/2+z
loop_
_atom_site_type_symbol
_atom_site_label
_atom_site_fract_x
_atom_site_fract_y
_atom_site_fract_z
Si Si1 0.251362 0.833759 0.733586
Si Si2 0.896045 0.290618 0.261282
Si Si3 0.304628 0.819335 0.996842
Si Si4 0.754790 0.811052 0.092954
Si Si5 0.790311 0.213651 0.835038
Si Si6 0.265504 0.394338 0.818012
O O1 0.234545 0.805751 0.786737
O O2 0.025379 0.757664 0.539786
O O3 0.225588 0.027973 0.701714
O O4 0.488519 0.759850 0.884171
O O5 0.132029 0.206314 0.419088
O O6 0.759985 0.295399 0.103047
O O7 0.924877 0.474869 0.304120
O O8 0.260957 0.999464 0.938097
O O9 0.562860 0.783880 0.203927
O O10 0.759158 0.762914 0.160355
O O11 0.000000 0.748485 0.250000
O O12 0.761734 0.338606 0.763986
O O13 0.500000 0.500000 0.000000
#
# Coordination Sequence:
#
# PCOD9233038 Si02
#       6
#     4   4   4   4   4   4
#     4  10  22  41  63  90 123 168 212 247 310 379
#     4  11  21  38  60  94 121 155 207 260 308 366
#     4  10  21  39  63  92 118 160 214 258 300 369
#     4  11  22  39  64  91 118 164 208 261 302 367
#     4  10  22  40  64  88 125 168 205 256 310 381
#     4  12  23  37  63  95 124 163 205 262 319 372
#
# _framework density 20.780632000000001
#
# number of rings (size 3 to 8) (size 9 to 14) (size 15 to 20)
#    0.000    1.333    5.000    1.000    2.333    4.000 
#    0.000    0.833    3.667    0.000    0.000    0.000 
#    0.000    0.000    0.000    0.000    0.000    0.000 
#
# Total GULP energy -133679.542181 kJ/mol
# GULP energy per Si atom -5569.980924 kJ/mol
# Density = 2.073333 g / cm^3
# Si number density = 20.780632 Si / 1000 Ang^3
#
#
#
# Elastic Constant Matrix: (Units=GPa)
#
#
# Indices 1 2 3 4 5 6 
#
# 1 87.4340 18.7156 52.5447 0.0000 33.9300 0.0000
# 2 18.7156 44.6174 10.5299 0.0000 10.4158 0.0000
# 3 52.5447 10.5299 150.4860 0.0000 41.1360 0.0000
# 4 0.0000 0.0000 0.0000 18.1685 0.0000 -1.6020
# 5 33.9300 10.4158 41.1360 0.0000 29.5439 0.0000
# 6 0.0000 0.0000 0.0000 -1.6020 0.0000 32.9573
#
#
#
# Elastic Compliance Matrix: (Units=1/GPa)
#
#
# Indices 1 2 3 4 5 6 
#
# 1 0.021290 -0.003644 -0.001366 0.000000 -0.021264 0.000000
# 2 -0.003644 0.025148 0.001279 0.000000 -0.006462 0.000000
# 3 -0.001366 0.001279 0.010861 0.000000 -0.014004 0.000000
# 4 0.000000 0.000000 0.000000 0.055277 0.000000 0.002687
# 5 -0.021264 -0.006462 -0.014004 0.000000 0.080045 0.000000
# 6 0.000000 0.000000 0.000000 0.002687 0.000000 0.030473
#
#
# Mechanical properties :
#
#
# Convention : Reuss Voigt Hill
#
# Bulk Modulus (GPa) = 20.06573 49.56863 34.81718
# Shear Modulus (GPa) = 20.22912 29.51709 24.87310
#
# Velocity S-wave (km/s) = 3.12342 3.77293 3.46343
# Velocity P-wave (km/s) = 4.76283 6.54867 5.72580
#
# Compressibility (1/GPa) = 0.04983621
#
# Stress axis : x y z
#
# Youngs Moduli (GPa) = 46.97059 39.76454 92.07470
#
# Poissons Ratio (x) = 0.14491 0.12580
# Poissons Ratio (y) = 0.17117 -0.11778
# Poissons Ratio (z) = 0.06417 -0.05086
#
# Static dielectric constant tensor:
#      x y z
#    x 1.704870 0.000000 0.044060 
#    y 0.000000 1.799000 0.000000 
#    z 0.044060 0.000000 1.821610 
# 
# From -- ./inp_files/87935.got.cif
#   From: 2010.05.17/outbox.cif.g08.bks.cpg/sg13_44_cif.got.tgz:87935.got - 2010.06.03 16:44:36.
