data_PCOD9233403
_publ_section_title
;
Structure prediction by ZEFSAII (Michael W. Deem and Ramdas Pophale) SiO2 
 PCOD9233403
Probable space group: P 2/C
;
_chemical_formula_sum "Si O2"
_cell_formula_units_Z 16
_cell_length_a 18.708413
_cell_length_b 5.143712
_cell_length_c 17.047852
_cell_angle_alpha 90.000000
_cell_angle_beta 155.677806
_cell_angle_gamma 90.000000
_cell_volume 675.679345
_symmetry_space_group_name_H-M "P 2/C"
_symmetry_group_IT_number 13
_symmetry_cell_setting 'monoclinic'
loop_
_space_group_symop_operation_xyz
x,y,z
-x,y,1/2-z
-x,-y,-z
x,-y,1/2+z
loop_
_atom_site_type_symbol
_atom_site_label
_atom_site_fract_x
_atom_site_fract_y
_atom_site_fract_z
Si Si1 0.500001 0.747494 0.444707
Si Si2 0.196621 0.067983 0.356762
Si Si3 0.999999 0.254618 0.555966
Si Si4 0.196621 0.932016 0.036481
O O1 0.500000 0.500000 0.500000
O O2 0.500000 0.000000 0.500000
O O3 0.332593 0.769851 0.221666
O O4 0.750293 0.970922 0.500293
O O5 0.163198 0.796626 0.549683
O O6 0.163197 0.796626 0.276713
O O7 0.332595 0.230143 0.443522
O O8 0.000000 0.000000 0.000000
O O9 0.000001 0.816568 0.661029
O O10 0.000000 0.500000 0.500000
#
# Coordination Sequence:
#
# PCOD9233403 Si02
#       4
#     4   4   4   4
#     4  12  27  46  73 110 149 200 253 320 383 456
#     4   9  22  47  75 107 150 203 259 318 387 461
#     4  10  21  40  69 106 145 188 249 318 379 452
#     4   9  22  47  75 107 150 203 259 318 387 461
#
# _framework density 23.679869
#
# number of rings (size 3 to 8) (size 9 to 14) (size 15 to 20)
#    1.500    0.500    0.000    2.250    0.000    9.000 
#    0.000   15.000    0.000    0.000    0.000    0.000 
#    0.000    0.000    0.000    0.000    0.000    0.000 
#
# Total GULP energy -89407.504747 kJ/mol
# GULP energy per Si atom -5587.969047 kJ/mol
# Density = 2.362597 g / cm^3
# Si number density = 23.679869 Si / 1000 Ang^3
#
#
#
# Elastic Constant Matrix: (Units=GPa)
#
#
# Indices 1 2 3 4 5 6 
#
# 1 206.4746 97.0348 88.8573 0.0000 -32.4819 0.0000
# 2 97.0348 178.6897 91.7025 0.0000 -25.9317 0.0000
# 3 88.8573 91.7025 193.3624 0.0000 -31.2127 0.0000
# 4 0.0000 0.0000 0.0000 30.8263 0.0000 -7.3732
# 5 -32.4819 -25.9317 -31.2127 0.0000 61.6351 0.0000
# 6 0.0000 0.0000 0.0000 -7.3732 0.0000 32.3393
#
#
#
# Elastic Compliance Matrix: (Units=1/GPa)
#
#
# Indices 1 2 3 4 5 6 
#
# 1 0.007142 -0.002756 -0.001693 0.000000 0.001747 0.000000
# 2 -0.002756 0.008582 -0.002674 0.000000 0.000804 0.000000
# 3 -0.001693 -0.002674 0.007505 0.000000 0.001784 0.000000
# 4 0.000000 0.000000 0.000000 0.034311 0.000000 0.007823
# 5 0.001747 0.000804 0.001784 0.000000 0.018387 0.000000
# 6 0.000000 0.000000 0.000000 0.007823 0.000000 0.032706
#
#
# Mechanical properties :
#
#
# Convention : Reuss Voigt Hill
#
# Bulk Modulus (GPa) = 111.30845 125.96843 118.63844
# Shear Modulus (GPa) = 39.72296 45.02229 42.37262
#
# Velocity S-wave (km/s) = 4.10017 4.36511 4.23471
# Velocity P-wave (km/s) = 8.33803 8.87229 8.60930
#
# Compressibility (1/GPa) = 0.00898404
#
# Stress axis : x y z
#
# Youngs Moduli (GPa) = 140.02157 116.52802 133.23564
#
# Poissons Ratio (x) = 0.32114 0.22556
# Poissons Ratio (y) = 0.38589 0.35622
# Poissons Ratio (z) = 0.23705 0.31155
#
# Static dielectric constant tensor:
#      x y z
#    x 1.893650 0.000000 0.093090 
#    y 0.000000 1.930950 0.000000 
#    z 0.093090 0.000000 1.912850 
# 
# From -- ./inp_files/35249.got.cif
#   From: 2010.05.17/outbox.cif.g08.bks.cpg/sg13_18_cif.got.tgz:35249.got - 2010.06.03 16:44:36.
