data_PCOD9233049
_publ_section_title
;
Structure prediction by ZEFSAII (Michael W. Deem and Ramdas Pophale) SiO2 
 PCOD9233049
Probable space group: P 2/C
;
_chemical_formula_sum "Si O2"
_cell_formula_units_Z 20
_cell_length_a 12.269660
_cell_length_b 13.718776
_cell_length_c 9.228152
_cell_angle_alpha 90.000000
_cell_angle_beta 34.823615
_cell_angle_gamma 90.000000
_cell_volume 887.029905
_symmetry_space_group_name_H-M "P 2/C"
_symmetry_group_IT_number 13
_symmetry_cell_setting 'monoclinic'
loop_
_space_group_symop_operation_xyz
x,y,z
-x,y,1/2-z
-x,-y,-z
x,-y,1/2+z
loop_
_atom_site_type_symbol
_atom_site_label
_atom_site_fract_x
_atom_site_fract_y
_atom_site_fract_z
Si Si1 0.888502 0.787422 0.496112
Si Si2 0.744149 0.286942 0.740382
Si Si3 0.481721 0.105201 0.091283
Si Si4 0.290261 0.406151 0.985292
Si Si5 0.349813 0.393346 0.250839
O O1 0.053976 0.737530 0.406564
O O2 0.000000 0.844587 0.250000
O O3 0.762971 0.699178 0.565737
O O4 0.275365 0.854850 0.763523
O O5 0.810286 0.336535 0.518246
O O6 0.633705 0.183720 0.865007
O O7 0.573436 0.360923 0.987784
O O8 0.500000 0.104420 0.250000
O O9 0.500000 0.000000 0.000000
O O10 0.500000 0.359146 0.750000
O O11 0.309139 0.512112 0.890757
O O12 0.259276 0.412999 0.190112
#
# Coordination Sequence:
#
# PCOD9233049 Si02
#       5
#     4   4   4   4   4
#     4  11  24  42  68  96 129 174 222 270 328 394
#     4  10  22  42  66  91 134 173 221 269 326 392
#     4  11  25  46  71  99 129 167 212 273 343 408
#     4  10  21  39  63  96 135 184 223 270 323 382
#     4  10  24  39  64  95 138 181 227 272 325 380
#
# _framework density 22.547155
#
# number of rings (size 3 to 8) (size 9 to 14) (size 15 to 20)
#    0.000    1.600    2.000    2.400    5.600    6.400 
#    0.000    0.000    0.000    0.000    0.000    0.000 
#    0.000    0.000    0.000    0.000    0.000    0.000 
#
# Total GULP energy -111439.252766 kJ/mol
# GULP energy per Si atom -5571.962638 kJ/mol
# Density = 2.249584 g / cm^3
# Si number density = 22.547155 Si / 1000 Ang^3
#
#
#
# Elastic Constant Matrix: (Units=GPa)
#
#
# Indices 1 2 3 4 5 6 
#
# 1 126.4472 60.9273 52.0077 0.0000 -2.0815 0.0000
# 2 60.9273 155.2367 57.0829 0.0000 7.1003 0.0000
# 3 52.0077 57.0829 115.5254 0.0000 -23.9046 0.0000
# 4 0.0000 0.0000 0.0000 -17.8589 0.0000 1.2025
# 5 -2.0815 7.1003 -23.9046 0.0000 38.7021 0.0000
# 6 0.0000 0.0000 0.0000 1.2025 0.0000 20.4339
#
#
#
# Elastic Compliance Matrix: (Units=1/GPa)
#
#
# Indices 1 2 3 4 5 6 
#
# 1 0.010766 -0.002808 -0.003707 0.000000 -0.001195 0.000000
# 2 -0.002808 0.009321 -0.004273 0.000000 -0.004500 0.000000
# 3 -0.003707 -0.004273 0.014397 0.000000 0.009477 0.000000
# 4 0.000000 0.000000 0.000000 -0.055774 0.000000 0.003282
# 5 -0.001195 -0.004500 0.009477 0.000000 0.032453 0.000000
# 6 0.000000 0.000000 0.000000 0.003282 0.000000 0.048745
#
#
# Mechanical properties :
#
#
# Convention : Reuss Voigt Hill
#
# Bulk Modulus (GPa) = 77.46207 81.91614 79.68910
# Shear Modulus (GPa) = 58.28436 23.40151 40.84294
#
# Velocity S-wave (km/s) = 5.08980 3.22513 4.26073
# Velocity P-wave (km/s) = 8.30492 7.09073 7.72173
#
# Compressibility (1/GPa) = 0.01290954
#
# Stress axis : x y z
#
# Youngs Moduli (GPa) = 92.88261 107.28775 69.45915
#
# Poissons Ratio (x) = 0.30125 0.25747
# Poissons Ratio (y) = 0.26080 0.29677
# Poissons Ratio (z) = 0.34429 0.45840
#
# Static dielectric constant tensor:
#      x y z
#    x 1.714040 0.000000 0.011190 
#    y 0.000000 1.797180 0.000000 
#    z 0.011190 0.000000 1.890880 
# 
# From -- ./inp_files/37103.got.cif
#   From: 2010.05.17/outbox.cif.g08.bks.cpg/sg13_19_cif.got.tgz:37103.got - 2010.06.03 16:44:36.
