data_PCOD9233891
_publ_section_title
;
Structure prediction by ZEFSAII (Michael W. Deem and Ramdas Pophale) SiO2 
 PCOD9233891
Probable space group: P 2/C
;
_chemical_formula_sum "Si O2"
_cell_formula_units_Z 22
_cell_length_a 9.206356
_cell_length_b 21.678011
_cell_length_c 8.092756
_cell_angle_alpha 90.000000
_cell_angle_beta 34.580155
_cell_angle_gamma 90.000000
_cell_volume 916.672830
_symmetry_space_group_name_H-M "P 2/C"
_symmetry_group_IT_number 13
_symmetry_cell_setting 'monoclinic'
loop_
_space_group_symop_operation_xyz
x,y,z
-x,y,1/2-z
-x,-y,-z
x,-y,1/2+z
loop_
_atom_site_type_symbol
_atom_site_label
_atom_site_fract_x
_atom_site_fract_y
_atom_site_fract_z
Si Si1 0.500000 0.955885 0.250000
Si Si2 0.500000 0.560037 0.250000
Si Si3 0.071974 0.248825 0.487043
Si Si4 0.000000 0.477152 0.750000
Si Si5 0.500000 0.297914 0.250000
Si Si6 0.000000 0.040286 0.750000
Si Si7 0.108243 0.880633 0.464134
Si Si8 0.171784 0.372570 0.798756
O O1 0.394289 0.909049 0.208580
O O2 0.259609 0.999798 0.517204
O O3 0.600534 0.603456 0.301444
O O4 0.256527 0.517234 0.517696
O O5 0.378350 0.256070 0.219747
O O6 0.000000 0.242558 0.750000
O O7 0.944824 0.190691 0.521694
O O8 0.979852 0.313270 0.493593
O O9 0.994279 0.431623 0.596945
O O10 0.294570 0.344026 0.518724
O O11 0.017935 0.081316 0.567684
O O12 0.000000 0.890227 0.750000
#
# Coordination Sequence:
#
# PCOD9233891 Si02
#       8
#     2   2   4   2   2   2   4   4
#     4  12  28  52  80 117 159 208 254 314 378 454
#     4  12  29  39  72 107 144 179 244 316 360 432
#     4  10  23  46  72 104 142 198 245 311 381 446
#     4  12  24  45  70 103 140 198 242 292 372 458
#     4  10  21  43  78  94 143 197 238 288 394 446
#     4  12  28  53  80 111 166 210 246 310 392 444
#     4  12  28  47  80 118 153 201 266 316 371 462
#     4  11  24  45  70 101 144 189 243 303 377 446
#
# _framework density 23.999835999999998
#
# number of rings (size 3 to 8) (size 9 to 14) (size 15 to 20)
#    0.000    0.727    4.545    2.727    5.091    5.818 
#    0.000    0.000    0.000    0.000    0.000    0.000 
#    0.000    0.000    0.000    0.000    0.000    0.000 
#
# Total GULP energy -122904.035324 kJ/mol
# GULP energy per Si atom -5586.547060 kJ/mol
# Density = 2.394521 g / cm^3
# Si number density = 23.999836 Si / 1000 Ang^3
#
#
#
# Elastic Constant Matrix: (Units=GPa)
#
#
# Indices 1 2 3 4 5 6 
#
# 1 161.7227 96.1870 42.4327 0.0000 -19.3838 0.0000
# 2 96.1870 193.7111 55.1735 0.0000 -25.1715 0.0000
# 3 42.4327 55.1735 87.6986 0.0000 -19.0621 0.0000
# 4 0.0000 0.0000 0.0000 10.9031 0.0000 -16.0228
# 5 -19.3838 -25.1715 -19.0621 0.0000 45.0817 0.0000
# 6 0.0000 0.0000 0.0000 -16.0228 0.0000 65.0694
#
#
#
# Elastic Compliance Matrix: (Units=1/GPa)
#
#
# Indices 1 2 3 4 5 6 
#
# 1 0.009063 -0.003878 -0.001728 0.000000 0.001001 0.000000
# 2 -0.003878 0.008121 -0.002874 0.000000 0.001652 0.000000
# 3 -0.001728 -0.002874 0.014906 0.000000 0.003955 0.000000
# 4 0.000000 0.000000 0.000000 0.143726 0.000000 0.035391
# 5 0.001001 0.001652 0.003955 0.000000 0.025207 0.000000
# 6 0.000000 0.000000 0.000000 0.035391 0.000000 0.024083
#
#
# Mechanical properties :
#
#
# Convention : Reuss Voigt Hill
#
# Bulk Modulus (GPa) = 66.08774 92.30207 79.19490
# Shear Modulus (GPa) = 20.23382 40.83345 30.53364
#
# Velocity S-wave (km/s) = 2.90674 4.12928 3.57072
# Velocity P-wave (km/s) = 6.23394 7.82800 7.07600
#
# Compressibility (1/GPa) = 0.01513140
#
# Stress axis : x y z
#
# Youngs Moduli (GPa) = 110.33431 123.13442 67.08523
#
# Poissons Ratio (x) = 0.47754 0.11591
# Poissons Ratio (y) = 0.42790 0.19279
# Poissons Ratio (z) = 0.19064 0.35386
#
# Static dielectric constant tensor:
#      x y z
#    x 2.011800 0.000000 -0.068450 
#    y 0.000000 1.927440 0.000000 
#    z -0.068450 0.000000 2.083750 
# 
# From -- ./inp_files/13440.got.cif
#   From: 2010.05.17/outbox.cif.g08.bks.cpg/sg13_7_cif.got.tgz:13440.got - 2010.06.03 16:44:36.
