data_PCOD9233660
_publ_section_title
;
Structure prediction by ZEFSAII (Michael W. Deem and Ramdas Pophale) SiO2 
 PCOD9233660
Probable space group: P 2/C
;
_chemical_formula_sum "Si O2"
_cell_formula_units_Z 24
_cell_length_a 5.672698
_cell_length_b 18.178579
_cell_length_c 9.962556
_cell_angle_alpha 90.000000
_cell_angle_beta 90.081029
_cell_angle_gamma 90.000000
_cell_volume 1027.353575
_symmetry_space_group_name_H-M "P 2/C"
_symmetry_group_IT_number 13
_symmetry_cell_setting 'monoclinic'
loop_
_space_group_symop_operation_xyz
x,y,z
-x,y,1/2-z
-x,-y,-z
x,-y,1/2+z
loop_
_atom_site_type_symbol
_atom_site_label
_atom_site_fract_x
_atom_site_fract_y
_atom_site_fract_z
Si Si1 0.327140 0.487354 0.879068
Si Si2 0.500000 0.721813 0.750000
Si Si3 0.250508 0.676733 0.323801
Si Si4 0.500000 0.996143 0.250000
Si Si5 0.202777 0.939656 0.501499
Si Si6 0.861635 0.359719 0.112173
Si Si7 0.842805 0.224657 0.460840
O O1 0.500000 0.496519 0.750000
O O2 0.215896 0.406151 0.882727
O O3 0.141610 0.553081 0.901353
O O4 0.500000 0.500000 0.000000
O O5 0.404570 0.666583 0.863010
O O6 0.299436 0.769645 0.679177
O O7 0.500000 0.665189 0.250000
O O8 0.313806 0.746111 0.417439
O O9 0.000000 0.692029 0.250000
O O10 0.646756 0.044390 0.360896
O O11 0.344560 0.949238 0.359258
O O12 0.090461 0.858689 0.514151
O O13 0.000000 0.000000 0.500000
O O14 0.000000 0.350591 0.250000
O O15 0.967803 0.291131 0.031101
#
# Coordination Sequence:
#
# PCOD9233660 Si02
#       7
#     4   2   4   2   4   4   4
#     4  11  24  43  72  99 145 199 255 316 369 449
#     4  10  21  42  64 103 140 180 244 299 382 424
#     4  11  28  48  70 109 151 202 251 314 384 454
#     4  10  25  46  78 107 146 194 240 307 380 474
#     4  11  25  48  75 110 147 192 250 305 389 461
#     4  10  22  39  67 101 133 184 239 303 368 432
#     4  11  26  42  74 103 145 186 242 316 367 469
#
# _framework density 23.360993000000001
#
# number of rings (size 3 to 8) (size 9 to 14) (size 15 to 20)
#    0.000    1.333    0.833    2.500   10.500    8.667 
#    0.000    0.000    0.000    0.000    0.000    0.000 
#    0.000    0.000    0.000    0.000    0.000    0.000 
#
# Total GULP energy -133619.550933 kJ/mol
# GULP energy per Si atom -5567.481289 kJ/mol
# Density = 2.330782 g / cm^3
# Si number density = 23.360993 Si / 1000 Ang^3
#
#
#
# Elastic Constant Matrix: (Units=GPa)
#
#
# Indices 1 2 3 4 5 6 
#
# 1 53.8727 26.3555 23.1561 0.0000 6.0890 0.0000
# 2 26.3555 204.2990 36.5804 0.0000 -7.4028 0.0000
# 3 23.1561 36.5804 130.8092 0.0000 14.5870 0.0000
# 4 0.0000 0.0000 0.0000 19.3705 0.0000 16.4557
# 5 6.0890 -7.4028 14.5870 0.0000 30.1892 0.0000
# 6 0.0000 0.0000 0.0000 16.4557 0.0000 -4.6870
#
#
#
# Elastic Compliance Matrix: (Units=1/GPa)
#
#
# Indices 1 2 3 4 5 6 
#
# 1 0.021299 -0.002393 -0.002702 0.000000 -0.003577 0.000000
# 2 -0.002393 0.005547 -0.001409 0.000000 0.002524 0.000000
# 3 -0.002702 -0.001409 0.008979 0.000000 -0.004139 0.000000
# 4 0.000000 0.000000 0.000000 0.012963 0.000000 0.045511
# 5 -0.003577 0.002524 -0.004139 0.000000 0.036465 0.000000
# 6 0.000000 0.000000 0.000000 0.045511 0.000000 -0.053572
#
#
# Mechanical properties :
#
#
# Convention : Reuss Voigt Hill
#
# Bulk Modulus (GPa) = 43.82962 62.35167 53.09064
# Shear Modulus (GPa) = 95.61198 29.16713 62.38955
#
# Velocity S-wave (km/s) = 6.40444 3.53730 5.17346
# Velocity P-wave (km/s) = 8.57274 6.59028 7.64603
#
# Compressibility (1/GPa) = 0.02281562
#
# Stress axis : x y z
#
# Youngs Moduli (GPa) = 46.95059 180.26792 111.37548
#
# Poissons Ratio (x) = 0.43146 0.30095
# Poissons Ratio (y) = 0.11237 0.15693
# Poissons Ratio (z) = 0.12687 0.25400
#
# Static dielectric constant tensor:
#      x y z
#    x 2.048010 0.000000 -0.055130 
#    y 0.000000 1.986080 0.000000 
#    z -0.055130 0.000000 2.208000 
# 
# From -- ./inp_files/26535.got.cif
#   From: 2010.05.17/outbox.cif.g08.bks.cpg/sg13_14_cif.got.tgz:26535.got - 2010.06.03 16:44:36.
