data_PCOD9233268
_publ_section_title
;
Structure prediction by ZEFSAII (Michael W. Deem and Ramdas Pophale) SiO2 
 PCOD9233268
Probable space group: P 2/C
;
_chemical_formula_sum "Si O2"
_cell_formula_units_Z 22
_cell_length_a 10.150936
_cell_length_b 11.380500
_cell_length_c 13.093182
_cell_angle_alpha 90.000000
_cell_angle_beta 145.543506
_cell_angle_gamma 90.000000
_cell_volume 855.776696
_symmetry_space_group_name_H-M "P 2/C"
_symmetry_group_IT_number 13
_symmetry_cell_setting 'monoclinic'
loop_
_space_group_symop_operation_xyz
x,y,z
-x,y,1/2-z
-x,-y,-z
x,-y,1/2+z
loop_
_atom_site_type_symbol
_atom_site_label
_atom_site_fract_x
_atom_site_fract_y
_atom_site_fract_z
Si Si1 0.000000 0.593496 0.250000
Si Si2 0.730380 0.410975 0.945203
Si Si3 0.611754 0.931294 0.458311
Si Si4 0.486594 0.358348 0.990777
Si Si5 0.675491 0.147929 0.219433
Si Si6 0.159692 0.821146 0.094349
O O1 0.786616 0.664134 0.162622
O O2 0.095957 0.506794 0.399970
O O3 0.500000 0.468626 0.750000
O O4 0.631071 0.337316 0.978773
O O5 0.826075 0.317370 0.924947
O O6 0.733929 0.904266 0.643530
O O7 0.751027 0.883098 0.452180
O O8 0.543716 0.066525 0.395483
O O9 0.355518 0.866262 0.297717
O O10 0.500000 0.500000 0.000000
O O11 0.614098 0.283411 0.158981
O O12 0.893000 0.142078 0.434271
#
# Coordination Sequence:
#
# PCOD9233268 Si02
#       6
#     2   4   4   4   4   4
#     4  10  24  40  60  92 132 166 200 272 320 360
#     4  11  20  37  67  92 118 159 219 259 300 377
#     4  10  22  35  57  93 113 154 213 246 306 373
#     4  10  21  40  63  91 122 163 213 250 312 376
#     4  11  21  38  59  86 122 162 199 259 313 360
#     4  11  19  37  61  87 119 157 206 258 295 372
#
# _framework density 25.707640000000001
#
# number of rings (size 3 to 8) (size 9 to 14) (size 15 to 20)
#    0.000    1.455    3.636    3.273    0.000    0.727 
#    6.545    3.636   20.000    0.000    0.000    0.000 
#    0.000    0.000    0.000    0.000    0.000    0.000 
#
# Total GULP energy -122956.262784 kJ/mol
# GULP energy per Si atom -5588.921036 kJ/mol
# Density = 2.564913 g / cm^3
# Si number density = 25.707640 Si / 1000 Ang^3
#
#
#
# Elastic Constant Matrix: (Units=GPa)
#
#
# Indices 1 2 3 4 5 6 
#
# 1 68.7472 6.0010 -11.1557 0.0000 12.5132 0.0000
# 2 6.0010 106.6036 16.5750 0.0000 4.0880 0.0000
# 3 -11.1557 16.5750 131.6099 0.0000 18.1475 0.0000
# 4 0.0000 0.0000 0.0000 34.0170 0.0000 3.5932
# 5 12.5132 4.0880 18.1475 0.0000 31.6998 0.0000
# 6 0.0000 0.0000 0.0000 3.5932 0.0000 27.0016
#
#
#
# Elastic Compliance Matrix: (Units=1/GPa)
#
#
# Indices 1 2 3 4 5 6 
#
# 1 0.016494 -0.001033 0.002614 0.000000 -0.007874 0.000000
# 2 -0.001033 0.009643 -0.001288 0.000000 -0.000098 0.000000
# 3 0.002614 -0.001288 0.008796 0.000000 -0.005901 0.000000
# 4 0.000000 0.000000 0.000000 0.029816 0.000000 -0.003968
# 5 -0.007874 -0.000098 -0.005901 0.000000 0.038045 0.000000
# 6 0.000000 0.000000 0.000000 -0.003968 0.000000 0.037563
#
#
# Mechanical properties :
#
#
# Convention : Reuss Voigt Hill
#
# Bulk Modulus (GPa) = 28.15556 36.64461 32.40008
# Shear Modulus (GPa) = 32.97936 38.24638 35.61287
#
# Velocity S-wave (km/s) = 3.58559 3.86131 3.72600
# Velocity P-wave (km/s) = 5.30264 5.84508 5.58045
#
# Compressibility (1/GPa) = 0.03551696
#
# Stress axis : x y z
#
# Youngs Moduli (GPa) = 60.62986 103.70449 113.69174
#
# Poissons Ratio (x) = 0.10712 -0.29717
# Poissons Ratio (y) = 0.06263 0.14648
# Poissons Ratio (z) = -0.15848 0.13362
#
# Static dielectric constant tensor:
#      x y z
#    x 2.050670 0.000000 -0.021420 
#    y 0.000000 2.090540 0.000000 
#    z -0.021420 0.000000 2.046390 
# 
# From -- ./inp_files/51249.got.cif
#   From: 2010.05.17/outbox.cif.g08.bks.cpg/sg13_26_cif.got.tgz:51249.got - 2010.06.03 16:44:36.
