data_PCOD9233334
_publ_section_title
;
Structure prediction by ZEFSAII (Michael W. Deem and Ramdas Pophale) SiO2 
 PCOD9233334
Probable space group: P 2/C
;
_chemical_formula_sum "Si O2"
_cell_formula_units_Z 28
_cell_length_a 9.083089
_cell_length_b 14.131031
_cell_length_c 22.448793
_cell_angle_alpha 90.000000
_cell_angle_beta 27.374980
_cell_angle_gamma 90.000000
_cell_volume 1324.892864
_symmetry_space_group_name_H-M "P 2/C"
_symmetry_group_IT_number 13
_symmetry_cell_setting 'monoclinic'
loop_
_space_group_symop_operation_xyz
x,y,z
-x,y,1/2-z
-x,-y,-z
x,-y,1/2+z
loop_
_atom_site_type_symbol
_atom_site_label
_atom_site_fract_x
_atom_site_fract_y
_atom_site_fract_z
Si Si1 0.857684 0.787178 0.942524
Si Si2 0.706276 0.685452 0.533174
Si Si3 0.659637 0.279717 0.635152
Si Si4 0.040986 0.386161 0.805253
Si Si5 0.932290 0.392249 0.204477
Si Si6 0.698248 0.871422 0.810307
Si Si7 0.625929 0.053742 0.895712
O O1 0.894241 0.683513 0.900041
O O2 0.141849 0.847914 0.810513
O O3 0.836378 0.779975 0.021026
O O4 0.540894 0.845583 0.041624
O O5 0.445849 0.626188 0.662697
O O6 0.569251 0.792025 0.583013
O O7 0.047596 0.664908 0.440293
O O8 0.759914 0.659204 0.445337
O O9 0.500000 0.228701 0.750000
O O10 0.380536 0.341669 0.704508
O O11 0.007745 0.498380 0.828873
O O12 0.000000 0.370252 0.750000
O O13 0.000000 0.371134 0.250000
O O14 0.000000 0.862762 0.750000
O O15 0.554643 0.975727 0.870097
O O16 0.000000 0.070188 0.750000
O O17 0.500000 0.000000 0.000000
#
# Coordination Sequence:
#
# PCOD9233334 Si02
#       7
#     4   4   4   4   4   4   4
#     4  11  22  42  68  91 140 179 224 280 342 412
#     4  10  22  43  65  88 144 176 219 290 333 407
#     4  10  25  45  61 100 136 177 240 274 339 417
#     4  10  24  40  65  99 131 179 231 284 347 401
#     4  10  24  40  67 100 135 177 226 291 342 411
#     4  10  21  40  66 104 133 173 227 279 344 408
#     4  11  22  39  69 107 138 172 230 288 343 410
#
# _framework density 21.133783999999999
#
# number of rings (size 3 to 8) (size 9 to 14) (size 15 to 20)
#    0.000    1.714    2.857    1.714    6.000    6.857 
#    5.143    0.714    0.000    0.000    0.000    0.000 
#    0.000    0.000    0.000    0.000    0.000    0.000 
#
# Total GULP energy -156111.249781 kJ/mol
# GULP energy per Si atom -5575.401778 kJ/mol
# Density = 2.108568 g / cm^3
# Si number density = 21.133784 Si / 1000 Ang^3
#
#
#
# Elastic Constant Matrix: (Units=GPa)
#
#
# Indices 1 2 3 4 5 6 
#
# 1 65.0614 19.9431 42.0245 0.0000 14.5458 0.0000
# 2 19.9431 73.0779 66.9331 0.0000 11.4476 0.0000
# 3 42.0245 66.9331 169.1128 0.0000 27.9263 0.0000
# 4 0.0000 0.0000 0.0000 12.8610 0.0000 -5.4601
# 5 14.5458 11.4476 27.9263 0.0000 41.1794 0.0000
# 6 0.0000 0.0000 0.0000 -5.4601 0.0000 -8.4064
#
#
#
# Elastic Compliance Matrix: (Units=1/GPa)
#
#
# Indices 1 2 3 4 5 6 
#
# 1 0.018935 -0.001312 -0.003538 0.000000 -0.003924 0.000000
# 2 -0.001312 0.021558 -0.008213 0.000000 0.000040 0.000000
# 3 -0.003538 -0.008213 0.010653 0.000000 -0.003691 0.000000
# 4 0.000000 0.000000 0.000000 0.060948 0.000000 -0.039587
# 5 -0.003924 0.000040 -0.003691 0.000000 0.028162 0.000000
# 6 0.000000 0.000000 0.000000 -0.039587 0.000000 -0.093245
#
#
# Mechanical properties :
#
#
# Convention : Reuss Voigt Hill
#
# Bulk Modulus (GPa) = 39.96903 62.78371 51.37637
# Shear Modulus (GPa) = 61.36648 21.01690 41.19169
#
# Velocity S-wave (km/s) = 5.39446 3.15694 4.41964
# Velocity P-wave (km/s) = 7.59958 6.56206 7.09980
#
# Compressibility (1/GPa) = 0.02501937
#
# Stress axis : x y z
#
# Youngs Moduli (GPa) = 52.81253 46.38567 93.87351
#
# Poissons Ratio (x) = 0.06087 0.33212
# Poissons Ratio (y) = 0.06930 0.77100
# Poissons Ratio (z) = 0.18685 0.38097
#
# Static dielectric constant tensor:
#      x y z
#    x 1.921100 0.000000 0.019720 
#    y 0.000000 1.788380 0.000000 
#    z 0.019720 0.000000 1.799080 
# 
# From -- ./inp_files/76691.got.cif
#   From: 2010.05.17/outbox.cif.g08.bks.cpg/sg13_39_cif.got.tgz:76691.got - 2010.06.03 16:44:36.
