data_PCOD9233819
_publ_section_title
;
Structure prediction by ZEFSAII (Michael W. Deem and Ramdas Pophale) SiO2 
 PCOD9233819
Probable space group: P 2/C
;
_chemical_formula_sum "Si O2"
_cell_formula_units_Z 16
_cell_length_a 21.575443
_cell_length_b 6.402188
_cell_length_c 13.655861
_cell_angle_alpha 90.000000
_cell_angle_beta 19.581296
_cell_angle_gamma 90.000000
_cell_volume 632.177024
_symmetry_space_group_name_H-M "P 2/C"
_symmetry_group_IT_number 13
_symmetry_cell_setting 'monoclinic'
loop_
_space_group_symop_operation_xyz
x,y,z
-x,y,1/2-z
-x,-y,-z
x,-y,1/2+z
loop_
_atom_site_type_symbol
_atom_site_label
_atom_site_fract_x
_atom_site_fract_y
_atom_site_fract_z
Si Si1 0.506652 0.540512 0.373494
Si Si2 0.125418 0.373591 0.930446
Si Si3 0.306085 0.091363 0.830480
Si Si4 0.161795 0.721922 0.162814
O O1 0.500000 0.500000 0.500000
O O2 0.295690 0.533567 0.656457
O O3 0.618997 0.753596 0.196423
O O4 0.625822 0.354768 0.151915
O O5 0.198480 0.218854 0.905778
O O6 0.094312 0.252615 0.874619
O O7 0.955154 0.526857 0.205752
O O8 0.500000 0.000000 0.500000
O O9 0.172317 0.920252 0.077109
#
# Coordination Sequence:
#
# PCOD9233819 Si02
#       4
#     4   4   4   4
#     4  10  21  43  66 109 145 194 252 309 381 450
#     4  10  24  47  76 114 156 202 250 326 391 450
#     4  11  23  46  75 110 144 203 262 306 390 461
#     4  11  23  49  74 111 158 198 254 319 388 460
#
# _framework density 25.309367999999999
#
# number of rings (size 3 to 8) (size 9 to 14) (size 15 to 20)
#    0.000    1.500    5.000    0.750    0.000    4.000 
#   18.000    2.500    0.000    1.500    0.000    0.000 
#    0.000    0.000    0.000    0.000    0.000    0.000 
#
# Total GULP energy -89506.283315 kJ/mol
# GULP energy per Si atom -5594.142707 kJ/mol
# Density = 2.525176 g / cm^3
# Si number density = 25.309368 Si / 1000 Ang^3
#
#
#
# Elastic Constant Matrix: (Units=GPa)
#
#
# Indices 1 2 3 4 5 6 
#
# 1 137.2077 64.0208 44.8782 0.0000 7.0785 0.0000
# 2 64.0208 142.6687 61.9738 0.0000 4.6874 0.0000
# 3 44.8782 61.9738 121.2008 0.0000 -14.7793 0.0000
# 4 0.0000 0.0000 0.0000 60.6611 0.0000 1.1436
# 5 7.0785 4.6874 -14.7793 0.0000 41.9129 0.0000
# 6 0.0000 0.0000 0.0000 1.1436 0.0000 37.1721
#
#
#
# Elastic Compliance Matrix: (Units=1/GPa)
#
#
# Indices 1 2 3 4 5 6 
#
# 1 0.009640 -0.003348 -0.002101 0.000000 -0.001995 0.000000
# 2 -0.003348 0.010487 -0.004386 0.000000 -0.002154 0.000000
# 3 -0.002101 -0.004386 0.011885 0.000000 0.005036 0.000000
# 4 0.000000 0.000000 0.000000 0.016495 0.000000 -0.000507
# 5 -0.001995 -0.002154 0.005036 0.000000 0.026213 0.000000
# 6 0.000000 0.000000 0.000000 -0.000507 0.000000 0.026918
#
#
# Mechanical properties :
#
#
# Convention : Reuss Voigt Hill
#
# Bulk Modulus (GPa) = 81.00882 82.53587 81.77234
# Shear Modulus (GPa) = 39.86562 43.29619 41.58091
#
# Velocity S-wave (km/s) = 3.97310 4.14052 4.05767
# Velocity P-wave (km/s) = 7.28864 7.45253 7.37104
#
# Compressibility (1/GPa) = 0.01234434
#
# Stress axis : x y z
#
# Youngs Moduli (GPa) = 103.73002 95.35317 84.13737
#
# Poissons Ratio (x) = 0.31922 0.17677
# Poissons Ratio (y) = 0.34727 0.36899
# Poissons Ratio (z) = 0.21794 0.41817
#
# Static dielectric constant tensor:
#      x y z
#    x 2.041390 0.000000 0.044170 
#    y 0.000000 2.072830 0.000000 
#    z 0.044170 0.000000 2.038970 
# 
# From -- ./inp_files/58121.got.cif
#   From: 2010.05.17/outbox.cif.g08.bks.cpg/sg13_30_cif.got.tgz:58121.got - 2010.06.03 16:44:36.
