data_PCOD9233192
_publ_section_title
;
Structure prediction by ZEFSAII (Michael W. Deem and Ramdas Pophale) SiO2 
 PCOD9233192
Probable space group: P 2/C
;
_chemical_formula_sum "Si O2"
_cell_formula_units_Z 20
_cell_length_a 5.701257
_cell_length_b 7.545576
_cell_length_c 21.189631
_cell_angle_alpha 90.000000
_cell_angle_beta 108.629016
_cell_angle_gamma 90.000000
_cell_volume 863.802706
_symmetry_space_group_name_H-M "P 2/C"
_symmetry_group_IT_number 13
_symmetry_cell_setting 'monoclinic'
loop_
_space_group_symop_operation_xyz
x,y,z
-x,y,1/2-z
-x,-y,-z
x,-y,1/2+z
loop_
_atom_site_type_symbol
_atom_site_label
_atom_site_fract_x
_atom_site_fract_y
_atom_site_fract_z
Si Si1 0.804907 0.981228 0.426244
Si Si2 0.260570 0.457583 0.260157
Si Si3 0.240081 0.378769 0.519422
Si Si4 0.579026 0.302462 0.092556
Si Si5 0.205777 0.927548 0.714058
O O1 0.722854 0.778706 0.428006
O O2 0.886033 0.000655 0.360806
O O3 0.592250 0.129261 0.417730
O O4 0.000000 0.000000 0.500000
O O5 0.500000 0.551358 0.250000
O O6 0.325023 0.359475 0.331254
O O7 0.000000 0.555947 0.250000
O O8 0.210480 0.287928 0.210779
O O9 0.237372 0.284269 0.450592
O O10 0.440641 0.523377 0.555818
O O11 0.000000 0.500000 0.500000
O O12 0.500000 0.976977 0.750000
O O13 0.000000 0.972417 0.750000
#
# Coordination Sequence:
#
# PCOD9233192 Si02
#       5
#     4   4   4   4   4
#     4  12  24  43  77 104 140 198 241 302 378 433
#     4  10  21  39  73  97 135 187 242 290 361 431
#     4  11  26  43  68 106 147 179 248 299 366 445
#     4  11  24  46  70 102 143 194 239 308 362 442
#     4  10  22  41  69 103 139 181 242 298 354 438
#
# _framework density 23.153437
#
# number of rings (size 3 to 8) (size 9 to 14) (size 15 to 20)
#    0.000    1.200    6.000    0.600    8.400    1.600 
#    0.000    1.000    0.000    1.200    0.000    0.000 
#    0.000    0.000    0.000    0.000    0.000    0.000 
#
# Total GULP energy -111534.023133 kJ/mol
# GULP energy per Si atom -5576.701157 kJ/mol
# Density = 2.310074 g / cm^3
# Si number density = 23.153437 Si / 1000 Ang^3
#
#
#
# Elastic Constant Matrix: (Units=GPa)
#
#
# Indices 1 2 3 4 5 6 
#
# 1 164.4845 24.5763 65.1252 0.0000 -20.7829 0.0000
# 2 24.5763 98.3379 17.7740 0.0000 -11.1498 0.0000
# 3 65.1252 17.7740 106.9851 0.0000 -19.3175 0.0000
# 4 0.0000 0.0000 0.0000 7.8651 0.0000 0.0356
# 5 -20.7829 -11.1498 -19.3175 0.0000 48.0299 0.0000
# 6 0.0000 0.0000 0.0000 0.0356 0.0000 2.6526
#
#
#
# Elastic Compliance Matrix: (Units=1/GPa)
#
#
# Indices 1 2 3 4 5 6 
#
# 1 0.008234 -0.001065 -0.004569 0.000000 0.001478 0.000000
# 2 -0.001065 0.010779 -0.000835 0.000000 0.001706 0.000000
# 3 -0.004569 -0.000835 0.012805 0.000000 0.002979 0.000000
# 4 0.000000 0.000000 0.000000 0.127152 0.000000 -0.001705
# 5 0.001478 0.001706 0.002979 0.000000 0.023054 0.000000
# 6 0.000000 0.000000 0.000000 -0.001705 0.000000 0.377010
#
#
# Mechanical properties :
#
#
# Convention : Reuss Voigt Hill
#
# Bulk Modulus (GPa) = 52.95891 64.97315 58.96603
# Shear Modulus (GPa) = 8.64655 29.19831 18.92243
#
# Velocity S-wave (km/s) = 1.93457 3.55502 2.86188
# Velocity P-wave (km/s) = 5.28325 6.70625 6.03683
#
# Compressibility (1/GPa) = 0.01888256
#
# Stress axis : x y z
#
# Youngs Moduli (GPa) = 121.44213 92.76976 78.09528
#
# Poissons Ratio (x) = 0.09875 0.35680
# Poissons Ratio (y) = 0.12928 0.06519
# Poissons Ratio (z) = 0.55483 0.07744
#
# Static dielectric constant tensor:
#      x y z
#    x 1.836110 0.000000 0.108130 
#    y 0.000000 1.659330 0.000000 
#    z 0.108130 0.000000 1.812090 
# 
# From -- ./inp_files/72832.got.cif
#   From: 2010.05.17/outbox.cif.g08.bks.cpg/sg13_37_cif.got.tgz:72832.got - 2010.06.03 16:44:36.
