data_PCOD9233735
_publ_section_title
;
Structure prediction by ZEFSAII (Michael W. Deem and Ramdas Pophale) SiO2 
 PCOD9233735
Probable space group: P 2/C
;
_chemical_formula_sum "Si O2"
_cell_formula_units_Z 20
_cell_length_a 9.255423
_cell_length_b 11.017799
_cell_length_c 8.198613
_cell_angle_alpha 90.000000
_cell_angle_beta 109.601800
_cell_angle_gamma 90.000000
_cell_volume 787.596967
_symmetry_space_group_name_H-M "P 2/C"
_symmetry_group_IT_number 13
_symmetry_cell_setting 'monoclinic'
loop_
_space_group_symop_operation_xyz
x,y,z
-x,y,1/2-z
-x,-y,-z
x,-y,1/2+z
loop_
_atom_site_type_symbol
_atom_site_label
_atom_site_fract_x
_atom_site_fract_y
_atom_site_fract_z
Si Si1 0.352100 0.363013 0.998280
Si Si2 0.964175 0.361064 0.432695
Si Si3 0.500000 0.424298 0.750000
Si Si4 0.118833 0.887042 0.080859
Si Si5 0.500000 0.173928 0.250000
Si Si6 0.677067 0.979360 0.618384
O O1 0.204766 0.338971 0.054232
O O2 0.406054 0.492131 0.089509
O O3 0.477285 0.262357 0.091654
O O4 0.367466 0.363133 0.809218
O O5 0.000000 0.354685 0.250000
O O6 0.000000 0.500000 0.500000
O O7 0.051750 0.247094 0.545767
O O8 0.211530 0.912792 0.283493
O O9 0.238655 0.896674 0.978300
O O10 0.000000 0.000000 0.000000
O O11 0.350461 0.094029 0.223643
O O12 0.500000 0.000000 0.500000
#
# Coordination Sequence:
#
# PCOD9233735 Si02
#       6
#     4   4   2   4   2   4
#     4  10  21  42  69 104 149 201 263 332 402 482
#     4  12  27  48  76 116 170 220 278 340 426 515
#     4   9  20  40  69 104 148 203 274 327 400 481
#     4  12  26  49  80 117 160 210 273 346 424 504
#     4  11  22  44  71 100 150 189 260 335 400 477
#     4  12  25  49  76 115 153 207 274 345 414 496
#
# _framework density 25.393698000000001
#
# number of rings (size 3 to 8) (size 9 to 14) (size 15 to 20)
#    0.000    0.800    2.000    5.400    0.000    4.800 
#    7.200    0.000    0.000    0.000    0.000    0.000 
#    0.000    0.000    0.000    0.000    0.000    0.000 
#
# Total GULP energy -111675.419726 kJ/mol
# GULP energy per Si atom -5583.770986 kJ/mol
# Density = 2.533590 g / cm^3
# Si number density = 25.393698 Si / 1000 Ang^3
#
#
#
# Elastic Constant Matrix: (Units=GPa)
#
#
# Indices 1 2 3 4 5 6 
#
# 1 165.0711 38.5324 54.3200 0.0000 -25.7608 0.0000
# 2 38.5324 143.3373 39.3772 0.0000 16.4649 0.0000
# 3 54.3200 39.3772 111.3473 0.0000 -14.3442 0.0000
# 4 0.0000 0.0000 0.0000 33.0168 0.0000 18.6684
# 5 -25.7608 16.4649 -14.3442 0.0000 58.9263 0.0000
# 6 0.0000 0.0000 0.0000 18.6684 0.0000 52.2495
#
#
#
# Elastic Compliance Matrix: (Units=1/GPa)
#
#
# Indices 1 2 3 4 5 6 
#
# 1 0.007895 -0.001719 -0.002826 0.000000 0.003244 0.000000
# 2 -0.001719 0.008619 -0.002701 0.000000 -0.003817 0.000000
# 3 -0.002826 -0.002701 0.011617 0.000000 0.002347 0.000000
# 4 0.000000 0.000000 0.000000 0.037955 0.000000 -0.013561
# 5 0.003244 -0.003817 0.002347 0.000000 0.020027 0.000000
# 6 0.000000 0.000000 0.000000 -0.013561 0.000000 0.023984
#
#
# Mechanical properties :
#
#
# Convention : Reuss Voigt Hill
#
# Bulk Modulus (GPa) = 73.31600 76.02388 74.66994
# Shear Modulus (GPa) = 38.71860 48.00693 43.36277
#
# Velocity S-wave (km/s) = 3.90902 4.35271 4.13682
# Velocity P-wave (km/s) = 7.02199 7.43401 7.23094
#
# Compressibility (1/GPa) = 0.01363959
#
# Stress axis : x y z
#
# Youngs Moduli (GPa) = 126.65599 116.01999 86.07868
#
# Poissons Ratio (x) = 0.19941 0.24326
# Poissons Ratio (y) = 0.21769 0.23253
# Poissons Ratio (z) = 0.35793 0.31342
#
# Static dielectric constant tensor:
#      x y z
#    x 2.022260 0.000000 -0.064930 
#    y 0.000000 2.082110 0.000000 
#    z -0.064930 0.000000 2.253770 
# 
# From -- ./inp_files/11905.got.cif
#   From: 2010.05.17/outbox.cif.g08.bks.cpg/sg13_6_cif.got.tgz:11905.got - 2010.06.03 16:44:36.
