data_PCOD9233490
_publ_section_title
;
Structure prediction by ZEFSAII (Michael W. Deem and Ramdas Pophale) SiO2 
 PCOD9233490
Probable space group: P 2/C
;
_chemical_formula_sum "Si O2"
_cell_formula_units_Z 28
_cell_length_a 8.581860
_cell_length_b 18.444584
_cell_length_c 14.214134
_cell_angle_alpha 90.000000
_cell_angle_beta 148.828260
_cell_angle_gamma 90.000000
_cell_volume 1164.579670
_symmetry_space_group_name_H-M "P 2/C"
_symmetry_group_IT_number 13
_symmetry_cell_setting 'monoclinic'
loop_
_space_group_symop_operation_xyz
x,y,z
-x,y,1/2-z
-x,-y,-z
x,-y,1/2+z
loop_
_atom_site_type_symbol
_atom_site_label
_atom_site_fract_x
_atom_site_fract_y
_atom_site_fract_z
Si Si1 0.276288 0.454470 0.550712
Si Si2 0.412606 0.392292 0.297938
Si Si3 0.710058 0.163759 0.067463
Si Si4 0.864508 0.763484 0.285429
Si Si5 0.648836 0.875538 0.929030
Si Si6 0.306761 0.619012 0.373214
Si Si7 0.229199 0.968295 0.040752
O O1 0.500000 0.427587 0.750000
O O2 0.347060 0.540583 0.586804
O O3 0.439772 0.429268 0.541258
O O4 0.930302 0.425473 0.376315
O O5 0.500000 0.347383 0.250000
O O6 0.517468 0.349595 0.444902
O O7 0.545480 0.147202 0.081281
O O8 0.000000 0.207994 0.250000
O O9 0.469354 0.205597 0.881530
O O10 0.819165 0.095665 0.059749
O O11 0.815599 0.677545 0.265253
O O12 0.000000 0.769940 0.250000
O O13 0.084382 0.817901 0.451841
O O14 0.500000 0.882045 0.750000
O O15 0.727830 0.958261 0.996539
O O16 0.000000 0.581518 0.250000
O O17 0.500000 0.945658 0.250000
O O18 0.000000 0.000000 0.000000
#
# Coordination Sequence:
#
# PCOD9233490 Si02
#       7
#     4   4   4   4   4   4   4
#     4  11  22  39  62  98 134 171 219 270 326 386
#     4  11  22  39  66  96 133 173 218 274 325 383
#     4  11  22  37  59  89 124 162 203 257 314 377
#     4   9  22  42  62  87 126 168 213 265 320 388
#     4  10  21  41  64  89 120 160 207 257 318 383
#     4  11  22  41  63  90 127 174 220 269 328 390
#     4  11  22  37  60  91 122 156 202 256 315 381
#
# _framework density 24.043009999999999
#
# number of rings (size 3 to 8) (size 9 to 14) (size 15 to 20)
#    0.000    1.429    0.000    7.286    0.000    2.857 
#    0.000   14.286    0.000    0.000    0.000    0.000 
#    0.000    0.000    0.000    0.000    0.000    0.000 
#
# Total GULP energy -155936.068356 kJ/mol
# GULP energy per Si atom -5569.145298 kJ/mol
# Density = 2.398829 g / cm^3
# Si number density = 24.043010 Si / 1000 Ang^3
#
#
#
# Elastic Constant Matrix: (Units=GPa)
#
#
# Indices 1 2 3 4 5 6 
#
# 1 93.7176 9.5105 28.9408 0.0000 15.0306 0.0000
# 2 9.5105 42.9286 23.6276 0.0000 5.4851 0.0000
# 3 28.9408 23.6276 124.1821 0.0000 20.0644 0.0000
# 4 0.0000 0.0000 0.0000 24.4574 0.0000 9.0710
# 5 15.0306 5.4851 20.0644 0.0000 44.7044 0.0000
# 6 0.0000 0.0000 0.0000 9.0710 0.0000 -25.8809
#
#
#
# Elastic Compliance Matrix: (Units=1/GPa)
#
#
# Indices 1 2 3 4 5 6 
#
# 1 0.011897 -0.001113 -0.002088 0.000000 -0.002926 0.000000
# 2 -0.001113 0.026169 -0.004595 0.000000 -0.000775 0.000000
# 3 -0.002088 -0.004595 0.009929 0.000000 -0.003191 0.000000
# 4 0.000000 0.000000 0.000000 0.036184 0.000000 0.012682
# 5 -0.002926 -0.000775 -0.003191 0.000000 0.024880 0.000000
# 6 0.000000 0.000000 0.000000 0.012682 0.000000 -0.034194
#
#
# Mechanical properties :
#
#
# Convention : Reuss Voigt Hill
#
# Bulk Modulus (GPa) = 30.85981 42.77625 36.81803
# Shear Modulus (GPa) = 49.37891 21.90614 35.64252
#
# Velocity S-wave (km/s) = 4.53677 3.02176 3.85443
# Velocity P-wave (km/s) = 6.34872 5.47767 5.92921
#
# Compressibility (1/GPa) = 0.03240461
#
# Stress axis : x y z
#
# Youngs Moduli (GPa) = 84.05159 38.21350 100.71464
#
# Poissons Ratio (x) = 0.04251 0.21031
# Poissons Ratio (y) = 0.09351 0.46274
# Poissons Ratio (z) = 0.17552 0.17557
#
# Static dielectric constant tensor:
#      x y z
#    x 2.051790 0.000000 -0.022990 
#    y 0.000000 2.093530 0.000000 
#    z -0.022990 0.000000 2.055830 
# 
# From -- ./inp_files/48238.got.cif
#   From: 2010.05.17/outbox.cif.g08.bks.cpg/sg13_25_cif.got.tgz:48238.got - 2010.06.03 16:44:36.
