data_PCOD9233993
_publ_section_title
;
Structure prediction by ZEFSAII (Michael W. Deem and Ramdas Pophale) SiO2 
 PCOD9233993
Probable space group: P 2/C
;
_chemical_formula_sum "Si O2"
_cell_formula_units_Z 24
_cell_length_a 19.104069
_cell_length_b 12.499409
_cell_length_c 8.079570
_cell_angle_alpha 90.000000
_cell_angle_beta 134.020794
_cell_angle_gamma 90.000000
_cell_volume 1387.348063
_symmetry_space_group_name_H-M "P 2/C"
_symmetry_group_IT_number 13
_symmetry_cell_setting 'monoclinic'
loop_
_space_group_symop_operation_xyz
x,y,z
-x,y,1/2-z
-x,-y,-z
x,-y,1/2+z
loop_
_atom_site_type_symbol
_atom_site_label
_atom_site_fract_x
_atom_site_fract_y
_atom_site_fract_z
Si Si1 0.139985 0.597256 0.750901
Si Si2 0.697016 0.586510 0.039206
Si Si3 0.696698 0.269200 0.869884
Si Si4 0.478579 0.879336 0.520057
Si Si5 0.500000 0.461249 0.750000
Si Si6 0.000000 0.458698 0.750000
Si Si7 0.385290 0.299887 0.395010
O O1 0.067630 0.611876 0.478899
O O2 0.073215 0.537253 0.774545
O O3 0.221279 0.505974 0.838029
O O4 0.189586 0.706789 0.895581
O O5 0.594305 0.528275 0.869155
O O6 0.693381 0.661994 0.869963
O O7 0.693960 0.652004 0.205738
O O8 0.629530 0.167665 0.702617
O O9 0.652984 0.294241 0.980462
O O10 0.500000 0.867941 0.750000
O O11 0.560076 0.807278 0.564729
O O12 0.500000 0.000000 0.500000
O O13 0.471450 0.386748 0.548937
#
# Coordination Sequence:
#
# PCOD9233993 Si02
#       7
#     4   4   4   4   2   2   4
#     4  11  20  38  55  84 124 165 209 250 300 355
#     4  12  22  35  52  83 124 165 202 241 285 363
#     4  12  22  37  56  82 113 161 202 246 291 364
#     4  12  24  42  59  81 119 159 202 254 300 354
#     4  12  22  30  52  80 118 166 194 232 284 350
#     4  10  22  34  58  82 118 172 206 264 302 340
#     4  12  22  34  52  80 112 156 204 235 283 350
#
# _framework density 17.299191
#
# number of rings (size 3 to 8) (size 9 to 14) (size 15 to 20)
#    0.000    0.333    6.667    4.500    0.000    0.000 
#    0.000    0.000    0.000    0.000    0.000    0.000 
#    0.000   45.333    0.000    0.000    0.000    0.000 
#
# Total GULP energy -133642.257485 kJ/mol
# GULP energy per Si atom -5568.427395 kJ/mol
# Density = 1.725982 g / cm^3
# Si number density = 17.299191 Si / 1000 Ang^3
#
#
#
# Elastic Constant Matrix: (Units=GPa)
#
#
# Indices 1 2 3 4 5 6 
#
# 1 91.8496 24.9604 36.0565 0.0000 -4.9067 0.0000
# 2 24.9604 73.9127 39.8284 0.0000 1.5218 0.0000
# 3 36.0565 39.8284 137.3295 0.0000 -7.7603 0.0000
# 4 0.0000 0.0000 0.0000 12.5728 0.0000 13.9960
# 5 -4.9067 1.5218 -7.7603 0.0000 37.2883 0.0000
# 6 0.0000 0.0000 0.0000 13.9960 0.0000 -8.7199
#
#
#
# Elastic Compliance Matrix: (Units=1/GPa)
#
#
# Indices 1 2 3 4 5 6 
#
# 1 0.012718 -0.003037 -0.002385 0.000000 0.001301 0.000000
# 2 -0.003037 0.016860 -0.004203 0.000000 -0.001962 0.000000
# 3 -0.002385 -0.004203 0.009228 0.000000 0.001778 0.000000
# 4 0.000000 0.000000 0.000000 0.028541 0.000000 0.045810
# 5 0.001301 -0.001962 0.001778 0.000000 0.027439 0.000000
# 6 0.000000 0.000000 0.000000 0.045810 0.000000 -0.041152
#
#
# Mechanical properties :
#
#
# Convention : Reuss Voigt Hill
#
# Bulk Modulus (GPa) = 51.13513 56.08695 53.61104
# Shear Modulus (GPa) = 62.96930 21.71135 42.34032
#
# Velocity S-wave (km/s) = 6.03980 3.54651 4.95262
# Velocity P-wave (km/s) = 8.84660 7.01872 7.98513
#
# Compressibility (1/GPa) = 0.01955603
#
# Stress axis : x y z
#
# Youngs Moduli (GPa) = 78.62655 59.31055 108.37117
#
# Poissons Ratio (x) = 0.18010 0.25847
# Poissons Ratio (y) = 0.23875 0.45554
# Poissons Ratio (z) = 0.18753 0.24931
#
# Static dielectric constant tensor:
#      x y z
#    x 1.640910 0.000000 -0.032000 
#    y 0.000000 1.603770 0.000000 
#    z -0.032000 0.000000 1.662810 
# 
# From -- ./inp_files/21525.got.cif
#   From: 2010.05.17/outbox.cif.g08.bks.cpg/sg13_11_cif.got.tgz:21525.got - 2010.06.03 16:44:36.
