data_PCOD9233409
_publ_section_title
;
Structure prediction by ZEFSAII (Michael W. Deem and Ramdas Pophale) SiO2 
 PCOD9233409
Probable space group: P 2/C
;
_chemical_formula_sum "Si O2"
_cell_formula_units_Z 22
_cell_length_a 13.706934
_cell_length_b 6.630897
_cell_length_c 22.323901
_cell_angle_alpha 90.000000
_cell_angle_beta 151.244943
_cell_angle_gamma 90.000000
_cell_volume 976.084663
_symmetry_space_group_name_H-M "P 2/C"
_symmetry_group_IT_number 13
_symmetry_cell_setting 'monoclinic'
loop_
_space_group_symop_operation_xyz
x,y,z
-x,y,1/2-z
-x,-y,-z
x,-y,1/2+z
loop_
_atom_site_type_symbol
_atom_site_label
_atom_site_fract_x
_atom_site_fract_y
_atom_site_fract_z
Si Si1 0.607370 0.059193 0.368555
Si Si2 0.809271 0.961278 0.810106
Si Si3 0.757139 0.161823 0.665609
Si Si4 0.300541 0.845563 0.965697
Si Si5 0.018716 0.726920 0.490363
Si Si6 0.000000 0.522581 0.750000
O O1 0.500000 0.982220 0.250000
O O2 0.779836 0.215129 0.439980
O O3 0.410868 0.139238 0.299363
O O4 0.693238 0.895850 0.460793
O O5 0.847073 0.999251 0.761146
O O6 0.958737 0.843546 0.934309
O O7 0.831673 0.185674 0.851277
O O8 0.528566 0.200013 0.565171
O O9 0.876638 0.369880 0.726267
O O10 0.755732 0.050047 0.600960
O O11 0.154227 0.664864 0.868729
O O12 0.000000 0.500000 0.500000
#
# Coordination Sequence:
#
# PCOD9233409 Si02
#       6
#     4   4   4   4   4   2
#     4   9  20  44  69  95 137 180 221 275 349 406
#     4   9  21  43  64  93 143 174 218 285 341 406
#     4  10  23  44  66  98 139 179 227 282 353 408
#     4  10  23  44  69  98 138 183 221 292 343 409
#     4  10  21  40  70 101 129 178 232 279 332 410
#     4  12  24  38  70 108 130 178 238 286 340 410
#
# _framework density 22.539028999999999
#
# number of rings (size 3 to 8) (size 9 to 14) (size 15 to 20)
#    0.000    2.182    0.000    1.091    5.091    1.455 
#    6.545   22.727    0.000    0.000    0.000    0.000 
#    0.000    0.000    0.000    0.000    0.000    0.000 
#
# Total GULP energy -122825.400930 kJ/mol
# GULP energy per Si atom -5582.972770 kJ/mol
# Density = 2.248773 g / cm^3
# Si number density = 22.539029 Si / 1000 Ang^3
#
#
#
# Elastic Constant Matrix: (Units=GPa)
#
#
# Indices 1 2 3 4 5 6 
#
# 1 140.7779 55.6943 53.7310 0.0000 11.3080 0.0000
# 2 55.6943 110.3183 34.1073 0.0000 5.2683 0.0000
# 3 53.7310 34.1073 97.0843 0.0000 1.1172 0.0000
# 4 0.0000 0.0000 0.0000 27.5043 0.0000 1.5096
# 5 11.3080 5.2683 1.1172 0.0000 45.3398 0.0000
# 6 0.0000 0.0000 0.0000 1.5096 0.0000 28.0986
#
#
#
# Elastic Compliance Matrix: (Units=1/GPa)
#
#
# Indices 1 2 3 4 5 6 
#
# 1 0.010470 -0.003818 -0.004429 0.000000 -0.002058 0.000000
# 2 -0.003818 0.011616 -0.001964 0.000000 -0.000349 0.000000
# 3 -0.004429 -0.001964 0.013430 0.000000 0.001002 0.000000
# 4 0.000000 0.000000 0.000000 0.036465 0.000000 -0.001959
# 5 -0.002058 -0.000349 0.001002 0.000000 0.022585 0.000000
# 6 0.000000 0.000000 0.000000 -0.001959 0.000000 0.035694
#
#
# Mechanical properties :
#
#
# Convention : Reuss Voigt Hill
#
# Bulk Modulus (GPa) = 66.25375 70.58286 68.41830
# Shear Modulus (GPa) = 32.11010 33.83174 32.97092
#
# Velocity S-wave (km/s) = 3.77854 3.87851 3.82885
# Velocity P-wave (km/s) = 6.96387 7.17224 7.06882
#
# Compressibility (1/GPa) = 0.01509348
#
# Stress axis : x y z
#
# Youngs Moduli (GPa) = 95.51309 86.08818 74.45896
#
# Poissons Ratio (x) = 0.32868 0.32981
# Poissons Ratio (y) = 0.36466 0.14623
# Poissons Ratio (z) = 0.42307 0.16907
#
# Static dielectric constant tensor:
#      x y z
#    x 1.924920 0.000000 0.063170 
#    y 0.000000 1.811620 0.000000 
#    z 0.063170 0.000000 1.944670 
# 
# From -- ./inp_files/87025.got.cif
#   From: 2010.05.17/outbox.cif.g08.bks.cpg/sg13_44_cif.got.tgz:87025.got - 2010.06.03 16:44:36.
