data_PCOD9233463
_publ_section_title
;
Structure prediction by ZEFSAII (Michael W. Deem and Ramdas Pophale) SiO2 
 PCOD9233463
Probable space group: P 2/C
;
_chemical_formula_sum "Si O2"
_cell_formula_units_Z 28
_cell_length_a 13.037670
_cell_length_b 8.681149
_cell_length_c 15.422647
_cell_angle_alpha 90.000000
_cell_angle_beta 132.409764
_cell_angle_gamma 90.000000
_cell_volume 1288.821454
_symmetry_space_group_name_H-M "P 2/C"
_symmetry_group_IT_number 13
_symmetry_cell_setting 'monoclinic'
loop_
_space_group_symop_operation_xyz
x,y,z
-x,y,1/2-z
-x,-y,-z
x,-y,1/2+z
loop_
_atom_site_type_symbol
_atom_site_label
_atom_site_fract_x
_atom_site_fract_y
_atom_site_fract_z
Si Si1 0.000000 0.232142 0.250000
Si Si2 0.500000 0.215705 0.250000
Si Si3 0.825724 0.965459 0.525634
Si Si4 0.825135 0.519652 0.202214
Si Si5 0.519528 0.037372 0.912767
Si Si6 0.654864 0.198373 0.799963
Si Si7 0.107442 0.673008 0.428506
Si Si8 0.268751 0.461234 0.164357
O O1 0.947488 0.129165 0.140506
O O2 0.881090 0.350297 0.210983
O O3 0.494548 0.107550 0.161697
O O4 0.372675 0.329444 0.192536
O O5 0.778808 0.911139 0.402961
O O6 0.681621 0.918877 0.492182
O O7 0.862360 0.145336 0.550607
O O8 0.793877 0.598626 0.091204
O O9 0.730433 0.488393 0.231792
O O10 0.951755 0.625859 0.311389
O O11 0.392277 0.157691 0.823224
O O12 0.500000 0.000000 0.000000
O O13 0.500000 0.166503 0.750000
O O14 0.692037 0.369819 0.846908
O O15 0.131862 0.594409 0.535789
#
# Coordination Sequence:
#
# PCOD9233463 Si02
#       8
#     2   2   4   4   4   4   4   4
#     4  10  22  42  62 100 126 178 216 272 324 382
#     4  12  24  46  64 100 132 166 216 268 326 390
#     4  11  21  42  69  89 137 168 214 274 322 377
#     4  10  24  41  64  93 130 168 222 261 324 390
#     4  11  24  43  68  96 131 171 216 267 325 385
#     4  10  21  41  62  94 127 169 209 266 324 380
#     4  10  21  43  62  92 129 169 215 272 311 381
#     4  12  23  41  68  92 131 170 212 267 330 387
#
# _framework density 21.725275
#
# number of rings (size 3 to 8) (size 9 to 14) (size 15 to 20)
#    0.000    1.429    4.286    3.000    4.000    0.000 
#    0.000    2.857    0.000    0.000    0.000    0.000 
#    0.000    0.000    0.000    0.000    0.000    0.000 
#
# Total GULP energy -155942.418102 kJ/mol
# GULP energy per Si atom -5569.372075 kJ/mol
# Density = 2.167583 g / cm^3
# Si number density = 21.725275 Si / 1000 Ang^3
#
#
#
# Elastic Constant Matrix: (Units=GPa)
#
#
# Indices 1 2 3 4 5 6 
#
# 1 19.9017 11.7502 -4.1549 0.0000 -11.0905 0.0000
# 2 11.7502 171.8117 49.6401 0.0000 3.3440 0.0000
# 3 -4.1549 49.6401 57.0672 0.0000 -10.2778 0.0000
# 4 0.0000 0.0000 0.0000 44.6624 0.0000 11.9725
# 5 -11.0905 3.3440 -10.2778 0.0000 24.5015 0.0000
# 6 0.0000 0.0000 0.0000 11.9725 0.0000 10.4971
#
#
#
# Elastic Compliance Matrix: (Units=1/GPa)
#
#
# Indices 1 2 3 4 5 6 
#
# 1 0.105038 -0.018761 0.035687 0.000000 0.065075 0.000000
# 2 -0.018761 0.011550 -0.014307 0.000000 -0.016070 0.000000
# 3 0.035687 -0.014307 0.038755 0.000000 0.034363 0.000000
# 4 0.000000 0.000000 0.000000 0.032251 0.000000 -0.036783
# 5 0.065075 -0.016070 0.034363 0.000000 0.086877 0.000000
# 6 0.000000 0.000000 0.000000 -0.036783 0.000000 0.137218
#
#
# Mechanical properties :
#
#
# Convention : Reuss Voigt Hill
#
# Bulk Modulus (GPa) = 6.22738 40.36125 23.29432
# Shear Modulus (GPa) = 10.87013 28.70187 19.78600
#
# Velocity S-wave (km/s) = 2.23927 3.63868 3.02111
# Velocity P-wave (km/s) = 3.09167 6.02259 4.78696
#
# Compressibility (1/GPa) = 0.16058112
#
# Stress axis : x y z
#
# Youngs Moduli (GPa) = 9.52037 86.58310 25.80328
#
# Poissons Ratio (x) = 1.62436 -0.92083
# Poissons Ratio (y) = 0.17861 0.36915
# Poissons Ratio (z) = -0.33975 1.23870
#
# Static dielectric constant tensor:
#      x y z
#    x 1.836430 0.000000 -0.091270 
#    y 0.000000 1.773720 0.000000 
#    z -0.091270 0.000000 2.105420 
# 
# From -- ./inp_files/53169.got.cif
#   From: 2010.05.17/outbox.cif.g08.bks.cpg/sg13_27_cif.got.tgz:53169.got - 2010.06.03 16:44:36.
