data_PCOD9233873
_publ_section_title
;
Structure prediction by ZEFSAII (Michael W. Deem and Ramdas Pophale) SiO2 
 PCOD9233873
Probable space group: P 2/C
;
_chemical_formula_sum "Si O2"
_cell_formula_units_Z 26
_cell_length_a 9.463704
_cell_length_b 5.400745
_cell_length_c 25.175907
_cell_angle_alpha 90.000000
_cell_angle_beta 114.360822
_cell_angle_gamma 90.000000
_cell_volume 1172.200972
_symmetry_space_group_name_H-M "P 2/C"
_symmetry_group_IT_number 13
_symmetry_cell_setting 'monoclinic'
loop_
_space_group_symop_operation_xyz
x,y,z
-x,y,1/2-z
-x,-y,-z
x,-y,1/2+z
loop_
_atom_site_type_symbol
_atom_site_label
_atom_site_fract_x
_atom_site_fract_y
_atom_site_fract_z
Si Si1 0.407270 0.658494 0.656972
Si Si2 0.119648 0.529726 0.567404
Si Si3 0.875551 0.840063 0.145391
Si Si4 0.607305 0.161548 0.686162
Si Si5 0.000000 0.218606 0.250000
Si Si6 0.993983 0.028158 0.935468
Si Si7 0.183415 0.549096 0.212540
O O1 0.292068 0.637353 0.587844
O O2 0.502900 0.913750 0.673936
O O3 0.290976 0.603045 0.688558
O O4 0.509717 0.413354 0.672122
O O5 0.129948 0.250687 0.591799
O O6 0.000000 0.500000 0.500000
O O7 0.044023 0.752531 0.588921
O O8 0.711856 0.823687 0.149235
O O9 0.957540 0.055554 0.192455
O O10 0.866271 0.888789 0.080749
O O11 0.005664 0.624540 0.170909
O O12 0.724783 0.205613 0.753973
O O13 0.150217 0.379152 0.258487
O O14 0.000000 0.000000 0.000000
#
# Coordination Sequence:
#
# PCOD9233873 Si02
#       7
#     4   4   4   4   2   4   4
#     4  12  27  44  68 102 147 188 230 293 371 428
#     4  10  21  43  72 100 125 172 244 298 339 419
#     4  12  24  42  71  99 144 194 241 295 344 433
#     4  12  27  43  62 105 154 181 227 294 368 426
#     4  12  22  40  70 102 144 180 264 282 348 414
#     4  10  22  41  73 104 124 173 252 299 341 403
#     4  12  25  43  67 101 140 205 242 279 344 452
#
# _framework density 22.180496999999999
#
# number of rings (size 3 to 8) (size 9 to 14) (size 15 to 20)
#    0.000    0.615    4.615    3.231    2.154    2.462 
#    0.000    0.000    0.000   22.154    0.000    0.000 
#    0.000    0.000    0.000    0.000    0.000    0.000 
#
# Total GULP energy -144754.542572 kJ/mol
# GULP energy per Si atom -5567.482407 kJ/mol
# Density = 2.213001 g / cm^3
# Si number density = 22.180497 Si / 1000 Ang^3
#
#
#
# Elastic Constant Matrix: (Units=GPa)
#
#
# Indices 1 2 3 4 5 6 
#
# 1 160.4663 66.7748 57.9006 0.0000 -22.5260 0.0000
# 2 66.7748 169.3286 25.6481 0.0000 -3.9033 0.0000
# 3 57.9006 25.6481 90.7830 0.0000 -21.6033 0.0000
# 4 0.0000 0.0000 0.0000 26.6760 0.0000 -0.0428
# 5 -22.5260 -3.9033 -21.6033 0.0000 40.5237 0.0000
# 6 0.0000 0.0000 0.0000 -0.0428 0.0000 46.8999
#
#
#
# Elastic Compliance Matrix: (Units=1/GPa)
#
#
# Indices 1 2 3 4 5 6 
#
# 1 0.009493 -0.002987 -0.004608 0.000000 0.002533 0.000000
# 2 -0.002987 0.007115 -0.000386 0.000000 -0.001181 0.000000
# 3 -0.004608 -0.000386 0.015398 0.000000 0.005610 0.000000
# 4 0.000000 0.000000 0.000000 0.037487 0.000000 0.000034
# 5 0.002533 -0.001181 0.005610 0.000000 0.028962 0.000000
# 6 0.000000 0.000000 0.000000 0.000034 0.000000 0.021322
#
#
# Mechanical properties :
#
#
# Convention : Reuss Voigt Hill
#
# Bulk Modulus (GPa) = 62.32826 80.13610 71.23218
# Shear Modulus (GPa) = 35.43898 40.83687 38.13792
#
# Velocity S-wave (km/s) = 4.00153 4.29548 4.15111
# Velocity P-wave (km/s) = 7.03641 7.79801 7.42698
#
# Compressibility (1/GPa) = 0.01604409
#
# Stress axis : x y z
#
# Youngs Moduli (GPa) = 105.33903 140.54940 64.94232
#
# Poissons Ratio (x) = 0.41986 0.29925
# Poissons Ratio (y) = 0.31468 0.02506
# Poissons Ratio (z) = 0.48540 0.05423
#
# Static dielectric constant tensor:
#      x y z
#    x 1.848210 0.000000 0.027060 
#    y 0.000000 1.940210 0.000000 
#    z 0.027060 0.000000 2.324980 
# 
# From -- ./inp_files/90802.got.cif
#   From: 2010.05.17/outbox.cif.g08.bks.cpg/sg13_46_cif.got.tgz:90802.got - 2010.06.03 16:44:36.
