data_PCOD9233899
_publ_section_title
;
Structure prediction by ZEFSAII (Michael W. Deem and Ramdas Pophale) SiO2 
 PCOD9233899
Probable space group: P 2/C
;
_chemical_formula_sum "Si O2"
_cell_formula_units_Z 22
_cell_length_a 6.819306
_cell_length_b 5.573408
_cell_length_c 24.511436
_cell_angle_alpha 90.000000
_cell_angle_beta 95.130230
_cell_angle_gamma 90.000000
_cell_volume 927.868655
_symmetry_space_group_name_H-M "P 2/C"
_symmetry_group_IT_number 13
_symmetry_cell_setting 'monoclinic'
loop_
_space_group_symop_operation_xyz
x,y,z
-x,y,1/2-z
-x,-y,-z
x,-y,1/2+z
loop_
_atom_site_type_symbol
_atom_site_label
_atom_site_fract_x
_atom_site_fract_y
_atom_site_fract_z
Si Si1 0.103905 0.249092 0.983268
Si Si2 0.518885 0.836472 0.343837
Si Si3 0.206369 0.487434 0.880165
Si Si4 0.500000 0.800839 0.750000
Si Si5 0.206828 0.451440 0.167908
Si Si6 0.443868 0.785267 0.572538
O O1 0.120608 0.285506 0.918915
O O2 0.322339 0.239081 0.014612
O O3 0.000000 0.500000 0.000000
O O4 0.000000 0.000000 0.000000
O O5 0.358755 0.628811 0.342153
O O6 0.727745 0.729535 0.330972
O O7 0.446758 0.034623 0.300152
O O8 0.539981 0.945697 0.404519
O O9 0.340320 0.668103 0.919261
O O10 0.021779 0.596281 0.844535
O O11 0.685483 0.655190 0.776976
O O12 0.309076 0.343011 0.115762
#
# Coordination Sequence:
#
# PCOD9233899 Si02
#       6
#     4   4   4   2   4   4
#     4  12  26  44  74 105 148 198 235 285 355 424
#     4  10  23  42  68  96 129 181 228 296 351 430
#     4  11  24  42  71 101 140 180 237 288 355 422
#     4  10  22  44  68  90 136 172 232 292 374 418
#     4  10  21  44  66  94 134 176 227 293 355 424
#     4  10  23  42  66 101 139 180 232 285 349 418
#
# _framework density 23.710252000000001
#
# number of rings (size 3 to 8) (size 9 to 14) (size 15 to 20)
#    0.000    1.455    1.818    2.182    5.091    3.636 
#    0.000   21.818    0.000    0.000    0.000    0.000 
#    0.000    0.000    0.000    0.000    0.000    0.000 
#
# Total GULP energy -123011.344888 kJ/mol
# GULP energy per Si atom -5591.424768 kJ/mol
# Density = 2.365629 g / cm^3
# Si number density = 23.710252 Si / 1000 Ang^3
#
#
#
# Elastic Constant Matrix: (Units=GPa)
#
#
# Indices 1 2 3 4 5 6 
#
# 1 138.6352 38.5802 33.6744 0.0000 50.8724 0.0000
# 2 38.5802 81.7240 10.5523 0.0000 17.0969 0.0000
# 3 33.6744 10.5523 98.7784 0.0000 38.9823 0.0000
# 4 0.0000 0.0000 0.0000 37.0843 0.0000 -6.4217
# 5 50.8724 17.0969 38.9823 0.0000 47.0447 0.0000
# 6 0.0000 0.0000 0.0000 -6.4217 0.0000 24.2943
#
#
#
# Elastic Compliance Matrix: (Units=1/GPa)
#
#
# Indices 1 2 3 4 5 6 
#
# 1 0.012916 -0.003367 0.001464 0.000000 -0.013957 0.000000
# 2 -0.003367 0.014155 0.000340 0.000000 -0.001786 0.000000
# 3 0.001464 0.000340 0.015248 0.000000 -0.014342 0.000000
# 4 0.000000 0.000000 0.000000 0.028259 0.000000 0.007470
# 5 -0.013957 -0.001786 -0.014342 0.000000 0.048882 0.000000
# 6 0.000000 0.000000 0.000000 0.007470 0.000000 0.043136
#
#
# Mechanical properties :
#
#
# Convention : Reuss Voigt Hill
#
# Bulk Modulus (GPa) = 25.51327 53.86127 39.68727
# Shear Modulus (GPa) = 27.96652 37.44003 32.70328
#
# Velocity S-wave (km/s) = 3.43813 3.97806 3.71791
# Velocity P-wave (km/s) = 5.15216 6.62312 5.93340
#
# Compressibility (1/GPa) = 0.03919530
#
# Stress axis : x y z
#
# Youngs Moduli (GPa) = 77.42493 70.64517 65.58178
#
# Poissons Ratio (x) = 0.23783 -0.09604
# Poissons Ratio (y) = 0.26066 -0.02231
# Poissons Ratio (z) = -0.11338 -0.02404
#
# Static dielectric constant tensor:
#      x y z
#    x 1.914850 0.000000 -0.007830 
#    y 0.000000 2.008450 0.000000 
#    z -0.007830 0.000000 1.896400 
# 
# From -- ./inp_files/94552.got.cif
#   From: 2010.05.17/outbox.cif.g08.bks.cpg/sg13_48_cif.got.tgz:94552.got - 2010.06.03 16:44:36.
