data_PCOD9233861
_publ_section_title
;
Structure prediction by ZEFSAII (Michael W. Deem and Ramdas Pophale) SiO2 
 PCOD9233861
Probable space group: P 2/C
;
_chemical_formula_sum "Si O2"
_cell_formula_units_Z 22
_cell_length_a 8.311920
_cell_length_b 13.983036
_cell_length_c 16.102867
_cell_angle_alpha 90.000000
_cell_angle_beta 32.766585
_cell_angle_gamma 90.000000
_cell_volume 1012.927091
_symmetry_space_group_name_H-M "P 2/C"
_symmetry_group_IT_number 13
_symmetry_cell_setting 'monoclinic'
loop_
_space_group_symop_operation_xyz
x,y,z
-x,y,1/2-z
-x,-y,-z
x,-y,1/2+z
loop_
_atom_site_type_symbol
_atom_site_label
_atom_site_fract_x
_atom_site_fract_y
_atom_site_fract_z
Si Si1 0.500000 0.738802 0.750000
Si Si2 0.342612 0.083467 0.122450
Si Si3 0.787580 0.962882 0.165504
Si Si4 0.784652 0.601255 0.764622
Si Si5 0.887697 0.419645 0.892634
Si Si6 0.161064 0.794453 0.045190
O O1 0.684886 0.677810 0.738185
O O2 0.262967 0.797127 0.905481
O O3 0.544519 0.178447 0.030079
O O4 0.000000 0.100239 0.250000
O O5 0.327497 0.045190 0.223382
O O6 0.500000 0.000000 0.000000
O O7 0.500000 0.916025 0.250000
O O8 0.945767 0.882900 0.152586
O O9 0.000000 0.000000 0.000000
O O10 0.000000 0.629074 0.750000
O O11 0.943210 0.513183 0.647373
O O12 0.465070 0.570466 0.941030
O O13 0.000000 0.421448 0.750000
O O14 0.959049 0.311818 0.890480
#
# Coordination Sequence:
#
# PCOD9233861 Si02
#       6
#     2   4   4   4   4   4
#     4  10  24  44  68  98 142 168 226 284 326 412
#     4  12  24  42  70  95 131 180 226 280 344 402
#     4  12  23  44  65  89 134 183 219 273 346 400
#     4  10  21  43  69  95 131 183 210 272 354 392
#     4  10  22  41  67  96 135 168 225 280 324 412
#     4  11  24  40  65  99 135 169 230 278 325 404
#
# _framework density 21.719234
#
# number of rings (size 3 to 8) (size 9 to 14) (size 15 to 20)
#    0.000    1.091    3.636    3.273    2.545    5.818 
#    8.182    0.000    0.000    0.000    0.000    0.000 
#    0.000    0.000    0.000    0.000    0.000    0.000 
#
# Total GULP energy -122706.575406 kJ/mol
# GULP energy per Si atom -5577.571609 kJ/mol
# Density = 2.166980 g / cm^3
# Si number density = 21.719234 Si / 1000 Ang^3
#
#
#
# Elastic Constant Matrix: (Units=GPa)
#
#
# Indices 1 2 3 4 5 6 
#
# 1 72.7747 27.9912 19.3183 0.0000 -18.4026 0.0000
# 2 27.9912 87.5271 5.5533 0.0000 -12.8798 0.0000
# 3 19.3183 5.5533 94.6751 0.0000 -10.8444 0.0000
# 4 0.0000 0.0000 0.0000 38.5257 0.0000 3.6009
# 5 -18.4026 -12.8798 -10.8444 0.0000 47.8580 0.0000
# 6 0.0000 0.0000 0.0000 3.6009 0.0000 35.6200
#
#
#
# Elastic Compliance Matrix: (Units=1/GPa)
#
#
# Indices 1 2 3 4 5 6 
#
# 1 0.017505 -0.004712 -0.002741 0.000000 0.004842 0.000000
# 2 -0.004712 0.013175 0.000398 0.000000 0.001824 0.000000
# 3 -0.002741 0.000398 0.011283 0.000000 0.001610 0.000000
# 4 0.000000 0.000000 0.000000 0.026204 0.000000 -0.002649
# 5 0.004842 0.001824 0.001610 0.000000 0.023613 0.000000
# 6 0.000000 0.000000 0.000000 -0.002649 0.000000 0.028342
#
#
# Mechanical properties :
#
#
# Convention : Reuss Voigt Hill
#
# Bulk Modulus (GPa) = 35.90295 40.07806 37.99051
# Shear Modulus (GPa) = 34.83916 37.87501 36.35709
#
# Velocity S-wave (km/s) = 4.00943 4.18047 4.09584
# Velocity P-wave (km/s) = 6.16445 6.46488 6.31645
#
# Compressibility (1/GPa) = 0.02785286
#
# Stress axis : x y z
#
# Youngs Moduli (GPa) = 57.12547 75.90104 88.63064
#
# Poissons Ratio (x) = 0.35763 0.24293
# Poissons Ratio (y) = 0.26916 -0.03524
# Poissons Ratio (z) = 0.15658 -0.03018
#
# Static dielectric constant tensor:
#      x y z
#    x 1.830310 0.000000 -0.018090 
#    y 0.000000 2.088490 0.000000 
#    z -0.018090 0.000000 1.790340 
# 
# From -- ./inp_files/64584.got.cif
#   From: 2010.05.17/outbox.cif.g08.bks.cpg/sg13_33_cif.got.tgz:64584.got - 2010.06.03 16:44:36.
