data_PCOD9233726
_publ_section_title
;
Structure prediction by ZEFSAII (Michael W. Deem and Ramdas Pophale) SiO2 
 PCOD9233726
Probable space group: P 2/C
;
_chemical_formula_sum "Si O2"
_cell_formula_units_Z 30
_cell_length_a 8.148348
_cell_length_b 20.985252
_cell_length_c 13.915732
_cell_angle_alpha 90.000000
_cell_angle_beta 146.956745
_cell_angle_gamma 90.000000
_cell_volume 1297.487052
_symmetry_space_group_name_H-M "P 2/C"
_symmetry_group_IT_number 13
_symmetry_cell_setting 'monoclinic'
loop_
_space_group_symop_operation_xyz
x,y,z
-x,y,1/2-z
-x,-y,-z
x,-y,1/2+z
loop_
_atom_site_type_symbol
_atom_site_label
_atom_site_fract_x
_atom_site_fract_y
_atom_site_fract_z
Si Si1 0.000000 0.482998 0.750000
Si Si2 0.522270 0.522856 0.146963
Si Si3 0.187491 0.704392 0.061073
Si Si4 0.210357 0.171865 0.445839
Si Si5 0.657595 0.374377 0.224505
Si Si6 0.585480 0.157629 0.190201
Si Si7 0.354967 0.069096 0.937092
Si Si8 0.218280 0.725292 0.446675
O O1 0.210623 0.442692 0.780244
O O2 0.773710 0.520790 0.565785
O O3 0.500000 0.536509 0.250000
O O4 0.636469 0.449176 0.197837
O O5 0.500000 0.675126 0.250000
O O6 0.984278 0.722357 0.054926
O O7 0.281752 0.765730 0.042909
O O8 0.984888 0.657114 0.896992
O O9 0.463764 0.120702 0.541123
O O10 0.000000 0.189199 0.250000
O O11 0.935635 0.139845 0.368810
O O12 0.500000 0.364568 0.250000
O O13 0.441493 0.334863 0.049119
O O14 0.500000 0.183551 0.250000
O O15 0.416962 0.095268 0.073911
O O16 0.444929 0.214542 0.056963
O O17 0.000000 0.068597 0.750000
O O18 0.500000 0.000000 0.000000
O O19 0.000000 0.729975 0.250000
#
# Coordination Sequence:
#
# PCOD9233726 Si02
#       8
#     2   4   4   4   4   4   4   4
#     4  10  22  40  66 106 124 182 244 282 342 426
#     4  10  21  42  68  94 140 179 229 294 351 398
#     4  11  23  38  59  96 133 166 219 259 318 409
#     4  10  22  39  64  90 125 170 201 259 321 383
#     4   9  20  42  61  89 133 176 211 270 330 391
#     4  11  20  40  66  90 124 161 200 254 319 382
#     4  11  25  45  66  91 122 158 214 268 321 382
#     4  11  22  38  63  94 129 172 212 258 321 395
#
# _framework density 23.121618000000002
#
# number of rings (size 3 to 8) (size 9 to 14) (size 15 to 20)
#    0.000    1.600    2.667    2.400    6.533    0.000 
#    3.600    6.667    0.000    0.000    0.000    0.000 
#    0.000    0.000    0.000    0.000    0.000    0.000 
#
# Total GULP energy -167320.750414 kJ/mol
# GULP energy per Si atom -5577.358347 kJ/mol
# Density = 2.306899 g / cm^3
# Si number density = 23.121618 Si / 1000 Ang^3
#
#
#
# Elastic Constant Matrix: (Units=GPa)
#
#
# Indices 1 2 3 4 5 6 
#
# 1 107.3419 34.3896 65.2871 0.0000 14.5497 0.0000
# 2 34.3896 139.8587 64.9314 0.0000 6.1259 0.0000
# 3 65.2871 64.9314 147.6605 0.0000 34.1462 0.0000
# 4 0.0000 0.0000 0.0000 19.0791 0.0000 -3.2496
# 5 14.5497 6.1259 34.1462 0.0000 44.6622 0.0000
# 6 0.0000 0.0000 0.0000 -3.2496 0.0000 19.1661
#
#
#
# Elastic Compliance Matrix: (Units=1/GPa)
#
#
# Indices 1 2 3 4 5 6 
#
# 1 0.012790 -0.000650 -0.005377 0.000000 0.000033 0.000000
# 2 -0.000650 0.009194 -0.004267 0.000000 0.002213 0.000000
# 3 -0.005377 -0.004267 0.012738 0.000000 -0.007402 0.000000
# 4 0.000000 0.000000 0.000000 0.053972 0.000000 0.009151
# 5 0.000033 0.002213 -0.007402 0.000000 0.027735 0.000000
# 6 0.000000 0.000000 0.000000 0.009151 0.000000 0.053727
#
#
# Mechanical properties :
#
#
# Convention : Reuss Voigt Hill
#
# Bulk Modulus (GPa) = 70.75495 80.45304 75.60399
# Shear Modulus (GPa) = 25.58124 31.93166 28.75645
#
# Velocity S-wave (km/s) = 3.32983 3.72025 3.53044
# Velocity P-wave (km/s) = 6.74176 7.30239 7.02767
#
# Compressibility (1/GPa) = 0.01413329
#
# Stress axis : x y z
#
# Youngs Moduli (GPa) = 78.18540 108.76457 78.50654
#
# Poissons Ratio (x) = 0.07071 0.42212
# Poissons Ratio (y) = 0.05083 0.33502
# Poissons Ratio (z) = 0.42040 0.46414
#
# Static dielectric constant tensor:
#      x y z
#    x 2.767590 0.000000 0.126810 
#    y 0.000000 1.854960 0.000000 
#    z 0.126810 0.000000 2.014300 
# 
# From -- ./inp_files/48285.got.cif
#   From: 2010.05.17/outbox.cif.g08.bks.cpg/sg13_25_cif.got.tgz:48285.got - 2010.06.03 16:44:36.
