data_PCOD9233986
_publ_section_title
;
Structure prediction by ZEFSAII (Michael W. Deem and Ramdas Pophale) SiO2 
 PCOD9233986
Probable space group: P 2/C
;
_chemical_formula_sum "Si O2"
_cell_formula_units_Z 28
_cell_length_a 5.203845
_cell_length_b 8.121835
_cell_length_c 26.344727
_cell_angle_alpha 90.000000
_cell_angle_beta 77.660737
_cell_angle_gamma 90.000000
_cell_volume 1087.732345
_symmetry_space_group_name_H-M "P 2/C"
_symmetry_group_IT_number 13
_symmetry_cell_setting 'monoclinic'
loop_
_space_group_symop_operation_xyz
x,y,z
-x,y,1/2-z
-x,-y,-z
x,-y,1/2+z
loop_
_atom_site_type_symbol
_atom_site_label
_atom_site_fract_x
_atom_site_fract_y
_atom_site_fract_z
Si Si1 0.696278 0.840441 0.352540
Si Si2 0.701476 0.347134 0.995610
Si Si3 0.595756 0.862516 0.923739
Si Si4 0.288370 0.458075 0.714882
Si Si5 0.986524 0.553444 0.916202
Si Si6 0.354954 0.290103 0.336346
Si Si7 0.741901 0.036556 0.700483
O O1 0.703759 0.958265 0.402758
O O2 0.409081 0.888071 0.341857
O O3 0.961189 0.895791 0.310364
O O4 0.696966 0.647301 0.337738
O O5 0.556868 0.178077 0.017053
O O6 0.872688 0.392793 0.037401
O O7 0.500000 0.500000 0.000000
O O8 0.863367 0.377196 0.937075
O O9 0.406947 0.808833 0.885702
O O10 0.802612 0.711183 0.913443
O O11 0.500000 0.407203 0.750000
O O12 0.376802 0.641515 0.697160
O O13 0.000000 0.448479 0.750000
O O14 0.182510 0.554214 0.860681
O O15 0.221799 0.159646 0.305846
O O16 0.500000 0.058176 0.750000
#
# Coordination Sequence:
#
# PCOD9233986 Si02
#       7
#     4   4   4   4   4   4   4
#     4  11  22  39  58  81 115 154 204 248 299 362
#     4   8  15  27  51  86 118 144 179 242 304 364
#     4   9  18  32  56  86 113 150 199 248 298 357
#     4  12  27  43  59  84 123 170 210 253 316 373
#     4   9  15  31  52  83 118 147 187 242 304 361
#     4  10  22  34  56  84 116 152 200 253 302 362
#     4  11  21  36  58  81 107 147 201 259 301 346
#
# _framework density 25.741626
#
# number of rings (size 3 to 8) (size 9 to 14) (size 15 to 20)
#    0.000    2.000    1.429    3.000    2.000    2.286 
#    0.000    0.000    0.000    0.857    0.000   34.000 
#    0.000    0.000    0.000    0.000    0.000    0.000 
#
# Total GULP energy -155954.917255 kJ/mol
# GULP energy per Si atom -5569.818473 kJ/mol
# Density = 2.568304 g / cm^3
# Si number density = 25.741626 Si / 1000 Ang^3
#
#
#
# Elastic Constant Matrix: (Units=GPa)
#
#
# Indices 1 2 3 4 5 6 
#
# 1 85.1208 6.1901 10.6108 0.0000 -12.1923 0.0000
# 2 6.1901 71.3442 0.1939 0.0000 -10.9865 0.0000
# 3 10.6108 0.1939 58.6918 0.0000 -6.6931 0.0000
# 4 0.0000 0.0000 0.0000 28.3621 0.0000 -3.7307
# 5 -12.1923 -10.9865 -6.6931 0.0000 32.3702 0.0000
# 6 0.0000 0.0000 0.0000 -3.7307 0.0000 10.6119
#
#
#
# Elastic Compliance Matrix: (Units=1/GPa)
#
#
# Indices 1 2 3 4 5 6 
#
# 1 0.012610 -0.000438 -0.001796 0.000000 0.004229 0.000000
# 2 -0.000438 0.014821 0.000599 0.000000 0.004989 0.000000
# 3 -0.001796 0.000599 0.017725 0.000000 0.003192 0.000000
# 4 0.000000 0.000000 0.000000 0.036968 0.000000 0.012996
# 5 0.004229 0.004989 0.003192 0.000000 0.034839 0.000000
# 6 0.000000 0.000000 0.000000 0.012996 0.000000 0.098802
#
#
# Mechanical properties :
#
#
# Convention : Reuss Voigt Hill
#
# Bulk Modulus (GPa) = 23.87409 27.68294 25.77851
# Shear Modulus (GPa) = 21.45959 27.47966 24.46963
#
# Velocity S-wave (km/s) = 2.89044 3.27083 3.08650
# Velocity P-wave (km/s) = 4.52041 5.00420 4.76844
#
# Compressibility (1/GPa) = 0.04188642
#
# Stress axis : x y z
#
# Youngs Moduli (GPa) = 79.30515 67.47079 56.41802
#
# Poissons Ratio (x) = 0.02954 0.10132
# Poissons Ratio (y) = 0.03473 -0.03380
# Poissons Ratio (z) = 0.14242 -0.04043
#
# Static dielectric constant tensor:
#      x y z
#    x 2.032920 0.000000 -0.094120 
#    y 0.000000 2.167240 0.000000 
#    z -0.094120 0.000000 2.047100 
# 
# From -- ./inp_files/94840.got.cif
#   From: 2010.05.17/outbox.cif.g08.bks.cpg/sg13_48_cif.got.tgz:94840.got - 2010.06.03 16:44:36.
