data_PCOD9233315
_publ_section_title
;
Structure prediction by ZEFSAII (Michael W. Deem and Ramdas Pophale) SiO2 
 PCOD9233315
Probable space group: P 2/C
;
_chemical_formula_sum "Si O2"
_cell_formula_units_Z 28
_cell_length_a 19.399899
_cell_length_b 6.494478
_cell_length_c 22.521597
_cell_angle_alpha 90.000000
_cell_angle_beta 149.472864
_cell_angle_gamma 90.000000
_cell_volume 1441.321202
_symmetry_space_group_name_H-M "P 2/C"
_symmetry_group_IT_number 13
_symmetry_cell_setting 'monoclinic'
loop_
_space_group_symop_operation_xyz
x,y,z
-x,y,1/2-z
-x,-y,-z
x,-y,1/2+z
loop_
_atom_site_type_symbol
_atom_site_label
_atom_site_fract_x
_atom_site_fract_y
_atom_site_fract_z
Si Si1 0.217663 0.514919 0.137128
Si Si2 0.475228 0.208583 0.799745
Si Si3 0.403828 0.827032 0.825539
Si Si4 0.056597 0.514925 0.137131
Si Si5 0.247249 0.827025 0.825540
Si Si6 0.875736 0.791423 0.200252
Si Si7 0.362587 0.500004 0.500001
O O1 0.332082 0.674572 0.202128
O O2 0.291610 0.296479 0.203724
O O3 0.151642 0.576292 0.151642
O O4 0.095231 0.499995 0.999999
O O5 0.500000 0.155889 0.750000
O O6 0.589251 0.365858 0.908404
O O7 0.469877 0.008149 0.836927
O O8 0.332275 0.905170 0.832277
O O9 0.516481 0.657029 0.925211
O O10 0.115838 0.296485 0.203725
O O11 0.072181 0.674580 0.202133
O O12 0.203977 0.008138 0.836930
O O13 0.333940 0.657021 0.925211
O O14 0.000000 0.844110 0.250000
O O15 0.772440 0.634150 0.091592
#
# Coordination Sequence:
#
# PCOD9233315 Si02
#       7
#     4   4   4   4   4   4   4
#     4   9  20  40  64  90 120 159 202 249 296 349
#     4  11  24  39  60  89 124 161 200 246 303 361
#     4  10  21  40  65  92 120 155 203 251 297 352
#     4   9  20  40  64  90 120 159 202 249 296 349
#     4  10  21  40  65  92 120 155 203 251 297 352
#     4  11  24  39  60  89 124 161 200 246 303 361
#     4  10  23  42  60  86 119 162 202 250 297 356
#
# _framework density 19.426621000000001
#
# number of rings (size 3 to 8) (size 9 to 14) (size 15 to 20)
#    0.000    2.000    0.000    2.143    2.000   10.286 
#    5.143    4.286    0.000    0.000    0.000    0.000 
#    0.000    0.000    0.000    0.000    0.000    0.000 
#
# Total GULP energy -156452.426820 kJ/mol
# GULP energy per Si atom -5587.586672 kJ/mol
# Density = 1.938241 g / cm^3
# Si number density = 19.426621 Si / 1000 Ang^3
#
#
#
# Elastic Constant Matrix: (Units=GPa)
#
#
# Indices 1 2 3 4 5 6 
#
# 1 111.3577 74.2536 42.4262 0.0000 -0.6998 0.0000
# 2 74.2536 109.5015 47.7348 0.0000 -0.2250 0.0000
# 3 42.4262 47.7348 122.5851 0.0000 0.8145 0.0000
# 4 0.0000 0.0000 0.0000 14.0999 0.0000 -0.2408
# 5 -0.6998 -0.2250 0.8145 0.0000 -5.7382 0.0000
# 6 0.0000 0.0000 0.0000 -0.2408 0.0000 41.2708
#
#
#
# Elastic Compliance Matrix: (Units=1/GPa)
#
#
# Indices 1 2 3 4 5 6 
#
# 1 0.016644 -0.010580 -0.001628 0.000000 -0.001846 0.000000
# 2 -0.010580 0.017719 -0.003239 0.000000 0.000136 0.000000
# 3 -0.001628 -0.003239 0.009971 0.000000 0.001741 0.000000
# 4 0.000000 0.000000 0.000000 0.070930 0.000000 0.000414
# 5 -0.001846 0.000136 0.001741 0.000000 -0.173802 0.000000
# 6 0.000000 0.000000 0.000000 0.000414 0.000000 0.024233
#
#
# Mechanical properties :
#
#
# Convention : Reuss Voigt Hill
#
# Bulk Modulus (GPa) = 74.41063 74.69706 74.55384
# Shear Modulus (GPa) = 4682.69389 21.86180 2352.27785
#
# Velocity S-wave (km/s) = 49.14962 3.35827 34.83506
# Velocity P-wave (km/s) = 57.09028 7.31926 40.69933
#
# Compressibility (1/GPa) = 0.01343894
#
# Stress axis : x y z
#
# Youngs Moduli (GPa) = 60.08281 56.43638 100.29327
#
# Poissons Ratio (x) = 0.59711 0.16329
# Poissons Ratio (y) = 0.63569 0.32485
# Poissons Ratio (z) = 0.09782 0.18279
#
# Static dielectric constant tensor:
#      x y z
#    x 1.645950 0.000000 0.000340 
#    y 0.000000 1.664800 0.000000 
#    z 0.000340 0.000000 1.684870 
# 
# From -- ./inp_files/88301.got.cif
#   From: 2010.05.17/outbox.cif.g08.bks.cpg/sg13_45_cif.got.tgz:88301.got - 2010.06.03 16:44:36.
