data_PCOD9233592
_publ_section_title
;
Structure prediction by ZEFSAII (Michael W. Deem and Ramdas Pophale) SiO2 
 PCOD9233592
Probable space group: P 2/C
;
_chemical_formula_sum "Si O2"
_cell_formula_units_Z 16
_cell_length_a 9.675959
_cell_length_b 7.184028
_cell_length_c 11.214641
_cell_angle_alpha 90.000000
_cell_angle_beta 71.315140
_cell_angle_gamma 90.000000
_cell_volume 738.469631
_symmetry_space_group_name_H-M "P 2/C"
_symmetry_group_IT_number 13
_symmetry_cell_setting 'monoclinic'
loop_
_space_group_symop_operation_xyz
x,y,z
-x,y,1/2-z
-x,-y,-z
x,-y,1/2+z
loop_
_atom_site_type_symbol
_atom_site_label
_atom_site_fract_x
_atom_site_fract_y
_atom_site_fract_z
Si Si1 0.653606 0.222016 0.776721
Si Si2 0.920458 0.968615 0.648167
Si Si3 0.726995 0.648329 0.726363
Si Si4 0.469941 0.702014 0.951310
O O1 0.500000 0.227955 0.750000
O O2 0.725181 0.428509 0.752390
O O3 0.768120 0.081099 0.688913
O O4 0.606841 0.179592 0.925394
O O5 0.879443 0.751152 0.672941
O O6 0.000000 0.026294 0.750000
O O7 0.000000 0.000000 0.500000
O O8 0.627618 0.750450 0.854048
O O9 0.639149 0.677015 0.628105
O O10 0.500000 0.500000 0.000000
#
# Coordination Sequence:
#
# PCOD9233592 Si02
#       4
#     4   4   4   4
#     4  11  23  40  72 100 126 168 228 286 328 384
#     4  12  30  46  62  99 143 187 220 262 342 415
#     4  10  21  41  69  95 132 168 223 278 334 388
#     4   9  17  37  65 105 123 153 221 284 333 374
#
# _framework density 21.666429000000001
#
# number of rings (size 3 to 8) (size 9 to 14) (size 15 to 20)
#    0.000    1.500    5.000    1.500    7.000    3.000 
#    0.000    0.000    0.000    0.000    0.000    0.000 
#    0.000    0.000    0.000    0.000    0.000    0.000 
#
# Total GULP energy -89349.146336 kJ/mol
# GULP energy per Si atom -5584.321646 kJ/mol
# Density = 2.161711 g / cm^3
# Si number density = 21.666429 Si / 1000 Ang^3
#
#
#
# Elastic Constant Matrix: (Units=GPa)
#
#
# Indices 1 2 3 4 5 6 
#
# 1 51.5893 33.7621 36.3779 0.0000 -7.6951 0.0000
# 2 33.7621 95.0613 46.2148 0.0000 -11.6361 0.0000
# 3 36.3779 46.2148 195.8939 0.0000 -3.4358 0.0000
# 4 0.0000 0.0000 0.0000 12.2334 0.0000 -45.5743
# 5 -7.6951 -11.6361 -3.4358 0.0000 25.7043 0.0000
# 6 0.0000 0.0000 0.0000 -45.5743 0.0000 -29.0013
#
#
#
# Elastic Compliance Matrix: (Units=1/GPa)
#
#
# Indices 1 2 3 4 5 6 
#
# 1 0.027249 -0.007601 -0.003192 0.000000 0.004290 0.000000
# 2 -0.007601 0.014685 -0.001981 0.000000 0.004107 0.000000
# 3 -0.003192 -0.001981 0.006147 0.000000 -0.001031 0.000000
# 4 0.000000 0.000000 0.000000 0.011926 0.000000 -0.018741
# 5 0.004290 0.004107 -0.001031 0.000000 0.041910 0.000000
# 6 0.000000 0.000000 0.000000 -0.018741 0.000000 -0.005031
#
#
# Mechanical properties :
#
#
# Convention : Reuss Voigt Hill
#
# Bulk Modulus (GPa) = 44.37862 63.91712 54.14787
# Shear Modulus (GPa) = 38.47826 16.86660 27.67243
#
# Velocity S-wave (km/s) = 4.21876 2.79313 3.57767
# Velocity P-wave (km/s) = 6.65265 6.32192 6.48939
#
# Compressibility (1/GPa) = 0.02253337
#
# Stress axis : x y z
#
# Youngs Moduli (GPa) = 36.69902 68.09741 162.68734
#
# Poissons Ratio (x) = 0.51760 0.51925
# Poissons Ratio (y) = 0.27894 0.32226
# Poissons Ratio (z) = 0.11713 0.13489
#
# Static dielectric constant tensor:
#      x y z
#    x 1.775940 0.000000 0.006320 
#    y 0.000000 1.838020 0.000000 
#    z 0.006320 0.000000 1.825060 
# 
# From -- ./inp_files/27549.got.cif
#   From: 2010.05.17/outbox.cif.g08.bks.cpg/sg13_14_cif.got.tgz:27549.got - 2010.06.03 16:44:36.
