data_PCOD9233183
_publ_section_title
;
Structure prediction by ZEFSAII (Michael W. Deem and Ramdas Pophale) SiO2 
 PCOD9233183
Probable space group: P 2/C
;
_chemical_formula_sum "Si O2"
_cell_formula_units_Z 30
_cell_length_a 5.386362
_cell_length_b 15.742006
_cell_length_c 16.728300
_cell_angle_alpha 90.000000
_cell_angle_beta 61.809392
_cell_angle_gamma 90.000000
_cell_volume 1250.175706
_symmetry_space_group_name_H-M "P 2/C"
_symmetry_group_IT_number 13
_symmetry_cell_setting 'monoclinic'
loop_
_space_group_symop_operation_xyz
x,y,z
-x,y,1/2-z
-x,-y,-z
x,-y,1/2+z
loop_
_atom_site_type_symbol
_atom_site_label
_atom_site_fract_x
_atom_site_fract_y
_atom_site_fract_z
Si Si1 0.641455 0.977371 0.303337
Si Si2 0.861556 0.214532 0.413969
Si Si3 0.865922 0.595353 0.860834
Si Si4 0.632500 0.508656 0.639747
Si Si5 0.322537 0.343797 0.695239
Si Si6 0.814754 0.915236 0.542683
Si Si7 0.000000 0.120692 0.250000
Si Si8 0.695469 0.823183 0.405539
O O1 0.500000 0.932593 0.250000
O O2 0.474691 0.036471 0.391824
O O3 0.827074 0.047895 0.229445
O O4 0.749295 0.900417 0.338421
O O5 0.896441 0.314366 0.400090
O O6 0.618741 0.186112 0.511060
O O7 0.121692 0.156607 0.400883
O O8 0.810370 0.181566 0.331870
O O9 0.541510 0.570907 0.892119
O O10 0.000000 0.599616 0.750000
O O11 0.043618 0.530545 0.890333
O O12 0.500000 0.515342 0.750000
O O13 0.534044 0.414925 0.627685
O O14 0.500000 0.319632 0.750000
O O15 0.261774 0.264166 0.647420
O O16 0.000000 0.382042 0.750000
O O17 0.856072 0.855484 0.459027
O O18 0.000000 0.000000 0.500000
#
# Coordination Sequence:
#
# PCOD9233183 Si02
#       8
#     4   4   4   4   4   4   2   4
#     4  12  25  42  67  95 130 182 241 290 346 426
#     4  12  25  43  67 102 144 178 237 295 366 428
#     4  10  21  39  70 105 138 179 234 288 355 425
#     4   9  19  41  70 102 138 181 230 289 353 424
#     4  11  25  47  77 108 144 190 248 297 356 437
#     4  12  25  45  66  93 140 193 230 294 368 426
#     4  12  24  42  66  98 134 182 238 290 346 432
#     4  12  28  43  68 101 144 186 236 300 368 422
#
# _framework density 23.996628000000001
#
# number of rings (size 3 to 8) (size 9 to 14) (size 15 to 20)
#    0.000    0.800    4.667    3.600    4.667    0.000 
#    2.400    1.333    0.000    0.000    0.000    0.000 
#    0.000    0.000    0.000    0.000    0.000    0.000 
#
# Total GULP energy -167022.203576 kJ/mol
# GULP energy per Si atom -5567.406786 kJ/mol
# Density = 2.394201 g / cm^3
# Si number density = 23.996628 Si / 1000 Ang^3
#
#
#
# Elastic Constant Matrix: (Units=GPa)
#
#
# Indices 1 2 3 4 5 6 
#
# 1 91.5501 40.8688 17.9698 0.0000 14.0124 0.0000
# 2 40.8688 169.5987 32.3013 0.0000 15.9937 0.0000
# 3 17.9698 32.3013 55.4650 0.0000 6.7133 0.0000
# 4 0.0000 0.0000 0.0000 59.0567 0.0000 9.7049
# 5 14.0124 15.9937 6.7133 0.0000 32.3012 0.0000
# 6 0.0000 0.0000 0.0000 9.7049 0.0000 31.3109
#
#
#
# Elastic Compliance Matrix: (Units=1/GPa)
#
#
# Indices 1 2 3 4 5 6 
#
# 1 0.013037 -0.002307 -0.002394 0.000000 -0.004016 0.000000
# 2 -0.002307 0.007250 -0.003243 0.000000 -0.001915 0.000000
# 3 -0.002394 -0.003243 0.020900 0.000000 -0.001699 0.000000
# 4 0.000000 0.000000 0.000000 0.017842 0.000000 -0.005530
# 5 -0.004016 -0.001915 -0.001699 0.000000 0.034002 0.000000
# 6 0.000000 0.000000 0.000000 -0.005530 0.000000 0.033652
#
#
# Mechanical properties :
#
#
# Convention : Reuss Voigt Hill
#
# Bulk Modulus (GPa) = 39.52828 55.43262 47.48045
# Shear Modulus (GPa) = 33.11151 39.56537 36.33844
#
# Velocity S-wave (km/s) = 3.71865 4.06493 3.89564
# Velocity P-wave (km/s) = 5.91151 6.72175 6.32961
#
# Compressibility (1/GPa) = 0.02529834
#
# Stress axis : x y z
#
# Youngs Moduli (GPa) = 76.70218 137.92159 47.84793
#
# Poissons Ratio (x) = 0.31818 0.11456
# Poissons Ratio (y) = 0.17695 0.15518
# Poissons Ratio (z) = 0.18365 0.44732
#
# Static dielectric constant tensor:
#      x y z
#    x 1.370610 0.000000 -0.160270 
#    y 0.000000 1.871010 0.000000 
#    z -0.160270 0.000000 1.941980 
# 
# From -- ./inp_files/61580.got.cif
#   From: 2010.05.17/outbox.cif.g08.bks.cpg/sg13_31_cif.got.tgz:61580.got - 2010.06.03 16:44:36.
