data_PCOD9233865
_publ_section_title
;
Structure prediction by ZEFSAII (Michael W. Deem and Ramdas Pophale) SiO2 
 PCOD9233865
Probable space group: P 2/C
;
_chemical_formula_sum "Si O2"
_cell_formula_units_Z 18
_cell_length_a 6.340272
_cell_length_b 7.667060
_cell_length_c 16.637662
_cell_angle_alpha 90.000000
_cell_angle_beta 101.391349
_cell_angle_gamma 90.000000
_cell_volume 792.845376
_symmetry_space_group_name_H-M "P 2/C"
_symmetry_group_IT_number 13
_symmetry_cell_setting 'monoclinic'
loop_
_space_group_symop_operation_xyz
x,y,z
-x,y,1/2-z
-x,-y,-z
x,-y,1/2+z
loop_
_atom_site_type_symbol
_atom_site_label
_atom_site_fract_x
_atom_site_fract_y
_atom_site_fract_z
Si Si1 0.000000 0.834160 0.250000
Si Si2 0.337070 0.536035 0.307415
Si Si3 0.710687 0.331384 0.931000
Si Si4 0.118566 0.986077 0.595998
Si Si5 0.019423 0.622857 0.890045
O O1 0.792168 0.708067 0.229610
O O2 0.000087 0.945582 0.332298
O O3 0.500000 0.481504 0.250000
O O4 0.483797 0.583482 0.395028
O O5 0.162301 0.395968 0.321662
O O6 0.697330 0.130610 0.901674
O O7 0.893375 0.442473 0.896397
O O8 0.805413 0.343221 0.026965
O O9 0.000000 0.000000 0.500000
O O10 0.148199 0.781603 0.614614
#
# Coordination Sequence:
#
# PCOD9233865 Si02
#       5
#     2   4   4   4   4
#     4  12  24  44  68  92 144 180 224 294 348 406
#     4  12  22  40  69  97 136 184 224 277 353 411
#     4  10  21  43  69  97 133 174 222 285 346 411
#     4  10  22  44  69  97 134 177 223 287 347 401
#     4  10  22  42  69  98 132 173 227 284 343 407
#
# _framework density 22.703040000000001
#
# number of rings (size 3 to 8) (size 9 to 14) (size 15 to 20)
#    0.000    1.333    4.444    0.667    0.000    2.667 
#    4.000    3.333    4.889    0.000    0.000    0.000 
#    0.000    0.000    0.000    0.000    0.000    0.000 
#
# Total GULP energy -100396.270821 kJ/mol
# GULP energy per Si atom -5577.570601 kJ/mol
# Density = 2.265137 g / cm^3
# Si number density = 22.703040 Si / 1000 Ang^3
#
#
#
# Elastic Constant Matrix: (Units=GPa)
#
#
# Indices 1 2 3 4 5 6 
#
# 1 63.2244 21.6144 36.2197 0.0000 2.6855 0.0000
# 2 21.6144 99.7429 31.0759 0.0000 -3.9285 0.0000
# 3 36.2197 31.0759 116.4945 0.0000 1.0447 0.0000
# 4 0.0000 0.0000 0.0000 34.6718 0.0000 -6.4484
# 5 2.6855 -3.9285 1.0447 0.0000 46.2031 0.0000
# 6 0.0000 0.0000 0.0000 -6.4484 0.0000 22.8612
#
#
#
# Elastic Compliance Matrix: (Units=1/GPa)
#
#
# Indices 1 2 3 4 5 6 
#
# 1 0.019914 -0.002661 -0.005470 0.000000 -0.001260 0.000000
# 2 -0.002661 0.011336 -0.002207 0.000000 0.001168 0.000000
# 3 -0.005470 -0.002207 0.010875 0.000000 -0.000116 0.000000
# 4 0.000000 0.000000 0.000000 0.030439 0.000000 0.008586
# 5 -0.001260 0.001168 -0.000116 0.000000 0.021819 0.000000
# 6 0.000000 0.000000 0.000000 0.008586 0.000000 0.046164
#
#
# Mechanical properties :
#
#
# Convention : Reuss Voigt Hill
#
# Bulk Modulus (GPa) = 46.62443 50.80908 48.71676
# Shear Modulus (GPa) = 29.69620 33.45066 31.57343
#
# Velocity S-wave (km/s) = 3.62059 3.84265 3.73327
# Velocity P-wave (km/s) = 6.16923 6.48972 6.33150
#
# Compressibility (1/GPa) = 0.02144798
#
# Stress axis : x y z
#
# Youngs Moduli (GPa) = 50.21688 88.21423 91.95611
#
# Poissons Ratio (x) = 0.23470 0.50304
# Poissons Ratio (y) = 0.13361 0.20297
# Poissons Ratio (z) = 0.27471 0.19471
#
# Static dielectric constant tensor:
#      x y z
#    x 1.844300 0.000000 -0.019280 
#    y 0.000000 1.837500 0.000000 
#    z -0.019280 0.000000 1.911740 
# 
# From -- ./inp_files/60433.got.cif
#   From: 2010.05.17/outbox.cif.g08.bks.cpg/sg13_31_cif.got.tgz:60433.got - 2010.06.03 16:44:36.
