data_PCOD9233854
_publ_section_title
;
Structure prediction by ZEFSAII (Michael W. Deem and Ramdas Pophale) SiO2 
 PCOD9233854
Probable space group: P 2/C
;
_chemical_formula_sum "Si O2"
_cell_formula_units_Z 20
_cell_length_a 8.918258
_cell_length_b 4.861801
_cell_length_c 21.134316
_cell_angle_alpha 90.000000
_cell_angle_beta 127.026798
_cell_angle_gamma 90.000000
_cell_volume 731.578415
_symmetry_space_group_name_H-M "P 2/C"
_symmetry_group_IT_number 13
_symmetry_cell_setting 'monoclinic'
loop_
_space_group_symop_operation_xyz
x,y,z
-x,y,1/2-z
-x,-y,-z
x,-y,1/2+z
loop_
_atom_site_type_symbol
_atom_site_label
_atom_site_fract_x
_atom_site_fract_y
_atom_site_fract_z
Si Si1 0.064491 0.591878 0.837195
Si Si2 0.540824 0.324669 0.674103
Si Si3 0.855429 0.096330 0.841012
Si Si4 0.557807 0.190514 0.101448
Si Si5 0.194589 0.356789 0.063468
O O1 0.283392 0.683271 0.902688
O O2 0.000000 0.495165 0.750000
O O3 0.989699 0.363037 0.866738
O O4 0.958852 0.875994 0.821918
O O5 0.662547 0.176825 0.756913
O O6 0.610108 0.633040 0.678071
O O7 0.166824 0.905954 0.601714
O O8 0.565996 0.131284 0.618712
O O9 0.676970 0.404445 0.871662
O O10 0.335895 0.263566 0.042369
O O11 0.000000 0.500000 0.000000
#
# Coordination Sequence:
#
# PCOD9233854 Si02
#       5
#     4   4   4   4   4
#     4  12  21  42  70 111 148 190 252 335 398 454
#     4  10  21  43  69 103 142 192 261 310 387 449
#     4  12  24  42  74 112 144 196 265 325 387 470
#     4  10  22  42  72  97 147 192 252 313 395 451
#     4  10  27  50  71 104 159 212 251 315 403 480
#
# _framework density 27.338148
#
# number of rings (size 3 to 8) (size 9 to 14) (size 15 to 20)
#    1.200    0.000    4.000    1.800    2.800    1.600 
#    3.600    2.000    0.000    0.000    0.000    0.000 
#    0.000    0.000    0.000    0.000    0.000    0.000 
#
# Total GULP energy -111597.114013 kJ/mol
# GULP energy per Si atom -5579.855701 kJ/mol
# Density = 2.727593 g / cm^3
# Si number density = 27.338148 Si / 1000 Ang^3
#
#
#
# Elastic Constant Matrix: (Units=GPa)
#
#
# Indices 1 2 3 4 5 6 
#
# 1 187.2816 37.2327 45.1502 0.0000 35.9961 0.0000
# 2 37.2327 178.0061 26.8415 0.0000 -5.2736 0.0000
# 3 45.1502 26.8415 66.9688 0.0000 12.2626 0.0000
# 4 0.0000 0.0000 0.0000 35.1557 0.0000 -5.3476
# 5 35.9961 -5.2736 12.2626 0.0000 32.9277 0.0000
# 6 0.0000 0.0000 0.0000 -5.3476 0.0000 59.6757
#
#
#
# Elastic Compliance Matrix: (Units=1/GPa)
#
#
# Indices 1 2 3 4 5 6 
#
# 1 0.007882 -0.001363 -0.003380 0.000000 -0.007575 0.000000
# 2 -0.001363 0.006338 -0.002232 0.000000 0.003337 0.000000
# 3 -0.003380 -0.002232 0.018775 0.000000 -0.003654 0.000000
# 4 0.000000 0.000000 0.000000 0.028838 0.000000 0.002584
# 5 -0.007575 0.003337 -0.003654 0.000000 0.040546 0.000000
# 6 0.000000 0.000000 0.000000 0.002584 0.000000 0.016989
#
#
# Mechanical properties :
#
#
# Convention : Reuss Voigt Hill
#
# Bulk Modulus (GPa) = 52.51141 72.30058 62.40600
# Shear Modulus (GPa) = 35.79931 47.08729 41.44330
#
# Velocity S-wave (km/s) = 3.62263 4.15469 3.89775
# Velocity P-wave (km/s) = 6.06199 7.03700 6.56761
#
# Compressibility (1/GPa) = 0.01904348
#
# Stress axis : x y z
#
# Youngs Moduli (GPa) = 126.87934 157.76834 53.26206
#
# Poissons Ratio (x) = 0.21508 0.18003
# Poissons Ratio (y) = 0.17297 0.11890
# Poissons Ratio (z) = 0.42887 0.35219
#
# Static dielectric constant tensor:
#      x y z
#    x 2.492720 0.000000 -0.049650 
#    y 0.000000 2.108090 0.000000 
#    z -0.049650 0.000000 2.181400 
# 
# From -- ./inp_files/74690.got.cif
#   From: 2010.05.17/outbox.cif.g08.bks.cpg/sg13_38_cif.got.tgz:74690.got - 2010.06.03 16:44:36.
