data_PCOD9233081
_publ_section_title
;
Structure prediction by ZEFSAII (Michael W. Deem and Ramdas Pophale) SiO2 
 PCOD9233081
Probable space group: P 2/C
;
_chemical_formula_sum "Si O2"
_cell_formula_units_Z 20
_cell_length_a 4.926475
_cell_length_b 5.806953
_cell_length_c 28.233838
_cell_angle_alpha 90.000000
_cell_angle_beta 99.671257
_cell_angle_gamma 90.000000
_cell_volume 796.228984
_symmetry_space_group_name_H-M "P 2/C"
_symmetry_group_IT_number 13
_symmetry_cell_setting 'monoclinic'
loop_
_space_group_symop_operation_xyz
x,y,z
-x,y,1/2-z
-x,-y,-z
x,-y,1/2+z
loop_
_atom_site_type_symbol
_atom_site_label
_atom_site_fract_x
_atom_site_fract_y
_atom_site_fract_z
Si Si1 0.159845 0.136088 0.963996
Si Si2 0.236866 0.359029 0.876463
Si Si3 0.903577 0.749912 0.693725
Si Si4 0.654253 0.031184 0.353420
Si Si5 0.573704 0.265054 0.443515
O O1 0.047894 0.241054 0.911857
O O2 0.382676 0.952865 0.951590
O O3 0.279463 0.330041 0.003356
O O4 0.000000 0.000000 0.000000
O O5 0.405743 0.534550 0.914441
O O6 0.068604 0.510135 0.834116
O O7 0.467734 0.193113 0.859817
O O8 0.084675 0.950230 0.673590
O O9 0.000000 0.727592 0.750000
O O10 0.582402 0.812305 0.678847
O O11 0.745735 0.161811 0.404548
#
# Coordination Sequence:
#
# PCOD9233081 Si02
#       5
#     4   4   4   4   4
#     4  10  21  39  65 102 144 186 232 287 352 420
#     4  10  23  44  72 103 138 193 238 288 362 438
#     4  11  25  49  73 104 140 185 242 311 369 439
#     4  10  24  44  72 103 143 181 238 300 363 426
#     4   9  21  40  61  99 142 183 231 283 345 428
#
# _framework density 25.118404000000002
#
# number of rings (size 3 to 8) (size 9 to 14) (size 15 to 20)
#    0.000    2.000    0.000    1.200    8.400    4.800 
#   14.400    4.000    0.000    0.000    0.000    0.000 
#    0.000    0.000    0.000    0.000    0.000    0.000 
#
# Total GULP energy -111700.805280 kJ/mol
# GULP energy per Si atom -5585.040264 kJ/mol
# Density = 2.506123 g / cm^3
# Si number density = 25.118404 Si / 1000 Ang^3
#
#
#
# Elastic Constant Matrix: (Units=GPa)
#
#
# Indices 1 2 3 4 5 6 
#
# 1 88.4846 4.6503 21.6999 0.0000 -9.4555 0.0000
# 2 4.6503 68.7827 54.5872 0.0000 1.1131 0.0000
# 3 21.6999 54.5872 220.8933 0.0000 -8.8137 0.0000
# 4 0.0000 0.0000 0.0000 34.3537 0.0000 -7.6879
# 5 -9.4555 1.1131 -8.8137 0.0000 23.4919 0.0000
# 6 0.0000 0.0000 0.0000 -7.6879 0.0000 38.8703
#
#
#
# Elastic Compliance Matrix: (Units=1/GPa)
#
#
# Indices 1 2 3 4 5 6 
#
# 1 0.012025 -0.000112 -0.000975 0.000000 0.004480 0.000000
# 2 -0.000112 0.018241 -0.004602 0.000000 -0.002636 0.000000
# 3 -0.000975 -0.004602 0.005841 0.000000 0.002017 0.000000
# 4 0.000000 0.000000 0.000000 0.030457 0.000000 0.006024
# 5 0.004480 -0.002636 0.002017 0.000000 0.045252 0.000000
# 6 0.000000 0.000000 0.000000 0.006024 0.000000 0.026918
#
#
# Mechanical properties :
#
#
# Convention : Reuss Voigt Hill
#
# Bulk Modulus (GPa) = 40.43782 60.00393 50.22088
# Shear Modulus (GPa) = 31.57480 39.15808 35.36644
#
# Velocity S-wave (km/s) = 3.54932 3.95262 3.75639
# Velocity P-wave (km/s) = 5.73853 6.69113 6.23306
#
# Compressibility (1/GPa) = 0.02472932
#
# Stress axis : x y z
#
# Youngs Moduli (GPa) = 83.15965 54.82193 171.21706
#
# Poissons Ratio (x) = 0.00613 0.16693
# Poissons Ratio (y) = 0.00929 0.78792
# Poissons Ratio (z) = 0.08108 0.25228
#
# Static dielectric constant tensor:
#      x y z
#    x 2.133530 0.000000 0.064380 
#    y 0.000000 2.175630 0.000000 
#    z 0.064380 0.000000 1.995340 
# 
# From -- ./inp_files/94521.got.cif
#   From: 2010.05.17/outbox.cif.g08.bks.cpg/sg13_48_cif.got.tgz:94521.got - 2010.06.03 16:44:36.
