data_PCOD9233277
_publ_section_title
;
Structure prediction by ZEFSAII (Michael W. Deem and Ramdas Pophale) SiO2 
 PCOD9233277
Probable space group: P 2/C
;
_chemical_formula_sum "Si O2"
_cell_formula_units_Z 26
_cell_length_a 11.794075
_cell_length_b 22.936142
_cell_length_c 5.074183
_cell_angle_alpha 90.000000
_cell_angle_beta 120.533249
_cell_angle_gamma 90.000000
_cell_volume 1182.285102
_symmetry_space_group_name_H-M "P 2/C"
_symmetry_group_IT_number 13
_symmetry_cell_setting 'monoclinic'
loop_
_space_group_symop_operation_xyz
x,y,z
-x,y,1/2-z
-x,-y,-z
x,-y,1/2+z
loop_
_atom_site_type_symbol
_atom_site_label
_atom_site_fract_x
_atom_site_fract_y
_atom_site_fract_z
Si Si1 0.633999 0.313338 0.271843
Si Si2 0.811997 0.842616 0.705967
Si Si3 0.647615 0.819338 0.994534
Si Si4 0.235068 0.345546 0.593565
Si Si5 0.652197 0.539293 0.458089
Si Si6 0.000000 0.254565 0.250000
Si Si7 0.854332 0.974514 0.765686
O O1 0.500000 0.334397 0.250000
O O2 0.650036 0.247804 0.398796
O O3 0.736560 0.350486 0.562137
O O4 0.659105 0.316478 0.990273
O O5 0.750507 0.848684 0.920949
O O6 0.860697 0.907258 0.695981
O O7 0.923841 0.792469 0.844863
O O8 0.701762 0.825188 0.355774
O O9 0.500000 0.839896 0.750000
O O10 0.242573 0.410802 0.488078
O O11 0.114933 0.300382 0.450801
O O12 0.500000 0.562239 0.250000
O O13 0.664246 0.512548 0.761128
O O14 0.786025 0.012592 0.461667
O O15 0.000000 0.000000 0.000000
#
# Coordination Sequence:
#
# PCOD9233277 Si02
#       7
#     4   4   4   4   4   2   4
#     4  11  21  39  63  92 128 167 212 261 321 383
#     4  12  24  42  69  96 138 170 215 276 321 395
#     4  11  23  42  65  97 131 171 216 266 332 394
#     4  12  24  40  62  97 135 166 213 266 324 391
#     4  10  21  40  65  92 121 162 220 276 322 368
#     4  12  26  42  60 100 136 176 210 250 334 400
#     4  10  21  40  63  96 124 169 220 268 316 371
#
# _framework density 21.991312000000001
#
# number of rings (size 3 to 8) (size 9 to 14) (size 15 to 20)
#    0.000    0.923    3.077    4.615    0.000    7.385 
#    0.000    0.769    0.000    9.231    0.000    0.000 
#    0.000    0.000    0.000    0.000    0.000    0.000 
#
# Total GULP energy -144816.634173 kJ/mol
# GULP energy per Si atom -5569.870545 kJ/mol
# Density = 2.194126 g / cm^3
# Si number density = 21.991312 Si / 1000 Ang^3
#
#
#
# Elastic Constant Matrix: (Units=GPa)
#
#
# Indices 1 2 3 4 5 6 
#
# 1 62.2690 8.9063 18.5621 0.0000 8.4714 0.0000
# 2 8.9063 122.7183 13.4864 0.0000 18.1012 0.0000
# 3 18.5621 13.4864 63.6839 0.0000 -18.6152 0.0000
# 4 0.0000 0.0000 0.0000 14.9177 0.0000 -16.1457
# 5 8.4714 18.1012 -18.6152 0.0000 28.3950 0.0000
# 6 0.0000 0.0000 0.0000 -16.1457 0.0000 10.7340
#
#
#
# Elastic Compliance Matrix: (Units=1/GPa)
#
#
# Indices 1 2 3 4 5 6 
#
# 1 0.020949 0.001777 -0.010689 0.000000 -0.014390 0.000000
# 2 0.001777 0.010283 -0.005897 0.000000 -0.010951 0.000000
# 3 -0.010689 -0.005897 0.027336 0.000000 0.024869 0.000000
# 4 0.000000 0.000000 0.000000 -0.106744 0.000000 -0.160561
# 5 -0.014390 -0.010951 0.024869 0.000000 0.062795 0.000000
# 6 0.000000 0.000000 0.000000 -0.160561 0.000000 -0.148349
#
#
# Mechanical properties :
#
#
# Convention : Reuss Voigt Hill
#
# Bulk Modulus (GPa) = 34.54063 36.73118 35.63590
# Shear Modulus (GPa) = -52.93154 24.65709 -14.13723
#
# Velocity S-wave (km/s) = -4.91137 3.35209 -2.53821
# Velocity P-wave (km/s) = 4.05234 5.63213 2.76581
#
# Compressibility (1/GPa) = 0.02895141
#
# Stress axis : x y z
#
# Youngs Moduli (GPa) = 47.73469 97.24661 36.58169
#
# Poissons Ratio (x) = -0.17279 0.39101
# Poissons Ratio (y) = -0.08482 0.21571
# Poissons Ratio (z) = 0.51022 0.57343
#
# Static dielectric constant tensor:
#      x y z
#    x 1.100500 0.000000 -0.251510 
#    y 0.000000 1.853520 0.000000 
#    z -0.251510 0.000000 1.743750 
# 
# From -- ./inp_files/4205.got.cif
#   From: 2010.05.17/outbox.cif.g08.bks.cpg/sg13_3_cif.got.tgz:4205.got - 2010.06.03 16:44:36.
