data_PCOD9233643
_publ_section_title
;
Structure prediction by ZEFSAII (Michael W. Deem and Ramdas Pophale) SiO2 
 PCOD9233643
Probable space group: P 2/C
;
_chemical_formula_sum "Si O2"
_cell_formula_units_Z 20
_cell_length_a 16.387867
_cell_length_b 9.029172
_cell_length_c 12.233140
_cell_angle_alpha 90.000000
_cell_angle_beta 152.420984
_cell_angle_gamma 90.000000
_cell_volume 838.035671
_symmetry_space_group_name_H-M "P 2/C"
_symmetry_group_IT_number 13
_symmetry_cell_setting 'monoclinic'
loop_
_space_group_symop_operation_xyz
x,y,z
-x,y,1/2-z
-x,-y,-z
x,-y,1/2+z
loop_
_atom_site_type_symbol
_atom_site_label
_atom_site_fract_x
_atom_site_fract_y
_atom_site_fract_z
Si Si1 0.212195 0.906398 0.882321
Si Si2 0.528199 0.785528 0.117704
Si Si3 0.644024 0.817748 0.005962
Si Si4 0.976778 0.348652 0.100864
Si Si5 0.699219 0.503018 0.130003
O O1 0.350892 0.866433 0.950379
O O2 0.024246 0.825221 0.652547
O O3 0.316128 0.835902 0.112544
O O4 0.192305 0.082133 0.838983
O O5 0.575766 0.829212 0.049947
O O6 0.459637 0.612856 0.043262
O O7 0.500000 0.874996 0.750000
O O8 0.664183 0.642569 0.010777
O O9 0.000000 0.402532 0.250000
O O10 0.137384 0.411821 0.222128
O O11 0.791800 0.409794 0.840525
#
# Coordination Sequence:
#
# PCOD9233643 Si02
#       5
#     4   4   4   4   4
#     4  10  22  40  65  89 129 171 209 260 326 385
#     4  10  21  42  62  93 130 165 206 271 324 369
#     4  12  24  36  64 101 124 162 216 271 319 376
#     4  10  22  43  62  86 126 175 211 254 326 379
#     4  10  24  39  64  95 123 167 216 266 313 382
#
# _framework density 23.865335000000002
#
# number of rings (size 3 to 8) (size 9 to 14) (size 15 to 20)
#    0.000    1.600    2.000    2.400    8.400    0.800 
#    0.000    1.000    0.000    0.000    0.000    0.000 
#    0.000    0.000    0.000    0.000    0.000    0.000 
#
# Total GULP energy -111458.335441 kJ/mol
# GULP energy per Si atom -5572.916772 kJ/mol
# Density = 2.381102 g / cm^3
# Si number density = 23.865335 Si / 1000 Ang^3
#
#
#
# Elastic Constant Matrix: (Units=GPa)
#
#
# Indices 1 2 3 4 5 6 
#
# 1 101.2092 41.2147 52.8516 0.0000 8.1654 0.0000
# 2 41.2147 171.0835 46.2093 0.0000 1.0648 0.0000
# 3 52.8516 46.2093 86.9093 0.0000 0.7606 0.0000
# 4 0.0000 0.0000 0.0000 -56.9934 0.0000 -83.9225
# 5 8.1654 1.0648 0.7606 0.0000 42.3497 0.0000
# 6 0.0000 0.0000 0.0000 -83.9225 0.0000 -59.7340
#
#
#
# Elastic Compliance Matrix: (Units=1/GPa)
#
#
# Indices 1 2 3 4 5 6 
#
# 1 0.015034 -0.001333 -0.008410 0.000000 -0.002714 0.000000
# 2 -0.001333 0.006944 -0.002882 0.000000 0.000134 0.000000
# 3 -0.008410 -0.002882 0.018141 0.000000 0.001368 0.000000
# 4 0.000000 0.000000 0.000000 0.016417 0.000000 -0.023065
# 5 -0.002714 0.000134 0.001368 0.000000 0.024108 0.000000
# 6 0.000000 0.000000 0.000000 -0.023065 0.000000 0.015664
#
#
# Mechanical properties :
#
#
# Convention : Reuss Voigt Hill
#
# Bulk Modulus (GPa) = 67.25924 71.08369 69.17146
# Shear Modulus (GPa) = 39.52076 -0.28045 19.62016
#
# Velocity S-wave (km/s) = 4.07380 -0.34317 2.87037
# Velocity P-wave (km/s) = 7.09731 5.44913 6.32712
#
# Compressibility (1/GPa) = 0.01486785
#
# Stress axis : x y z
#
# Youngs Moduli (GPa) = 66.51518 144.00890 55.12343
#
# Poissons Ratio (x) = 0.19202 0.46358
# Poissons Ratio (y) = 0.08869 0.15889
# Poissons Ratio (z) = 0.55939 0.41509
#
# Static dielectric constant tensor:
#      x y z
#    x 1.923560 0.000000 -0.003420 
#    y 0.000000 2.079780 0.000000 
#    z -0.003420 0.000000 2.003540 
# 
# From -- ./inp_files/38840.got.cif
#   From: 2010.05.17/outbox.cif.g08.bks.cpg/sg13_20_cif.got.tgz:38840.got - 2010.06.03 16:44:36.
