data_PCOD9233003
_publ_section_title
;
Structure prediction by ZEFSAII (Michael W. Deem and Ramdas Pophale) SiO2 
 PCOD9233003
Probable space group: P 2/C
;
_chemical_formula_sum "Si O2"
_cell_formula_units_Z 28
_cell_length_a 13.159632
_cell_length_b 9.682317
_cell_length_c 13.965483
_cell_angle_alpha 90.000000
_cell_angle_beta 57.290346
_cell_angle_gamma 90.000000
_cell_volume 1497.240963
_symmetry_space_group_name_H-M "P 2/C"
_symmetry_group_IT_number 13
_symmetry_cell_setting 'monoclinic'
loop_
_space_group_symop_operation_xyz
x,y,z
-x,y,1/2-z
-x,-y,-z
x,-y,1/2+z
loop_
_atom_site_type_symbol
_atom_site_label
_atom_site_fract_x
_atom_site_fract_y
_atom_site_fract_z
Si Si1 0.751598 0.501640 0.008955
Si Si2 0.202981 0.985277 0.886503
Si Si3 0.991239 0.901640 0.369223
Si Si4 0.985827 0.581400 0.142349
Si Si5 0.640915 0.737974 0.195547
Si Si6 0.717156 0.514623 0.299979
Si Si7 0.637738 0.281138 0.205289
O O1 0.691144 0.632809 0.089681
O O2 0.696911 0.367473 0.088283
O O3 0.723247 0.492939 0.910875
O O4 0.896241 0.500098 0.951639
O O5 0.285247 0.855511 0.818244
O O6 0.283666 0.122163 0.847403
O O7 0.134188 0.954534 0.021727
O O8 0.097439 0.009841 0.862978
O O9 0.000000 0.908481 0.250000
O O10 0.009091 0.741369 0.391991
O O11 0.855827 0.514414 0.191124
O O12 0.000000 0.587540 0.250000
O O13 0.500000 0.762239 0.250000
O O14 0.661386 0.655114 0.284937
O O15 0.647183 0.386028 0.289853
O O16 0.500000 0.249822 0.250000
#
# Coordination Sequence:
#
# PCOD9233003 Si02
#       7
#     4   4   4   4   4   4   4
#     4  10  21  39  62  87 117 154 199 251 299 347
#     4  11  23  40  62  88 121 161 190 244 302 351
#     4  10  21  39  62  90 120 154 194 242 302 360
#     4   9  17  34  62  88 113 147 189 243 303 350
#     4  11  24  39  58  86 120 160 204 242 287 353
#     4  10  21  39  62  87 117 154 199 251 299 347
#     4  11  24  39  58  86 120 160 204 242 287 353
#
# _framework density 18.701063999999999
#
# number of rings (size 3 to 8) (size 9 to 14) (size 15 to 20)
#    0.000    1.714    2.857    2.143    0.000    8.000 
#    0.000    1.429    0.000    5.143    0.000    0.000 
#    0.000    0.000    0.000    0.000    0.000    0.000 
#
# Total GULP energy -156383.972456 kJ/mol
# GULP energy per Si atom -5585.141873 kJ/mol
# Density = 1.865850 g / cm^3
# Si number density = 18.701064 Si / 1000 Ang^3
#
#
#
# Elastic Constant Matrix: (Units=GPa)
#
#
# Indices 1 2 3 4 5 6 
#
# 1 52.7945 -0.1049 -10.9683 0.0000 -11.4034 0.0000
# 2 -0.1049 94.4561 2.5186 0.0000 -4.9424 0.0000
# 3 -10.9683 2.5186 29.4489 0.0000 11.4578 0.0000
# 4 0.0000 0.0000 0.0000 11.9031 0.0000 -4.0145
# 5 -11.4034 -4.9424 11.4578 0.0000 43.4535 0.0000
# 6 0.0000 0.0000 0.0000 -4.0145 0.0000 22.5026
#
#
#
# Elastic Compliance Matrix: (Units=1/GPa)
#
#
# Indices 1 2 3 4 5 6 
#
# 1 0.021096 0.000057 0.006347 0.000000 0.003869 0.000000
# 2 0.000057 0.010714 -0.001532 0.000000 0.001637 0.000000
# 3 0.006347 -0.001532 0.039973 0.000000 -0.009049 0.000000
# 4 0.000000 0.000000 0.000000 0.089390 0.000000 0.015947
# 5 0.003869 0.001637 -0.009049 0.000000 0.026601 0.000000
# 6 0.000000 0.000000 0.000000 0.015947 0.000000 0.047284
#
#
# Mechanical properties :
#
#
# Convention : Reuss Voigt Hill
#
# Bulk Modulus (GPa) = 12.26621 17.73225 14.99923
# Shear Modulus (GPa) = 19.80282 27.92210 23.86246
#
# Velocity S-wave (km/s) = 3.25763 3.86823 3.57598
# Velocity P-wave (km/s) = 4.55223 5.42710 5.00881
#
# Compressibility (1/GPa) = 0.08152479
#
# Stress axis : x y z
#
# Youngs Moduli (GPa) = 47.40286 93.33992 25.01708
#
# Poissons Ratio (x) = -0.00529 -0.15878
# Poissons Ratio (y) = -0.00268 0.03833
# Poissons Ratio (z) = -0.30087 0.14302
#
# Static dielectric constant tensor:
#      x y z
#    x 1.649290 0.000000 -0.001380 
#    y 0.000000 1.623900 0.000000 
#    z -0.001380 0.000000 1.652460 
# 
# From -- ./inp_files/50264.got.cif
#   From: 2010.05.17/outbox.cif.g08.bks.cpg/sg13_26_cif.got.tgz:50264.got - 2010.06.03 16:44:36.
