data_PCOD9233788
_publ_section_title
;
Structure prediction by ZEFSAII (Michael W. Deem and Ramdas Pophale) SiO2 
 PCOD9233788
Probable space group: P 2/C
;
_chemical_formula_sum "Si O2"
_cell_formula_units_Z 24
_cell_length_a 18.610344
_cell_length_b 11.760375
_cell_length_c 10.294494
_cell_angle_alpha 90.000000
_cell_angle_beta 148.830092
_cell_angle_gamma 90.000000
_cell_volume 1166.154599
_symmetry_space_group_name_H-M "P 2/C"
_symmetry_group_IT_number 13
_symmetry_cell_setting 'monoclinic'
loop_
_space_group_symop_operation_xyz
x,y,z
-x,y,1/2-z
-x,-y,-z
x,-y,1/2+z
loop_
_atom_site_type_symbol
_atom_site_label
_atom_site_fract_x
_atom_site_fract_y
_atom_site_fract_z
Si Si1 0.035664 0.304554 0.949693
Si Si2 0.729759 0.690898 0.029129
Si Si3 0.878108 0.046223 0.480435
Si Si4 0.500000 0.876086 0.250000
Si Si5 0.709388 0.945786 0.981832
Si Si6 0.668946 0.671870 0.632596
Si Si7 0.500000 0.513747 0.750000
O O1 0.000000 0.350261 0.750000
O O2 0.894836 0.320165 0.813711
O O3 0.062722 0.169077 0.972640
O O4 0.187101 0.351794 0.223413
O O5 0.676559 0.817918 0.977292
O O6 0.713161 0.681802 0.848699
O O7 0.631221 0.594600 0.932234
O O8 0.767069 0.060487 0.424720
O O9 0.819357 0.988121 0.261045
O O10 0.000000 0.983823 0.750000
O O11 0.603987 0.790089 0.482942
O O12 0.587444 0.961767 0.296221
O O13 0.552611 0.575182 0.439795
#
# Coordination Sequence:
#
# PCOD9233788 Si02
#       7
#     4   4   4   2   4   4   2
#     4   9  17  38  63  85 113 166 202 247 308 375
#     4  11  22  39  63  89 123 160 209 260 321 365
#     4  11  21  37  62  94 126 170 207 247 310 376
#     4  11  23  34  60  94 129 173 202 250 316 381
#     4  12  22  37  62  94 132 167 206 251 310 388
#     4  10  21  43  60  83 125 164 212 255 314 375
#     4  11  25  38  62  90 115 165 210 270 310 369
#
# _framework density 20.580463000000002
#
# number of rings (size 3 to 8) (size 9 to 14) (size 15 to 20)
#    0.000    1.333    6.667    1.500    0.000    4.667 
#    0.000    0.000    0.000    3.000    0.000    0.000 
#    0.000    0.000    0.000    0.000    0.000    0.000 
#
# Total GULP energy -133744.376451 kJ/mol
# GULP energy per Si atom -5572.682352 kJ/mol
# Density = 2.053362 g / cm^3
# Si number density = 20.580463 Si / 1000 Ang^3
#
#
#
# Elastic Constant Matrix: (Units=GPa)
#
#
# Indices 1 2 3 4 5 6 
#
# 1 52.9419 23.6114 17.5342 0.0000 14.6542 0.0000
# 2 23.6114 95.9479 23.4730 0.0000 20.1558 0.0000
# 3 17.5342 23.4730 92.9467 0.0000 13.8108 0.0000
# 4 0.0000 0.0000 0.0000 34.1964 0.0000 5.5033
# 5 14.6542 20.1558 13.8108 0.0000 34.4916 0.0000
# 6 0.0000 0.0000 0.0000 5.5033 0.0000 14.7639
#
#
#
# Elastic Compliance Matrix: (Units=1/GPa)
#
#
# Indices 1 2 3 4 5 6 
#
# 1 0.023209 -0.003702 -0.002445 0.000000 -0.006718 0.000000
# 2 -0.003702 0.012867 -0.001773 0.000000 -0.005236 0.000000
# 3 -0.002445 -0.001773 0.012078 0.000000 -0.002761 0.000000
# 4 0.000000 0.000000 0.000000 0.031109 0.000000 -0.011596
# 5 -0.006718 -0.005236 -0.002761 0.000000 0.036013 0.000000
# 6 0.000000 0.000000 0.000000 -0.011596 0.000000 0.072055
#
#
# Mechanical properties :
#
#
# Convention : Reuss Voigt Hill
#
# Bulk Modulus (GPa) = 30.94628 41.23041 36.08834
# Shear Modulus (GPa) = 23.37073 28.50491 25.93782
#
# Velocity S-wave (km/s) = 3.37349 3.72566 3.55394
# Velocity P-wave (km/s) = 5.49939 6.21165 5.86634
#
# Compressibility (1/GPa) = 0.03231406
#
# Stress axis : x y z
#
# Youngs Moduli (GPa) = 43.08656 77.71776 82.79375
#
# Poissons Ratio (x) = 0.28770 0.20245
# Poissons Ratio (y) = 0.15950 0.14680
# Poissons Ratio (z) = 0.10536 0.13780
#
# Static dielectric constant tensor:
#      x y z
#    x 1.764190 0.000000 0.065750 
#    y 0.000000 1.727010 0.000000 
#    z 0.065750 0.000000 1.820860 
# 
# From -- ./inp_files/40737.got.cif
#   From: 2010.05.17/outbox.cif.g08.bks.cpg/sg13_21_cif.got.tgz:40737.got - 2010.06.03 16:44:36.
