data_PCOD9233061
_publ_section_title
;
Structure prediction by ZEFSAII (Michael W. Deem and Ramdas Pophale) SiO2 
 PCOD9233061
Probable space group: P 2/C
;
_chemical_formula_sum "Si O2"
_cell_formula_units_Z 32
_cell_length_a 14.631874
_cell_length_b 6.619881
_cell_length_c 29.742865
_cell_angle_alpha 90.000000
_cell_angle_beta 145.855281
_cell_angle_gamma 90.000000
_cell_volume 1617.023993
_symmetry_space_group_name_H-M "P 2/C"
_symmetry_group_IT_number 13
_symmetry_cell_setting 'monoclinic'
loop_
_space_group_symop_operation_xyz
x,y,z
-x,y,1/2-z
-x,-y,-z
x,-y,1/2+z
loop_
_atom_site_type_symbol
_atom_site_label
_atom_site_fract_x
_atom_site_fract_y
_atom_site_fract_z
Si Si1 0.967118 0.445135 0.935357
Si Si2 0.214302 0.177012 0.990099
Si Si3 0.104869 0.224618 0.421367
Si Si4 0.228011 0.026637 0.245564
Si Si5 0.536748 0.406029 0.151088
Si Si6 0.231328 0.330970 0.810185
Si Si7 0.125958 0.576562 0.367376
Si Si8 0.623821 0.298228 0.762972
O O1 0.778093 0.409314 0.848130
O O2 0.064619 0.243259 0.960807
O O3 0.038228 0.618743 0.931421
O O4 0.000000 0.500000 0.000000
O O5 0.175963 0.260324 0.924785
O O6 0.229403 0.935945 0.993245
O O7 0.369084 0.299420 0.070629
O O8 0.170507 0.360683 0.407141
O O9 0.952962 0.093433 0.341589
O O10 0.233571 0.900659 0.294408
O O11 0.302991 0.875573 0.239040
O O12 0.333791 0.227215 0.290611
O O13 0.609875 0.553576 0.142760
O O14 0.531753 0.541110 0.193764
O O15 0.203126 0.369149 0.851083
O O16 0.070151 0.419271 0.719293
O O17 0.500000 0.219454 0.750000
#
# Coordination Sequence:
#
# PCOD9233061 Si02
#       8
#     4   4   4   4   4   4   4   4
#     4  11  23  41  65  90 124 165 205 258 316 372
#     4  11  23  40  62  92 125 161 209 262 312 367
#     4  11  20  41  64  87 126 166 210 257 308 373
#     4  11  20  41  64  88 125 165 209 256 304 373
#     4  11  23  40  62  90 125 165 204 259 317 368
#     4  10  21  39  64  91 122 165 209 253 313 380
#     4  10  21  39  64  91 122 166 207 254 313 376
#     4  11  23  41  64  91 125 162 208 256 313 378
#
# _framework density 19.789441
#
# number of rings (size 3 to 8) (size 9 to 14) (size 15 to 20)
#    0.000    1.250    5.000    2.250    0.000    7.500 
#    2.250    1.250    0.000    0.000    0.000    0.000 
#    0.000    0.000    0.000    0.000    0.000    0.000 
#
# Total GULP energy -178808.614260 kJ/mol
# GULP energy per Si atom -5587.769196 kJ/mol
# Density = 1.974440 g / cm^3
# Si number density = 19.789441 Si / 1000 Ang^3
#
#
#
# Elastic Constant Matrix: (Units=GPa)
#
#
# Indices 1 2 3 4 5 6 
#
# 1 85.0360 13.9757 13.7360 0.0000 -18.5039 0.0000
# 2 13.9757 79.8202 -11.6054 0.0000 -15.3182 0.0000
# 3 13.7360 -11.6054 44.1318 0.0000 -9.4250 0.0000
# 4 0.0000 0.0000 0.0000 25.1198 0.0000 4.4407
# 5 -18.5039 -15.3182 -9.4250 0.0000 30.5026 0.0000
# 6 0.0000 0.0000 0.0000 4.4407 0.0000 11.4539
#
#
#
# Elastic Compliance Matrix: (Units=1/GPa)
#
#
# Indices 1 2 3 4 5 6 
#
# 1 0.014023 -0.001679 -0.003394 0.000000 0.006615 0.000000
# 2 -0.001679 0.015433 0.006444 0.000000 0.008723 0.000000
# 3 -0.003394 0.006444 0.027475 0.000000 0.009667 0.000000
# 4 0.000000 0.000000 0.000000 0.042738 0.000000 -0.016570
# 5 0.006615 0.008723 0.009667 0.000000 0.044165 0.000000
# 6 0.000000 0.000000 0.000000 -0.016570 0.000000 0.093731
#
#
# Mechanical properties :
#
#
# Convention : Reuss Voigt Hill
#
# Bulk Modulus (GPa) = 16.75784 26.80007 21.77895
# Shear Modulus (GPa) = 19.62988 26.27403 22.95196
#
# Velocity S-wave (km/s) = 3.15292 3.64769 3.40929
# Velocity P-wave (km/s) = 4.66272 5.59579 5.15043
#
# Compressibility (1/GPa) = 0.05967356
#
# Stress axis : x y z
#
# Youngs Moduli (GPa) = 71.30956 64.79577 36.39706
#
# Poissons Ratio (x) = 0.10881 0.12352
# Poissons Ratio (y) = 0.11975 -0.23454
# Poissons Ratio (z) = 0.24200 -0.41755
#
# Static dielectric constant tensor:
#      x y z
#    x 1.677090 0.000000 0.021050 
#    y 0.000000 1.701950 0.000000 
#    z 0.021050 0.000000 1.716140 
# 
# From -- ./inp_files/96866.got.cif
#   From: 2010.05.17/outbox.cif.g08.bks.cpg/sg13_49_cif.got.tgz:96866.got - 2010.06.03 16:44:36.
