data_PCOD9233609
_publ_section_title
;
Structure prediction by ZEFSAII (Michael W. Deem and Ramdas Pophale) SiO2 
 PCOD9233609
Probable space group: P 2/C
;
_chemical_formula_sum "Si O2"
_cell_formula_units_Z 18
_cell_length_a 10.708614
_cell_length_b 8.284886
_cell_length_c 7.935692
_cell_angle_alpha 90.000000
_cell_angle_beta 77.014987
_cell_angle_gamma 90.000000
_cell_volume 686.048389
_symmetry_space_group_name_H-M "P 2/C"
_symmetry_group_IT_number 13
_symmetry_cell_setting 'monoclinic'
loop_
_space_group_symop_operation_xyz
x,y,z
-x,y,1/2-z
-x,-y,-z
x,-y,1/2+z
loop_
_atom_site_type_symbol
_atom_site_label
_atom_site_fract_x
_atom_site_fract_y
_atom_site_fract_z
Si Si1 0.852608 0.012260 0.480930
Si Si2 0.353526 0.525042 0.606572
Si Si3 0.634347 0.768816 0.136360
Si Si4 0.894720 0.655653 0.429936
Si Si5 0.000000 0.744245 0.750000
O O1 0.747767 0.103807 0.623179
O O2 0.881152 0.137621 0.321797
O O3 0.820632 0.828138 0.452782
O O4 0.000000 0.000000 0.500000
O O5 0.500000 0.500000 0.500000
O O6 0.359716 0.716855 0.563450
O O7 0.349039 0.402612 0.768141
O O8 0.215939 0.473626 0.568860
O O9 0.500000 0.832832 0.250000
O O10 0.000000 0.665382 0.250000
O O11 0.963620 0.646975 0.592197
#
# Coordination Sequence:
#
# PCOD9233609 Si02
#       5
#     4   4   4   4   2
#     4  10  21  41  71 103 143 181 234 304 361 423
#     4  10  23  45  70  99 144 193 239 295 360 429
#     4  10  23  45  69  99 143 188 242 294 359 434
#     4  11  23  44  73 106 149 188 237 307 364 431
#     4  10  22  38  70 108 144 180 240 288 380 420
#
# _framework density 26.237217999999999
#
# number of rings (size 3 to 8) (size 9 to 14) (size 15 to 20)
#    0.000    1.778    1.111    2.667    6.222    0.000 
#    2.000   13.333    0.000    0.000    0.000    0.000 
#    0.000    0.000    0.000    0.000    0.000    0.000 
#
# Total GULP energy -100235.551401 kJ/mol
# GULP energy per Si atom -5568.641744 kJ/mol
# Density = 2.617750 g / cm^3
# Si number density = 26.237218 Si / 1000 Ang^3
#
#
#
# Elastic Constant Matrix: (Units=GPa)
#
#
# Indices 1 2 3 4 5 6 
#
# 1 163.5973 29.4619 82.0530 0.0000 -32.6721 0.0000
# 2 29.4619 76.5140 54.1329 0.0000 -24.5510 0.0000
# 3 82.0530 54.1329 169.7780 0.0000 -29.9926 0.0000
# 4 0.0000 0.0000 0.0000 38.3109 0.0000 -12.9195
# 5 -32.6721 -24.5510 -29.9926 0.0000 61.4973 0.0000
# 6 0.0000 0.0000 0.0000 -12.9195 0.0000 56.2031
#
#
#
# Elastic Compliance Matrix: (Units=1/GPa)
#
#
# Indices 1 2 3 4 5 6 
#
# 1 0.008473 0.000237 -0.003675 0.000000 0.002804 0.000000
# 2 0.000237 0.018104 -0.005021 0.000000 0.004905 0.000000
# 3 -0.003675 -0.005021 0.009376 0.000000 0.000616 0.000000
# 4 0.000000 0.000000 0.000000 0.028296 0.000000 0.006504
# 5 0.002804 0.004905 0.000616 0.000000 0.020009 0.000000
# 6 0.000000 0.000000 0.000000 0.006504 0.000000 0.019288
#
#
# Mechanical properties :
#
#
# Convention : Reuss Voigt Hill
#
# Bulk Modulus (GPa) = 52.53250 82.35388 67.44319
# Shear Modulus (GPa) = 39.42965 47.48503 43.45734
#
# Velocity S-wave (km/s) = 3.88082 4.25883 4.07421
# Velocity P-wave (km/s) = 6.33614 7.45921 6.92049
#
# Compressibility (1/GPa) = 0.01903584
#
# Stress axis : x y z
#
# Youngs Moduli (GPa) = 118.01899 55.23645 106.65620
#
# Poissons Ratio (x) = -0.01311 0.39201
# Poissons Ratio (y) = -0.02801 0.53548
# Poissons Ratio (z) = 0.43377 0.27732
#
# Static dielectric constant tensor:
#      x y z
#    x 2.092930 0.000000 0.168130 
#    y 0.000000 2.176620 0.000000 
#    z 0.168130 0.000000 2.353370 
# 
# From -- ./inp_files/14777.got.cif
#   From: 2010.05.17/outbox.cif.g08.bks.cpg/sg13_8_cif.got.tgz:14777.got - 2010.06.03 16:44:36.
