data_PCOD9233092
_publ_section_title
;
Structure prediction by ZEFSAII (Michael W. Deem and Ramdas Pophale) SiO2 
 PCOD9233092
Probable space group: P 2/C
;
_chemical_formula_sum "Si O2"
_cell_formula_units_Z 30
_cell_length_a 8.710833
_cell_length_b 11.014260
_cell_length_c 17.943371
_cell_angle_alpha 90.000000
_cell_angle_beta 123.321318
_cell_angle_gamma 90.000000
_cell_volume 1438.530433
_symmetry_space_group_name_H-M "P 2/C"
_symmetry_group_IT_number 13
_symmetry_cell_setting 'monoclinic'
loop_
_space_group_symop_operation_xyz
x,y,z
-x,y,1/2-z
-x,-y,-z
x,-y,1/2+z
loop_
_atom_site_type_symbol
_atom_site_label
_atom_site_fract_x
_atom_site_fract_y
_atom_site_fract_z
Si Si1 0.340756 0.760566 0.526253
Si Si2 0.973475 0.857932 0.654402
Si Si3 0.329641 0.932331 0.657377
Si Si4 0.220712 0.516828 0.560401
Si Si5 0.483707 0.169453 0.649158
Si Si6 0.822379 0.897626 0.150584
Si Si7 0.500000 0.607652 0.250000
Si Si8 0.690396 0.314643 0.028310
O O1 0.347338 0.879548 0.579284
O O2 0.256427 0.657523 0.555921
O O3 0.222071 0.793105 0.421213
O O4 0.536383 0.709619 0.549526
O O5 0.885755 0.730754 0.608708
O O6 0.000000 0.853090 0.750000
O O7 0.148320 0.890671 0.651454
O O8 0.842855 0.975800 0.612357
O O9 0.500000 0.882831 0.750000
O O10 0.354751 0.078608 0.661561
O O11 0.339586 0.467023 0.663718
O O12 0.299238 0.444035 0.509035
O O13 0.000000 0.500000 0.500000
O O14 0.649407 0.093224 0.659247
O O15 0.569324 0.291449 0.708759
O O16 0.359859 0.221538 0.550708
O O17 0.000000 0.876558 0.250000
#
# Coordination Sequence:
#
# PCOD9233092 Si02
#       8
#     4   4   4   4   4   4   2   4
#     4  11  24  41  66  93 132 176 222 274 337 397
#     4  11  23  39  61  97 138 169 214 271 333 401
#     4  12  23  37  64  98 131 171 215 268 331 407
#     4  11  25  44  68  96 133 179 235 283 335 398
#     4  10  21  39  65  92 125 170 212 267 339 391
#     4  10  22  38  62  94 131 165 214 271 331 406
#     4  10  24  42  68  92 134 170 226 286 332 402
#     4  10  22  44  63  88 131 174 219 275 331 392
#
# _framework density 20.854617000000001
#
# number of rings (size 3 to 8) (size 9 to 14) (size 15 to 20)
#    0.000    1.333    0.667    5.200    2.800    5.333 
#    2.400    0.667    0.000    0.000    0.000    0.000 
#    0.000    0.000    0.000    0.000    0.000    0.000 
#
# Total GULP energy -167339.167663 kJ/mol
# GULP energy per Si atom -5577.972255 kJ/mol
# Density = 2.080715 g / cm^3
# Si number density = 20.854617 Si / 1000 Ang^3
#
#
#
# Elastic Constant Matrix: (Units=GPa)
#
#
# Indices 1 2 3 4 5 6 
#
# 1 33.5280 6.9446 34.2383 0.0000 -12.6484 0.0000
# 2 6.9446 71.5728 33.0375 0.0000 6.4465 0.0000
# 3 34.2383 33.0375 95.7182 0.0000 0.5746 0.0000
# 4 0.0000 0.0000 0.0000 46.2581 0.0000 -14.3276
# 5 -12.6484 6.4465 0.5746 0.0000 22.8540 0.0000
# 6 0.0000 0.0000 0.0000 -14.3276 0.0000 32.4833
#
#
#
# Elastic Compliance Matrix: (Units=1/GPa)
#
#
# Indices 1 2 3 4 5 6 
#
# 1 0.071333 0.001657 -0.026326 0.000000 0.039673 0.000000
# 2 0.001657 0.017144 -0.006488 0.000000 -0.003756 0.000000
# 3 -0.026326 -0.006488 0.022183 0.000000 -0.013298 0.000000
# 4 0.000000 0.000000 0.000000 0.025038 0.000000 0.011044
# 5 0.039673 -0.003756 -0.013298 0.000000 0.067107 0.000000
# 6 0.000000 0.000000 0.000000 0.011044 0.000000 0.035656
#
#
# Mechanical properties :
#
#
# Convention : Reuss Voigt Hill
#
# Bulk Modulus (GPa) = 20.68356 38.80662 29.74509
# Shear Modulus (GPa) = 15.77837 28.75897 22.26867
#
# Velocity S-wave (km/s) = 2.75360 3.71755 3.27127
# Velocity P-wave (km/s) = 4.47764 6.08896 5.34438
#
# Compressibility (1/GPa) = 0.04834757
#
# Stress axis : x y z
#
# Youngs Moduli (GPa) = 14.01878 58.32994 45.07938
#
# Poissons Ratio (x) = -0.09667 1.18675
# Poissons Ratio (y) = -0.02323 0.29245
# Poissons Ratio (z) = 0.36906 0.37842
#
# Static dielectric constant tensor:
#      x y z
#    x 1.761920 0.000000 -0.014470 
#    y 0.000000 1.746930 0.000000 
#    z -0.014470 0.000000 1.823430 
# 
# From -- ./inp_files/64458.got.cif
#   From: 2010.05.17/outbox.cif.g08.bks.cpg/sg13_33_cif.got.tgz:64458.got - 2010.06.03 16:44:36.
