data_PCOD9233057
_publ_section_title
;
Structure prediction by ZEFSAII (Michael W. Deem and Ramdas Pophale) SiO2 
 PCOD9233057
Probable space group: P 2/C
;
_chemical_formula_sum "Si O2"
_cell_formula_units_Z 20
_cell_length_a 10.650644
_cell_length_b 12.800522
_cell_length_c 10.715938
_cell_angle_alpha 90.000000
_cell_angle_beta 39.589734
_cell_angle_gamma 90.000000
_cell_volume 931.039413
_symmetry_space_group_name_H-M "P 2/C"
_symmetry_group_IT_number 13
_symmetry_cell_setting 'monoclinic'
loop_
_space_group_symop_operation_xyz
x,y,z
-x,y,1/2-z
-x,-y,-z
x,-y,1/2+z
loop_
_atom_site_type_symbol
_atom_site_label
_atom_site_fract_x
_atom_site_fract_y
_atom_site_fract_z
Si Si1 0.077808 0.066553 0.323447
Si Si2 0.201238 0.255022 0.908603
Si Si3 0.004682 0.583270 0.116335
Si Si4 0.681257 0.567811 0.808767
Si Si5 0.401980 0.783166 0.515721
O O1 0.301157 0.107665 0.132197
O O2 0.000000 0.023191 0.250000
O O3 0.972941 0.177097 0.427169
O O4 0.000000 0.000000 0.500000
O O5 0.369971 0.203519 0.693405
O O6 0.110874 0.350182 0.900055
O O7 0.302971 0.266924 0.965859
O O8 0.000000 0.642686 0.250000
O O9 0.870250 0.480152 0.237276
O O10 0.226226 0.559476 0.901318
O O11 0.627455 0.688606 0.866089
O O12 0.500000 0.500000 0.000000
#
# Coordination Sequence:
#
# PCOD9233057 Si02
#       5
#     4   4   4   4   4
#     4  10  22  41  66  90 120 159 209 264 323 377
#     4  10  21  40  63  88 120 162 203 257 303 374
#     4  11  25  36  57  90 128 165 207 250 311 370
#     4  11  23  39  59  89 126 168 207 252 300 368
#     4  10  21  39  64  89 119 160 213 246 305 372
#
# _framework density 21.481366000000001
#
# number of rings (size 3 to 8) (size 9 to 14) (size 15 to 20)
#    0.000    1.600    4.000    0.000    5.600    2.400 
#    0.000    0.000    0.000    0.000    0.000    0.000 
#    0.000    0.000    0.000    0.000    0.000    0.000 
#
# Total GULP energy -111347.242936 kJ/mol
# GULP energy per Si atom -5567.362147 kJ/mol
# Density = 2.143247 g / cm^3
# Si number density = 21.481366 Si / 1000 Ang^3
#
#
#
# Elastic Constant Matrix: (Units=GPa)
#
#
# Indices 1 2 3 4 5 6 
#
# 1 33.4066 7.7274 33.5178 0.0000 15.7585 0.0000
# 2 7.7274 25.1037 21.5473 0.0000 11.7282 0.0000
# 3 33.5178 21.5473 185.4656 0.0000 -1.4261 0.0000
# 4 0.0000 0.0000 0.0000 41.6600 0.0000 6.4917
# 5 15.7585 11.7282 -1.4261 0.0000 38.9426 0.0000
# 6 0.0000 0.0000 0.0000 6.4917 0.0000 11.5465
#
#
#
# Elastic Compliance Matrix: (Units=1/GPa)
#
#
# Indices 1 2 3 4 5 6 
#
# 1 0.048307 0.002699 -0.009203 0.000000 -0.020698 0.000000
# 2 0.002699 0.052875 -0.006764 0.000000 -0.017264 0.000000
# 3 -0.009203 -0.006764 0.007887 0.000000 0.006050 0.000000
# 4 0.000000 0.000000 0.000000 0.026309 0.000000 -0.014791
# 5 -0.020698 -0.017264 0.006050 0.000000 0.039475 0.000000
# 6 0.000000 0.000000 0.000000 -0.014791 0.000000 0.094922
#
#
# Mechanical properties :
#
#
# Convention : Reuss Voigt Hill
#
# Bulk Modulus (GPa) = 12.11612 41.06232 26.58922
# Shear Modulus (GPa) = 15.44063 30.50873 22.97468
#
# Velocity S-wave (km/s) = 2.68394 3.77270 3.27389
# Velocity P-wave (km/s) = 3.90605 6.17531 5.16680
#
# Compressibility (1/GPa) = 0.08253469
#
# Stress axis : x y z
#
# Youngs Moduli (GPa) = 20.70100 18.91255 126.78606
#
# Poissons Ratio (x) = -0.05105 1.16680
# Poissons Ratio (y) = -0.05588 0.85752
# Poissons Ratio (z) = 0.19051 0.12792
#
# Static dielectric constant tensor:
#      x y z
#    x 5.397360 0.000000 2.022660 
#    y 0.000000 1.792730 0.000000 
#    z 2.022660 0.000000 2.953660 
# 
# From -- ./inp_files/33030.got.cif
#   From: 2010.05.17/outbox.cif.g08.bks.cpg/sg13_17_cif.got.tgz:33030.got - 2010.06.03 16:44:36.
