data_PCOD9233964
_publ_section_title
;
Structure prediction by ZEFSAII (Michael W. Deem and Ramdas Pophale) SiO2 
 PCOD9233964
Probable space group: P 2/C
;
_chemical_formula_sum "Si O2"
_cell_formula_units_Z 32
_cell_length_a 27.019490
_cell_length_b 7.674408
_cell_length_c 16.245978
_cell_angle_alpha 90.000000
_cell_angle_beta 155.247303
_cell_angle_gamma 90.000000
_cell_volume 1410.501104
_symmetry_space_group_name_H-M "P 2/C"
_symmetry_group_IT_number 13
_symmetry_cell_setting 'monoclinic'
loop_
_space_group_symop_operation_xyz
x,y,z
-x,y,1/2-z
-x,-y,-z
x,-y,1/2+z
loop_
_atom_site_type_symbol
_atom_site_label
_atom_site_fract_x
_atom_site_fract_y
_atom_site_fract_z
Si Si1 0.303700 0.514040 0.226726
Si Si2 0.163546 0.045529 0.009078
Si Si3 0.719315 0.777166 0.581198
Si Si4 0.588350 0.183991 0.046534
Si Si5 0.086565 0.408190 0.812943
Si Si6 0.122584 0.516566 0.107734
Si Si7 0.336615 0.834867 0.184639
Si Si8 0.104834 0.928965 0.100699
O O1 0.401302 0.368735 0.390211
O O2 0.211794 0.507887 0.163675
O O3 0.351084 0.704105 0.282567
O O4 0.218385 0.480387 0.018914
O O5 0.294143 0.091437 0.241540
O O6 0.206127 0.913923 0.003330
O O7 0.095549 0.978927 0.988099
O O8 0.108912 0.212475 0.881082
O O9 0.617665 0.771102 0.496443
O O10 0.815264 0.624990 0.740506
O O11 0.671048 0.757967 0.417799
O O12 0.783161 0.963343 0.694875
O O13 0.466957 0.079606 0.873992
O O14 0.006400 0.439274 0.612179
O O15 0.000000 0.496655 0.750000
O O16 0.116147 0.719660 0.121930
O O17 0.000000 0.000000 0.000000
#
# Coordination Sequence:
#
# PCOD9233964 Si02
#       8
#     4   4   4   4   4   4   4   4
#     4   9  19  37  65  95 119 160 220 264 316 397
#     4  10  22  42  66  95 129 162 228 274 323 400
#     4  10  25  42  62  98 134 167 219 268 328 401
#     4   9  20  42  67  87 130 171 203 272 342 387
#     4   9  19  39  63  89 125 171 209 268 327 381
#     4  10  21  46  64  86 140 178 210 268 333 389
#     4  12  21  38  66  98 122 165 221 274 328 380
#     4  11  24  44  64  92 130 181 216 268 331 397
#
# _framework density 22.686973999999999
#
# number of rings (size 3 to 8) (size 9 to 14) (size 15 to 20)
#    0.000    2.000    1.250    3.375    1.750    2.500 
#    9.000    0.000    0.000    3.000    0.000    0.000 
#    0.000    0.000    0.000    0.000    0.000    0.000 
#
# Total GULP energy -178273.599897 kJ/mol
# GULP energy per Si atom -5571.049997 kJ/mol
# Density = 2.263534 g / cm^3
# Si number density = 22.686974 Si / 1000 Ang^3
#
#
#
# Elastic Constant Matrix: (Units=GPa)
#
#
# Indices 1 2 3 4 5 6 
#
# 1 74.0900 20.1493 44.6519 0.0000 10.6139 0.0000
# 2 20.1493 90.0448 32.4280 0.0000 -3.7723 0.0000
# 3 44.6519 32.4280 71.3662 0.0000 11.8259 0.0000
# 4 0.0000 0.0000 0.0000 15.3462 0.0000 1.2054
# 5 10.6139 -3.7723 11.8259 0.0000 35.6136 0.0000
# 6 0.0000 0.0000 0.0000 1.2054 0.0000 31.1168
#
#
#
# Elastic Compliance Matrix: (Units=1/GPa)
#
#
# Indices 1 2 3 4 5 6 
#
# 1 0.021816 -0.000220 -0.013195 0.000000 -0.002144 0.000000
# 2 -0.000220 0.013734 -0.006725 0.000000 0.003753 0.000000
# 3 -0.013195 -0.006725 0.026233 0.000000 -0.005491 0.000000
# 4 0.000000 0.000000 0.000000 0.065362 0.000000 -0.002532
# 5 -0.002144 0.003753 -0.005491 0.000000 0.030939 0.000000
# 6 0.000000 0.000000 0.000000 -0.002532 0.000000 0.032235
#
#
# Mechanical properties :
#
#
# Convention : Reuss Voigt Hill
#
# Bulk Modulus (GPa) = 46.50170 47.77326 47.13748
# Shear Modulus (GPa) = 21.02911 25.63344 23.33128
#
# Velocity S-wave (km/s) = 3.04785 3.36501 3.21035
# Velocity P-wave (km/s) = 5.73824 6.01673 5.87913
#
# Compressibility (1/GPa) = 0.02150459
#
# Stress axis : x y z
#
# Youngs Moduli (GPa) = 45.83801 72.81267 38.11937
#
# Poissons Ratio (x) = 0.01600 0.50297
# Poissons Ratio (y) = 0.01007 0.25635
# Poissons Ratio (z) = 0.60481 0.48966
#
# Static dielectric constant tensor:
#      x y z
#    x 1.921690 0.000000 0.004010 
#    y 0.000000 1.955530 0.000000 
#    z 0.004010 0.000000 1.900370 
# 
# From -- ./inp_files/58815.got.cif
#   From: 2010.05.17/outbox.cif.g08.bks.cpg/sg13_30_cif.got.tgz:58815.got - 2010.06.03 16:44:36.
