data_PCOD9233089
_publ_section_title
;
Structure prediction by ZEFSAII (Michael W. Deem and Ramdas Pophale) SiO2 
 PCOD9233089
Probable space group: P 2/C
;
_chemical_formula_sum "Si O2"
_cell_formula_units_Z 24
_cell_length_a 16.965599
_cell_length_b 6.975413
_cell_length_c 23.621368
_cell_angle_alpha 90.000000
_cell_angle_beta 19.383289
_cell_angle_gamma 90.000000
_cell_volume 927.754614
_symmetry_space_group_name_H-M "P 2/C"
_symmetry_group_IT_number 13
_symmetry_cell_setting 'monoclinic'
loop_
_space_group_symop_operation_xyz
x,y,z
-x,y,1/2-z
-x,-y,-z
x,-y,1/2+z
loop_
_atom_site_type_symbol
_atom_site_label
_atom_site_fract_x
_atom_site_fract_y
_atom_site_fract_z
Si Si1 0.387370 0.713536 0.583283
Si Si2 0.896778 0.445172 0.377732
Si Si3 0.810427 0.626072 0.674771
Si Si4 0.581360 0.227200 0.839974
Si Si5 0.780670 0.711436 0.563203
Si Si6 0.747520 0.884314 0.112593
O O1 0.500000 0.500000 0.500000
O O2 0.377371 0.737301 0.657726
O O3 0.520849 0.835926 0.444768
O O4 0.112327 0.694184 0.750340
O O5 0.657846 0.329123 0.523301
O O6 0.848550 0.592607 0.461269
O O7 0.000000 0.539435 0.250000
O O8 0.769213 0.402699 0.718034
O O9 0.788063 0.639936 0.623153
O O10 0.065205 0.714354 0.516749
O O11 0.678933 0.088582 0.725186
O O12 0.500000 0.745410 0.750000
O O13 0.873605 0.930000 0.500947
O O14 0.500000 0.833633 0.250000
#
# Coordination Sequence:
#
# PCOD9233089 Si02
#       6
#     4   4   4   4   4   4
#     4   9  21  36  60  94 120 153 208 261 299 362
#     4  10  21  40  66  94 125 170 213 258 312 376
#     4  11  22  39  64  92 123 163 211 255 311 372
#     4  10  21  39  65  91 122 159 212 260 313 363
#     4  11  24  41  61  92 129 165 211 254 318 385
#     4  11  25  40  59  94 127 162 205 266 315 370
#
# _framework density 25.868912000000002
#
# number of rings (size 3 to 8) (size 9 to 14) (size 15 to 20)
#    0.000    1.667    1.667    2.000    9.333    0.000 
#    0.000    4.167    0.000    0.000    0.000    0.000 
#    0.000    0.000    0.000    0.000    0.000    0.000 
#
# Total GULP energy -134154.740409 kJ/mol
# GULP energy per Si atom -5589.780850 kJ/mol
# Density = 2.581003 g / cm^3
# Si number density = 25.868912 Si / 1000 Ang^3
#
#
#
# Elastic Constant Matrix: (Units=GPa)
#
#
# Indices 1 2 3 4 5 6 
#
# 1 121.4688 23.7766 34.2116 0.0000 46.6079 0.0000
# 2 23.7766 74.4114 14.5218 0.0000 30.0590 0.0000
# 3 34.2116 14.5218 91.4849 0.0000 50.4927 0.0000
# 4 0.0000 0.0000 0.0000 27.6925 0.0000 22.6051
# 5 46.6079 30.0590 50.4927 0.0000 74.0668 0.0000
# 6 0.0000 0.0000 0.0000 22.6051 0.0000 33.7175
#
#
#
# Elastic Compliance Matrix: (Units=1/GPa)
#
#
# Indices 1 2 3 4 5 6 
#
# 1 0.010916 -0.000907 -0.000561 0.000000 -0.006118 0.000000
# 2 -0.000907 0.016312 0.001745 0.000000 -0.007239 0.000000
# 3 -0.000561 0.001745 0.017731 0.000000 -0.012443 0.000000
# 4 0.000000 0.000000 0.000000 0.079761 0.000000 -0.053474
# 5 -0.006118 -0.007239 -0.012443 0.000000 0.028772 0.000000
# 6 0.000000 0.000000 0.000000 -0.053474 0.000000 0.065509
#
#
# Mechanical properties :
#
#
# Convention : Reuss Voigt Hill
#
# Bulk Modulus (GPa) = 21.97146 48.04279 35.00712
# Shear Modulus (GPa) = 21.40251 41.41904 31.41077
#
# Velocity S-wave (km/s) = 2.87948 4.00573 3.48836
# Velocity P-wave (km/s) = 4.42346 6.32507 5.45772
#
# Compressibility (1/GPa) = 0.04551360
#
# Stress axis : x y z
#
# Youngs Moduli (GPa) = 91.61064 61.30341 56.39827
#
# Poissons Ratio (x) = 0.05559 0.03165
# Poissons Ratio (y) = 0.08308 -0.09843
# Poissons Ratio (z) = 0.05142 -0.10700
#
# Static dielectric constant tensor:
#      x y z
#    x 2.153640 0.000000 -0.128550 
#    y 0.000000 2.204830 0.000000 
#    z -0.128550 0.000000 2.183410 
# 
# From -- ./inp_files/87978.got.cif
#   From: 2010.05.17/outbox.cif.g08.bks.cpg/sg13_44_cif.got.tgz:87978.got - 2010.06.03 16:44:36.
