data_PCOD9233131
_publ_section_title
;
Structure prediction by ZEFSAII (Michael W. Deem and Ramdas Pophale) SiO2 
 PCOD9233131
Probable space group: P 2/C
;
_chemical_formula_sum "Si O2"
_cell_formula_units_Z 20
_cell_length_a 11.851031
_cell_length_b 7.913084
_cell_length_c 18.103343
_cell_angle_alpha 90.000000
_cell_angle_beta 152.645792
_cell_angle_gamma 90.000000
_cell_volume 780.075839
_symmetry_space_group_name_H-M "P 2/C"
_symmetry_group_IT_number 13
_symmetry_cell_setting 'monoclinic'
loop_
_space_group_symop_operation_xyz
x,y,z
-x,y,1/2-z
-x,-y,-z
x,-y,1/2+z
loop_
_atom_site_type_symbol
_atom_site_label
_atom_site_fract_x
_atom_site_fract_y
_atom_site_fract_z
Si Si1 0.500000 0.295260 0.750000
Si Si2 0.205328 0.169935 0.804556
Si Si3 0.628668 0.606437 0.923602
Si Si4 0.947636 0.323594 0.926140
Si Si5 0.282333 0.806535 0.812690
Si Si6 0.000000 0.555218 0.750000
O O1 0.570277 0.425367 0.855576
O O2 0.758981 0.220507 0.870069
O O3 0.184975 0.318840 0.732177
O O4 0.000000 0.152259 0.750000
O O5 0.179540 0.993900 0.744263
O O6 0.477418 0.175732 0.995718
O O7 0.391416 0.713840 0.805531
O O8 0.786263 0.713092 0.955726
O O9 0.784346 0.556845 0.087808
O O10 0.000000 0.500000 0.000000
O O11 0.096661 0.680404 0.743446
#
# Coordination Sequence:
#
# PCOD9233131 Si02
#       6
#     2   4   4   4   4   2
#     4  10  22  40  62  94 136 180 232 294 360 424
#     4  11  21  42  67 100 149 185 233 300 372 446
#     4  11  21  38  63  93 139 181 236 298 353 421
#     4  10  21  39  66  93 132 187 236 295 356 424
#     4  11  23  37  65 102 141 189 234 290 376 440
#     4  12  22  36  64 106 138 180 242 304 360 428
#
# _framework density 25.638532999999999
#
# number of rings (size 3 to 8) (size 9 to 14) (size 15 to 20)
#    0.000    1.200    3.000    4.200    0.000    0.000 
#    0.000    1.000    0.000   18.000    0.000    0.000 
#    0.000    0.000    0.000    0.000    0.000    0.000 
#
# Total GULP energy -111523.296671 kJ/mol
# GULP energy per Si atom -5576.164834 kJ/mol
# Density = 2.558018 g / cm^3
# Si number density = 25.638533 Si / 1000 Ang^3
#
#
#
# Elastic Constant Matrix: (Units=GPa)
#
#
# Indices 1 2 3 4 5 6 
#
# 1 198.5443 25.6333 13.7726 0.0000 33.4781 0.0000
# 2 25.6333 76.0138 14.9616 0.0000 4.3416 0.0000
# 3 13.7726 14.9616 69.0489 0.0000 -20.6921 0.0000
# 4 0.0000 0.0000 0.0000 17.7692 0.0000 -4.7949
# 5 33.4781 4.3416 -20.6921 0.0000 64.7956 0.0000
# 6 0.0000 0.0000 0.0000 -4.7949 0.0000 159.9946
#
#
#
# Elastic Compliance Matrix: (Units=1/GPa)
#
#
# Indices 1 2 3 4 5 6 
#
# 1 0.005966 -0.001418 -0.001966 0.000000 -0.003615 0.000000
# 2 -0.001418 0.014334 -0.003197 0.000000 -0.001249 0.000000
# 3 -0.001966 -0.003197 0.017622 0.000000 0.006858 0.000000
# 4 0.000000 0.000000 0.000000 0.056736 0.000000 0.001700
# 5 -0.003615 -0.001249 0.006858 0.000000 0.019575 0.000000
# 6 0.000000 0.000000 0.000000 0.001700 0.000000 0.006301
#
#
# Mechanical properties :
#
#
# Convention : Reuss Voigt Hill
#
# Bulk Modulus (GPa) = 40.38862 50.26021 45.32441
# Shear Modulus (GPa) = 35.22349 67.79450 51.50899
#
# Velocity S-wave (km/s) = 3.71057 5.14780 4.48710
# Velocity P-wave (km/s) = 5.84338 7.41479 6.67548
#
# Compressibility (1/GPa) = 0.02475945
#
# Stress axis : x y z
#
# Youngs Moduli (GPa) = 167.62438 69.76206 56.74574
#
# Poissons Ratio (x) = 0.09894 0.11156
# Poissons Ratio (y) = 0.23775 0.18143
# Poissons Ratio (z) = 0.32954 0.22305
#
# Static dielectric constant tensor:
#      x y z
#    x 2.096960 0.000000 0.001780 
#    y 0.000000 2.051540 0.000000 
#    z 0.001780 0.000000 2.268780 
# 
# From -- ./inp_files/32463.got.cif
#   From: 2010.05.17/outbox.cif.g08.bks.cpg/sg13_17_cif.got.tgz:32463.got - 2010.06.03 16:44:36.
