data_PCOD9233799
_publ_section_title
;
Structure prediction by ZEFSAII (Michael W. Deem and Ramdas Pophale) SiO2 
 PCOD9233799
Probable space group: P 2/C
;
_chemical_formula_sum "Si O2"
_cell_formula_units_Z 30
_cell_length_a 25.506656
_cell_length_b 8.984030
_cell_length_c 16.287382
_cell_angle_alpha 90.000000
_cell_angle_beta 25.866745
_cell_angle_gamma 90.000000
_cell_volume 1628.324323
_symmetry_space_group_name_H-M "P 2/C"
_symmetry_group_IT_number 13
_symmetry_cell_setting 'monoclinic'
loop_
_space_group_symop_operation_xyz
x,y,z
-x,y,1/2-z
-x,-y,-z
x,-y,1/2+z
loop_
_atom_site_type_symbol
_atom_site_label
_atom_site_fract_x
_atom_site_fract_y
_atom_site_fract_z
Si Si1 0.061518 0.817594 0.748867
Si Si2 0.470033 0.667609 0.010855
Si Si3 0.349687 0.175180 0.832882
Si Si4 0.943786 0.828035 0.243477
Si Si5 0.500000 0.365551 0.750000
Si Si6 0.050197 0.335234 0.933277
Si Si7 0.337827 0.638328 0.026117
Si Si8 0.340377 0.176658 0.359115
O O1 0.206242 0.794775 0.543604
O O2 0.000000 0.766053 0.750000
O O3 0.036596 0.994608 0.790334
O O4 0.002943 0.742337 0.910906
O O5 0.397771 0.762566 0.179101
O O6 0.392945 0.676246 0.036276
O O7 0.500000 0.500000 0.000000
O O8 0.593853 0.744193 0.809023
O O9 0.433003 0.262758 0.779291
O O10 0.367713 0.998671 0.819155
O O11 0.984938 0.750739 0.101226
O O12 0.801624 0.804373 0.449866
O O13 0.000000 0.773873 0.250000
O O14 0.605460 0.476024 0.570718
O O15 0.194467 0.348590 0.733550
O O16 0.000000 0.500000 0.000000
O O17 0.373018 0.743055 0.899142
#
# Coordination Sequence:
#
# PCOD9233799 Si02
#       8
#     4   4   4   4   2   4   4   4
#     4  10  21  43  64  88 123 161 207 257 306 365
#     4  12  22  39  60  89 123 161 203 247 305 365
#     4  11  24  39  62  93 120 162 210 257 299 361
#     4   9  21  41  64  89 122 159 202 257 309 356
#     4  12  22  40  60  84 132 160 202 250 310 368
#     4  11  23  37  62  93 123 158 207 248 306 371
#     4  11  22  41  62  86 123 168 194 252 313 365
#     4  10  22  41  62  89 123 160 209 251 305 366
#
# _framework density 18.423848
#
# number of rings (size 3 to 8) (size 9 to 14) (size 15 to 20)
#    0.000    1.333    2.667    2.400    1.867    2.667 
#    2.400    0.000    0.000    0.000    0.000    0.000 
#    0.000    0.000    0.000    0.000    0.000    0.000 
#
# Total GULP energy -167421.853582 kJ/mol
# GULP energy per Si atom -5580.728453 kJ/mol
# Density = 1.838191 g / cm^3
# Si number density = 18.423848 Si / 1000 Ang^3
#
#
#
# Elastic Constant Matrix: (Units=GPa)
#
#
# Indices 1 2 3 4 5 6 
#
# 1 155.0753 75.9894 60.7315 0.0000 20.7675 0.0000
# 2 75.9894 110.5911 82.4906 0.0000 11.1676 0.0000
# 3 60.7315 82.4906 134.1760 0.0000 29.4860 0.0000
# 4 0.0000 0.0000 0.0000 25.3350 0.0000 -2.7375
# 5 20.7675 11.1676 29.4860 0.0000 28.2396 0.0000
# 6 0.0000 0.0000 0.0000 -2.7375 0.0000 25.6915
#
#
#
# Elastic Compliance Matrix: (Units=1/GPa)
#
#
# Indices 1 2 3 4 5 6 
#
# 1 0.010432 -0.007424 0.001146 0.000000 -0.005932 0.000000
# 2 -0.007424 0.022629 -0.012699 0.000000 0.009770 0.000000
# 3 0.001146 -0.012699 0.017939 0.000000 -0.014552 0.000000
# 4 0.000000 0.000000 0.000000 0.039931 0.000000 0.004255
# 5 -0.005932 0.009770 -0.014552 0.000000 0.051105 0.000000
# 6 0.000000 0.000000 0.000000 0.004255 0.000000 0.039377
#
#
# Mechanical properties :
#
#
# Convention : Reuss Voigt Hill
#
# Bulk Modulus (GPa) = 76.64743 93.14058 84.89401
# Shear Modulus (GPa) = 22.34987 27.89528 25.12258
#
# Velocity S-wave (km/s) = 3.48673 3.89535 3.69669
# Velocity P-wave (km/s) = 7.60936 8.41996 8.02490
#
# Compressibility (1/GPa) = 0.01304675
#
# Stress axis : x y z
#
# Youngs Moduli (GPa) = 95.86015 44.19107 55.74324
#
# Poissons Ratio (x) = 0.32806 -0.06388
# Poissons Ratio (y) = 0.71164 0.70789
# Poissons Ratio (z) = -0.10986 0.56119
#
# Static dielectric constant tensor:
#      x y z
#    x 1.611800 0.000000 0.039690 
#    y 0.000000 1.630090 0.000000 
#    z 0.039690 0.000000 1.625440 
# 
# From -- ./inp_files/58686.got.cif
#   From: 2010.05.17/outbox.cif.g08.bks.cpg/sg13_30_cif.got.tgz:58686.got - 2010.06.03 16:44:36.
