data_PCOD9233725
_publ_section_title
;
Structure prediction by ZEFSAII (Michael W. Deem and Ramdas Pophale) SiO2 
 PCOD9233725
Probable space group: P 2/C
;
_chemical_formula_sum "Si O2"
_cell_formula_units_Z 28
_cell_length_a 8.863182
_cell_length_b 21.113487
_cell_length_c 14.419334
_cell_angle_alpha 90.000000
_cell_angle_beta 30.534650
_cell_angle_gamma 90.000000
_cell_volume 1370.911056
_symmetry_space_group_name_H-M "P 2/C"
_symmetry_group_IT_number 13
_symmetry_cell_setting 'monoclinic'
loop_
_space_group_symop_operation_xyz
x,y,z
-x,y,1/2-z
-x,-y,-z
x,-y,1/2+z
loop_
_atom_site_type_symbol
_atom_site_label
_atom_site_fract_x
_atom_site_fract_y
_atom_site_fract_z
Si Si1 0.153354 0.257785 0.416453
Si Si2 0.865841 0.358966 0.228315
Si Si3 0.855841 0.068284 0.568187
Si Si4 0.868275 0.824122 0.215120
Si Si5 0.769998 0.468436 0.554565
Si Si6 0.842469 0.168617 0.430074
Si Si7 0.662378 0.440810 0.962536
O O1 0.500000 0.241922 0.250000
O O2 0.143171 0.324344 0.366561
O O3 0.994648 0.239138 0.597214
O O4 0.973954 0.216431 0.436138
O O5 0.535739 0.378739 0.434092
O O6 0.000000 0.326233 0.250000
O O7 0.065893 0.421593 0.103357
O O8 0.500000 0.062852 0.750000
O O9 0.944145 0.115708 0.606714
O O10 0.927333 0.101933 0.432824
O O11 0.000000 0.000000 0.500000
O O12 0.509645 0.822788 0.399536
O O13 0.000000 0.830079 0.250000
O O14 0.500000 0.434413 0.750000
O O15 0.647861 0.531672 0.572328
O O16 0.000000 0.500000 0.500000
O O17 0.000000 0.175754 0.250000
O O18 0.000000 0.433201 0.750000
O O19 0.500000 0.500000 0.000000
#
# Coordination Sequence:
#
# PCOD9233725 Si02
#       7
#     4   4   4   4   4   4   4
#     4  11  25  44  65  94 127 166 224 279 329 394
#     4  12  26  44  65  95 128 164 211 265 325 400
#     4   9  20  36  59  99 142 180 228 275 323 385
#     4  10  22  43  71  96 131 182 229 276 337 391
#     4  12  23  37  64  92 123 162 202 249 318 389
#     4  10  21  42  68  94 132 181 222 277 332 385
#     4  12  21  43  66  91 124 162 204 249 324 402
#
# _framework density 20.424374
#
# number of rings (size 3 to 8) (size 9 to 14) (size 15 to 20)
#    0.000    1.143    4.286    2.571    2.000    5.143 
#    0.000    7.857    0.000    0.000    0.000    0.000 
#    0.000    0.000    0.000    0.000    0.000    0.000 
#
# Total GULP energy -156003.567719 kJ/mol
# GULP energy per Si atom -5571.555990 kJ/mol
# Density = 2.037789 g / cm^3
# Si number density = 20.424374 Si / 1000 Ang^3
#
#
#
# Elastic Constant Matrix: (Units=GPa)
#
#
# Indices 1 2 3 4 5 6 
#
# 1 168.3650 31.8077 40.2812 0.0000 -0.0076 0.0000
# 2 31.8077 65.8422 31.2322 0.0000 -2.6337 0.0000
# 3 40.2812 31.2322 123.1936 0.0000 2.1897 0.0000
# 4 0.0000 0.0000 0.0000 18.9272 0.0000 0.2535
# 5 -0.0076 -2.6337 2.1897 0.0000 33.6564 0.0000
# 6 0.0000 0.0000 0.0000 0.2535 0.0000 17.8397
#
#
#
# Elastic Compliance Matrix: (Units=1/GPa)
#
#
# Indices 1 2 3 4 5 6 
#
# 1 0.006796 -0.002539 -0.001577 0.000000 -0.000095 0.000000
# 2 -0.002539 0.018303 -0.003840 0.000000 0.001682 0.000000
# 3 -0.001577 -0.003840 0.009623 0.000000 -0.000927 0.000000
# 4 0.000000 0.000000 0.000000 0.052844 0.000000 -0.000751
# 5 -0.000095 0.001682 -0.000927 0.000000 0.029904 0.000000
# 6 0.000000 0.000000 0.000000 -0.000751 0.000000 0.056065
#
#
# Mechanical properties :
#
#
# Convention : Reuss Voigt Hill
#
# Bulk Modulus (GPa) = 53.16113 62.67144 57.91628
# Shear Modulus (GPa) = 25.54699 31.02332 28.28516
#
# Velocity S-wave (km/s) = 3.54051 3.90158 3.72542
# Velocity P-wave (km/s) = 6.54205 7.14477 6.85004
#
# Compressibility (1/GPa) = 0.01881074
#
# Stress axis : x y z
#
# Youngs Moduli (GPa) = 147.13625 54.63537 103.91907
#
# Poissons Ratio (x) = 0.13872 0.16387
# Poissons Ratio (y) = 0.37359 0.39904
# Poissons Ratio (z) = 0.23201 0.20980
#
# Static dielectric constant tensor:
#      x y z
#    x 1.844600 0.000000 -0.117830 
#    y 0.000000 1.760620 0.000000 
#    z -0.117830 0.000000 1.968330 
# 
# From -- ./inp_files/48199.got.cif
#   From: 2010.05.17/outbox.cif.g08.bks.cpg/sg13_25_cif.got.tgz:48199.got - 2010.06.03 16:44:36.
