data_PCOD9233447
_publ_section_title
;
Structure prediction by ZEFSAII (Michael W. Deem and Ramdas Pophale) SiO2 
 PCOD9233447
Probable space group: P 2/C
;
_chemical_formula_sum "Si O2"
_cell_formula_units_Z 24
_cell_length_a 10.042153
_cell_length_b 5.305832
_cell_length_c 18.128428
_cell_angle_alpha 90.000000
_cell_angle_beta 70.259232
_cell_angle_gamma 90.000000
_cell_volume 909.151886
_symmetry_space_group_name_H-M "P 2/C"
_symmetry_group_IT_number 13
_symmetry_cell_setting 'monoclinic'
loop_
_space_group_symop_operation_xyz
x,y,z
-x,y,1/2-z
-x,-y,-z
x,-y,1/2+z
loop_
_atom_site_type_symbol
_atom_site_label
_atom_site_fract_x
_atom_site_fract_y
_atom_site_fract_z
Si Si1 0.415992 0.843174 0.191447
Si Si2 0.007849 0.462157 0.606312
Si Si3 0.123945 0.899677 0.197686
Si Si4 0.267888 0.174745 0.037434
Si Si5 0.505820 0.348491 0.089809
Si Si6 0.819758 0.228074 0.047335
O O1 0.500000 0.791206 0.250000
O O2 0.247231 0.861361 0.233855
O O3 0.440242 0.600823 0.135240
O O4 0.472254 0.110318 0.149631
O O5 0.018647 0.301825 0.677966
O O6 0.150025 0.623769 0.578472
O O7 0.043567 0.273214 0.531230
O O8 0.878220 0.648557 0.611784
O O9 0.000000 0.087937 0.250000
O O10 0.223623 0.970349 0.108685
O O11 0.424026 0.265419 0.030468
O O12 0.236932 0.050179 0.963841
O O13 0.674845 0.375735 0.054968
#
# Coordination Sequence:
#
# PCOD9233447 Si02
#       6
#     4   4   4   4   4   4
#     4  11  25  45  65  96 133 169 229 280 323 404
#     4  10  21  41  61  94 132 164 224 269 328 399
#     4  10  23  41  62  92 126 176 220 275 335 392
#     4  10  21  41  61  94 131 166 222 274 326 402
#     4  11  24  43  67  97 130 177 221 273 341 389
#     4  10  23  37  65  96 130 173 214 273 332 398
#
# _framework density 26.398229000000001
#
# number of rings (size 3 to 8) (size 9 to 14) (size 15 to 20)
#    0.000    1.667    1.667    1.500    4.667    2.667 
#    0.000    0.000    0.000    0.000    0.000    0.000 
#    0.000    0.000    0.000    0.000    0.000    0.000 
#
# Total GULP energy -133950.664648 kJ/mol
# GULP energy per Si atom -5581.277694 kJ/mol
# Density = 2.633815 g / cm^3
# Si number density = 26.398229 Si / 1000 Ang^3
#
#
#
# Elastic Constant Matrix: (Units=GPa)
#
#
# Indices 1 2 3 4 5 6 
#
# 1 246.4809 31.8342 58.5704 0.0000 -7.2839 0.0000
# 2 31.8342 100.5167 14.8066 0.0000 4.7059 0.0000
# 3 58.5704 14.8066 53.7528 0.0000 -1.6821 0.0000
# 4 0.0000 0.0000 0.0000 20.2491 0.0000 3.2780
# 5 -7.2839 4.7059 -1.6821 0.0000 49.2221 0.0000
# 6 0.0000 0.0000 0.0000 3.2780 0.0000 52.4113
#
#
#
# Elastic Compliance Matrix: (Units=1/GPa)
#
#
# Indices 1 2 3 4 5 6 
#
# 1 0.005577 -0.000946 -0.005794 0.000000 0.000718 0.000000
# 2 -0.000946 0.010589 -0.001924 0.000000 -0.001218 0.000000
# 3 -0.005794 -0.001924 0.025453 0.000000 0.000196 0.000000
# 4 0.000000 0.000000 0.000000 0.049890 0.000000 -0.003120
# 5 0.000718 -0.001218 0.000196 0.000000 0.020545 0.000000
# 6 0.000000 0.000000 0.000000 -0.003120 0.000000 0.019275
#
#
# Mechanical properties :
#
#
# Convention : Reuss Voigt Hill
#
# Bulk Modulus (GPa) = 41.16762 67.90811 54.53786
# Shear Modulus (GPa) = 31.89691 44.07910 37.98801
#
# Velocity S-wave (km/s) = 3.47983 4.09072 3.79758
# Velocity P-wave (km/s) = 5.63687 6.93486 6.31928
#
# Compressibility (1/GPa) = 0.02429094
#
# Stress axis : x y z
#
# Youngs Moduli (GPa) = 179.29510 94.43995 39.28800
#
# Poissons Ratio (x) = 0.08939 0.22764
# Poissons Ratio (y) = 0.16970 0.07557
# Poissons Ratio (z) = 1.03885 0.18166
#
# Static dielectric constant tensor:
#      x y z
#    x 2.071730 0.000000 -0.072670 
#    y 0.000000 2.292400 0.000000 
#    z -0.072670 0.000000 2.491000 
# 
# From -- ./inp_files/84296.got.cif
#   From: 2010.05.17/outbox.cif.g08.bks.cpg/sg13_43_cif.got.tgz:84296.got - 2010.06.03 16:44:36.
