data_PCOD9233321
_publ_section_title
;
Structure prediction by ZEFSAII (Michael W. Deem and Ramdas Pophale) SiO2 
 PCOD9233321
Probable space group: P 2/C
;
_chemical_formula_sum "Si O2"
_cell_formula_units_Z 14
_cell_length_a 9.080211
_cell_length_b 10.059979
_cell_length_c 15.727328
_cell_angle_alpha 90.000000
_cell_angle_beta 150.000929
_cell_angle_gamma 90.000000
_cell_volume 718.299835
_symmetry_space_group_name_H-M "P 2/C"
_symmetry_group_IT_number 13
_symmetry_cell_setting 'monoclinic'
loop_
_space_group_symop_operation_xyz
x,y,z
-x,y,1/2-z
-x,-y,-z
x,-y,1/2+z
loop_
_atom_site_type_symbol
_atom_site_label
_atom_site_fract_x
_atom_site_fract_y
_atom_site_fract_z
Si Si1 0.166783 0.739484 0.915658
Si Si2 0.000000 0.000006 0.250000
Si Si3 0.853044 0.645083 0.926523
Si Si4 0.166784 0.260505 0.751122
O O1 0.000000 0.678956 0.750000
O O2 0.975455 0.715970 0.903368
O O3 0.500004 0.689511 0.092282
O O4 0.174321 0.896487 0.896103
O O5 0.174335 0.896496 0.278230
O O6 0.500000 0.638737 0.750000
O O7 0.000000 0.500000 0.000000
O O8 0.975450 0.715980 0.072083
O O9 0.000000 0.321027 0.750000
#
# Coordination Sequence:
#
# PCOD9233321 Si02
#       4
#     4   2   4   4
#     4  10  21  40  65  94 127 163 205 255 308 366
#     4   8  22  38  68  92 132 156 210 244 318 360
#     4  12  26  43  64  91 124 165 211 257 309 368
#     4  10  21  40  65  94 127 163 205 255 308 366
#
# _framework density 19.490469999999998
#
# number of rings (size 3 to 8) (size 9 to 14) (size 15 to 20)
#    1.714    0.000    0.000    5.143    0.000    2.286 
#    0.000    5.714    0.000    0.000    0.000    0.000 
#    0.000    0.000    0.000    0.000    0.000    0.000 
#
# Total GULP energy -77963.999875 kJ/mol
# GULP energy per Si atom -5568.857134 kJ/mol
# Density = 1.944611 g / cm^3
# Si number density = 19.490470 Si / 1000 Ang^3
#
#
#
# Elastic Constant Matrix: (Units=GPa)
#
#
# Indices 1 2 3 4 5 6 
#
# 1 175.5846 35.1086 121.2501 0.0000 -3.4928 0.0000
# 2 35.1086 69.9058 31.0264 0.0000 -4.1498 0.0000
# 3 121.2501 31.0264 192.1006 0.0000 20.3072 0.0000
# 4 0.0000 0.0000 0.0000 30.9862 0.0000 -8.9512
# 5 -3.4928 -4.1498 20.3072 0.0000 49.6445 0.0000
# 6 0.0000 0.0000 0.0000 -8.9512 0.0000 39.7941
#
#
#
# Elastic Compliance Matrix: (Units=1/GPa)
#
#
# Indices 1 2 3 4 5 6 
#
# 1 0.011012 -0.002242 -0.006951 0.000000 0.003431 0.000000
# 2 -0.002242 0.016147 -0.001379 0.000000 0.001756 0.000000
# 3 -0.006951 -0.001379 0.010326 0.000000 -0.004828 0.000000
# 4 0.000000 0.000000 0.000000 0.034515 0.000000 0.007764
# 5 0.003431 0.001756 -0.004828 0.000000 0.022506 0.000000
# 6 0.000000 0.000000 0.000000 0.007764 0.000000 0.026876
#
#
# Mechanical properties :
#
#
# Convention : Reuss Voigt Hill
#
# Bulk Modulus (GPa) = 61.19188 90.26237 75.72712
# Shear Modulus (GPa) = 33.79019 40.76536 37.27777
#
# Velocity S-wave (km/s) = 4.16826 4.57831 4.37809
# Velocity P-wave (km/s) = 7.39120 8.62319 8.03086
#
# Compressibility (1/GPa) = 0.01634204
#
# Stress axis : x y z
#
# Youngs Moduli (GPa) = 90.81192 61.93138 96.84288
#
# Poissons Ratio (x) = 0.13883 0.67316
# Poissons Ratio (y) = 0.20357 0.13351
# Poissons Ratio (z) = 0.63124 0.08538
#
# Static dielectric constant tensor:
#      x y z
#    x 1.626120 0.000000 0.038160 
#    y 0.000000 1.709480 0.000000 
#    z 0.038160 0.000000 1.663520 
# 
# From -- ./inp_files/11396.got.cif
#   From: 2010.05.17/outbox.cif.g08.bks.cpg/sg13_6_cif.got.tgz:11396.got - 2010.06.03 16:44:36.
