data_PCOD9233514
_publ_section_title
;
Structure prediction by ZEFSAII (Michael W. Deem and Ramdas Pophale) SiO2 
 PCOD9233514
Probable space group: P 2/C
;
_chemical_formula_sum "Si O2"
_cell_formula_units_Z 28
_cell_length_a 16.298173
_cell_length_b 7.099686
_cell_length_c 13.943759
_cell_angle_alpha 90.000000
_cell_angle_beta 121.355839
_cell_angle_gamma 90.000000
_cell_volume 1377.816721
_symmetry_space_group_name_H-M "P 2/C"
_symmetry_group_IT_number 13
_symmetry_cell_setting 'monoclinic'
loop_
_space_group_symop_operation_xyz
x,y,z
-x,y,1/2-z
-x,-y,-z
x,-y,1/2+z
loop_
_atom_site_type_symbol
_atom_site_label
_atom_site_fract_x
_atom_site_fract_y
_atom_site_fract_z
Si Si1 0.596184 0.374571 0.466656
Si Si2 0.724456 0.515854 0.206220
Si Si3 0.254424 0.756813 0.600807
Si Si4 0.653908 0.882800 0.252775
Si Si5 0.500000 0.000000 0.500000
Si Si6 0.940313 0.490015 0.310278
Si Si7 0.500000 0.379581 0.750000
Si Si8 0.030508 0.787348 0.497149
O O1 0.639397 0.503961 0.577680
O O2 0.686429 0.307616 0.456227
O O3 0.544986 0.193102 0.478863
O O4 0.525539 0.492717 0.356160
O O5 0.718035 0.385660 0.296054
O O6 0.719771 0.733538 0.236546
O O7 0.827223 0.472262 0.222584
O O8 0.139164 0.763001 0.522959
O O9 0.288313 0.962907 0.653555
O O10 0.589616 0.754409 0.283501
O O11 0.580669 0.982508 0.135675
O O12 0.971153 0.328584 0.404267
O O13 0.000000 0.480079 0.250000
O O14 0.961512 0.683882 0.379679
O O15 0.000000 0.000000 0.500000
#
# Coordination Sequence:
#
# PCOD9233514 Si02
#       8
#     4   4   4   4   2   4   2   4
#     4  11  23  42  65  96 127 172 213 269 323 376
#     4  10  23  41  63  92 127 167 215 264 319 388
#     4  11  22  43  64  93 131 166 213 267 321 387
#     4  11  23  39  61  92 125 172 212 263 315 378
#     4  10  24  38  64  90 130 164 218 262 320 378
#     4  10  21  41  65  95 128 166 209 264 323 384
#     4  12  24  40  68  90 130 174 222 262 326 378
#     4  10  22  40  67  94 128 168 210 262 323 391
#
# _framework density 20.322006999999999
#
# number of rings (size 3 to 8) (size 9 to 14) (size 15 to 20)
#    0.000    1.429    1.429    3.429    2.000    1.714 
#    2.571    2.857    0.000    0.000    0.000    0.000 
#    0.000    0.000    0.000    0.000    0.000    0.000 
#
# Total GULP energy -156080.270796 kJ/mol
# GULP energy per Si atom -5574.295386 kJ/mol
# Density = 2.027575 g / cm^3
# Si number density = 20.322007 Si / 1000 Ang^3
#
#
#
# Elastic Constant Matrix: (Units=GPa)
#
#
# Indices 1 2 3 4 5 6 
#
# 1 88.2028 27.8429 23.6220 0.0000 -7.7116 0.0000
# 2 27.8429 80.5889 23.1595 0.0000 4.8450 0.0000
# 3 23.6220 23.1595 72.2244 0.0000 8.9721 0.0000
# 4 0.0000 0.0000 0.0000 21.9212 0.0000 7.8043
# 5 -7.7116 4.8450 8.9721 0.0000 18.5902 0.0000
# 6 0.0000 0.0000 0.0000 7.8043 0.0000 25.6866
#
#
#
# Elastic Compliance Matrix: (Units=1/GPa)
#
#
# Indices 1 2 3 4 5 6 
#
# 1 0.014777 -0.004349 -0.004618 0.000000 0.009492 0.000000
# 2 -0.004349 0.014990 -0.002845 0.000000 -0.004337 0.000000
# 3 -0.004618 -0.002845 0.017461 0.000000 -0.009601 0.000000
# 4 0.000000 0.000000 0.000000 0.051151 0.000000 -0.015541
# 5 0.009492 -0.004337 -0.009601 0.000000 0.063493 0.000000
# 6 0.000000 0.000000 0.000000 -0.015541 0.000000 0.043653
#
#
# Mechanical properties :
#
#
# Convention : Reuss Voigt Hill
#
# Bulk Modulus (GPa) = 42.36606 43.36274 42.86440
# Shear Modulus (GPa) = 21.09565 24.33240 22.71402
#
# Velocity S-wave (km/s) = 3.22540 3.46402 3.34684
# Velocity P-wave (km/s) = 5.89607 6.11419 6.00612
#
# Compressibility (1/GPa) = 0.02360380
#
# Stress axis : x y z
#
# Youngs Moduli (GPa) = 67.67345 66.71270 57.27022
#
# Poissons Ratio (x) = 0.29013 0.26445
# Poissons Ratio (y) = 0.29431 0.16296
# Poissons Ratio (z) = 0.31249 0.18982
#
# Static dielectric constant tensor:
#      x y z
#    x 1.747360 0.000000 0.011010 
#    y 0.000000 1.690040 0.000000 
#    z 0.011010 0.000000 1.719370 
# 
# From -- ./inp_files/54539.got.cif
#   From: 2010.05.17/outbox.cif.g08.bks.cpg/sg13_28_cif.got.tgz:54539.got - 2010.06.03 16:44:36.
