data_PCOD9233626
_publ_section_title
;
Structure prediction by ZEFSAII (Michael W. Deem and Ramdas Pophale) SiO2 
 PCOD9233626
Probable space group: P 2/C
;
_chemical_formula_sum "Si O2"
_cell_formula_units_Z 20
_cell_length_a 8.929463
_cell_length_b 7.386203
_cell_length_c 27.676544
_cell_angle_alpha 90.000000
_cell_angle_beta 149.072532
_cell_angle_gamma 90.000000
_cell_volume 938.169845
_symmetry_space_group_name_H-M "P 2/C"
_symmetry_group_IT_number 13
_symmetry_cell_setting 'monoclinic'
loop_
_space_group_symop_operation_xyz
x,y,z
-x,y,1/2-z
-x,-y,-z
x,-y,1/2+z
loop_
_atom_site_type_symbol
_atom_site_label
_atom_site_fract_x
_atom_site_fract_y
_atom_site_fract_z
Si Si1 0.281365 0.244577 0.357202
Si Si2 0.843323 0.063307 0.851182
Si Si3 0.173163 0.824258 0.344246
Si Si4 0.787350 0.698298 0.549855
Si Si5 0.915141 0.623565 0.021404
O O1 0.255087 0.307478 0.404840
O O2 0.587198 0.309070 0.421673
O O3 0.000000 0.305108 0.250000
O O4 0.273825 0.026640 0.357132
O O5 0.500000 0.031692 0.750000
O O6 0.980588 0.148033 0.839563
O O7 0.901359 0.201816 0.911342
O O8 0.017283 0.875405 0.907386
O O9 0.468489 0.719852 0.438138
O O10 0.000000 0.749904 0.250000
O O11 0.925119 0.515287 0.568815
O O12 0.000000 0.500000 0.000000
#
# Coordination Sequence:
#
# PCOD9233626 Si02
#       5
#     4   4   4   4   4
#     4  10  21  43  71  99 130 174 230 271 326 407
#     4  11  25  45  67 100 140 170 220 282 337 394
#     4  10  21  41  75 100 125 180 230 268 331 403
#     4  11  23  46  72  92 134 180 223 273 331 396
#     4  12  27  42  65 101 138 177 219 279 336 394
#
# _framework density 21.318100000000001
#
# number of rings (size 3 to 8) (size 9 to 14) (size 15 to 20)
#    0.000    1.200    4.000    1.800    2.800    8.800 
#    0.000    0.000    0.000    0.000    0.000    0.000 
#    0.000    0.000    0.000    0.000    0.000    0.000 
#
# Total GULP energy -111896.077980 kJ/mol
# GULP energy per Si atom -5594.803899 kJ/mol
# Density = 2.126958 g / cm^3
# Si number density = 21.318100 Si / 1000 Ang^3
#
#
#
# Elastic Constant Matrix: (Units=GPa)
#
#
# Indices 1 2 3 4 5 6 
#
# 1 47.1293 29.5290 36.6130 0.0000 14.1194 0.0000
# 2 29.5290 89.0814 40.9623 0.0000 8.8214 0.0000
# 3 36.6130 40.9623 163.5492 0.0000 2.4082 0.0000
# 4 0.0000 0.0000 0.0000 -94.4418 0.0000 40.0469
# 5 14.1194 8.8214 2.4082 0.0000 34.1021 0.0000
# 6 0.0000 0.0000 0.0000 40.0469 0.0000 22.1326
#
#
#
# Elastic Compliance Matrix: (Units=1/GPa)
#
#
# Indices 1 2 3 4 5 6 
#
# 1 0.033646 -0.007480 -0.005488 0.000000 -0.011608 0.000000
# 2 -0.007480 0.014677 -0.001993 0.000000 -0.000559 0.000000
# 3 -0.005488 -0.001993 0.007809 0.000000 0.002236 0.000000
# 4 0.000000 0.000000 0.000000 -0.005992 0.000000 0.010841
# 5 -0.011608 -0.000559 0.002236 0.000000 0.034116 0.000000
# 6 0.000000 0.000000 0.000000 0.010841 0.000000 0.025566
#
#
# Mechanical properties :
#
#
# Convention : Reuss Voigt Hill
#
# Bulk Modulus (GPa) = 38.15356 57.10761 47.63058
# Shear Modulus (GPa) = 33.67411 5.20229 19.43820
#
# Velocity S-wave (km/s) = 3.97873 1.56385 3.02291
# Velocity P-wave (km/s) = 6.24846 5.48701 5.88007
#
# Compressibility (1/GPa) = 0.02620988
#
# Stress axis : x y z
#
# Youngs Moduli (GPa) = 29.72144 68.13330 128.05447
#
# Poissons Ratio (x) = 0.50964 0.70273
# Poissons Ratio (y) = 0.22232 0.25524
# Poissons Ratio (z) = 0.16310 0.13581
#
# Static dielectric constant tensor:
#      x y z
#    x 1.742010 0.000000 -0.022070 
#    y 0.000000 1.754320 0.000000 
#    z -0.022070 0.000000 1.751970 
# 
# From -- ./inp_files/67910.got.cif
#   From: 2010.05.17/outbox.cif.g08.bks.cpg/sg13_34_cif.got.tgz:67910.got - 2010.06.03 16:44:36.
