data_PCOD9233086
_publ_section_title
;
Structure prediction by ZEFSAII (Michael W. Deem and Ramdas Pophale) SiO2 
 PCOD9233086
Probable space group: P 2/C
;
_chemical_formula_sum "Si O2"
_cell_formula_units_Z 28
_cell_length_a 7.580161
_cell_length_b 5.705119
_cell_length_c 30.976702
_cell_angle_alpha 90.000000
_cell_angle_beta 110.690965
_cell_angle_gamma 90.000000
_cell_volume 1253.204643
_symmetry_space_group_name_H-M "P 2/C"
_symmetry_group_IT_number 13
_symmetry_cell_setting 'monoclinic'
loop_
_space_group_symop_operation_xyz
x,y,z
-x,y,1/2-z
-x,-y,-z
x,-y,1/2+z
loop_
_atom_site_type_symbol
_atom_site_label
_atom_site_fract_x
_atom_site_fract_y
_atom_site_fract_z
Si Si1 0.253966 0.885535 0.978745
Si Si2 0.226884 0.381652 0.946029
Si Si3 0.424032 0.855496 0.159908
Si Si4 0.000000 0.137533 0.750000
Si Si5 0.500000 0.586891 0.250000
Si Si6 0.802324 0.602734 0.157929
Si Si7 0.689692 0.772804 0.707233
Si Si8 0.880907 0.865347 0.438689
O O1 0.314033 0.633836 0.965148
O O2 0.333623 0.135202 0.967341
O O3 0.246782 0.885452 0.030000
O O4 0.029210 0.920091 0.947670
O O5 0.176663 0.376194 0.891087
O O6 0.029640 0.348391 0.954626
O O7 0.403130 0.736686 0.204423
O O8 0.602165 0.726236 0.152511
O O9 0.246745 0.843173 0.114038
O O10 0.492576 0.118603 0.175128
O O11 0.955750 0.281307 0.702844
O O12 0.818135 0.972429 0.738656
O O13 0.349059 0.426981 0.261554
O O14 0.787431 0.336954 0.173667
#
# Coordination Sequence:
#
# PCOD9233086 Si02
#       8
#     4   4   4   2   2   4   4   4
#     4   9  21  40  65  92 124 155 212 261 306 364
#     4  10  21  39  65  89 123 158 205 259 305 369
#     4  10  22  41  59  88 126 159 201 250 309 373
#     4  10  22  40  60  84 122 160 204 254 304 374
#     4  10  22  40  56  92 122 158 202 250 308 376
#     4  10  23  39  57  90 121 160 205 249 310 371
#     4  10  22  39  61  81 128 159 201 258 304 368
#     4   9  21  38  65  90 120 162 205 257 312 362
#
# _framework density 22.342721000000001
#
# number of rings (size 3 to 8) (size 9 to 14) (size 15 to 20)
#    0.857    1.429    0.000    1.286    4.000    8.000 
#    0.000    1.429    0.000    0.000    0.000    0.000 
#    0.000    0.000    0.000    0.000    0.000    0.000 
#
# Total GULP energy -156255.911330 kJ/mol
# GULP energy per Si atom -5580.568262 kJ/mol
# Density = 2.229187 g / cm^3
# Si number density = 22.342721 Si / 1000 Ang^3
#
#
#
# Elastic Constant Matrix: (Units=GPa)
#
#
# Indices 1 2 3 4 5 6 
#
# 1 44.0713 12.5464 14.4812 0.0000 -4.6619 0.0000
# 2 12.5464 139.4471 55.9770 0.0000 -4.8310 0.0000
# 3 14.4812 55.9770 121.0430 0.0000 0.8086 0.0000
# 4 0.0000 0.0000 0.0000 10.0958 0.0000 -4.7026
# 5 -4.6619 -4.8310 0.8086 0.0000 34.5425 0.0000
# 6 0.0000 0.0000 0.0000 -4.7026 0.0000 23.0349
#
#
#
# Elastic Compliance Matrix: (Units=1/GPa)
#
#
# Indices 1 2 3 4 5 6 
#
# 1 0.024126 -0.001098 -0.002400 0.000000 0.003159 0.000000
# 2 -0.001098 0.008917 -0.004000 0.000000 0.001193 0.000000
# 3 -0.002400 -0.004000 0.010406 0.000000 -0.001127 0.000000
# 4 0.000000 0.000000 0.000000 0.109460 0.000000 0.022346
# 5 0.003159 0.001193 -0.001127 0.000000 0.029569 0.000000
# 6 0.000000 0.000000 0.000000 0.022346 0.000000 0.047975
#
#
# Mechanical properties :
#
#
# Convention : Reuss Voigt Hill
#
# Bulk Modulus (GPa) = 35.14572 52.28562 43.71567
# Shear Modulus (GPa) = 19.61297 28.30508 23.95902
#
# Velocity S-wave (km/s) = 2.96602 3.56316 3.27821
# Velocity P-wave (km/s) = 5.24349 6.35457 5.82558
#
# Compressibility (1/GPa) = 0.02845297
#
# Stress axis : x y z
#
# Youngs Moduli (GPa) = 41.44958 112.14387 96.09707
#
# Poissons Ratio (x) = 0.12313 0.23060
# Poissons Ratio (y) = 0.04551 0.38443
# Poissons Ratio (z) = 0.09947 0.44862
#
# Static dielectric constant tensor:
#      x y z
#    x 1.878140 0.000000 0.015440 
#    y 0.000000 1.891250 0.000000 
#    z 0.015440 0.000000 1.777140 
# 
# From -- ./inp_files/95735.got.cif
#   From: 2010.05.17/outbox.cif.g08.bks.cpg/sg13_48_cif.got.tgz:95735.got - 2010.06.03 16:44:36.
