data_PCOD9233132
_publ_section_title
;
Structure prediction by ZEFSAII (Michael W. Deem and Ramdas Pophale) SiO2 
 PCOD9233132
Probable space group: P 2/C
;
_chemical_formula_sum "Si O2"
_cell_formula_units_Z 28
_cell_length_a 5.163413
_cell_length_b 10.215176
_cell_length_c 26.264188
_cell_angle_alpha 90.000000
_cell_angle_beta 67.745750
_cell_angle_gamma 90.000000
_cell_volume 1282.120796
_symmetry_space_group_name_H-M "P 2/C"
_symmetry_group_IT_number 13
_symmetry_cell_setting 'monoclinic'
loop_
_space_group_symop_operation_xyz
x,y,z
-x,y,1/2-z
-x,-y,-z
x,-y,1/2+z
loop_
_atom_site_type_symbol
_atom_site_label
_atom_site_fract_x
_atom_site_fract_y
_atom_site_fract_z
Si Si1 0.732486 0.125903 0.191237
Si Si2 0.392918 0.836372 0.049712
Si Si3 0.339660 0.567354 0.812002
Si Si4 0.485777 0.637757 0.593429
Si Si5 0.995088 0.727508 0.002269
Si Si6 0.657737 0.080125 0.374314
Si Si7 0.113012 0.418479 0.591826
O O1 0.500000 0.088543 0.250000
O O2 0.762922 0.284311 0.192132
O O3 0.593933 0.087864 0.147552
O O4 0.037598 0.063304 0.174088
O O5 0.266064 0.717869 0.093546
O O6 0.812245 0.163685 0.983517
O O7 0.392583 0.968507 0.080916
O O8 0.699646 0.788264 0.011248
O O9 0.500000 0.520215 0.750000
O O10 0.533783 0.586687 0.847304
O O11 0.099026 0.471983 0.850345
O O12 0.808182 0.668396 0.555889
O O13 0.332109 0.776012 0.601936
O O14 0.345801 0.530648 0.567930
O O15 0.965476 0.619219 0.049446
#
# Coordination Sequence:
#
# PCOD9233132 Si02
#       7
#     4   4   4   4   4   4   4
#     4  10  21  39  66  94 121 163 220 270 312 368
#     4  10  24  41  62  92 135 167 205 259 320 381
#     4  10  22  39  65  97 127 161 212 273 322 369
#     4  11  23  39  67  95 127 166 223 261 318 375
#     4  10  24  40  66  94 129 173 212 257 318 379
#     4  11  22  40  65  93 129 167 210 268 318 376
#     4  10  22  41  64  92 131 168 209 265 314 383
#
# _framework density 21.838815
#
# number of rings (size 3 to 8) (size 9 to 14) (size 15 to 20)
#    0.857    0.857    1.429    2.571    2.000    2.857 
#    0.000    0.714    6.286    0.000    0.000    0.000 
#    0.000    0.000    0.000    0.000    0.000    0.000 
#
# Total GULP energy -156462.797556 kJ/mol
# GULP energy per Si atom -5587.957056 kJ/mol
# Density = 2.178911 g / cm^3
# Si number density = 21.838815 Si / 1000 Ang^3
#
#
#
# Elastic Constant Matrix: (Units=GPa)
#
#
# Indices 1 2 3 4 5 6 
#
# 1 84.4564 25.8291 33.6391 0.0000 -20.8760 0.0000
# 2 25.8291 89.7953 25.2342 0.0000 -2.7966 0.0000
# 3 33.6391 25.2342 131.5969 0.0000 -13.9192 0.0000
# 4 0.0000 0.0000 0.0000 17.9481 0.0000 0.9881
# 5 -20.8760 -2.7966 -13.9192 0.0000 31.7723 0.0000
# 6 0.0000 0.0000 0.0000 0.9881 0.0000 24.5747
#
#
#
# Elastic Compliance Matrix: (Units=1/GPa)
#
#
# Indices 1 2 3 4 5 6 
#
# 1 0.016241 -0.003691 -0.002464 0.000000 0.009267 0.000000
# 2 -0.003691 0.012609 -0.001692 0.000000 -0.002056 0.000000
# 3 -0.002464 -0.001692 0.008773 0.000000 0.002076 0.000000
# 4 0.000000 0.000000 0.000000 0.055840 0.000000 -0.002245
# 5 0.009267 -0.002056 0.002076 0.000000 0.038291 0.000000
# 6 0.000000 0.000000 0.000000 -0.002245 0.000000 0.040783
#
#
# Mechanical properties :
#
#
# Convention : Reuss Voigt Hill
#
# Bulk Modulus (GPa) = 45.59854 52.80594 49.20224
# Shear Modulus (GPa) = 25.57026 29.60211 27.58619
#
# Velocity S-wave (km/s) = 3.42550 3.68568 3.55797
# Velocity P-wave (km/s) = 6.04734 6.50728 6.28152
#
# Compressibility (1/GPa) = 0.02193052
#
# Stress axis : x y z
#
# Youngs Moduli (GPa) = 61.57229 79.30541 113.98983
#
# Poissons Ratio (x) = 0.29269 0.28083
# Poissons Ratio (y) = 0.22724 0.19287
# Poissons Ratio (z) = 0.15169 0.13418
#
# Static dielectric constant tensor:
#      x y z
#    x 1.840030 0.000000 -0.004570 
#    y 0.000000 1.789670 0.000000 
#    z -0.004570 0.000000 1.806920 
# 
# From -- ./inp_files/94976.got.cif
#   From: 2010.05.17/outbox.cif.g08.bks.cpg/sg13_48_cif.got.tgz:94976.got - 2010.06.03 16:44:36.
