data_PCOD9233272
_publ_section_title
;
Structure prediction by ZEFSAII (Michael W. Deem and Ramdas Pophale) SiO2 
 PCOD9233272
Probable space group: P 2/C
;
_chemical_formula_sum "Si O2"
_cell_formula_units_Z 32
_cell_length_a 10.927824
_cell_length_b 8.491640
_cell_length_c 25.798810
_cell_angle_alpha 90.000000
_cell_angle_beta 145.438411
_cell_angle_gamma 90.000000
_cell_volume 1358.099024
_symmetry_space_group_name_H-M "P 2/C"
_symmetry_group_IT_number 13
_symmetry_cell_setting 'monoclinic'
loop_
_space_group_symop_operation_xyz
x,y,z
-x,y,1/2-z
-x,-y,-z
x,-y,1/2+z
loop_
_atom_site_type_symbol
_atom_site_label
_atom_site_fract_x
_atom_site_fract_y
_atom_site_fract_z
Si Si1 0.427308 0.111306 0.918096
Si Si2 0.912977 0.906893 0.589063
Si Si3 0.285222 0.435936 0.897946
Si Si4 0.191886 0.160516 0.285829
Si Si5 0.127887 0.217881 0.623615
Si Si6 0.602697 0.559524 0.674941
Si Si7 0.463100 0.748127 0.155441
Si Si8 0.981587 0.445854 0.382001
O O1 0.304997 0.248159 0.906090
O O2 0.493058 0.168638 0.883085
O O3 0.263204 0.975721 0.847958
O O4 0.666157 0.076891 0.022541
O O5 0.084777 0.896518 0.695680
O O6 0.936964 0.728396 0.572510
O O7 0.978384 0.065805 0.581462
O O8 0.287698 0.477845 0.837774
O O9 0.105969 0.507484 0.872359
O O10 0.500000 0.500000 0.000000
O O11 0.404503 0.263563 0.348094
O O12 0.000000 0.248519 0.250000
O O13 0.315519 0.234097 0.733670
O O14 0.264856 0.190661 0.619438
O O15 0.014252 0.391397 0.583810
O O16 0.421800 0.436562 0.627693
O O17 0.741318 0.575664 0.775744
#
# Coordination Sequence:
#
# PCOD9233272 Si02
#       8
#     4   4   4   4   4   4   4   4
#     4  11  24  40  65  95 133 174 220 270 333 394
#     4  11  23  43  63  98 133 170 222 270 330 396
#     4  11  21  37  62  90 129 167 206 266 329 395
#     4  11  24  40  63  98 134 174 218 268 336 401
#     4  10  21  41  68  93 127 172 223 277 323 392
#     4   9  20  39  63  86 127 167 213 268 322 393
#     4   9  20  43  65  91 126 173 223 270 332 388
#     4  10  21  40  63  94 125 170 218 262 334 392
#
# _framework density 23.562346999999999
#
# number of rings (size 3 to 8) (size 9 to 14) (size 15 to 20)
#    0.000    1.750    2.500    1.875    1.750    2.000 
#    2.250    1.875    0.000    0.000    0.000    0.000 
#    0.000    0.000    0.000    0.000    0.000    0.000 
#
# Total GULP energy -178433.999542 kJ/mol
# GULP energy per Si atom -5576.062486 kJ/mol
# Density = 2.350872 g / cm^3
# Si number density = 23.562347 Si / 1000 Ang^3
#
#
#
# Elastic Constant Matrix: (Units=GPa)
#
#
# Indices 1 2 3 4 5 6 
#
# 1 44.6237 16.2294 -2.2779 0.0000 0.1320 0.0000
# 2 16.2294 156.3155 26.4210 0.0000 10.0264 0.0000
# 3 -2.2779 26.4210 59.8374 0.0000 -2.3859 0.0000
# 4 0.0000 0.0000 0.0000 30.4631 0.0000 8.0650
# 5 0.1320 10.0264 -2.3859 0.0000 21.5328 0.0000
# 6 0.0000 0.0000 0.0000 8.0650 0.0000 27.0641
#
#
#
# Elastic Compliance Matrix: (Units=1/GPa)
#
#
# Indices 1 2 3 4 5 6 
#
# 1 0.023583 -0.002922 0.002246 0.000000 0.001465 0.000000
# 2 -0.002922 0.007560 -0.003605 0.000000 -0.003902 0.000000
# 3 0.002246 -0.003605 0.018538 0.000000 0.003719 0.000000
# 4 0.000000 0.000000 0.000000 0.035638 0.000000 -0.010620
# 5 0.001465 -0.003902 0.003719 0.000000 0.048661 0.000000
# 6 0.000000 0.000000 0.000000 -0.010620 0.000000 0.040114
#
#
# Mechanical properties :
#
#
# Convention : Reuss Voigt Hill
#
# Bulk Modulus (GPa) = 24.31961 37.94684 31.13323
# Shear Modulus (GPa) = 25.46325 30.50560 27.98443
#
# Velocity S-wave (km/s) = 3.29093 3.60206 3.45001
# Velocity P-wave (km/s) = 4.97836 5.78270 5.39554
#
# Compressibility (1/GPa) = 0.04111908
#
# Stress axis : x y z
#
# Youngs Moduli (GPa) = 42.40392 132.26947 53.94455
#
# Poissons Ratio (x) = 0.38651 -0.12118
# Poissons Ratio (y) = 0.12391 0.19447
# Poissons Ratio (z) = -0.09526 0.47684
#
# Static dielectric constant tensor:
#      x y z
#    x 1.969730 0.000000 0.084410 
#    y 0.000000 2.002010 0.000000 
#    z 0.084410 0.000000 2.087960 
# 
# From -- ./inp_files/96643.got.cif
#   From: 2010.05.17/outbox.cif.g08.bks.cpg/sg13_49_cif.got.tgz:96643.got - 2010.06.03 16:44:36.
