data_PCOD9233222
_publ_section_title
;
Structure prediction by ZEFSAII (Michael W. Deem and Ramdas Pophale) SiO2 
 PCOD9233222
Probable space group: P 2/C
;
_chemical_formula_sum "Si O2"
_cell_formula_units_Z 24
_cell_length_a 23.282063
_cell_length_b 6.509905
_cell_length_c 22.892690
_cell_angle_alpha 90.000000
_cell_angle_beta 160.664734
_cell_angle_gamma 90.000000
_cell_volume 1148.803856
_symmetry_space_group_name_H-M "P 2/C"
_symmetry_group_IT_number 13
_symmetry_cell_setting 'monoclinic'
loop_
_space_group_symop_operation_xyz
x,y,z
-x,y,1/2-z
-x,-y,-z
x,-y,1/2+z
loop_
_atom_site_type_symbol
_atom_site_label
_atom_site_fract_x
_atom_site_fract_y
_atom_site_fract_z
Si Si1 0.117073 0.737921 0.091405
Si Si2 0.945765 0.923728 0.133422
Si Si3 0.176518 0.001089 0.249442
Si Si4 0.748318 0.394797 0.358610
Si Si5 0.372955 0.224350 0.681099
Si Si6 0.441256 0.009265 0.356322
O O1 0.150320 0.517117 0.095210
O O2 0.134354 0.785691 0.176399
O O3 0.273293 0.883396 0.216463
O O4 0.940090 0.832936 0.896403
O O5 0.000000 0.852492 0.250000
O O6 0.856048 0.751273 0.006139
O O7 0.108303 0.995631 0.250136
O O8 0.808165 0.110693 0.008251
O O9 0.380394 0.039052 0.440461
O O10 0.665400 0.570104 0.319516
O O11 0.608629 0.247534 0.193563
O O12 0.500000 0.266695 0.750000
O O13 0.466518 0.064836 0.814183
#
# Coordination Sequence:
#
# PCOD9233222 Si02
#       6
#     4   4   4   4   4   4
#     4  10  22  43  62  92 129 164 210 255 309 379
#     4  11  23  41  61  92 125 161 207 260 311 374
#     4  11  21  41  67  90 126 169 203 258 319 363
#     4  10  21  42  60  90 133 158 211 261 309 377
#     4  10  21  40  61  84 125 168 203 260 312 373
#     4  10  21  41  61  91 126 162 206 262 312 369
#
# _framework density 20.891293999999998
#
# number of rings (size 3 to 8) (size 9 to 14) (size 15 to 20)
#    0.000    1.667    5.000    1.500    0.000    6.000 
#    9.000    0.000    0.000    0.000    0.000    0.000 
#    0.000    0.000    0.000    0.000    0.000    0.000 
#
# Total GULP energy -134005.672763 kJ/mol
# GULP energy per Si atom -5583.569698 kJ/mol
# Density = 2.084374 g / cm^3
# Si number density = 20.891294 Si / 1000 Ang^3
#
#
#
# Elastic Constant Matrix: (Units=GPa)
#
#
# Indices 1 2 3 4 5 6 
#
# 1 98.3275 5.9913 21.7909 0.0000 10.9828 0.0000
# 2 5.9913 87.8663 36.8355 0.0000 21.3442 0.0000
# 3 21.7909 36.8355 147.4552 0.0000 9.0625 0.0000
# 4 0.0000 0.0000 0.0000 10.8009 0.0000 1.8260
# 5 10.9828 21.3442 9.0625 0.0000 31.0671 0.0000
# 6 0.0000 0.0000 0.0000 1.8260 0.0000 28.9289
#
#
#
# Elastic Compliance Matrix: (Units=1/GPa)
#
#
# Indices 1 2 3 4 5 6 
#
# 1 0.010916 0.000897 -0.001591 0.000000 -0.004011 0.000000
# 2 0.000897 0.015059 -0.003298 0.000000 -0.009701 0.000000
# 3 -0.001591 -0.003298 0.007807 0.000000 0.000551 0.000000
# 4 0.000000 0.000000 0.000000 0.093584 0.000000 -0.005907
# 5 -0.004011 -0.009701 0.000551 0.000000 0.040111 0.000000
# 6 0.000000 0.000000 0.000000 -0.005907 0.000000 0.034940
#
#
# Mechanical properties :
#
#
# Convention : Reuss Voigt Hill
#
# Bulk Modulus (GPa) = 38.76281 51.43160 45.09721
# Shear Modulus (GPa) = 22.83108 32.09480 27.46294
#
# Velocity S-wave (km/s) = 3.30942 3.92379 3.62962
# Velocity P-wave (km/s) = 5.76175 6.72311 6.26091
#
# Compressibility (1/GPa) = 0.02579792
#
# Stress axis : x y z
#
# Youngs Moduli (GPa) = 91.60864 66.40550 128.09273
#
# Poissons Ratio (x) = -0.05956 0.20376
# Poissons Ratio (y) = -0.08217 0.42247
# Poissons Ratio (z) = 0.14572 0.21902
#
# Static dielectric constant tensor:
#      x y z
#    x 1.784660 0.000000 0.010970 
#    y 0.000000 1.746260 0.000000 
#    z 0.010970 0.000000 1.758040 
# 
# From -- ./inp_files/84351.got.cif
#   From: 2010.05.17/outbox.cif.g08.bks.cpg/sg13_43_cif.got.tgz:84351.got - 2010.06.03 16:44:36.
