data_PCOD9233496
_publ_section_title
;
Structure prediction by ZEFSAII (Michael W. Deem and Ramdas Pophale) SiO2 
 PCOD9233496
Probable space group: P 2/C
;
_chemical_formula_sum "Si O2"
_cell_formula_units_Z 32
_cell_length_a 8.924367
_cell_length_b 23.513065
_cell_length_c 15.908931
_cell_angle_alpha 90.000000
_cell_angle_beta 28.932733
_cell_angle_gamma 90.000000
_cell_volume 1615.019533
_symmetry_space_group_name_H-M "P 2/C"
_symmetry_group_IT_number 13
_symmetry_cell_setting 'monoclinic'
loop_
_space_group_symop_operation_xyz
x,y,z
-x,y,1/2-z
-x,-y,-z
x,-y,1/2+z
loop_
_atom_site_type_symbol
_atom_site_label
_atom_site_fract_x
_atom_site_fract_y
_atom_site_fract_z
Si Si1 0.588323 0.138763 0.112138
Si Si2 0.782709 0.848128 0.275686
Si Si3 0.902730 0.358127 0.391588
Si Si4 0.267339 0.254939 0.294349
Si Si5 0.128504 0.436691 0.933009
Si Si6 0.365821 0.062961 0.073478
Si Si7 0.151969 0.642092 0.265825
Si Si8 0.772323 0.747136 0.170789
O O1 0.500000 0.128069 0.250000
O O2 0.451356 0.202654 0.160404
O O3 0.441718 0.092749 0.123820
O O4 0.953432 0.132343 0.918157
O O5 0.536875 0.895216 0.423098
O O6 0.639295 0.794046 0.299274
O O7 0.000000 0.832902 0.250000
O O8 0.972097 0.400714 0.435306
O O9 0.527234 0.353120 0.574339
O O10 0.000000 0.376935 0.250000
O O11 0.095534 0.300500 0.319677
O O12 0.500000 0.281802 0.250000
O O13 0.002618 0.229814 0.486403
O O14 0.500000 0.438935 0.750000
O O15 0.051494 0.404980 0.883328
O O16 0.000000 0.500000 0.000000
O O17 0.000000 0.060750 0.250000
O O18 0.500000 0.000000 0.000000
O O19 0.057143 0.701682 0.354850
O O20 0.000000 0.633600 0.250000
O O21 0.500000 0.718286 0.250000
#
# Coordination Sequence:
#
# PCOD9233496 Si02
#       8
#     4   4   4   4   4   4   4   4
#     4  10  21  41  64  94 127 166 212 264 318 390
#     4  10  22  39  62  93 130 167 215 265 325 391
#     4  11  25  41  63  98 132 171 222 273 326 401
#     4  11  22  39  65  96 137 172 213 271 331 394
#     4  10  23  46  67  92 129 173 224 276 330 389
#     4  11  25  45  67  92 128 169 216 271 326 388
#     4  11  24  42  64  93 134 177 218 271 335 393
#     4  12  21  39  63  93 137 172 213 268 333 393
#
# _framework density 19.814001999999999
#
# number of rings (size 3 to 8) (size 9 to 14) (size 15 to 20)
#    0.000    1.250    5.000    1.875    3.500    4.500 
#    0.000    5.625    0.000    0.000    0.000    0.000 
#    0.000    0.000    0.000    0.000    0.000    0.000 
#
# Total GULP energy -178468.686295 kJ/mol
# GULP energy per Si atom -5577.146447 kJ/mol
# Density = 1.976890 g / cm^3
# Si number density = 19.814002 Si / 1000 Ang^3
#
#
#
# Elastic Constant Matrix: (Units=GPa)
#
#
# Indices 1 2 3 4 5 6 
#
# 1 128.1705 69.4705 49.2733 0.0000 13.6821 0.0000
# 2 69.4705 144.5243 56.8181 0.0000 14.5334 0.0000
# 3 49.2733 56.8181 122.4165 0.0000 18.8923 0.0000
# 4 0.0000 0.0000 0.0000 39.1083 0.0000 -1.7956
# 5 13.6821 14.5334 18.8923 0.0000 33.7206 0.0000
# 6 0.0000 0.0000 0.0000 -1.7956 0.0000 16.2115
#
#
#
# Elastic Compliance Matrix: (Units=1/GPa)
#
#
# Indices 1 2 3 4 5 6 
#
# 1 0.011175 -0.004340 -0.002269 0.000000 -0.001393 0.000000
# 2 -0.004340 0.010227 -0.002837 0.000000 -0.001058 0.000000
# 3 -0.002269 -0.002837 0.011021 0.000000 -0.004031 0.000000
# 4 0.000000 0.000000 0.000000 0.025701 0.000000 0.002847
# 5 -0.001393 -0.001058 -0.004031 0.000000 0.032935 0.000000
# 6 0.000000 0.000000 0.000000 0.002847 0.000000 0.062000
#
#
# Mechanical properties :
#
#
# Convention : Reuss Voigt Hill
#
# Bulk Modulus (GPa) = 73.89739 82.91502 78.40620
# Shear Modulus (GPa) = 28.33507 32.44471 30.38989
#
# Velocity S-wave (km/s) = 3.78571 4.05095 3.92057
# Velocity P-wave (km/s) = 7.51567 7.98860 7.75574
#
# Compressibility (1/GPa) = 0.01353228
#
# Stress axis : x y z
#
# Youngs Moduli (GPa) = 89.48371 97.78198 90.73706
#
# Poissons Ratio (x) = 0.42434 0.20588
# Poissons Ratio (y) = 0.38833 0.25739
# Poissons Ratio (z) = 0.20303 0.27738
#
# Static dielectric constant tensor:
#      x y z
#    x 1.829900 0.000000 -0.029670 
#    y 0.000000 1.668030 0.000000 
#    z -0.029670 0.000000 1.751940 
# 
# From -- ./inp_files/48297.got.cif
#   From: 2010.05.17/outbox.cif.g08.bks.cpg/sg13_25_cif.got.tgz:48297.got - 2010.06.03 16:44:36.
