data_PCOD9233151
_publ_section_title
;
Structure prediction by ZEFSAII (Michael W. Deem and Ramdas Pophale) SiO2 
 PCOD9233151
Probable space group: P 2/C
;
_chemical_formula_sum "Si O2"
_cell_formula_units_Z 22
_cell_length_a 7.519975
_cell_length_b 5.094838
_cell_length_c 26.371106
_cell_angle_alpha 90.000000
_cell_angle_beta 113.550436
_cell_angle_gamma 90.000000
_cell_volume 926.203630
_symmetry_space_group_name_H-M "P 2/C"
_symmetry_group_IT_number 13
_symmetry_cell_setting 'monoclinic'
loop_
_space_group_symop_operation_xyz
x,y,z
-x,y,1/2-z
-x,-y,-z
x,-y,1/2+z
loop_
_atom_site_type_symbol
_atom_site_label
_atom_site_fract_x
_atom_site_fract_y
_atom_site_fract_z
Si Si1 0.246859 0.906908 0.870747
Si Si2 0.009010 0.747609 0.036772
Si Si3 0.285669 0.502108 0.204884
Si Si4 0.179053 0.985684 0.639370
Si Si5 0.362779 0.601823 0.438357
Si Si6 0.000000 0.787520 0.750000
O O1 0.339548 0.628008 0.894573
O O2 0.159933 0.935001 0.803843
O O3 0.388350 0.131109 0.908752
O O4 0.047149 0.910936 0.880643
O O5 0.836740 0.670369 0.055460
O O6 0.192288 0.831815 0.091625
O O7 0.000000 0.500000 0.000000
O O8 0.000000 0.000000 0.000000
O O9 0.500000 0.489352 0.250000
O O10 0.235537 0.804390 0.188525
O O11 0.126004 0.387651 0.225586
O O12 0.281746 0.292220 0.157768
O O13 0.500000 0.500000 0.500000
#
# Coordination Sequence:
#
# PCOD9233151 Si02
#       6
#     4   4   4   4   4   2
#     4  10  21  39  67  91 123 177 208 263 329 389
#     4  11  21  38  63  88 118 170 209 251 319 383
#     4  11  23  41  64  94 127 167 207 266 318 381
#     4  10  21  41  63  85 129 164 209 256 318 378
#     4  11  23  42  62  94 134 164 215 272 327 382
#     4  10  22  42  68  94 130 166 224 254 328 392
#
# _framework density 23.752877000000002
#
# number of rings (size 3 to 8) (size 9 to 14) (size 15 to 20)
#    0.000    1.455    0.000    8.727    0.000    6.545 
#    9.818    0.000    0.000    0.000    0.000    0.000 
#    0.000    0.000    0.000    0.000    0.000    0.000 
#
# Total GULP energy -122646.201403 kJ/mol
# GULP energy per Si atom -5574.827337 kJ/mol
# Density = 2.369881 g / cm^3
# Si number density = 23.752877 Si / 1000 Ang^3
#
#
#
# Elastic Constant Matrix: (Units=GPa)
#
#
# Indices 1 2 3 4 5 6 
#
# 1 54.6801 5.5501 0.0178 0.0000 5.2936 0.0000
# 2 5.5501 165.4794 24.4579 0.0000 -3.1232 0.0000
# 3 0.0178 24.4579 99.6148 0.0000 -2.1289 0.0000
# 4 0.0000 0.0000 0.0000 48.0118 0.0000 6.8635
# 5 5.2936 -3.1232 -2.1289 0.0000 28.8061 0.0000
# 6 0.0000 0.0000 0.0000 6.8635 0.0000 1.8813
#
#
#
# Elastic Compliance Matrix: (Units=1/GPa)
#
#
# Indices 1 2 3 4 5 6 
#
# 1 0.018699 -0.000707 0.000095 0.000000 -0.003506 0.000000
# 2 -0.000707 0.006307 -0.001533 0.000000 0.000700 0.000000
# 3 0.000095 -0.001533 0.010428 0.000000 0.000587 0.000000
# 4 0.000000 0.000000 0.000000 0.043533 0.000000 -0.158823
# 5 -0.003506 0.000700 0.000587 0.000000 0.035478 0.000000
# 6 0.000000 0.000000 0.000000 -0.158823 0.000000 1.111002
#
#
# Mechanical properties :
#
#
# Convention : Reuss Voigt Hill
#
# Bulk Modulus (GPa) = 32.10997 42.20288 37.15643
# Shear Modulus (GPa) = 4.03187 35.05640 19.54414
#
# Velocity S-wave (km/s) = 1.30427 3.84589 2.87158
# Velocity P-wave (km/s) = 3.97691 6.12594 5.16445
#
# Compressibility (1/GPa) = 0.03114297
#
# Stress axis : x y z
#
# Youngs Moduli (GPa) = 53.47768 158.56347 95.89879
#
# Poissons Ratio (x) = 0.11218 -0.00915
# Poissons Ratio (y) = 0.03783 0.14705
# Poissons Ratio (z) = -0.00510 0.24313
#
# Static dielectric constant tensor:
#      x y z
#    x 1.908200 0.000000 -0.104010 
#    y 0.000000 1.809000 0.000000 
#    z -0.104010 0.000000 1.936830 
# 
# From -- ./inp_files/90701.got.cif
#   From: 2010.05.17/outbox.cif.g08.bks.cpg/sg13_46_cif.got.tgz:90701.got - 2010.06.03 16:44:36.
