data_PCOD9233672
_publ_section_title
;
Structure prediction by ZEFSAII (Michael W. Deem and Ramdas Pophale) SiO2 
 PCOD9233672
Probable space group: P 2/C
;
_chemical_formula_sum "Si O2"
_cell_formula_units_Z 30
_cell_length_a 16.235296
_cell_length_b 9.020163
_cell_length_c 11.673751
_cell_angle_alpha 90.000000
_cell_angle_beta 118.859117
_cell_angle_gamma 90.000000
_cell_volume 1497.250610
_symmetry_space_group_name_H-M "P 2/C"
_symmetry_group_IT_number 13
_symmetry_cell_setting 'monoclinic'
loop_
_space_group_symop_operation_xyz
x,y,z
-x,y,1/2-z
-x,-y,-z
x,-y,1/2+z
loop_
_atom_site_type_symbol
_atom_site_label
_atom_site_fract_x
_atom_site_fract_y
_atom_site_fract_z
Si Si1 0.969495 0.732932 0.099058
Si Si2 0.241260 0.963942 0.301536
Si Si3 0.152371 0.294045 0.603885
Si Si4 0.500000 0.605855 0.750000
Si Si5 0.635679 0.251509 0.506701
Si Si6 0.325423 0.519046 0.263509
Si Si7 0.913817 0.062393 0.122586
Si Si8 0.765566 0.756603 0.867410
O O1 0.000000 0.695961 0.250000
O O2 0.051036 0.656479 0.080228
O O3 0.960503 0.915214 0.095884
O O4 0.868613 0.701165 0.974942
O O5 0.172962 0.018251 0.355663
O O6 0.237965 0.083060 0.196516
O O7 0.191427 0.812695 0.229448
O O8 0.342493 0.903965 0.413607
O O9 0.238498 0.402737 0.639262
O O10 0.127859 0.184111 0.486809
O O11 0.461782 0.709955 0.621738
O O12 0.583327 0.504835 0.754381
O O13 0.652272 0.384933 0.608831
O O14 0.707278 0.247704 0.446797
O O15 0.283912 0.355094 0.255080
O O16 0.000000 0.130473 0.250000
#
# Coordination Sequence:
#
# PCOD9233672 Si02
#       8
#     4   4   4   2   4   4   4   4
#     4  11  18  33  58  87 129 172 208 245 301 359
#     4  11  19  34  60  89 120 160 206 254 306 366
#     4  11  20  35  55  87 122 162 215 250 297 370
#     4  10  22  44  70  88 118 162 212 268 334 390
#     4  10  21  42  65  92 118 160 213 259 316 386
#     4  10  24  41  64  87 120 165 212 261 321 379
#     4  11  19  31  56  91 124 170 210 249 294 363
#     4  11  22  38  61  92 132 171 204 256 312 366
#
# _framework density 20.036725000000001
#
# number of rings (size 3 to 8) (size 9 to 14) (size 15 to 20)
#    0.000    1.333    5.333    2.400    0.000    2.667 
#    0.000    3.333    0.000   19.200    0.000    0.000 
#    0.000    0.000    0.000    0.000    0.000    0.000 
#
# Total GULP energy -167043.028072 kJ/mol
# GULP energy per Si atom -5568.100936 kJ/mol
# Density = 1.999112 g / cm^3
# Si number density = 20.036725 Si / 1000 Ang^3
#
#
#
# Elastic Constant Matrix: (Units=GPa)
#
#
# Indices 1 2 3 4 5 6 
#
# 1 111.7872 39.7465 31.1110 0.0000 13.7226 0.0000
# 2 39.7465 44.7712 38.3146 0.0000 6.9011 0.0000
# 3 31.1110 38.3146 104.3825 0.0000 16.0965 0.0000
# 4 0.0000 0.0000 0.0000 29.7016 0.0000 11.3718
# 5 13.7226 6.9011 16.0965 0.0000 21.5521 0.0000
# 6 0.0000 0.0000 0.0000 11.3718 0.0000 19.0793
#
#
#
# Elastic Compliance Matrix: (Units=1/GPa)
#
#
# Indices 1 2 3 4 5 6 
#
# 1 0.013696 -0.012448 0.001376 0.000000 -0.005762 0.000000
# 2 -0.012448 0.043934 -0.012962 0.000000 0.003539 0.000000
# 3 0.001376 -0.012962 0.015170 0.000000 -0.008055 0.000000
# 4 0.000000 0.000000 0.000000 0.043623 0.000000 -0.026000
# 5 -0.005762 0.003539 -0.008055 0.000000 0.054951 0.000000
# 6 0.000000 0.000000 0.000000 -0.026000 0.000000 0.067910
#
#
# Mechanical properties :
#
#
# Convention : Reuss Voigt Hill
#
# Bulk Modulus (GPa) = 40.43437 53.25390 46.84413
# Shear Modulus (GPa) = 16.91495 24.18452 20.54974
#
# Velocity S-wave (km/s) = 2.90866 3.47797 3.20598
# Velocity P-wave (km/s) = 5.61287 6.53944 6.09379
#
# Compressibility (1/GPa) = 0.02473144
#
# Stress axis : x y z
#
# Youngs Moduli (GPa) = 73.01404 22.76145 65.91874
#
# Poissons Ratio (x) = 0.28333 -0.09068
# Poissons Ratio (y) = 0.90888 0.85444
# Poissons Ratio (z) = -0.10044 0.29503
#
# Static dielectric constant tensor:
#      x y z
#    x 1.737530 0.000000 0.032820 
#    y 0.000000 1.738630 0.000000 
#    z 0.032820 0.000000 1.801520 
# 
# From -- ./inp_files/38805.got.cif
#   From: 2010.05.17/outbox.cif.g08.bks.cpg/sg13_20_cif.got.tgz:38805.got - 2010.06.03 16:44:36.
