data_PCOD9233912
_publ_section_title
;
Structure prediction by ZEFSAII (Michael W. Deem and Ramdas Pophale) SiO2 
 PCOD9233912
Probable space group: P 2/C
;
_chemical_formula_sum "Si O2"
_cell_formula_units_Z 18
_cell_length_a 8.041392
_cell_length_b 7.120158
_cell_length_c 18.839998
_cell_angle_alpha 90.000000
_cell_angle_beta 121.994560
_cell_angle_gamma 90.000000
_cell_volume 914.845937
_symmetry_space_group_name_H-M "P 2/C"
_symmetry_group_IT_number 13
_symmetry_cell_setting 'monoclinic'
loop_
_space_group_symop_operation_xyz
x,y,z
-x,y,1/2-z
-x,-y,-z
x,-y,1/2+z
loop_
_atom_site_type_symbol
_atom_site_label
_atom_site_fract_x
_atom_site_fract_y
_atom_site_fract_z
Si Si1 0.708504 0.852351 0.929004
Si Si2 0.582421 0.849307 0.189742
Si Si3 0.088914 0.125259 0.420908
Si Si4 0.627655 0.441371 0.961346
Si Si5 0.000000 0.984762 0.250000
O O1 0.689395 0.632513 0.937038
O O2 0.875942 0.891652 0.908605
O O3 0.511435 0.954260 0.858846
O O4 0.780603 0.955605 0.017240
O O5 0.500000 0.817843 0.250000
O O6 0.497182 0.689144 0.119452
O O7 0.816018 0.863729 0.236263
O O8 0.190971 0.315497 0.470669
O O9 0.071460 0.106398 0.333034
O O10 0.500000 0.500000 0.000000
#
# Coordination Sequence:
#
# PCOD9233912 Si02
#       5
#     4   4   4   4   2
#     4  10  21  44  68  89 131 173 213 260 323 380
#     4  11  24  44  66  94 131 170 212 269 320 375
#     4  10  22  40  68  96 127 172 214 262 319 384
#     4  11  23  42  64  96 128 172 218 259 318 388
#     4  12  22  42  68  94 130 168 214 266 324 376
#
# _framework density 19.675443999999999
#
# number of rings (size 3 to 8) (size 9 to 14) (size 15 to 20)
#    0.000    1.333    2.222    3.333    0.000    4.444 
#    8.000    2.222    0.000    0.000    0.000    0.000 
#    0.000    0.000    0.000    0.000    0.000    0.000 
#
# Total GULP energy -100643.071578 kJ/mol
# GULP energy per Si atom -5591.281754 kJ/mol
# Density = 1.963066 g / cm^3
# Si number density = 19.675444 Si / 1000 Ang^3
#
#
#
# Elastic Constant Matrix: (Units=GPa)
#
#
# Indices 1 2 3 4 5 6 
#
# 1 114.2996 22.8057 54.8900 0.0000 8.6417 0.0000
# 2 22.8057 115.3217 44.6176 0.0000 -2.4104 0.0000
# 3 54.8900 44.6176 119.5877 0.0000 -21.0203 0.0000
# 4 0.0000 0.0000 0.0000 9.6514 0.0000 -4.3249
# 5 8.6417 -2.4104 -21.0203 0.0000 28.5635 0.0000
# 6 0.0000 0.0000 0.0000 -4.3249 0.0000 16.8765
#
#
#
# Elastic Compliance Matrix: (Units=1/GPa)
#
#
# Indices 1 2 3 4 5 6 
#
# 1 0.013223 0.000226 -0.007872 0.000000 -0.009774 0.000000
# 2 0.000226 0.010261 -0.004356 0.000000 -0.002408 0.000000
# 3 -0.007872 -0.004356 0.016027 0.000000 0.013809 0.000000
# 4 0.000000 0.000000 0.000000 0.117054 0.000000 0.029997
# 5 -0.009774 -0.002408 0.013809 0.000000 0.047926 0.000000
# 6 0.000000 0.000000 0.000000 0.029997 0.000000 0.066941
#
#
# Mechanical properties :
#
#
# Convention : Reuss Voigt Hill
#
# Bulk Modulus (GPa) = 64.47559 65.98174 65.22866
# Shear Modulus (GPa) = 16.63308 26.14465 21.38887
#
# Velocity S-wave (km/s) = 2.91068 3.64922 3.30067
# Velocity P-wave (km/s) = 6.64355 7.16684 6.91015
#
# Compressibility (1/GPa) = 0.01550975
#
# Stress axis : x y z
#
# Youngs Moduli (GPa) = 75.62547 97.45173 62.39280
#
# Poissons Ratio (x) = -0.02206 0.49115
# Poissons Ratio (y) = -0.01712 0.27176
# Poissons Ratio (z) = 0.59531 0.42447
#
# Static dielectric constant tensor:
#      x y z
#    x 1.701970 0.000000 0.007120 
#    y 0.000000 1.659830 0.000000 
#    z 0.007120 0.000000 1.684250 
# 
# From -- ./inp_files/62253.got.cif
#   From: 2010.05.17/outbox.cif.g08.bks.cpg/sg13_32_cif.got.tgz:62253.got - 2010.06.03 16:44:36.
