data_PCOD9233521
_publ_section_title
;
Structure prediction by ZEFSAII (Michael W. Deem and Ramdas Pophale) SiO2 
 PCOD9233521
Probable space group: P 2/C
;
_chemical_formula_sum "Si O2"
_cell_formula_units_Z 26
_cell_length_a 13.358608
_cell_length_b 10.293421
_cell_length_c 19.478241
_cell_angle_alpha 90.000000
_cell_angle_beta 156.820101
_cell_angle_gamma 90.000000
_cell_volume 1054.258717
_symmetry_space_group_name_H-M "P 2/C"
_symmetry_group_IT_number 13
_symmetry_cell_setting 'monoclinic'
loop_
_space_group_symop_operation_xyz
x,y,z
-x,y,1/2-z
-x,-y,-z
x,-y,1/2+z
loop_
_atom_site_type_symbol
_atom_site_label
_atom_site_fract_x
_atom_site_fract_y
_atom_site_fract_z
Si Si1 0.287976 0.075655 0.824110
Si Si2 0.500000 0.760892 0.250000
Si Si3 0.612934 0.543685 0.964221
Si Si4 0.000000 0.320779 0.250000
Si Si5 0.000000 0.763686 0.250000
Si Si6 0.274759 0.667946 0.247298
Si Si7 0.035748 0.172749 0.132008
Si Si8 0.811546 0.375091 0.388782
O O1 0.393446 0.203316 0.854276
O O2 0.071392 0.138205 0.734908
O O3 0.165916 0.964880 0.700754
O O4 0.500000 0.000000 0.000000
O O5 0.382961 0.676689 0.237965
O O6 0.735324 0.839180 0.429195
O O7 0.367070 0.465680 0.841295
O O8 0.482104 0.588720 0.810160
O O9 0.808415 0.423294 0.091806
O O10 0.758583 0.667150 0.086965
O O11 0.917466 0.229057 0.261716
O O12 0.968333 0.683888 0.051984
O O13 0.140968 0.276392 0.144124
O O14 0.000000 0.500000 0.500000
#
# Coordination Sequence:
#
# PCOD9233521 Si02
#       8
#     4   2   4   2   2   4   4   4
#     4  12  27  45  71 101 149 183 246 294 369 440
#     4  10  22  42  70 100 134 176 254 272 362 432
#     4  10  21  41  65  98 140 177 237 295 358 431
#     4  11  21  36  70  98 133 185 228 282 368 417
#     4  11  27  44  64 112 137 189 236 306 360 439
#     4  10  22  44  68 102 130 195 229 299 364 433
#     4  11  23  42  66  99 134 186 231 297 351 434
#     4   9  21  40  66  97 137 179 236 293 351 426
#
# _framework density 24.661878000000002
#
# number of rings (size 3 to 8) (size 9 to 14) (size 15 to 20)
#    0.000    1.538    1.538    2.308    2.154    8.615 
#    5.538    0.000    0.000    0.000    0.000    0.000 
#    0.000    0.000    0.000    0.000    0.000    0.000 
#
# Total GULP energy -144943.097336 kJ/mol
# GULP energy per Si atom -5574.734513 kJ/mol
# Density = 2.460575 g / cm^3
# Si number density = 24.661878 Si / 1000 Ang^3
#
#
#
# Elastic Constant Matrix: (Units=GPa)
#
#
# Indices 1 2 3 4 5 6 
#
# 1 51.7363 14.1319 -4.8320 0.0000 -2.1740 0.0000
# 2 14.1319 144.4414 45.0370 0.0000 -8.6123 0.0000
# 3 -4.8320 45.0370 194.4444 0.0000 -0.8214 0.0000
# 4 0.0000 0.0000 0.0000 54.1579 0.0000 0.6220
# 5 -2.1740 -8.6123 -0.8214 0.0000 21.6393 0.0000
# 6 0.0000 0.0000 0.0000 0.6220 0.0000 32.2247
#
#
#
# Elastic Compliance Matrix: (Units=1/GPa)
#
#
# Indices 1 2 3 4 5 6 
#
# 1 0.020077 -0.002211 0.001016 0.000000 0.001176 0.000000
# 2 -0.002211 0.007893 -0.001871 0.000000 0.002848 0.000000
# 3 0.001016 -0.001871 0.005600 0.000000 -0.000430 0.000000
# 4 0.000000 0.000000 0.000000 0.018469 0.000000 -0.000356
# 5 0.001176 0.002848 -0.000430 0.000000 0.047448 0.000000
# 6 0.000000 0.000000 0.000000 -0.000356 0.000000 0.031039
#
#
# Mechanical properties :
#
#
# Convention : Reuss Voigt Hill
#
# Bulk Modulus (GPa) = 36.44663 55.47733 45.96198
# Shear Modulus (GPa) = 34.29297 44.02339 39.15818
#
# Velocity S-wave (km/s) = 3.73302 4.22960 3.98905
# Velocity P-wave (km/s) = 5.77851 6.81151 6.31617
#
# Compressibility (1/GPa) = 0.02743738
#
# Stress axis : x y z
#
# Youngs Moduli (GPa) = 49.80819 126.69854 178.58251
#
# Poissons Ratio (x) = 0.28013 -0.18144
# Poissons Ratio (y) = 0.11013 0.33413
# Poissons Ratio (z) = -0.05060 0.23706
#
# Static dielectric constant tensor:
#      x y z
#    x 2.059570 0.000000 0.005920 
#    y 0.000000 1.954070 0.000000 
#    z 0.005920 0.000000 2.192490 
# 
# From -- ./inp_files/88086.got.cif
#   From: 2010.05.17/outbox.cif.g08.bks.cpg/sg13_45_cif.got.tgz:88086.got - 2010.06.03 16:44:36.
