data_PCOD9233004
_publ_section_title
;
Structure prediction by ZEFSAII (Michael W. Deem and Ramdas Pophale) SiO2 
 PCOD9233004
Probable space group: P 2/C
;
_chemical_formula_sum "Si O2"
_cell_formula_units_Z 26
_cell_length_a 6.896243
_cell_length_b 12.549340
_cell_length_c 18.511272
_cell_angle_alpha 90.000000
_cell_angle_beta 52.682370
_cell_angle_gamma 90.000000
_cell_volume 1274.070841
_symmetry_space_group_name_H-M "P 2/C"
_symmetry_group_IT_number 13
_symmetry_cell_setting 'monoclinic'
loop_
_space_group_symop_operation_xyz
x,y,z
-x,y,1/2-z
-x,-y,-z
x,-y,1/2+z
loop_
_atom_site_type_symbol
_atom_site_label
_atom_site_fract_x
_atom_site_fract_y
_atom_site_fract_z
Si Si1 0.784481 0.313321 0.961249
Si Si2 0.606483 0.695916 0.081137
Si Si3 0.576977 0.889716 0.577046
Si Si4 0.197418 0.033406 0.271249
Si Si5 0.814781 0.096108 0.465621
Si Si6 0.000000 0.500000 0.000000
Si Si7 0.806911 0.213485 0.727620
O O1 0.581692 0.320425 0.943636
O O2 0.826459 0.425139 0.989203
O O3 0.035933 0.271582 0.868765
O O4 0.696498 0.224763 0.038649
O O5 0.430463 0.726395 0.188171
O O6 0.760109 0.801869 0.026343
O O7 0.786275 0.596686 0.049127
O O8 0.430457 0.911225 0.683297
O O9 0.381890 0.898226 0.555295
O O10 0.759959 0.986436 0.519337
O O11 0.000000 0.032697 0.250000
O O12 0.071499 0.091729 0.366793
O O13 0.243742 0.909784 0.279220
O O14 0.000000 0.208771 0.750000
#
# Coordination Sequence:
#
# PCOD9233004 Si02
#       7
#     4   4   4   4   4   2   4
#     4  10  21  39  62  88 118 157 201 249 298 351
#     4  10  21  39  62  88 118 157 201 249 298 351
#     4   9  15  27  53  88 121 147 182 236 298 358
#     4   9  14  24  51  92 124 152 186 229 297 373
#     4   9  15  27  53  88 121 147 182 236 298 358
#     4  12  26  42  58  78 116 164 212 256 288 342
#     4   9  16  31  61  92 115 149 200 244 292 359
#
# _framework density 20.407028
#
# number of rings (size 3 to 8) (size 9 to 14) (size 15 to 20)
#    0.000    2.462    3.077    0.462    0.000    0.615 
#    0.000    3.846    0.000    5.538    0.000    0.000 
#    0.000    0.000    0.000    0.000    0.000    0.000 
#
# Total GULP energy -144814.523639 kJ/mol
# GULP energy per Si atom -5569.789371 kJ/mol
# Density = 2.036058 g / cm^3
# Si number density = 20.407028 Si / 1000 Ang^3
#
#
#
# Elastic Constant Matrix: (Units=GPa)
#
#
# Indices 1 2 3 4 5 6 
#
# 1 102.4046 24.0199 24.3837 0.0000 -14.4457 0.0000
# 2 24.0199 103.3952 70.0162 0.0000 8.1474 0.0000
# 3 24.3837 70.0162 151.3768 0.0000 -7.8295 0.0000
# 4 0.0000 0.0000 0.0000 11.3814 0.0000 -5.5486
# 5 -14.4457 8.1474 -7.8295 0.0000 29.2865 0.0000
# 6 0.0000 0.0000 0.0000 -5.5486 0.0000 6.3789
#
#
#
# Elastic Compliance Matrix: (Units=1/GPa)
#
#
# Indices 1 2 3 4 5 6 
#
# 1 0.011428 -0.003126 -0.000059 0.000000 0.006491 0.000000
# 2 -0.003126 0.015958 -0.007287 0.000000 -0.007930 0.000000
# 3 -0.000059 -0.007287 0.010231 0.000000 0.004733 0.000000
# 4 0.000000 0.000000 0.000000 0.152555 0.000000 0.132698
# 5 0.006491 -0.007930 0.004733 0.000000 0.040819 0.000000
# 6 0.000000 0.000000 0.000000 0.132698 0.000000 0.272192
#
#
# Mechanical properties :
#
#
# Convention : Reuss Voigt Hill
#
# Bulk Modulus (GPa) = 59.98404 66.00178 62.99291
# Shear Modulus (GPa) = 9.43957 25.32650 17.38303
#
# Velocity S-wave (km/s) = 2.15307 3.52670 2.92176
# Velocity P-wave (km/s) = 5.96980 6.99974 6.50519
#
# Compressibility (1/GPa) = 0.01667110
#
# Stress axis : x y z
#
# Youngs Moduli (GPa) = 87.50268 62.66625 97.74228
#
# Poissons Ratio (x) = 0.19592 0.00578
# Poissons Ratio (y) = 0.27357 0.71228
# Poissons Ratio (z) = 0.00517 0.45667
#
# Static dielectric constant tensor:
#      x y z
#    x 1.853630 0.000000 -0.001810 
#    y 0.000000 1.643110 0.000000 
#    z -0.001810 0.000000 1.703010 
# 
# From -- ./inp_files/76367.got.cif
#   From: 2010.05.17/outbox.cif.g08.bks.cpg/sg13_39_cif.got.tgz:76367.got - 2010.06.03 16:44:36.
