data_PCOD9233056
_publ_section_title
;
Structure prediction by ZEFSAII (Michael W. Deem and Ramdas Pophale) SiO2 
 PCOD9233056
Probable space group: P 2/C
;
_chemical_formula_sum "Si O2"
_cell_formula_units_Z 24
_cell_length_a 8.205523
_cell_length_b 16.508081
_cell_length_c 9.574196
_cell_angle_alpha 90.000000
_cell_angle_beta 85.967444
_cell_angle_gamma 90.000000
_cell_volume 1293.685278
_symmetry_space_group_name_H-M "P 2/C"
_symmetry_group_IT_number 13
_symmetry_cell_setting 'monoclinic'
loop_
_space_group_symop_operation_xyz
x,y,z
-x,y,1/2-z
-x,-y,-z
x,-y,1/2+z
loop_
_atom_site_type_symbol
_atom_site_label
_atom_site_fract_x
_atom_site_fract_y
_atom_site_fract_z
Si Si1 0.121486 0.517462 0.619858
Si Si2 0.638602 0.757627 0.546707
Si Si3 0.823600 0.808258 0.816852
Si Si4 0.304910 0.671291 0.505567
Si Si5 0.191112 0.338764 0.704129
Si Si6 0.458967 0.920655 0.589661
O O1 0.249879 0.584850 0.566936
O O2 0.203974 0.432741 0.657390
O O3 0.000000 0.546072 0.750000
O O4 0.000000 0.500000 0.500000
O O5 0.723959 0.769696 0.691530
O O6 0.480136 0.699452 0.552585
O O7 0.755149 0.721032 0.422051
O O8 0.567803 0.847145 0.521992
O O9 0.723234 0.882805 0.889987
O O10 0.000000 0.831719 0.750000
O O11 0.825684 0.736901 0.930056
O O12 0.295521 0.672654 0.338632
O O13 0.000000 0.326995 0.750000
O O14 0.500000 0.934579 0.750000
O O15 0.500000 0.000000 0.500000
#
# Coordination Sequence:
#
# PCOD9233056 Si02
#       6
#     4   4   4   4   4   4
#     4  11  22  38  56  86 120 164 204 250 306 352
#     4  10  23  40  59  89 118 154 203 249 300 361
#     4  10  21  39  64  89 117 158 205 246 297 361
#     4  11  21  37  58  84 118 159 202 251 302 350
#     4  11  22  37  57  84 119 156 205 251 298 355
#     4   9  20  40  62  89 124 156 189 239 300 357
#
# _framework density 18.551653999999999
#
# number of rings (size 3 to 8) (size 9 to 14) (size 15 to 20)
#    0.000    1.667    3.333    3.500    2.333    3.333 
#    0.000    5.833    0.000    0.000    0.000    0.000 
#    0.000    0.000    0.000    0.000    0.000    0.000 
#
# Total GULP energy -133929.687222 kJ/mol
# GULP energy per Si atom -5580.403634 kJ/mol
# Density = 1.850943 g / cm^3
# Si number density = 18.551654 Si / 1000 Ang^3
#
#
#
# Elastic Constant Matrix: (Units=GPa)
#
#
# Indices 1 2 3 4 5 6 
#
# 1 77.0375 61.5470 34.2150 0.0000 -8.5556 0.0000
# 2 61.5470 142.7057 62.4371 0.0000 -19.5671 0.0000
# 3 34.2150 62.4371 97.9434 0.0000 -9.5204 0.0000
# 4 0.0000 0.0000 0.0000 43.2908 0.0000 -17.0531
# 5 -8.5556 -19.5671 -9.5204 0.0000 34.8149 0.0000
# 6 0.0000 0.0000 0.0000 -17.0531 0.0000 17.1027
#
#
#
# Elastic Compliance Matrix: (Units=1/GPa)
#
#
# Indices 1 2 3 4 5 6 
#
# 1 0.020104 -0.007762 -0.002074 0.000000 0.000011 0.000000
# 2 -0.007762 0.013250 -0.005339 0.000000 0.004080 0.000000
# 3 -0.002074 -0.005339 0.014379 0.000000 0.000422 0.000000
# 4 0.000000 0.000000 0.000000 0.038041 0.000000 0.037931
# 5 0.000011 0.004080 0.000422 0.000000 0.031134 0.000000
# 6 0.000000 0.000000 0.000000 0.037931 0.000000 0.096291
#
#
# Mechanical properties :
#
#
# Convention : Reuss Voigt Hill
#
# Bulk Modulus (GPa) = 57.52370 70.45386 63.98878
# Shear Modulus (GPa) = 20.05265 29.67419 24.86342
#
# Velocity S-wave (km/s) = 3.29128 4.00377 3.66488
# Velocity P-wave (km/s) = 6.74671 7.70929 7.24400
#
# Compressibility (1/GPa) = 0.01738414
#
# Stress axis : x y z
#
# Youngs Moduli (GPa) = 49.74132 75.47101 69.54653
#
# Poissons Ratio (x) = 0.58578 0.14424
# Poissons Ratio (y) = 0.38607 0.37129
# Poissons Ratio (z) = 0.10317 0.40292
#
# Static dielectric constant tensor:
#      x y z
#    x 1.671030 0.000000 0.006730 
#    y 0.000000 1.620870 0.000000 
#    z 0.006730 0.000000 1.638070 
# 
# From -- ./inp_files/12430.got.cif
#   From: 2010.05.17/outbox.cif.g08.bks.cpg/sg13_7_cif.got.tgz:12430.got - 2010.06.03 16:44:36.
