data_PCOD9233309
_publ_section_title
;
Structure prediction by ZEFSAII (Michael W. Deem and Ramdas Pophale) SiO2 
 PCOD9233309
Probable space group: P 2/C
;
_chemical_formula_sum "Si O2"
_cell_formula_units_Z 28
_cell_length_a 20.993143
_cell_length_b 7.947843
_cell_length_c 23.732768
_cell_angle_alpha 90.000000
_cell_angle_beta 161.723376
_cell_angle_gamma 90.000000
_cell_volume 1241.818771
_symmetry_space_group_name_H-M "P 2/C"
_symmetry_group_IT_number 13
_symmetry_cell_setting 'monoclinic'
loop_
_space_group_symop_operation_xyz
x,y,z
-x,y,1/2-z
-x,-y,-z
x,-y,1/2+z
loop_
_atom_site_type_symbol
_atom_site_label
_atom_site_fract_x
_atom_site_fract_y
_atom_site_fract_z
Si Si1 0.940197 0.322616 0.081371
Si Si2 0.000000 0.558595 0.750000
Si Si3 0.792378 0.895646 0.835475
Si Si4 0.000244 0.318529 0.906557
Si Si5 0.500000 0.271874 0.750000
Si Si6 0.406423 0.974373 0.070756
Si Si7 0.209158 0.974782 0.783447
Si Si8 0.714706 0.706323 0.961165
O O1 0.698164 0.352042 0.886086
O O2 0.034486 0.481403 0.126819
O O3 0.028750 0.336769 0.218398
O O4 0.003241 0.139725 0.113023
O O5 0.803215 0.442596 0.573807
O O6 0.688191 0.896297 0.686445
O O7 0.637867 0.978355 0.749592
O O8 0.865690 0.723565 0.925824
O O9 0.000000 0.000000 0.000000
O O10 0.125202 0.275456 0.954731
O O11 0.827526 0.173842 0.758756
O O12 0.594269 0.164839 0.880924
O O13 0.302396 0.133233 0.013391
O O14 0.309798 0.945564 0.928399
O O15 0.500000 0.679396 0.750000
#
# Coordination Sequence:
#
# PCOD9233309 Si02
#       8
#     4   2   4   4   2   4   4   4
#     4  11  24  41  61  98 129 171 213 266 331 383
#     4  10  24  38  60  96 136 164 210 272 328 398
#     4  10  21  40  65  90 124 172 221 264 320 384
#     4  10  22  42  66  92 127 167 214 268 326 390
#     4  12  24  36  66  96 138 168 210 272 328 398
#     4  12  21  39  65  97 127 169 218 265 335 386
#     4  11  24  42  64  91 133 170 218 276 311 384
#     4  11  20  37  67  98 125 166 213 262 333 391
#
# _framework density 22.547573
#
# number of rings (size 3 to 8) (size 9 to 14) (size 15 to 20)
#    0.000    1.143    2.143    5.571    4.000    1.714 
#    0.000    0.000    0.000    7.714    0.000    0.000 
#    0.000    0.000    0.000    0.000    0.000    0.000 
#
# Total GULP energy -156200.601937 kJ/mol
# GULP energy per Si atom -5578.592926 kJ/mol
# Density = 2.249625 g / cm^3
# Si number density = 22.547573 Si / 1000 Ang^3
#
#
#
# Elastic Constant Matrix: (Units=GPa)
#
#
# Indices 1 2 3 4 5 6 
#
# 1 84.4873 10.1997 10.8854 0.0000 -29.3275 0.0000
# 2 10.1997 80.7787 19.1582 0.0000 -11.3087 0.0000
# 3 10.8854 19.1582 48.5463 0.0000 -28.4534 0.0000
# 4 0.0000 0.0000 0.0000 28.0699 0.0000 6.8073
# 5 -29.3275 -11.3087 -28.4534 0.0000 46.9858 0.0000
# 6 0.0000 0.0000 0.0000 6.8073 0.0000 -9.8337
#
#
#
# Elastic Compliance Matrix: (Units=1/GPa)
#
#
# Indices 1 2 3 4 5 6 
#
# 1 0.015575 -0.001243 0.003908 0.000000 0.011789 0.000000
# 2 -0.001243 0.013757 -0.005681 0.000000 -0.000905 0.000000
# 3 0.003908 -0.005681 0.035024 0.000000 0.022281 0.000000
# 4 0.000000 0.000000 0.000000 0.030504 0.000000 0.021116
# 5 0.011789 -0.000905 0.022281 0.000000 0.041916 0.000000
# 6 0.000000 0.000000 0.000000 0.021116 0.000000 -0.087074
#
#
# Mechanical properties :
#
#
# Convention : Reuss Voigt Hill
#
# Bulk Modulus (GPa) = 17.14574 32.69990 24.92282
# Shear Modulus (GPa) = 66.51063 24.61566 45.56314
#
# Velocity S-wave (km/s) = 5.43709 3.30770 4.50016
# Velocity P-wave (km/s) = 6.85833 5.39648 6.17085
#
# Compressibility (1/GPa) = 0.05832353
#
# Stress axis : x y z
#
# Youngs Moduli (GPa) = 64.20628 72.69001 28.55210
#
# Poissons Ratio (x) = 0.09035 -0.11157
# Poissons Ratio (y) = 0.07981 0.16219
# Poissons Ratio (z) = -0.25090 0.41293
#
# Static dielectric constant tensor:
#      x y z
#    x 1.828430 0.000000 -0.015050 
#    y 0.000000 1.886000 0.000000 
#    z -0.015050 0.000000 1.925380 
# 
# From -- ./inp_files/88547.got.cif
#   From: 2010.05.17/outbox.cif.g08.bks.cpg/sg13_45_cif.got.tgz:88547.got - 2010.06.03 16:44:36.
