data_PCOD9233781
_publ_section_title
;
Structure prediction by ZEFSAII (Michael W. Deem and Ramdas Pophale) SiO2 
 PCOD9233781
Probable space group: P 2/C
;
_chemical_formula_sum "Si O2"
_cell_formula_units_Z 20
_cell_length_a 7.313291
_cell_length_b 5.310821
_cell_length_c 21.726076
_cell_angle_alpha 90.000000
_cell_angle_beta 100.138560
_cell_angle_gamma 90.000000
_cell_volume 830.655169
_symmetry_space_group_name_H-M "P 2/C"
_symmetry_group_IT_number 13
_symmetry_cell_setting 'monoclinic'
loop_
_space_group_symop_operation_xyz
x,y,z
-x,y,1/2-z
-x,-y,-z
x,-y,1/2+z
loop_
_atom_site_type_symbol
_atom_site_label
_atom_site_fract_x
_atom_site_fract_y
_atom_site_fract_z
Si Si1 0.222954 0.158980 0.376818
Si Si2 0.574789 0.116358 0.857409
Si Si3 0.380411 0.746191 0.006542
Si Si4 0.324225 0.469226 0.271246
Si Si5 0.921748 0.837446 0.311307
O O1 0.217035 0.257315 0.446034
O O2 0.199682 0.349528 0.318245
O O3 0.436743 0.092212 0.374769
O O4 0.093950 0.912122 0.364301
O O5 0.437891 0.300852 0.811080
O O6 0.746132 0.015538 0.828186
O O7 0.661500 0.248959 0.923216
O O8 0.500000 0.500000 0.000000
O O9 0.500000 0.000000 0.000000
O O10 0.500000 0.327815 0.250000
O O11 0.183513 0.576389 0.211208
O O12 0.000000 0.917462 0.250000
#
# Coordination Sequence:
#
# PCOD9233781 Si02
#       5
#     4   4   4   4   4
#     4  11  23  42  68  93 133 176 227 285 347 405
#     4  10  22  44  63  95 131 174 230 280 347 405
#     4  10  21  42  73  99 131 181 237 286 345 414
#     4  10  22  40  64  93 134 175 225 282 348 415
#     4  11  24  41  61  98 135 173 223 280 342 420
#
# _framework density 24.077376999999998
#
# number of rings (size 3 to 8) (size 9 to 14) (size 15 to 20)
#    0.000    1.600    4.000    0.000    2.800    1.600 
#    3.600    0.000    0.000    6.000    0.000    0.000 
#    0.000    0.000    0.000    0.000    0.000    0.000 
#
# Total GULP energy -111387.395683 kJ/mol
# GULP energy per Si atom -5569.369784 kJ/mol
# Density = 2.402258 g / cm^3
# Si number density = 24.077377 Si / 1000 Ang^3
#
#
#
# Elastic Constant Matrix: (Units=GPa)
#
#
# Indices 1 2 3 4 5 6 
#
# 1 139.5033 20.5254 35.2815 0.0000 -5.4880 0.0000
# 2 20.5254 68.3000 29.9443 0.0000 4.4710 0.0000
# 3 35.2815 29.9443 88.1541 0.0000 8.5784 0.0000
# 4 0.0000 0.0000 0.0000 32.7209 0.0000 -12.7466
# 5 -5.4880 4.4710 8.5784 0.0000 22.1808 0.0000
# 6 0.0000 0.0000 0.0000 -12.7466 0.0000 184.6857
#
#
#
# Elastic Compliance Matrix: (Units=1/GPa)
#
#
# Indices 1 2 3 4 5 6 
#
# 1 0.008320 -0.001318 -0.003230 0.000000 0.003573 0.000000
# 2 -0.001318 0.017446 -0.005221 0.000000 -0.001823 0.000000
# 3 -0.003230 -0.005221 0.014948 0.000000 -0.005528 0.000000
# 4 0.000000 0.000000 0.000000 0.031406 0.000000 0.002168
# 5 0.003573 -0.001823 -0.005528 0.000000 0.048474 0.000000
# 6 0.000000 0.000000 0.000000 0.002168 0.000000 0.005564
#
#
# Mechanical properties :
#
#
# Convention : Reuss Voigt Hill
#
# Bulk Modulus (GPa) = 47.22440 51.93998 49.58219
# Shear Modulus (GPa) = 32.73257 61.93123 47.33190
#
# Velocity S-wave (km/s) = 3.69110 5.07716 4.43857
# Velocity P-wave (km/s) = 6.14995 7.48258 6.84876
#
# Compressibility (1/GPa) = 0.02117549
#
# Stress axis : x y z
#
# Youngs Moduli (GPa) = 120.19787 57.32049 66.89961
#
# Poissons Ratio (x) = 0.07556 0.21607
# Poissons Ratio (y) = 0.15844 0.34928
# Poissons Ratio (z) = 0.38820 0.29927
#
# Static dielectric constant tensor:
#      x y z
#    x 1.918210 0.000000 0.023460 
#    y 0.000000 2.019490 0.000000 
#    z 0.023460 0.000000 2.085540 
# 
# From -- ./inp_files/84035.got.cif
#   From: 2010.05.17/outbox.cif.g08.bks.cpg/sg13_43_cif.got.tgz:84035.got - 2010.06.03 16:44:36.
