data_PCOD9233822
_publ_section_title
;
Structure prediction by ZEFSAII (Michael W. Deem and Ramdas Pophale) SiO2 
 PCOD9233822
Probable space group: P 2/C
;
_chemical_formula_sum "Si O2"
_cell_formula_units_Z 12
_cell_length_a 19.354787
_cell_length_b 5.330360
_cell_length_c 14.689805
_cell_angle_alpha 90.000000
_cell_angle_beta 163.062407
_cell_angle_gamma 90.000000
_cell_volume 441.515600
_symmetry_space_group_name_H-M "P 2/C"
_symmetry_group_IT_number 13
_symmetry_cell_setting 'monoclinic'
loop_
_space_group_symop_operation_xyz
x,y,z
-x,y,1/2-z
-x,-y,-z
x,-y,1/2+z
loop_
_atom_site_type_symbol
_atom_site_label
_atom_site_fract_x
_atom_site_fract_y
_atom_site_fract_z
Si Si1 0.024580 0.885584 0.930391
Si Si2 0.397125 0.020606 0.741179
Si Si3 0.650028 0.482880 0.598171
O O1 0.250647 0.978722 0.153435
O O2 0.090960 0.594744 0.035811
O O3 0.806057 0.939932 0.589676
O O4 0.000000 0.000000 0.000000
O O5 0.574400 0.258563 0.956473
O O6 0.537904 0.760372 0.907419
O O7 0.500000 0.500000 0.500000
#
# Coordination Sequence:
#
# PCOD9233822 Si02
#       3
#     4   4   4
#     4  10  22  41  67  98 127 168 222 270 319 391
#     4  10  23  43  66  92 132 173 210 267 335 385
#     4  10  21  43  66  91 130 173 210 266 332 387
#
# _framework density 27.179107999999999
#
# number of rings (size 3 to 8) (size 9 to 14) (size 15 to 20)
#    0.000    2.000    0.000    4.000    0.000   14.667 
#    0.000   33.333    0.000    0.000    0.000    0.000 
#    0.000    0.000    0.000    0.000    0.000    0.000 
#
# Total GULP energy -67103.318330 kJ/mol
# GULP energy per Si atom -5591.943194 kJ/mol
# Density = 2.711725 g / cm^3
# Si number density = 27.179108 Si / 1000 Ang^3
#
#
#
# Elastic Constant Matrix: (Units=GPa)
#
#
# Indices 1 2 3 4 5 6 
#
# 1 175.3281 22.9599 10.7551 0.0000 -31.2301 0.0000
# 2 22.9599 211.9399 103.7860 0.0000 -7.2527 0.0000
# 3 10.7551 103.7860 222.2298 0.0000 -29.5022 0.0000
# 4 0.0000 0.0000 0.0000 51.9229 0.0000 15.4911
# 5 -31.2301 -7.2527 -29.5022 0.0000 28.0517 0.0000
# 6 0.0000 0.0000 0.0000 15.4911 0.0000 48.7421
#
#
#
# Elastic Compliance Matrix: (Units=1/GPa)
#
#
# Indices 1 2 3 4 5 6 
#
# 1 0.007472 -0.001201 0.001467 0.000000 0.009552 0.000000
# 2 -0.001201 0.006377 -0.003346 0.000000 -0.003207 0.000000
# 3 0.001467 -0.003346 0.007082 0.000000 0.008217 0.000000
# 4 0.000000 0.000000 0.000000 0.021277 0.000000 -0.006762
# 5 0.009552 -0.003207 0.008217 0.000000 0.054095 0.000000
# 6 0.000000 0.000000 0.000000 -0.006762 0.000000 0.022665
#
#
# Mechanical properties :
#
#
# Convention : Reuss Voigt Hill
#
# Bulk Modulus (GPa) = 67.69470 98.27773 82.98622
# Shear Modulus (GPa) = 38.44606 57.20980 47.82793
#
# Velocity S-wave (km/s) = 3.76512 4.59292 4.19947
# Velocity P-wave (km/s) = 6.62288 8.02274 7.35618
#
# Compressibility (1/GPa) = 0.01477221
#
# Stress axis : x y z
#
# Youngs Moduli (GPa) = 133.82871 156.80905 141.19662
#
# Poissons Ratio (x) = 0.18836 -0.20719
# Poissons Ratio (y) = 0.16075 0.47244
# Poissons Ratio (z) = -0.19638 0.52468
#
# Static dielectric constant tensor:
#      x y z
#    x 2.177790 0.000000 0.078510 
#    y 0.000000 2.220550 0.000000 
#    z 0.078510 0.000000 2.204200 
# 
# From -- ./inp_files/44673.got.cif
#   From: 2010.05.17/outbox.cif.g08.bks.cpg/sg13_23_cif.got.tgz:44673.got - 2010.06.03 16:44:36.
