data_PCOD9233597
_publ_section_title
;
Structure prediction by ZEFSAII (Michael W. Deem and Ramdas Pophale) SiO2 
 PCOD9233597
Probable space group: P 2/C
;
_chemical_formula_sum "Si O2"
_cell_formula_units_Z 28
_cell_length_a 11.441478
_cell_length_b 20.823257
_cell_length_c 5.170516
_cell_angle_alpha 90.000000
_cell_angle_beta 103.410502
_cell_angle_gamma 90.000000
_cell_volume 1198.280512
_symmetry_space_group_name_H-M "P 2/C"
_symmetry_group_IT_number 13
_symmetry_cell_setting 'monoclinic'
loop_
_space_group_symop_operation_xyz
x,y,z
-x,y,1/2-z
-x,-y,-z
x,-y,1/2+z
loop_
_atom_site_type_symbol
_atom_site_label
_atom_site_fract_x
_atom_site_fract_y
_atom_site_fract_z
Si Si1 0.858595 0.785351 0.641950
Si Si2 0.780062 0.142295 0.603797
Si Si3 0.247159 0.348778 0.316473
Si Si4 0.618555 0.442065 0.709959
Si Si5 0.000000 0.955803 0.250000
Si Si6 0.500000 0.344394 0.250000
Si Si7 0.641455 0.032868 0.767135
Si Si8 0.156775 0.533297 0.463340
O O1 0.811920 0.806010 0.338346
O O2 0.836961 0.709508 0.651397
O O3 0.000000 0.800533 0.750000
O O4 0.786668 0.824283 0.828269
O O5 0.666114 0.101234 0.645218
O O6 0.885357 0.089911 0.677141
O O7 0.294463 0.397296 0.563897
O O8 0.371852 0.315939 0.276711
O O9 0.170690 0.395319 0.083138
O O10 0.500000 0.477634 0.750000
O O11 0.548419 0.387607 0.506873
O O12 0.701534 0.478904 0.539049
O O13 0.000000 0.000000 0.500000
O O14 0.500000 0.025124 0.750000
O O15 0.691235 0.981297 0.581121
O O16 0.108271 0.515116 0.156826
#
# Coordination Sequence:
#
# PCOD9233597 Si02
#       8
#     4   4   4   4   2   2   4   4
#     4  12  26  46  67  91 132 172 222 288 315 395
#     4  12  24  44  64 102 136 167 227 270 319 379
#     4  10  22  40  64  86 128 170 216 253 349 373
#     4   9  18  35  54  87 122 159 205 253 315 404
#     4  12  22  38  70  98 136 172 204 264 336 372
#     4   8  18  36  58  88 124 158 216 256 304 414
#     4  10  21  41  69  99 139 180 217 258 313 383
#     4  11  21  35  57  90 123 159 207 266 318 398
#
# _framework density 23.366817999999999
#
# number of rings (size 3 to 8) (size 9 to 14) (size 15 to 20)
#    0.000    1.429    2.857    2.571    4.000    0.571 
#    3.857    0.000    0.000    0.857    0.000    0.000 
#    0.000    0.000    0.000    0.000    0.000    0.000 
#
# Total GULP energy -156152.775532 kJ/mol
# GULP energy per Si atom -5576.884840 kJ/mol
# Density = 2.331363 g / cm^3
# Si number density = 23.366818 Si / 1000 Ang^3
#
#
#
# Elastic Constant Matrix: (Units=GPa)
#
#
# Indices 1 2 3 4 5 6 
#
# 1 42.7766 12.9548 28.5657 0.0000 -11.7551 0.0000
# 2 12.9548 105.2148 31.9997 0.0000 -15.4861 0.0000
# 3 28.5657 31.9997 118.1062 0.0000 -21.6209 0.0000
# 4 0.0000 0.0000 0.0000 -9.8998 0.0000 -4.5764
# 5 -11.7551 -15.4861 -21.6209 0.0000 38.2631 0.0000
# 6 0.0000 0.0000 0.0000 -4.5764 0.0000 37.3876
#
#
#
# Elastic Compliance Matrix: (Units=1/GPa)
#
#
# Indices 1 2 3 4 5 6 
#
# 1 0.028982 -0.001045 -0.005771 0.000000 0.005220 0.000000
# 2 -0.001045 0.010694 -0.002132 0.000000 0.002803 0.000000
# 3 -0.005771 -0.002132 0.011107 0.000000 0.003640 0.000000
# 4 0.000000 0.000000 0.000000 -0.095603 0.000000 -0.011702
# 5 0.005220 0.002803 0.003640 0.000000 0.030930 0.000000
# 6 0.000000 0.000000 0.000000 -0.011702 0.000000 0.025314
#
#
# Mechanical properties :
#
#
# Convention : Reuss Voigt Hill
#
# Bulk Modulus (GPa) = 30.40684 45.90420 38.15552
# Shear Modulus (GPa) = 124.12700 25.98868 75.05784
#
# Velocity S-wave (km/s) = 7.29633 3.33859 5.67374
# Velocity P-wave (km/s) = 9.16640 5.87786 7.69975
#
# Compressibility (1/GPa) = 0.03288733
#
# Stress axis : x y z
#
# Youngs Moduli (GPa) = 34.50415 93.51195 90.03581
#
# Poissons Ratio (x) = 0.09772 0.51960
# Poissons Ratio (y) = 0.03606 0.19192
# Poissons Ratio (z) = 0.19912 0.19933
#
# Static dielectric constant tensor:
#      x y z
#    x 2.118240 0.000000 0.006540 
#    y 0.000000 1.847540 0.000000 
#    z 0.006540 0.000000 2.254330 
# 
# From -- ./inp_files/3959.got.cif
#   From: 2010.05.17/outbox.cif.g08.bks.cpg/sg13_2_cif.got.tgz:3959.got - 2010.06.03 16:44:36.
