data_PCOD9233169
_publ_section_title
;
Structure prediction by ZEFSAII (Michael W. Deem and Ramdas Pophale) SiO2 
 PCOD9233169
Probable space group: P 2/C
;
_chemical_formula_sum "Si O2"
_cell_formula_units_Z 28
_cell_length_a 11.575379
_cell_length_b 5.817651
_cell_length_c 18.359585
_cell_angle_alpha 90.000000
_cell_angle_beta 80.124299
_cell_angle_gamma 90.000000
_cell_volume 1218.042045
_symmetry_space_group_name_H-M "P 2/C"
_symmetry_group_IT_number 13
_symmetry_cell_setting 'monoclinic'
loop_
_space_group_symop_operation_xyz
x,y,z
-x,y,1/2-z
-x,-y,-z
x,-y,1/2+z
loop_
_atom_site_type_symbol
_atom_site_label
_atom_site_fract_x
_atom_site_fract_y
_atom_site_fract_z
Si Si1 0.425946 0.120695 0.600412
Si Si2 0.583017 0.772612 0.675553
Si Si3 0.035736 0.032645 0.666199
Si Si4 0.222891 0.133905 0.846338
Si Si5 0.642083 0.392151 0.548451
Si Si6 0.768703 0.608908 0.297457
Si Si7 0.762860 0.242675 0.408045
O O1 0.502578 0.959711 0.643786
O O2 0.332133 0.958202 0.571412
O O3 0.516410 0.274373 0.544971
O O4 0.349494 0.280817 0.659760
O O5 0.500000 0.679985 0.750000
O O6 0.616906 0.591673 0.609163
O O7 0.698139 0.916797 0.687645
O O8 0.110369 0.870877 0.604815
O O9 0.000000 0.931721 0.750000
O O10 0.120410 0.249044 0.679896
O O11 0.914502 0.085830 0.639799
O O12 0.276125 0.211757 0.916826
O O13 0.233527 0.342696 0.787514
O O14 0.719271 0.438841 0.468369
O O15 0.764076 0.352322 0.327520
#
# Coordination Sequence:
#
# PCOD9233169 Si02
#       7
#     4   4   4   4   4   4   4
#     4  10  22  41  64  90 134 172 211 253 319 379
#     4  11  23  39  66  94 128 169 217 264 320 382
#     4   9  22  43  66  91 122 166 224 272 317 375
#     4  10  23  43  65  93 127 170 219 270 322 375
#     4  11  26  38  64 100 135 171 212 262 326 385
#     4  10  21  39  68  93 121 167 224 266 316 373
#     4  11  24  42  66  97 132 172 213 266 321 387
#
# _framework density 22.987711999999998
#
# number of rings (size 3 to 8) (size 9 to 14) (size 15 to 20)
#    0.000    1.714    1.429    1.286    4.000   10.286 
#    0.000    1.429    0.000    0.000    0.000    0.000 
#    0.000    0.000    0.000    0.000    0.000    0.000 
#
# Total GULP energy -156401.895824 kJ/mol
# GULP energy per Si atom -5585.781994 kJ/mol
# Density = 2.293539 g / cm^3
# Si number density = 22.987712 Si / 1000 Ang^3
#
#
#
# Elastic Constant Matrix: (Units=GPa)
#
#
# Indices 1 2 3 4 5 6 
#
# 1 133.5489 25.1639 45.9219 0.0000 -26.1431 0.0000
# 2 25.1639 52.3969 28.9166 0.0000 -7.5062 0.0000
# 3 45.9219 28.9166 97.8877 0.0000 -19.6895 0.0000
# 4 0.0000 0.0000 0.0000 29.2569 0.0000 -1.7933
# 5 -26.1431 -7.5062 -19.6895 0.0000 27.2223 0.0000
# 6 0.0000 0.0000 0.0000 -1.7933 0.0000 9.3495
#
#
#
# Elastic Compliance Matrix: (Units=1/GPa)
#
#
# Indices 1 2 3 4 5 6 
#
# 1 0.010282 -0.002438 -0.002636 0.000000 0.007295 0.000000
# 2 -0.002438 0.023445 -0.005796 0.000000 -0.000069 0.000000
# 3 -0.002636 -0.005796 0.014434 0.000000 0.006310 0.000000
# 4 0.000000 0.000000 0.000000 0.034587 0.000000 0.006634
# 5 0.007295 -0.000069 0.006310 0.000000 0.048286 0.000000
# 6 0.000000 0.000000 0.000000 0.006634 0.000000 0.108230
#
#
# Mechanical properties :
#
#
# Convention : Reuss Voigt Hill
#
# Bulk Modulus (GPa) = 37.84896 53.75982 45.80439
# Shear Modulus (GPa) = 18.53165 25.42116 21.97640
#
# Velocity S-wave (km/s) = 2.84237 3.32905 3.09529
# Velocity P-wave (km/s) = 5.22232 6.18174 5.72217
#
# Compressibility (1/GPa) = 0.02642081
#
# Stress axis : x y z
#
# Youngs Moduli (GPa) = 97.25948 42.65351 69.28229
#
# Poissons Ratio (x) = 0.10399 0.18261
# Poissons Ratio (y) = 0.23713 0.40154
# Poissons Ratio (z) = 0.25636 0.24721
#
# Static dielectric constant tensor:
#      x y z
#    x 1.834400 0.000000 0.012130 
#    y 0.000000 1.941610 0.000000 
#    z 0.012130 0.000000 1.878860 
# 
# From -- ./inp_files/77471.got.cif
#   From: 2010.05.17/outbox.cif.g08.bks.cpg/sg13_39_cif.got.tgz:77471.got - 2010.06.03 16:44:36.
