data_PCOD9233531
_publ_section_title
;
Structure prediction by ZEFSAII (Michael W. Deem and Ramdas Pophale) SiO2 
 PCOD9233531
Probable space group: P 2/C
;
_chemical_formula_sum "Si O2"
_cell_formula_units_Z 18
_cell_length_a 21.004053
_cell_length_b 5.062578
_cell_length_c 11.787348
_cell_angle_alpha 90.000000
_cell_angle_beta 37.153505
_cell_angle_gamma 90.000000
_cell_volume 756.996288
_symmetry_space_group_name_H-M "P 2/C"
_symmetry_group_IT_number 13
_symmetry_cell_setting 'monoclinic'
loop_
_space_group_symop_operation_xyz
x,y,z
-x,y,1/2-z
-x,-y,-z
x,-y,1/2+z
loop_
_atom_site_type_symbol
_atom_site_label
_atom_site_fract_x
_atom_site_fract_y
_atom_site_fract_z
Si Si1 0.115473 0.011875 0.780226
Si Si2 0.164923 0.515916 0.849402
Si Si3 0.457670 0.250830 0.926005
Si Si4 0.361381 0.738641 0.145339
Si Si5 0.000000 0.758762 0.250000
O O1 0.162943 0.276017 0.764222
O O2 0.088530 0.059553 0.686251
O O3 0.177340 0.767139 0.747321
O O4 0.000000 0.000000 0.000000
O O5 0.249681 0.403930 0.819878
O O6 0.059493 0.580862 0.071644
O O7 0.500000 0.137828 0.750000
O O8 0.558828 0.280926 0.863144
O O9 0.409197 0.541371 0.982289
O O10 0.372603 0.044895 0.096945
#
# Coordination Sequence:
#
# PCOD9233531 Si02
#       5
#     4   4   4   4   2
#     4  10  22  39  59  86 123 165 212 260 304 363
#     4  11  23  40  62  93 127 164 212 260 308 372
#     4  10  21  41  66  91 126 165 200 254 322 375
#     4  10  22  40  63  95 127 157 208 261 303 375
#     4  10  22  40  64  88 130 178 212 256 320 372
#
# _framework density 23.778189999999999
#
# number of rings (size 3 to 8) (size 9 to 14) (size 15 to 20)
#    0.000    1.778    0.000    4.667    0.000    9.778 
#    0.000   13.333    0.000    0.000    0.000    0.000 
#    0.000    0.000    0.000    0.000    0.000    0.000 
#
# Total GULP energy -100343.461718 kJ/mol
# GULP energy per Si atom -5574.636762 kJ/mol
# Density = 2.372407 g / cm^3
# Si number density = 23.778190 Si / 1000 Ang^3
#
#
#
# Elastic Constant Matrix: (Units=GPa)
#
#
# Indices 1 2 3 4 5 6 
#
# 1 80.5123 84.8471 11.3911 0.0000 -21.4973 0.0000
# 2 84.8471 172.9627 13.0397 0.0000 -6.9228 0.0000
# 3 11.3911 13.0397 24.9271 0.0000 -3.6923 0.0000
# 4 0.0000 0.0000 0.0000 28.2826 0.0000 -26.6033
# 5 -21.4973 -6.9228 -3.6923 0.0000 34.4706 0.0000
# 6 0.0000 0.0000 0.0000 -26.6033 0.0000 59.2164
#
#
#
# Elastic Compliance Matrix: (Units=1/GPa)
#
#
# Indices 1 2 3 4 5 6 
#
# 1 0.034670 -0.015925 -0.004861 0.000000 0.017903 0.000000
# 2 -0.015925 0.013360 -0.000798 0.000000 -0.007334 0.000000
# 3 -0.004861 -0.000798 0.042965 0.000000 0.001410 0.000000
# 4 0.000000 0.000000 0.000000 0.061233 0.000000 0.027509
# 5 0.017903 -0.007334 0.001410 0.000000 0.038853 0.000000
# 6 0.000000 0.000000 0.000000 0.027509 0.000000 0.029246
#
#
# Mechanical properties :
#
#
# Convention : Reuss Voigt Hill
#
# Bulk Modulus (GPa) = 20.90843 55.21756 38.06299
# Shear Modulus (GPa) = 17.89302 35.66887 26.78095
#
# Velocity S-wave (km/s) = 2.74614 3.87727 3.35965
# Velocity P-wave (km/s) = 4.34365 6.58154 5.57602
#
# Compressibility (1/GPa) = 0.04782761
#
# Stress axis : x y z
#
# Youngs Moduli (GPa) = 28.84304 74.85005 23.27483
#
# Poissons Ratio (x) = 1.19195 0.11315
# Poissons Ratio (y) = 0.45931 0.01857
# Poissons Ratio (z) = 0.14022 0.05973
#
# Static dielectric constant tensor:
#      x y z
#    x 2.005210 0.000000 -0.026760 
#    y 0.000000 1.889800 0.000000 
#    z -0.026760 0.000000 1.961940 
# 
# From -- ./inp_files/39612.got.cif
#   From: 2010.05.17/outbox.cif.g08.bks.cpg/sg13_20_cif.got.tgz:39612.got - 2010.06.03 16:44:36.
