data_PCOD9233016
_publ_section_title
;
Structure prediction by ZEFSAII (Michael W. Deem and Ramdas Pophale) SiO2 
 PCOD9233016
Probable space group: P 2/C
;
_chemical_formula_sum "Si O2"
_cell_formula_units_Z 26
_cell_length_a 14.091150
_cell_length_b 7.525245
_cell_length_c 12.065636
_cell_angle_alpha 90.000000
_cell_angle_beta 83.279040
_cell_angle_gamma 90.000000
_cell_volume 1270.639889
_symmetry_space_group_name_H-M "P 2/C"
_symmetry_group_IT_number 13
_symmetry_cell_setting 'monoclinic'
loop_
_space_group_symop_operation_xyz
x,y,z
-x,y,1/2-z
-x,-y,-z
x,-y,1/2+z
loop_
_atom_site_type_symbol
_atom_site_label
_atom_site_fract_x
_atom_site_fract_y
_atom_site_fract_z
Si Si1 0.701520 0.722272 0.671071
Si Si2 0.000000 0.891372 0.750000
Si Si3 0.734673 0.350291 0.595670
Si Si4 0.750013 0.142284 0.922427
Si Si5 0.389300 0.079720 0.756078
Si Si6 0.176965 0.250628 0.129911
Si Si7 0.899854 0.247177 0.730524
O O1 0.676871 0.517883 0.651605
O O2 0.734127 0.791829 0.547233
O O3 0.784036 0.718625 0.752220
O O4 0.627100 0.868045 0.726322
O O5 0.062865 0.771969 0.658704
O O6 0.071715 0.038414 0.796450
O O7 0.672335 0.180018 0.640713
O O8 0.765702 0.373396 0.463979
O O9 0.837370 0.326794 0.641654
O O10 0.657510 0.138753 0.854499
O O11 0.831197 0.249709 0.845840
O O12 0.789067 0.942297 0.916662
O O13 0.500000 0.122954 0.750000
O O14 0.000000 0.334037 0.750000
#
# Coordination Sequence:
#
# PCOD9233016 Si02
#       7
#     4   2   4   4   4   4   4
#     4  11  24  41  63  92 127 166 211 263 316 380
#     4   8  18  36  62  88 128 166 224 256 300 370
#     4  11  23  40  66  89 131 170 210 262 322 373
#     4   9  19  39  64  85 127 165 206 258 316 369
#     4  10  23  44  68  94 123 163 213 264 324 383
#     4  10  21  39  62  92 124 175 212 254 321 368
#     4   8  18  35  61  90 120 172 209 258 304 362
#
# _framework density 20.462132
#
# number of rings (size 3 to 8) (size 9 to 14) (size 15 to 20)
#    0.462    1.846    1.538    0.923    4.308    3.077 
#    1.385    2.308    0.000    0.000    0.000    0.000 
#    0.000    0.000    0.000    0.000    0.000    0.000 
#
# Total GULP energy -144822.793885 kJ/mol
# GULP energy per Si atom -5570.107457 kJ/mol
# Density = 2.041556 g / cm^3
# Si number density = 20.462132 Si / 1000 Ang^3
#
#
#
# Elastic Constant Matrix: (Units=GPa)
#
#
# Indices 1 2 3 4 5 6 
#
# 1 121.0790 11.7322 41.1323 0.0000 -2.8519 0.0000
# 2 11.7322 73.4320 7.2312 0.0000 -1.1561 0.0000
# 3 41.1323 7.2312 115.4514 0.0000 5.9153 0.0000
# 4 0.0000 0.0000 0.0000 6.1965 0.0000 14.5571
# 5 -2.8519 -1.1561 5.9153 0.0000 5.6283 0.0000
# 6 0.0000 0.0000 0.0000 14.5571 0.0000 -9.2844
#
#
#
# Elastic Compliance Matrix: (Units=1/GPa)
#
#
# Indices 1 2 3 4 5 6 
#
# 1 0.009903 -0.001056 -0.003919 0.000000 0.008920 0.000000
# 2 -0.001056 0.013898 -0.000648 0.000000 0.003001 0.000000
# 3 -0.003919 -0.000648 0.010788 0.000000 -0.013457 0.000000
# 4 0.000000 0.000000 0.000000 0.034458 0.000000 0.054027
# 5 0.008920 0.003001 -0.013457 0.000000 0.196954 0.000000
# 6 0.000000 0.000000 0.000000 0.054027 0.000000 -0.022998
#
#
# Mechanical properties :
#
#
# Convention : Reuss Voigt Hill
#
# Bulk Modulus (GPa) = 42.83975 47.79487 45.31731
# Shear Modulus (GPa) = 19.08185 17.16586 18.12386
#
# Velocity S-wave (km/s) = 3.05707 2.89953 2.97934
# Velocity P-wave (km/s) = 5.78295 5.88372 5.83355
#
# Compressibility (1/GPa) = 0.02334281
#
# Stress axis : x y z
#
# Youngs Moduli (GPa) = 100.98136 71.95387 92.69593
#
# Poissons Ratio (x) = 0.07597 0.36328
# Poissons Ratio (y) = 0.10662 0.06007
# Poissons Ratio (z) = 0.39575 0.04663
#
# Static dielectric constant tensor:
#      x y z
#    x 1.702120 0.000000 -0.004070 
#    y 0.000000 1.814610 0.000000 
#    z -0.004070 0.000000 1.740050 
# 
# From -- ./inp_files/35905.got.cif
#   From: 2010.05.17/outbox.cif.g08.bks.cpg/sg13_18_cif.got.tgz:35905.got - 2010.06.03 16:44:36.
