data_PCOD9233188
_publ_section_title
;
Structure prediction by ZEFSAII (Michael W. Deem and Ramdas Pophale) SiO2 
 PCOD9233188
Probable space group: P 2/C
;
_chemical_formula_sum "Si O2"
_cell_formula_units_Z 24
_cell_length_a 11.665009
_cell_length_b 7.319840
_cell_length_c 11.957726
_cell_angle_alpha 90.000000
_cell_angle_beta 101.485204
_cell_angle_gamma 90.000000
_cell_volume 1000.577594
_symmetry_space_group_name_H-M "P 2/C"
_symmetry_group_IT_number 13
_symmetry_cell_setting 'monoclinic'
loop_
_space_group_symop_operation_xyz
x,y,z
-x,y,1/2-z
-x,-y,-z
x,-y,1/2+z
loop_
_atom_site_type_symbol
_atom_site_label
_atom_site_fract_x
_atom_site_fract_y
_atom_site_fract_z
Si Si1 0.702838 0.263273 0.526738
Si Si2 0.500000 0.112193 0.750000
Si Si3 0.463070 0.753926 0.867020
Si Si4 0.774420 0.892584 0.632047
Si Si5 0.000000 0.731863 0.750000
Si Si6 0.120193 0.489454 0.088137
Si Si7 0.256431 0.212019 0.718020
O O1 0.567020 0.294231 0.471168
O O2 0.782784 0.374857 0.458182
O O3 0.734767 0.312463 0.660199
O O4 0.736330 0.046061 0.533728
O O5 0.386601 0.222480 0.696302
O O6 0.471627 0.974010 0.845682
O O7 0.500000 0.679501 0.750000
O O8 0.328320 0.740225 0.879898
O O9 0.910082 0.838132 0.651181
O O10 0.771053 0.004959 0.750393
O O11 0.911518 0.609958 0.803444
O O12 0.166443 0.691047 0.121855
O O13 0.000000 0.500000 0.000000
#
# Coordination Sequence:
#
# PCOD9233188 Si02
#       7
#     4   2   4   4   2   4   4
#     4  10  21  39  71  93 128 169 215 274 330 381
#     4   8  18  36  70  92 134 164 206 276 326 398
#     4   9  16  36  66 102 127 154 207 280 331 370
#     4   9  22  39  70  93 125 163 221 281 312 387
#     4  12  26  44  64  96 124 174 226 268 320 384
#     4  12  27  44  63  92 139 182 213 265 329 404
#     4   9  22  44  64  94 133 168 213 266 336 388
#
# _framework density 23.986143999999999
#
# number of rings (size 3 to 8) (size 9 to 14) (size 15 to 20)
#    1.500    0.667    0.000    2.500    2.333    2.000 
#    4.500    0.833    0.000    0.000    0.000    0.000 
#    0.000    0.000    0.000    0.000    0.000    0.000 
#
# Total GULP energy -133966.533816 kJ/mol
# GULP energy per Si atom -5581.938909 kJ/mol
# Density = 2.393155 g / cm^3
# Si number density = 23.986144 Si / 1000 Ang^3
#
#
#
# Elastic Constant Matrix: (Units=GPa)
#
#
# Indices 1 2 3 4 5 6 
#
# 1 133.1725 26.7478 19.0008 0.0000 31.1753 0.0000
# 2 26.7478 43.8383 3.4862 0.0000 10.9798 0.0000
# 3 19.0008 3.4862 64.3074 0.0000 26.1050 0.0000
# 4 0.0000 0.0000 0.0000 25.0529 0.0000 10.0612
# 5 31.1753 10.9798 26.1050 0.0000 50.8229 0.0000
# 6 0.0000 0.0000 0.0000 10.0612 0.0000 98.0178
#
#
#
# Elastic Compliance Matrix: (Units=1/GPa)
#
#
# Indices 1 2 3 4 5 6 
#
# 1 0.009609 -0.004677 -0.000762 0.000000 -0.004492 0.000000
# 2 -0.004677 0.026446 0.001393 0.000000 -0.003560 0.000000
# 3 -0.000762 0.001393 0.019751 0.000000 -0.009978 0.000000
# 4 0.000000 0.000000 0.000000 0.041632 0.000000 -0.004273
# 5 -0.004492 -0.003560 -0.009978 0.000000 0.028326 0.000000
# 6 0.000000 0.000000 0.000000 -0.004273 0.000000 0.010641
#
#
# Mechanical properties :
#
#
# Convention : Reuss Voigt Hill
#
# Bulk Modulus (GPa) = 20.95825 37.75422 29.35623
# Shear Modulus (GPa) = 31.17216 47.58428 39.37822
#
# Velocity S-wave (km/s) = 3.60889 4.45885 4.05619
# Velocity P-wave (km/s) = 5.11098 6.50251 5.84828
#
# Compressibility (1/GPa) = 0.04771392
#
# Stress axis : x y z
#
# Youngs Moduli (GPa) = 104.07134 37.81347 50.63154
#
# Poissons Ratio (x) = 0.17685 0.03858
# Poissons Ratio (y) = 0.48674 -0.07055
# Poissons Ratio (z) = 0.07929 -0.05269
#
# Static dielectric constant tensor:
#      x y z
#    x 1.901420 0.000000 -0.020550 
#    y 0.000000 2.019380 0.000000 
#    z -0.020550 0.000000 1.967750 
# 
# From -- ./inp_files/32725.got.cif
#   From: 2010.05.17/outbox.cif.g08.bks.cpg/sg13_17_cif.got.tgz:32725.got - 2010.06.03 16:44:36.
