data_PCOD9233312
_publ_section_title
;
Structure prediction by ZEFSAII (Michael W. Deem and Ramdas Pophale) SiO2 
 PCOD9233312
Probable space group: P 2/C
;
_chemical_formula_sum "Si O2"
_cell_formula_units_Z 32
_cell_length_a 14.118399
_cell_length_b 21.498595
_cell_length_c 8.880137
_cell_angle_alpha 90.000000
_cell_angle_beta 145.187665
_cell_angle_gamma 90.000000
_cell_volume 1538.749368
_symmetry_space_group_name_H-M "P 2/C"
_symmetry_group_IT_number 13
_symmetry_cell_setting 'monoclinic'
loop_
_space_group_symop_operation_xyz
x,y,z
-x,y,1/2-z
-x,-y,-z
x,-y,1/2+z
loop_
_atom_site_type_symbol
_atom_site_label
_atom_site_fract_x
_atom_site_fract_y
_atom_site_fract_z
Si Si1 0.819368 0.442848 0.009605
Si Si2 0.164384 0.818823 0.893769
Si Si3 0.435973 0.326821 0.491318
Si Si4 0.628794 0.465544 0.043280
Si Si5 0.219186 0.303917 0.662937
Si Si6 0.678390 0.937886 0.435101
Si Si7 0.118983 0.970695 0.526628
Si Si8 0.924214 0.738558 0.990537
O O1 0.699815 0.485001 0.751130
O O2 0.817760 0.372158 0.951081
O O3 0.771715 0.441477 0.120891
O O4 0.000000 0.472012 0.250000
O O5 0.000000 0.850404 0.750000
O O6 0.123764 0.798143 0.672073
O O7 0.186651 0.753701 0.008630
O O8 0.313860 0.866738 0.111491
O O9 0.435090 0.401393 0.469528
O O10 0.578879 0.302333 0.563837
O O11 0.500000 0.315945 0.750000
O O12 0.249952 0.300113 0.228585
O O13 0.500000 0.491386 0.750000
O O14 0.081055 0.294836 0.611931
O O15 0.500000 0.963144 0.250000
O O16 0.773754 0.980728 0.436381
O O17 0.764713 0.932631 0.711570
O O18 0.000000 0.000000 0.500000
O O19 0.000000 0.938008 0.250000
O O20 0.000000 0.754556 0.250000
#
# Coordination Sequence:
#
# PCOD9233312 Si02
#       8
#     4   4   4   4   4   4   4   4
#     4  12  23  40  62  89 121 162 209 268 332 398
#     4  10  21  40  65  91 122 175 222 257 310 402
#     4  11  21  40  69  87 122 165 215 256 328 413
#     4  11  23  39  58  89 121 156 201 264 327 401
#     4  11  23  43  70  88 123 175 221 262 325 408
#     4  11  22  36  66 101 132 168 222 271 312 366
#     4   9  19  38  61  91 134 180 213 252 317 375
#     4  11  25  42  63  97 129 160 216 279 335 375
#
# _framework density 20.796109999999999
#
# number of rings (size 3 to 8) (size 9 to 14) (size 15 to 20)
#    0.000    1.250    3.750    4.125    1.750    2.500 
#    0.000    1.250    0.000    0.000    0.000    0.000 
#    0.000    0.000    0.000    0.000    0.000    0.000 
#
# Total GULP energy -178192.596665 kJ/mol
# GULP energy per Si atom -5568.518646 kJ/mol
# Density = 2.074878 g / cm^3
# Si number density = 20.796110 Si / 1000 Ang^3
#
#
#
# Elastic Constant Matrix: (Units=GPa)
#
#
# Indices 1 2 3 4 5 6 
#
# 1 119.1949 26.6745 30.2979 0.0000 22.4441 0.0000
# 2 26.6745 65.2700 13.6218 0.0000 -2.5049 0.0000
# 3 30.2979 13.6218 84.9589 0.0000 11.5606 0.0000
# 4 0.0000 0.0000 0.0000 21.2059 0.0000 4.9477
# 5 22.4441 -2.5049 11.5606 0.0000 39.3047 0.0000
# 6 0.0000 0.0000 0.0000 4.9477 0.0000 13.5806
#
#
#
# Elastic Compliance Matrix: (Units=1/GPa)
#
#
# Indices 1 2 3 4 5 6 
#
# 1 0.011069 -0.004233 -0.002471 0.000000 -0.005864 0.000000
# 2 -0.004233 0.017598 -0.001868 0.000000 0.004088 0.000000
# 3 -0.002471 -0.001868 0.013308 0.000000 -0.002622 0.000000
# 4 0.000000 0.000000 0.000000 0.051537 0.000000 -0.018776
# 5 -0.005864 0.004088 -0.002622 0.000000 0.029823 0.000000
# 6 0.000000 0.000000 0.000000 -0.018776 0.000000 0.080475
#
#
# Mechanical properties :
#
#
# Convention : Reuss Voigt Hill
#
# Bulk Modulus (GPa) = 40.27307 45.62358 42.94833
# Shear Modulus (GPa) = 21.81208 28.07354 24.94281
#
# Velocity S-wave (km/s) = 3.24211 3.67814 3.46699
# Velocity P-wave (km/s) = 5.78125 6.32649 6.06000
#
# Compressibility (1/GPa) = 0.02483049
#
# Stress axis : x y z
#
# Youngs Moduli (GPa) = 90.34119 56.82544 75.14321
#
# Poissons Ratio (x) = 0.24055 0.18567
# Poissons Ratio (y) = 0.38242 0.14038
# Poissons Ratio (z) = 0.22322 0.10616
#
# Static dielectric constant tensor:
#      x y z
#    x 1.834000 0.000000 0.074160 
#    y 0.000000 1.718730 0.000000 
#    z 0.074160 0.000000 1.823970 
# 
# From -- ./inp_files/20238.got.cif
#   From: 2010.05.17/outbox.cif.g08.bks.cpg/sg13_11_cif.got.tgz:20238.got - 2010.06.03 16:44:36.
