data_PCOD9233034
_publ_section_title
;
Structure prediction by ZEFSAII (Michael W. Deem and Ramdas Pophale) SiO2 
 PCOD9233034
Probable space group: P 2/C
;
_chemical_formula_sum "Si O2"
_cell_formula_units_Z 20
_cell_length_a 14.393917
_cell_length_b 7.911601
_cell_length_c 21.096744
_cell_angle_alpha 90.000000
_cell_angle_beta 22.110634
_cell_angle_gamma 90.000000
_cell_volume 904.282353
_symmetry_space_group_name_H-M "P 2/C"
_symmetry_group_IT_number 13
_symmetry_cell_setting 'monoclinic'
loop_
_space_group_symop_operation_xyz
x,y,z
-x,y,1/2-z
-x,-y,-z
x,-y,1/2+z
loop_
_atom_site_type_symbol
_atom_site_label
_atom_site_fract_x
_atom_site_fract_y
_atom_site_fract_z
Si Si1 0.000000 0.138190 0.750000
Si Si2 0.986683 0.766029 0.461580
Si Si3 0.735614 0.833015 0.984738
Si Si4 0.500000 0.981181 0.750000
Si Si5 0.628784 0.835845 0.386922
Si Si6 0.796883 0.397817 0.551218
O O1 0.791364 0.237005 0.842340
O O2 0.121493 0.001853 0.625598
O O3 0.733917 0.868842 0.621508
O O4 0.924551 0.579361 0.474902
O O5 0.174809 0.857435 0.294553
O O6 0.096130 0.725040 0.461632
O O7 0.596351 0.758493 0.011298
O O8 0.866292 0.684203 0.939967
O O9 0.564452 0.905323 0.148952
O O10 0.500000 0.000000 0.500000
O O11 0.500000 0.422443 0.750000
#
# Coordination Sequence:
#
# PCOD9233034 Si02
#       6
#     2   4   4   2   4   4
#     4  10  22  38  60  90 126 166 212 276 314 386
#     4  11  23  39  63  97 133 167 211 276 325 395
#     4  11  22  38  63  92 124 165 214 267 325 384
#     4  12  22  34  66 100 120 164 222 270 326 372
#     4  10  21  39  63  90 125 167 218 267 321 379
#     4  11  22  40  63  92 134 169 213 265 338 392
#
# _framework density 22.116987000000002
#
# number of rings (size 3 to 8) (size 9 to 14) (size 15 to 20)
#    0.000    1.200    6.000    0.000    2.800    1.600 
#    0.000    1.000    0.000    3.600    0.000    0.000 
#    0.000    0.000    0.000    0.000    0.000    0.000 
#
# Total GULP energy -111449.482304 kJ/mol
# GULP energy per Si atom -5572.474115 kJ/mol
# Density = 2.206665 g / cm^3
# Si number density = 22.116987 Si / 1000 Ang^3
#
#
#
# Elastic Constant Matrix: (Units=GPa)
#
#
# Indices 1 2 3 4 5 6 
#
# 1 186.4712 36.1870 6.9521 0.0000 -15.2890 0.0000
# 2 36.1870 46.1972 12.2844 0.0000 2.1586 0.0000
# 3 6.9521 12.2844 71.9892 0.0000 10.1270 0.0000
# 4 0.0000 0.0000 0.0000 16.6331 0.0000 -2.6733
# 5 -15.2890 2.1586 10.1270 0.0000 38.4096 0.0000
# 6 0.0000 0.0000 0.0000 -2.6733 0.0000 37.7435
#
#
#
# Elastic Compliance Matrix: (Units=1/GPa)
#
#
# Indices 1 2 3 4 5 6 
#
# 1 0.006642 -0.005300 -0.000157 0.000000 0.002983 0.000000
# 2 -0.005300 0.026908 -0.003708 0.000000 -0.002644 0.000000
# 3 -0.000157 -0.003708 0.015077 0.000000 -0.003829 0.000000
# 4 0.000000 0.000000 0.000000 0.060813 0.000000 0.004307
# 5 0.002983 -0.002644 -0.003829 0.000000 0.028381 0.000000
# 6 0.000000 0.000000 0.000000 0.004307 0.000000 0.026800
#
#
# Mechanical properties :
#
#
# Convention : Reuss Voigt Hill
#
# Bulk Modulus (GPa) = 33.00585 46.16718 39.58652
# Shear Modulus (GPa) = 25.90015 35.17286 30.53651
#
# Velocity S-wave (km/s) = 3.42578 3.99220 3.71978
# Velocity P-wave (km/s) = 5.53205 6.49381 6.03213
#
# Compressibility (1/GPa) = 0.03029766
#
# Stress axis : x y z
#
# Youngs Moduli (GPa) = 150.56248 37.16415 66.32421
#
# Poissons Ratio (x) = 0.19698 0.01038
# Poissons Ratio (y) = 0.79803 0.24591
# Poissons Ratio (z) = 0.02357 0.13779
#
# Static dielectric constant tensor:
#      x y z
#    x 1.944500 0.000000 -0.023610 
#    y 0.000000 1.816260 0.000000 
#    z -0.023610 0.000000 1.873120 
# 
# From -- ./inp_files/28163.got.cif
#   From: 2010.05.17/outbox.cif.g08.bks.cpg/sg13_15_cif.got.tgz:28163.got - 2010.06.03 16:44:36.
