data_PCOD9233535
_publ_section_title
;
Structure prediction by ZEFSAII (Michael W. Deem and Ramdas Pophale) SiO2 
 PCOD9233535
Probable space group: P 2/C
;
_chemical_formula_sum "Si O2"
_cell_formula_units_Z 32
_cell_length_a 8.778877
_cell_length_b 14.573002
_cell_length_c 24.146379
_cell_angle_alpha 90.000000
_cell_angle_beta 29.281834
_cell_angle_gamma 90.000000
_cell_volume 1510.925085
_symmetry_space_group_name_H-M "P 2/C"
_symmetry_group_IT_number 13
_symmetry_cell_setting 'monoclinic'
loop_
_space_group_symop_operation_xyz
x,y,z
-x,y,1/2-z
-x,-y,-z
x,-y,1/2+z
loop_
_atom_site_type_symbol
_atom_site_label
_atom_site_fract_x
_atom_site_fract_y
_atom_site_fract_z
Si Si1 0.338705 0.102714 0.431647
Si Si2 0.745463 0.817810 0.716527
Si Si3 0.404702 0.395663 0.992164
Si Si4 0.436740 0.106748 0.017881
Si Si5 0.600850 0.088163 0.653502
Si Si6 0.712979 0.395930 0.229742
Si Si7 0.640420 0.584830 0.874512
Si Si8 0.652353 0.771218 0.352263
O O1 0.544452 0.175891 0.334775
O O2 0.423935 0.129408 0.466882
O O3 0.971641 0.106607 0.536885
O O4 0.443153 0.002916 0.371941
O O5 0.500000 0.858501 0.750000
O O6 0.785468 0.710705 0.692787
O O7 0.074352 0.868122 0.620918
O O8 0.602065 0.478309 0.903651
O O9 0.427093 0.311224 0.942747
O O10 0.492805 0.365855 0.027809
O O11 0.059244 0.436014 0.113564
O O12 0.619995 0.152362 0.910025
O O13 0.500000 0.000000 0.000000
O O14 0.500000 0.075233 0.750000
O O15 0.432475 0.174831 0.677159
O O16 0.500000 0.436734 0.250000
O O17 0.532674 0.403383 0.345361
O O18 0.000000 0.613331 0.750000
O O19 0.000000 0.733918 0.250000
#
# Coordination Sequence:
#
# PCOD9233535 Si02
#       8
#     4   4   4   4   4   4   4   4
#     4  11  25  39  67  87 123 170 218 271 323 375
#     4  11  24  41  65  95 130 169 216 266 327 379
#     4  10  21  41  66  92 129 170 210 261 328 395
#     4  12  25  41  64  95 124 168 224 275 316 381
#     4  11  25  45  61  88 129 173 216 269 329 382
#     4  10  22  39  65  97 130 166 209 269 327 388
#     4   9  20  40  68  96 126 163 211 261 326 394
#     4  12  25  41  63  92 130 168 217 267 324 394
#
# _framework density 21.179079000000002
#
# number of rings (size 3 to 8) (size 9 to 14) (size 15 to 20)
#    0.000    1.250    2.500    2.625    8.750    1.500 
#    0.000    0.625    0.000    0.000    0.000    0.000 
#    0.000    0.000    0.000    0.000    0.000    0.000 
#
# Total GULP energy -178214.021537 kJ/mol
# GULP energy per Si atom -5569.188173 kJ/mol
# Density = 2.113087 g / cm^3
# Si number density = 21.179079 Si / 1000 Ang^3
#
#
#
# Elastic Constant Matrix: (Units=GPa)
#
#
# Indices 1 2 3 4 5 6 
#
# 1 112.1378 7.9035 7.7361 0.0000 8.7268 0.0000
# 2 7.9035 54.4526 1.4285 0.0000 -1.1381 0.0000
# 3 7.7361 1.4285 67.7633 0.0000 -1.1036 0.0000
# 4 0.0000 0.0000 0.0000 32.4275 0.0000 2.4172
# 5 8.7268 -1.1381 -1.1036 0.0000 34.3701 0.0000
# 6 0.0000 0.0000 0.0000 2.4172 0.0000 23.2243
#
#
#
# Elastic Compliance Matrix: (Units=1/GPa)
#
#
# Indices 1 2 3 4 5 6 
#
# 1 0.009277 -0.001369 -0.001070 0.000000 -0.002435 0.000000
# 2 -0.001369 0.018589 -0.000220 0.000000 0.000956 0.000000
# 3 -0.001070 -0.000220 0.014896 0.000000 0.000743 0.000000
# 4 0.000000 0.000000 0.000000 0.031079 0.000000 -0.003235
# 5 -0.002435 0.000956 0.000743 0.000000 0.029769 0.000000
# 6 0.000000 0.000000 0.000000 -0.003235 0.000000 0.043395
#
#
# Mechanical properties :
#
#
# Convention : Reuss Voigt Hill
#
# Bulk Modulus (GPa) = 26.70648 29.83221 28.26934
# Shear Modulus (GPa) = 30.33877 32.49010 31.41443
#
# Velocity S-wave (km/s) = 3.78893 3.92096 3.85551
# Velocity P-wave (km/s) = 5.63724 5.88344 5.76166
#
# Compressibility (1/GPa) = 0.03744409
#
# Stress axis : x y z
#
# Youngs Moduli (GPa) = 107.78829 53.79492 67.13157
#
# Poissons Ratio (x) = 0.07367 0.07183
# Poissons Ratio (y) = 0.14761 0.01477
# Poissons Ratio (z) = 0.11533 0.01183
#
# Static dielectric constant tensor:
#      x y z
#    x 1.775080 0.000000 -0.052650 
#    y 0.000000 0.510960 0.000000 
#    z -0.052650 0.000000 1.768430 
# 
# From -- ./inp_files/85334.got.cif
#   From: 2010.05.17/outbox.cif.g08.bks.cpg/sg13_43_cif.got.tgz:85334.got - 2010.06.03 16:44:36.
