data_PCOD9233996
_publ_section_title
;
Structure prediction by ZEFSAII (Michael W. Deem and Ramdas Pophale) SiO2 
 PCOD9233996
Probable space group: P 2/C
;
_chemical_formula_sum "Si O2"
_cell_formula_units_Z 22
_cell_length_a 21.281563
_cell_length_b 11.016527
_cell_length_c 21.752514
_cell_angle_alpha 90.000000
_cell_angle_beta 13.222092
_cell_angle_gamma 90.000000
_cell_volume 1166.470283
_symmetry_space_group_name_H-M "P 2/C"
_symmetry_group_IT_number 13
_symmetry_cell_setting 'monoclinic'
loop_
_space_group_symop_operation_xyz
x,y,z
-x,y,1/2-z
-x,-y,-z
x,-y,1/2+z
loop_
_atom_site_type_symbol
_atom_site_label
_atom_site_fract_x
_atom_site_fract_y
_atom_site_fract_z
Si Si1 0.424849 0.890945 0.894414
Si Si2 0.082206 0.262864 0.571636
Si Si3 0.500000 0.428198 0.250000
Si Si4 0.532495 0.405295 0.604450
Si Si5 0.293899 0.159856 0.003001
Si Si6 0.965286 0.505912 0.105532
O O1 0.500000 0.892399 0.750000
O O2 0.703798 0.837529 0.657293
O O3 0.339483 0.028410 0.990271
O O4 0.174293 0.803081 0.151831
O O5 0.262382 0.345025 0.447072
O O6 0.994141 0.357007 0.603220
O O7 0.388988 0.512415 0.410887
O O8 0.636146 0.270468 0.518955
O O9 0.207912 0.425179 0.905292
O O10 0.680706 0.456910 0.403291
O O11 0.500000 0.171632 0.750000
O O12 0.000000 0.166149 0.250000
O O13 0.000000 0.500000 0.000000
#
# Coordination Sequence:
#
# PCOD9233996 Si02
#       6
#     4   4   2   4   4   4
#     4  11  22  34  55  86 123 153 182 227 293 357
#     4  11  22  35  58  84 118 150 185 246 283 360
#     4  10  22  34  58  90 122 136 194 226 320 338
#     4  11  23  38  63  85 120 155 189 251 283 365
#     4  11  22  37  56  86 127 156 186 227 292 367
#     4  11  25  42  60  85 115 162 202 244 293 334
#
# _framework density 18.860316000000001
#
# number of rings (size 3 to 8) (size 9 to 14) (size 15 to 20)
#    0.000    1.091    1.818    6.545    5.091    0.000 
#    0.000    0.000    0.000    6.545    0.000    0.000 
#    0.000    0.000    0.000    0.000    0.000    0.000 
#
# Total GULP energy -122919.116575 kJ/mol
# GULP energy per Si atom -5587.232572 kJ/mol
# Density = 1.881739 g / cm^3
# Si number density = 18.860316 Si / 1000 Ang^3
#
#
#
# Elastic Constant Matrix: (Units=GPa)
#
#
# Indices 1 2 3 4 5 6 
#
# 1 54.6205 30.4466 2.2442 0.0000 17.4390 0.0000
# 2 30.4466 138.4804 25.7314 0.0000 2.9424 0.0000
# 3 2.2442 25.7314 111.8971 0.0000 4.9105 0.0000
# 4 0.0000 0.0000 0.0000 28.4017 0.0000 2.2345
# 5 17.4390 2.9424 4.9105 0.0000 26.6239 0.0000
# 6 0.0000 0.0000 0.0000 2.2345 0.0000 8.5236
#
#
#
# Elastic Compliance Matrix: (Units=1/GPa)
#
#
# Indices 1 2 3 4 5 6 
#
# 1 0.027062 -0.005873 0.001570 0.000000 -0.017366 0.000000
# 2 -0.005873 0.008825 -0.002054 0.000000 0.003250 0.000000
# 3 0.001570 -0.002054 0.009490 0.000000 -0.002551 0.000000
# 4 0.000000 0.000000 0.000000 0.035951 0.000000 -0.009425
# 5 -0.017366 0.003250 -0.002551 0.000000 0.049047 0.000000
# 6 0.000000 0.000000 0.000000 -0.009425 0.000000 0.119793
#
#
# Mechanical properties :
#
#
# Convention : Reuss Voigt Hill
#
# Bulk Modulus (GPa) = 30.61616 46.87138 38.74377
# Shear Modulus (GPa) = 18.26364 29.14821 23.70592
#
# Velocity S-wave (km/s) = 3.11523 3.93552 3.54915
# Velocity P-wave (km/s) = 5.40443 6.74959 6.11412
#
# Compressibility (1/GPa) = 0.03266249
#
# Stress axis : x y z
#
# Youngs Moduli (GPa) = 36.95248 113.31402 105.37797
#
# Poissons Ratio (x) = 0.66544 -0.16542
# Poissons Ratio (y) = 0.21701 0.21647
# Poissons Ratio (z) = -0.05801 0.23277
#
# Static dielectric constant tensor:
#      x y z
#    x 1.634590 0.000000 -0.011190 
#    y 0.000000 1.709670 0.000000 
#    z -0.011190 0.000000 1.662710 
# 
# From -- ./inp_files/89029.got.cif
#   From: 2010.05.17/outbox.cif.g08.bks.cpg/sg13_45_cif.got.tgz:89029.got - 2010.06.03 16:44:36.
