data_PCOD9233511
_publ_section_title
;
Structure prediction by ZEFSAII (Michael W. Deem and Ramdas Pophale) SiO2 
 PCOD9233511
Probable space group: P 2/C
;
_chemical_formula_sum "Si O2"
_cell_formula_units_Z 30
_cell_length_a 17.253143
_cell_length_b 8.636679
_cell_length_c 27.534369
_cell_angle_alpha 90.000000
_cell_angle_beta 158.897447
_cell_angle_gamma 90.000000
_cell_volume 1477.198731
_symmetry_space_group_name_H-M "P 2/C"
_symmetry_group_IT_number 13
_symmetry_cell_setting 'monoclinic'
loop_
_space_group_symop_operation_xyz
x,y,z
-x,y,1/2-z
-x,-y,-z
x,-y,1/2+z
loop_
_atom_site_type_symbol
_atom_site_label
_atom_site_fract_x
_atom_site_fract_y
_atom_site_fract_z
Si Si1 0.798859 0.616105 0.375706
Si Si2 0.328632 0.580831 0.864367
Si Si3 0.000000 0.687851 0.750000
Si Si4 0.826676 0.087544 0.718283
Si Si5 0.928463 0.360679 0.848180
Si Si6 0.693409 0.608295 0.420150
Si Si7 0.440385 0.103348 0.028479
Si Si8 0.783030 0.123971 0.048551
O O1 0.866535 0.702940 0.365591
O O2 0.765055 0.682927 0.410084
O O3 0.555229 0.553080 0.225078
O O4 0.000000 0.500000 0.500000
O O5 0.260908 0.476180 0.779519
O O6 0.430233 0.738633 0.902874
O O7 0.113731 0.600293 0.771978
O O8 0.500000 0.500000 0.000000
O O9 0.807655 0.789553 0.614804
O O10 0.923825 0.229986 0.804478
O O11 0.769639 0.119505 0.628811
O O12 0.594849 0.036258 0.602219
O O13 0.977398 0.941702 0.817179
O O14 0.145063 0.464459 0.976369
O O15 0.715773 0.746126 0.471749
O O16 0.358133 0.032013 0.030949
#
# Coordination Sequence:
#
# PCOD9233511 Si02
#       8
#     4   4   2   4   4   4   4   4
#     4   9  21  41  67  90 119 158 210 276 335 382
#     4  12  25  38  61  96 135 175 225 261 313 386
#     4  12  22  40  58  84 134 178 204 258 314 384
#     4  11  21  36  56  90 127 171 216 250 316 384
#     4  11  22  38  62  95 127 168 217 270 319 379
#     4  10  21  41  65  93 120 164 217 266 335 385
#     4  11  21  38  56  87 132 179 215 255 310 388
#     4  12  22  38  63  85 129 178 211 259 322 386
#
# _framework density 20.308710999999999
#
# number of rings (size 3 to 8) (size 9 to 14) (size 15 to 20)
#    0.000    1.067    5.333    1.600    1.867    2.133 
#    0.000    0.667    0.000   14.400    0.000    0.000 
#    0.000    0.000    0.000    0.000    0.000    0.000 
#
# Total GULP energy -167068.814227 kJ/mol
# GULP energy per Si atom -5568.960474 kJ/mol
# Density = 2.026249 g / cm^3
# Si number density = 20.308711 Si / 1000 Ang^3
#
#
#
# Elastic Constant Matrix: (Units=GPa)
#
#
# Indices 1 2 3 4 5 6 
#
# 1 75.0816 26.5305 13.3357 0.0000 -6.4847 0.0000
# 2 26.5305 71.0929 23.5075 0.0000 -8.2869 0.0000
# 3 13.3357 23.5075 93.2554 0.0000 4.1473 0.0000
# 4 0.0000 0.0000 0.0000 21.6896 0.0000 4.5777
# 5 -6.4847 -8.2869 4.1473 0.0000 34.3001 0.0000
# 6 0.0000 0.0000 0.0000 4.5777 0.0000 22.4611
#
#
#
# Elastic Compliance Matrix: (Units=1/GPa)
#
#
# Indices 1 2 3 4 5 6 
#
# 1 0.015502 -0.005257 -0.000971 0.000000 0.001778 0.000000
# 2 -0.005257 0.017753 -0.003891 0.000000 0.003766 0.000000
# 3 -0.000971 -0.003891 0.011957 0.000000 -0.002569 0.000000
# 4 0.000000 0.000000 0.000000 0.048177 0.000000 -0.009819
# 5 0.001778 0.003766 -0.002569 0.000000 0.030711 0.000000
# 6 0.000000 0.000000 0.000000 -0.009819 0.000000 0.046523
#
#
# Mechanical properties :
#
#
# Convention : Reuss Voigt Hill
#
# Bulk Modulus (GPa) = 40.03902 40.68635 40.36268
# Shear Modulus (GPa) = 25.10211 27.42725 26.26468
#
# Velocity S-wave (km/s) = 3.51953 3.67892 3.60011
# Velocity P-wave (km/s) = 6.02280 6.17442 6.09908
#
# Compressibility (1/GPa) = 0.02497564
#
# Stress axis : x y z
#
# Youngs Moduli (GPa) = 64.50613 56.32724 83.63197
#
# Poissons Ratio (x) = 0.29611 0.08119
# Poissons Ratio (y) = 0.33910 0.32541
# Poissons Ratio (z) = 0.06262 0.21917
#
# Static dielectric constant tensor:
#      x y z
#    x 1.811540 0.000000 0.009940 
#    y 0.000000 1.734860 0.000000 
#    z 0.009940 0.000000 1.737580 
# 
# From -- ./inp_files/97364.got.cif
#   From: 2010.05.17/outbox.cif.g08.bks.cpg/sg13_49_cif.got.tgz:97364.got - 2010.06.03 16:44:36.
