data_PCOD9233113
_publ_section_title
;
Structure prediction by ZEFSAII (Michael W. Deem and Ramdas Pophale) SiO2 
 PCOD9233113
Probable space group: P 2/C
;
_chemical_formula_sum "Si O2"
_cell_formula_units_Z 30
_cell_length_a 11.377814
_cell_length_b 14.709229
_cell_length_c 10.298749
_cell_angle_alpha 90.000000
_cell_angle_beta 132.448777
_cell_angle_gamma 90.000000
_cell_volume 1271.802154
_symmetry_space_group_name_H-M "P 2/C"
_symmetry_group_IT_number 13
_symmetry_cell_setting 'monoclinic'
loop_
_space_group_symop_operation_xyz
x,y,z
-x,y,1/2-z
-x,-y,-z
x,-y,1/2+z
loop_
_atom_site_type_symbol
_atom_site_label
_atom_site_fract_x
_atom_site_fract_y
_atom_site_fract_z
Si Si1 0.919847 0.637399 0.887597
Si Si2 0.892022 0.911436 0.540843
Si Si3 0.163925 0.245655 0.924091
Si Si4 0.430909 0.327071 0.947673
Si Si5 0.500000 0.573689 0.750000
Si Si6 0.214094 0.094412 0.141200
Si Si7 0.760231 0.539427 0.361070
Si Si8 0.715238 0.215854 0.077683
O O1 0.839129 0.538046 0.830138
O O2 0.838459 0.711316 0.733115
O O3 0.890967 0.679060 0.010667
O O4 0.103645 0.610766 0.997284
O O5 0.790203 0.823970 0.503420
O O6 0.000000 0.936100 0.750000
O O7 0.025310 0.892214 0.532456
O O8 0.780562 0.992796 0.408149
O O9 0.272769 0.283807 0.891391
O O10 0.000000 0.205414 0.750000
O O11 0.261418 0.167588 0.069565
O O12 0.374781 0.409223 0.818436
O O13 0.526746 0.363473 0.144906
O O14 0.544944 0.262341 0.951132
O O15 0.341353 0.514684 0.607250
O O16 0.296003 0.128110 0.334176
#
# Coordination Sequence:
#
# PCOD9233113 Si02
#       8
#     4   4   4   4   2   4   4   4
#     4  10  21  40  62  94 129 169 230 275 314 386
#     4   9  18  38  64  97 127 159 210 264 326 392
#     4  11  20  38  64  88 123 166 215 264 317 391
#     4  12  23  41  63  92 132 175 215 266 332 388
#     4  12  22  40  60  86 130 174 226 264 322 384
#     4   9  19  36  65  95 123 162 209 261 322 390
#     4  11  23  40  61  91 130 180 226 266 325 382
#     4  10  21  39  65  99 132 164 213 268 332 393
#
# _framework density 23.588574000000001
#
# number of rings (size 3 to 8) (size 9 to 14) (size 15 to 20)
#    0.000    1.600    4.000    1.600    0.000    0.000 
#    9.600    0.667    0.000    3.200    3.467    0.000 
#    0.000    0.000    0.000    0.000    0.000    0.000 
#
# Total GULP energy -167722.177729 kJ/mol
# GULP energy per Si atom -5590.739258 kJ/mol
# Density = 2.353489 g / cm^3
# Si number density = 23.588574 Si / 1000 Ang^3
#
#
#
# Elastic Constant Matrix: (Units=GPa)
#
#
# Indices 1 2 3 4 5 6 
#
# 1 81.8731 36.6851 14.4686 0.0000 6.4036 0.0000
# 2 36.6851 108.2924 19.3660 0.0000 -0.0069 0.0000
# 3 14.4686 19.3660 40.4808 0.0000 8.5929 0.0000
# 4 0.0000 0.0000 0.0000 28.9202 0.0000 -2.1921
# 5 6.4036 -0.0069 8.5929 0.0000 27.1034 0.0000
# 6 0.0000 0.0000 0.0000 -2.1921 0.0000 40.5403
#
#
#
# Elastic Compliance Matrix: (Units=1/GPa)
#
#
# Indices 1 2 3 4 5 6 
#
# 1 0.014942 -0.004604 -0.002561 0.000000 -0.002720 0.000000
# 2 -0.004604 0.011586 -0.004426 0.000000 0.002494 0.000000
# 3 -0.002561 -0.004426 0.029600 0.000000 -0.008780 0.000000
# 4 0.000000 0.000000 0.000000 0.034720 0.000000 0.001877
# 5 -0.002720 0.002494 -0.008780 0.000000 0.040323 0.000000
# 6 0.000000 0.000000 0.000000 0.001877 0.000000 0.024768
#
#
# Mechanical properties :
#
#
# Convention : Reuss Voigt Hill
#
# Bulk Modulus (GPa) = 30.35342 41.29839 35.82590
# Shear Modulus (GPa) = 26.30151 29.98788 28.14470
#
# Velocity S-wave (km/s) = 3.34280 3.56938 3.45795
# Velocity P-wave (km/s) = 5.27208 5.87649 5.58247
#
# Compressibility (1/GPa) = 0.03294522
#
# Stress axis : x y z
#
# Youngs Moduli (GPa) = 66.92445 86.31360 33.78403
#
# Poissons Ratio (x) = 0.39739 0.08651
# Poissons Ratio (y) = 0.30812 0.14954
# Poissons Ratio (z) = 0.17138 0.38206
#
# Static dielectric constant tensor:
#      x y z
#    x 1.910180 0.000000 0.027220 
#    y 0.000000 1.903540 0.000000 
#    z 0.027220 0.000000 1.905270 
# 
# From -- ./inp_files/34601.got.cif
#   From: 2010.05.17/outbox.cif.g08.bks.cpg/sg13_18_cif.got.tgz:34601.got - 2010.06.03 16:44:36.
