data_PCOD9233200
_publ_section_title
;
Structure prediction by ZEFSAII (Michael W. Deem and Ramdas Pophale) SiO2 
 PCOD9233200
Probable space group: P 2/C
;
_chemical_formula_sum "Si O2"
_cell_formula_units_Z 22
_cell_length_a 10.274713
_cell_length_b 14.147576
_cell_length_c 8.147871
_cell_angle_alpha 90.000000
_cell_angle_beta 78.751295
_cell_angle_gamma 90.000000
_cell_volume 1161.640571
_symmetry_space_group_name_H-M "P 2/C"
_symmetry_group_IT_number 13
_symmetry_cell_setting 'monoclinic'
loop_
_space_group_symop_operation_xyz
x,y,z
-x,y,1/2-z
-x,-y,-z
x,-y,1/2+z
loop_
_atom_site_type_symbol
_atom_site_label
_atom_site_fract_x
_atom_site_fract_y
_atom_site_fract_z
Si Si1 0.267931 0.622538 0.740943
Si Si2 0.857164 0.879517 0.987421
Si Si3 0.000000 0.042995 0.750000
Si Si4 0.542611 0.895585 0.049919
Si Si5 0.500000 0.232785 0.250000
Si Si6 0.000000 0.283478 0.250000
Si Si7 0.602141 0.551278 0.099728
O O1 0.369835 0.702132 0.775630
O O2 0.116339 0.653232 0.799949
O O3 0.301573 0.610622 0.539213
O O4 0.312307 0.526764 0.823210
O O5 0.925243 0.787467 0.892919
O O6 0.910457 0.972349 0.879346
O O7 0.700484 0.880517 0.008992
O O8 0.906717 0.893910 0.159694
O O9 0.500000 0.880916 0.250000
O O10 0.489411 0.827242 0.919547
O O11 0.500000 0.000000 0.000000
O O12 0.500000 0.602218 0.250000
O O13 0.500000 0.500000 0.000000
#
# Coordination Sequence:
#
# PCOD9233200 Si02
#       7
#     4   4   2   4   2   2   4
#     4  11  22  42  65  97 126 175 212 274 342 397
#     4  10  21  40  58  90 122 175 214 277 327 387
#     4   9  20  36  64  77 120 170 220 255 338 398
#     4  12  25  41  66  97 134 176 229 277 330 386
#     4  12  24  42  68  98 136 174 224 280 326 388
#     4  11  24  40  60  87 140 164 218 269 332 398
#     4   9  18  38  68  92 122 158 211 268 333 397
#
# _framework density 18.938734
#
# number of rings (size 3 to 8) (size 9 to 14) (size 15 to 20)
#    0.000    1.455    5.455    1.091    0.000    4.364 
#    0.000    3.636    0.000    0.000    0.000    0.000 
#    0.000    0.000    0.000    0.000    0.000    0.000 
#
# Total GULP energy -122745.149272 kJ/mol
# GULP energy per Si atom -5579.324967 kJ/mol
# Density = 1.889563 g / cm^3
# Si number density = 18.938734 Si / 1000 Ang^3
#
#
#
# Elastic Constant Matrix: (Units=GPa)
#
#
# Indices 1 2 3 4 5 6 
#
# 1 153.2983 59.2157 49.6855 0.0000 -0.3940 0.0000
# 2 59.2157 77.5657 42.3135 0.0000 7.5150 0.0000
# 3 49.6855 42.3135 120.4041 0.0000 6.9638 0.0000
# 4 0.0000 0.0000 0.0000 14.6995 0.0000 9.3572
# 5 -0.3940 7.5150 6.9638 0.0000 29.3793 0.0000
# 6 0.0000 0.0000 0.0000 9.3572 0.0000 2.8708
#
#
#
# Elastic Compliance Matrix: (Units=1/GPa)
#
#
# Indices 1 2 3 4 5 6 
#
# 1 0.009667 -0.006620 -0.001793 0.000000 0.002248 0.000000
# 2 -0.006620 0.020712 -0.004294 0.000000 -0.004369 0.000000
# 3 -0.001793 -0.004294 0.010638 0.000000 -0.001447 0.000000
# 4 0.000000 0.000000 0.000000 -0.063290 0.000000 0.206293
# 5 0.002248 -0.004369 -0.001447 0.000000 0.035528 0.000000
# 6 0.000000 0.000000 0.000000 0.206293 0.000000 -0.324071
#
#
# Mechanical properties :
#
#
# Convention : Reuss Voigt Hill
#
# Bulk Modulus (GPa) = 64.09006 72.63306 68.36156
# Shear Modulus (GPa) = -17.84438 22.72680 2.44121
#
# Velocity S-wave (km/s) = -3.07288 3.46788 1.13658
# Velocity P-wave (km/s) = 4.61780 7.38037 6.15605
#
# Compressibility (1/GPa) = 0.01560304
#
# Stress axis : x y z
#
# Youngs Moduli (GPa) = 103.44227 48.28091 94.00235
#
# Poissons Ratio (x) = 0.31962 0.16853
# Poissons Ratio (y) = 0.68479 0.40368
# Poissons Ratio (z) = 0.18545 0.20734
#
# Static dielectric constant tensor:
#      x y z
#    x 1.638730 0.000000 0.001420 
#    y 0.000000 1.665050 0.000000 
#    z 0.001420 0.000000 1.731920 
# 
# From -- ./inp_files/12340.got.cif
#   From: 2010.05.17/outbox.cif.g08.bks.cpg/sg13_7_cif.got.tgz:12340.got - 2010.06.03 16:44:36.
