data_PCOD9233559
_publ_section_title
;
Structure prediction by ZEFSAII (Michael W. Deem and Ramdas Pophale) SiO2 
 PCOD9233559
Probable space group: P 2/C
;
_chemical_formula_sum "Si O2"
_cell_formula_units_Z 26
_cell_length_a 20.563574
_cell_length_b 5.579271
_cell_length_c 20.164067
_cell_angle_alpha 90.000000
_cell_angle_beta 29.577395
_cell_angle_gamma 90.000000
_cell_volume 1141.900515
_symmetry_space_group_name_H-M "P 2/C"
_symmetry_group_IT_number 13
_symmetry_cell_setting 'monoclinic'
loop_
_space_group_symop_operation_xyz
x,y,z
-x,y,1/2-z
-x,-y,-z
x,-y,1/2+z
loop_
_atom_site_type_symbol
_atom_site_label
_atom_site_fract_x
_atom_site_fract_y
_atom_site_fract_z
Si Si1 0.094341 0.010346 0.854396
Si Si2 0.923428 0.106574 0.387615
Si Si3 0.527302 0.082693 0.082385
Si Si4 0.211162 0.407246 0.518181
Si Si5 0.500000 0.788593 0.750000
Si Si6 0.215894 0.632576 0.163886
Si Si7 0.633264 0.244119 0.385050
O O1 0.105832 0.270008 0.810457
O O2 0.241462 0.926646 0.741684
O O3 0.030124 0.863721 0.851280
O O4 0.000000 0.000000 0.000000
O O5 0.830058 0.339009 0.476443
O O6 0.000000 0.105013 0.250000
O O7 0.850659 0.844655 0.453871
O O8 0.485786 0.059501 0.194906
O O9 0.440167 0.277676 0.119713
O O10 0.681036 0.155023 0.946179
O O11 0.527159 0.861694 0.031813
O O12 0.368661 0.369633 0.374949
O O13 0.168670 0.440772 0.633307
O O14 0.300650 0.454459 0.132595
#
# Coordination Sequence:
#
# PCOD9233559 Si02
#       7
#     4   4   4   4   2   4   4
#     4  11  26  41  62 101 137 182 231 290 352 416
#     4  12  25  47  72 102 139 192 239 288 347 431
#     4   9  21  41  64  99 129 176 229 284 352 411
#     4  11  26  44  74 103 140 184 241 291 356 414
#     4  10  24  44  66 106 136 178 230 306 352 420
#     4  10  21  42  66  96 128 182 231 287 343 425
#     4  10  21  41  67  90 135 182 227 283 346 422
#
# _framework density 22.769058999999999
#
# number of rings (size 3 to 8) (size 9 to 14) (size 15 to 20)
#    0.000    1.538    1.538    1.846    8.615    2.462 
#    2.769    0.000    0.000    0.000    0.000    0.000 
#    0.000    0.000    0.000    0.000    0.000    0.000 
#
# Total GULP energy -145073.819525 kJ/mol
# GULP energy per Si atom -5579.762289 kJ/mol
# Density = 2.271724 g / cm^3
# Si number density = 22.769059 Si / 1000 Ang^3
#
#
#
# Elastic Constant Matrix: (Units=GPa)
#
#
# Indices 1 2 3 4 5 6 
#
# 1 130.7316 19.3722 38.3192 0.0000 11.7139 0.0000
# 2 19.3722 81.1978 42.0932 0.0000 -8.7235 0.0000
# 3 38.3192 42.0932 89.6160 0.0000 11.2435 0.0000
# 4 0.0000 0.0000 0.0000 19.3024 0.0000 -19.5809
# 5 11.7139 -8.7235 11.2435 0.0000 51.8519 0.0000
# 6 0.0000 0.0000 0.0000 -19.5809 0.0000 28.8401
#
#
#
# Elastic Compliance Matrix: (Units=1/GPa)
#
#
# Indices 1 2 3 4 5 6 
#
# 1 0.008833 -0.000505 -0.003370 0.000000 -0.001350 0.000000
# 2 -0.000505 0.017409 -0.008576 0.000000 0.004903 0.000000
# 3 -0.003370 -0.008576 0.017181 0.000000 -0.004407 0.000000
# 4 0.000000 0.000000 0.000000 0.166446 0.000000 0.113008
# 5 -0.001350 0.004903 -0.004407 0.000000 0.021371 0.000000
# 6 0.000000 0.000000 0.000000 0.113008 0.000000 0.111401
#
#
# Mechanical properties :
#
#
# Convention : Reuss Voigt Hill
#
# Bulk Modulus (GPa) = 53.99703 55.67941 54.83822
# Shear Modulus (GPa) = 13.37911 33.44960 23.41436
#
# Velocity S-wave (km/s) = 2.42668 3.83702 3.21025
# Velocity P-wave (km/s) = 5.62301 6.64359 6.15449
#
# Compressibility (1/GPa) = 0.01851954
#
# Stress axis : x y z
#
# Youngs Moduli (GPa) = 113.21280 57.44253 58.20394
#
# Poissons Ratio (x) = 0.02902 0.19616
# Poissons Ratio (y) = 0.05720 0.49916
# Poissons Ratio (z) = 0.38156 0.49263
#
# Static dielectric constant tensor:
#      x y z
#    x 1.814380 0.000000 -0.002700 
#    y 0.000000 1.974040 0.000000 
#    z -0.002700 0.000000 1.827360 
# 
# From -- ./inp_files/81355.got.cif
#   From: 2010.05.17/outbox.cif.g08.bks.cpg/sg13_41_cif.got.tgz:81355.got - 2010.06.03 16:44:36.
