data_PCOD9233667
_publ_section_title
;
Structure prediction by ZEFSAII (Michael W. Deem and Ramdas Pophale) SiO2 
 PCOD9233667
Probable space group: P 2/C
;
_chemical_formula_sum "Si O2"
_cell_formula_units_Z 22
_cell_length_a 5.668463
_cell_length_b 13.890764
_cell_length_c 11.662733
_cell_angle_alpha 90.000000
_cell_angle_beta 91.567892
_cell_angle_gamma 90.000000
_cell_volume 917.971407
_symmetry_space_group_name_H-M "P 2/C"
_symmetry_group_IT_number 13
_symmetry_cell_setting 'monoclinic'
loop_
_space_group_symop_operation_xyz
x,y,z
-x,y,1/2-z
-x,-y,-z
x,-y,1/2+z
loop_
_atom_site_type_symbol
_atom_site_label
_atom_site_fract_x
_atom_site_fract_y
_atom_site_fract_z
Si Si1 0.500000 0.710796 0.250000
Si Si2 0.443232 0.378326 0.378757
Si Si3 0.164939 0.273346 0.561953
Si Si4 0.479012 0.950285 0.872741
Si Si5 0.215441 0.424296 0.918930
Si Si6 0.023522 0.897084 0.563204
O O1 0.689980 0.765335 0.328174
O O2 0.627766 0.641978 0.161256
O O3 0.500000 0.351533 0.250000
O O4 0.330530 0.296287 0.456104
O O5 0.674146 0.414531 0.452030
O O6 0.258013 0.467564 0.377913
O O7 0.039182 0.374579 0.590114
O O8 0.982930 0.192275 0.523519
O O9 0.500000 0.005949 0.750000
O O10 0.722389 0.890114 0.874605
O O11 0.223798 0.898733 0.871222
O O12 0.500000 0.000000 0.000000
O O13 0.000000 0.000000 0.500000
#
# Coordination Sequence:
#
# PCOD9233667 Si02
#       6
#     2   4   4   4   4   4
#     4  10  22  42  68  96 142 176 236 310 350 440
#     4  10  22  41  66 101 139 184 230 289 364 445
#     4  11  24  42  69 101 138 190 244 296 374 436
#     4  10  22  46  74 106 143 189 243 307 375 444
#     4  10  21  42  65 101 138 178 231 293 359 435
#     4  10  24  46  72 106 146 191 246 313 374 438
#
# _framework density 23.965886999999999
#
# number of rings (size 3 to 8) (size 9 to 14) (size 15 to 20)
#    0.000    1.818    0.909    1.636    5.091    1.455 
#   13.091    3.636    0.000    0.000    0.000    0.000 
#    0.000    0.000    0.000    0.000    0.000    0.000 
#
# Total GULP energy -122752.917383 kJ/mol
# GULP energy per Si atom -5579.678063 kJ/mol
# Density = 2.391134 g / cm^3
# Si number density = 23.965887 Si / 1000 Ang^3
#
#
#
# Elastic Constant Matrix: (Units=GPa)
#
#
# Indices 1 2 3 4 5 6 
#
# 1 151.5362 10.2001 40.7676 0.0000 2.8034 0.0000
# 2 10.2001 57.2079 18.2905 0.0000 6.1849 0.0000
# 3 40.7676 18.2905 171.8143 0.0000 3.6995 0.0000
# 4 0.0000 0.0000 0.0000 9.6063 0.0000 11.3750
# 5 2.8034 6.1849 3.6995 0.0000 21.3238 0.0000
# 6 0.0000 0.0000 0.0000 11.3750 0.0000 23.3645
#
#
#
# Elastic Compliance Matrix: (Units=1/GPa)
#
#
# Indices 1 2 3 4 5 6 
#
# 1 0.007084 -0.000704 -0.001596 0.000000 -0.000450 0.000000
# 2 -0.000704 0.018698 -0.001715 0.000000 -0.005033 0.000000
# 3 -0.001596 -0.001715 0.006390 0.000000 -0.000401 0.000000
# 4 0.000000 0.000000 0.000000 0.245797 0.000000 -0.119667
# 5 -0.000450 -0.005033 -0.000401 0.000000 0.048485 0.000000
# 6 0.000000 0.000000 0.000000 -0.119667 0.000000 0.101060
#
#
# Mechanical properties :
#
#
# Convention : Reuss Voigt Hill
#
# Bulk Modulus (GPa) = 41.42204 57.67497 49.54850
# Shear Modulus (GPa) = 11.27161 31.61227 21.44194
#
# Velocity S-wave (km/s) = 2.17104 3.63582 2.99438
# Velocity P-wave (km/s) = 4.85858 6.46090 5.71616
#
# Compressibility (1/GPa) = 0.02414174
#
# Stress axis : x y z
#
# Youngs Moduli (GPa) = 141.15821 53.48125 156.48924
#
# Poissons Ratio (x) = 0.03766 0.24980
# Poissons Ratio (y) = 0.09939 0.26839
# Poissons Ratio (z) = 0.22533 0.09172
#
# Static dielectric constant tensor:
#      x y z
#    x 1.979790 0.000000 0.001670 
#    y 0.000000 1.884230 0.000000 
#    z 0.001670 0.000000 1.931100 
# 
# From -- ./inp_files/26262.got.cif
#   From: 2010.05.17/outbox.cif.g08.bks.cpg/sg13_14_cif.got.tgz:26262.got - 2010.06.03 16:44:36.
