data_PCOD9233777
_publ_section_title
;
Structure prediction by ZEFSAII (Michael W. Deem and Ramdas Pophale) SiO2 
 PCOD9233777
Probable space group: P 2/C
;
_chemical_formula_sum "Si O2"
_cell_formula_units_Z 18
_cell_length_a 14.390405
_cell_length_b 9.435088
_cell_length_c 15.522107
_cell_angle_alpha 90.000000
_cell_angle_beta 161.514192
_cell_angle_gamma 90.000000
_cell_volume 668.227669
_symmetry_space_group_name_H-M "P 2/C"
_symmetry_group_IT_number 13
_symmetry_cell_setting 'monoclinic'
loop_
_space_group_symop_operation_xyz
x,y,z
-x,y,1/2-z
-x,-y,-z
x,-y,1/2+z
loop_
_atom_site_type_symbol
_atom_site_label
_atom_site_fract_x
_atom_site_fract_y
_atom_site_fract_z
Si Si1 0.601825 0.730383 0.516115
Si Si2 0.911226 0.084196 0.007908
Si Si3 0.356153 0.350866 0.987872
Si Si4 0.897848 0.514154 0.509931
Si Si5 0.500000 0.115748 0.250000
O O1 0.490185 0.679391 0.511183
O O2 0.892387 0.629614 0.758920
O O3 0.777327 0.875590 0.678406
O O4 0.306775 0.778908 0.204990
O O5 0.747442 0.985124 0.929945
O O6 0.000000 0.000000 0.000000
O O7 0.549320 0.485267 0.195492
O O8 0.403725 0.216622 0.087821
O O9 0.018725 0.379983 0.669812
O O10 0.000000 0.500000 0.500000
#
# Coordination Sequence:
#
# PCOD9233777 Si02
#       5
#     4   4   4   4   2
#     4  11  22  45  73 101 139 188 245 291 364 443
#     4  12  26  46  70 103 146 197 242 299 361 436
#     4  11  23  42  72 106 142 185 239 311 370 442
#     4  10  21  42  73 107 135 179 240 306 374 438
#     4  12  30  46  70 108 152 188 258 300 370 450
#
# _framework density 26.936927000000001
#
# number of rings (size 3 to 8) (size 9 to 14) (size 15 to 20)
#    0.000    0.889    2.222    7.333    0.000    3.556 
#    0.000    6.667    0.000    0.000    0.000    0.000 
#    0.000    0.000    0.000    0.000    0.000    0.000 
#
# Total GULP energy -100548.789617 kJ/mol
# GULP energy per Si atom -5586.043868 kJ/mol
# Density = 2.687562 g / cm^3
# Si number density = 26.936927 Si / 1000 Ang^3
#
#
#
# Elastic Constant Matrix: (Units=GPa)
#
#
# Indices 1 2 3 4 5 6 
#
# 1 64.8173 0.3729 18.6815 0.0000 -2.3049 0.0000
# 2 0.3729 35.7037 33.9334 0.0000 1.0021 0.0000
# 3 18.6815 33.9334 251.4856 0.0000 10.1525 0.0000
# 4 0.0000 0.0000 0.0000 14.4306 0.0000 -1.2372
# 5 -2.3049 1.0021 10.1525 0.0000 32.8054 0.0000
# 6 0.0000 0.0000 0.0000 -1.2372 0.0000 39.6843
#
#
#
# Elastic Compliance Matrix: (Units=1/GPa)
#
#
# Indices 1 2 3 4 5 6 
#
# 1 0.015876 0.001113 -0.001391 0.000000 0.001512 0.000000
# 2 0.001113 0.032211 -0.004448 0.000000 0.000471 0.000000
# 3 -0.001391 -0.004448 0.004737 0.000000 -0.001428 0.000000
# 4 0.000000 0.000000 0.000000 0.069483 0.000000 0.002166
# 5 0.001512 0.000471 -0.001428 0.000000 0.031017 0.000000
# 6 0.000000 0.000000 0.000000 0.002166 0.000000 0.025266
#
#
# Mechanical properties :
#
#
# Convention : Reuss Voigt Hill
#
# Bulk Modulus (GPa) = 23.05525 50.88692 36.97108
# Shear Modulus (GPa) = 24.69154 37.31866 31.00510
#
# Velocity S-wave (km/s) = 3.03090 3.72615 3.39636
# Velocity P-wave (km/s) = 4.56355 6.11918 5.39770
#
# Compressibility (1/GPa) = 0.04337407
#
# Stress axis : x y z
#
# Youngs Moduli (GPa) = 62.98763 31.04544 211.08211
#
# Poissons Ratio (x) = -0.03457 0.29353
# Poissons Ratio (y) = -0.07013 0.93889
# Poissons Ratio (z) = 0.08759 0.13809
#
# Static dielectric constant tensor:
#      x y z
#    x 2.143660 0.000000 0.008470 
#    y 0.000000 2.287250 0.000000 
#    z 0.008470 0.000000 2.026500 
# 
# From -- ./inp_files/69741.got.cif
#   From: 2010.05.17/outbox.cif.g08.bks.cpg/sg13_35_cif.got.tgz:69741.got - 2010.06.03 16:44:36.
