data_PCOD9233644
_publ_section_title
;
Structure prediction by ZEFSAII (Michael W. Deem and Ramdas Pophale) SiO2 
 PCOD9233644
Probable space group: P 2/C
;
_chemical_formula_sum "Si O2"
_cell_formula_units_Z 28
_cell_length_a 14.451256
_cell_length_b 5.747026
_cell_length_c 16.622991
_cell_angle_alpha 90.000000
_cell_angle_beta 109.969313
_cell_angle_gamma 90.000000
_cell_volume 1297.562640
_symmetry_space_group_name_H-M "P 2/C"
_symmetry_group_IT_number 13
_symmetry_cell_setting 'monoclinic'
loop_
_space_group_symop_operation_xyz
x,y,z
-x,y,1/2-z
-x,-y,-z
x,-y,1/2+z
loop_
_atom_site_type_symbol
_atom_site_label
_atom_site_fract_x
_atom_site_fract_y
_atom_site_fract_z
Si Si1 0.355656 0.617951 0.288484
Si Si2 0.500000 0.074907 0.750000
Si Si3 0.864242 0.062846 0.125813
Si Si4 0.000000 0.699121 0.250000
Si Si5 0.159180 0.647697 0.720790
Si Si6 0.340427 0.095184 0.940457
Si Si7 0.508879 0.244163 0.095917
Si Si8 0.008321 0.250582 0.047583
O O1 0.402857 0.769274 0.232238
O O2 0.267089 0.452623 0.236974
O O3 0.317261 0.777044 0.349751
O O4 0.446015 0.476946 0.354767
O O5 0.506676 0.923333 0.832327
O O6 0.836109 0.176108 0.203003
O O7 0.920619 0.245118 0.087132
O O8 0.764225 0.975958 0.055411
O O9 0.941508 0.860415 0.169665
O O10 0.081934 0.547855 0.228474
O O11 0.110159 0.754398 0.627417
O O12 0.408932 0.874917 0.937328
O O13 0.408011 0.255812 0.016733
O O14 0.000000 0.500000 0.000000
O O15 0.000000 0.000000 0.000000
#
# Coordination Sequence:
#
# PCOD9233644 Si02
#       8
#     4   2   4   2   4   4   4   4
#     4  11  22  41  69  98 130 180 235 283 360 421
#     4  10  24  42  62  92 142 184 218 284 356 448
#     4  12  23  43  71  98 136 188 241 294 351 424
#     4  12  20  42  72 100 132 178 252 300 338 416
#     4  12  24  42  76  98 133 190 241 294 345 442
#     4  10  22  38  68  98 124 172 231 301 335 407
#     4  10  21  42  62  93 135 166 230 285 352 409
#     4  12  28  47  67 106 154 189 234 300 369 433
#
# _framework density 21.57892
#
# number of rings (size 3 to 8) (size 9 to 14) (size 15 to 20)
#    0.000    0.857    5.714    1.714    0.000    1.143 
#    5.143    0.000    0.000    0.000    0.000    0.000 
#    0.000    0.000    0.000    0.000    0.000    0.000 
#
# Total GULP energy -156564.318226 kJ/mol
# GULP energy per Si atom -5591.582794 kJ/mol
# Density = 2.152980 g / cm^3
# Si number density = 21.578920 Si / 1000 Ang^3
#
#
#
# Elastic Constant Matrix: (Units=GPa)
#
#
# Indices 1 2 3 4 5 6 
#
# 1 67.7000 24.2768 48.3652 0.0000 21.2864 0.0000
# 2 24.2768 87.8736 31.0713 0.0000 -0.6075 0.0000
# 3 48.3652 31.0713 83.1388 0.0000 15.2759 0.0000
# 4 0.0000 0.0000 0.0000 27.2003 0.0000 -5.3324
# 5 21.2864 -0.6075 15.2759 0.0000 33.2739 0.0000
# 6 0.0000 0.0000 0.0000 -5.3324 0.0000 41.6193
#
#
#
# Elastic Compliance Matrix: (Units=1/GPa)
#
#
# Indices 1 2 3 4 5 6 
#
# 1 0.029859 -0.003495 -0.013698 0.000000 -0.012877 0.000000
# 2 -0.003495 0.013751 -0.003891 0.000000 0.004273 0.000000
# 3 -0.013698 -0.003891 0.021683 0.000000 -0.001263 0.000000
# 4 0.000000 0.000000 0.000000 0.037711 0.000000 0.004832
# 5 -0.012877 0.004273 -0.001263 0.000000 0.038949 0.000000
# 6 0.000000 0.000000 0.000000 0.004832 0.000000 0.024646
#
#
# Mechanical properties :
#
#
# Convention : Reuss Voigt Hill
#
# Bulk Modulus (GPa) = 43.24347 49.57102 46.40725
# Shear Modulus (GPa) = 23.09722 29.41864 26.25793
#
# Velocity S-wave (km/s) = 3.27519 3.69630 3.49210
# Velocity P-wave (km/s) = 5.86393 6.42174 6.14916
#
# Compressibility (1/GPa) = 0.02312488
#
# Stress axis : x y z
#
# Youngs Moduli (GPa) = 33.49074 72.72244 46.11891
#
# Poissons Ratio (x) = 0.25414 0.63174
# Poissons Ratio (y) = 0.11704 0.17946
# Poissons Ratio (z) = 0.45876 0.28298
#
# Static dielectric constant tensor:
#      x y z
#    x 1.789790 0.000000 -0.015370 
#    y 0.000000 1.782070 0.000000 
#    z -0.015370 0.000000 1.781370 
# 
# From -- ./inp_files/67644.got.cif
#   From: 2010.05.17/outbox.cif.g08.bks.cpg/sg13_34_cif.got.tgz:67644.got - 2010.06.03 16:44:36.
