data_PCOD9233924
_publ_section_title
;
Structure prediction by ZEFSAII (Michael W. Deem and Ramdas Pophale) SiO2 
 PCOD9233924
Probable space group: P 2/C
;
_chemical_formula_sum "Si O2"
_cell_formula_units_Z 22
_cell_length_a 8.873107
_cell_length_b 22.859400
_cell_length_c 5.228087
_cell_angle_alpha 90.000000
_cell_angle_beta 116.730616
_cell_angle_gamma 90.000000
_cell_volume 947.106019
_symmetry_space_group_name_H-M "P 2/C"
_symmetry_group_IT_number 13
_symmetry_cell_setting 'monoclinic'
loop_
_space_group_symop_operation_xyz
x,y,z
-x,y,1/2-z
-x,-y,-z
x,-y,1/2+z
loop_
_atom_site_type_symbol
_atom_site_label
_atom_site_fract_x
_atom_site_fract_y
_atom_site_fract_z
Si Si1 0.803390 0.742964 0.507261
Si Si2 0.000000 0.303472 0.750000
Si Si3 0.500000 0.458208 0.250000
Si Si4 0.609624 0.853717 0.579534
Si Si5 0.761074 0.373629 0.221561
Si Si6 0.000000 0.538151 0.750000
Si Si7 0.705431 0.029880 0.373898
O O1 0.843547 0.734400 0.237438
O O2 0.706071 0.798667 0.534812
O O3 0.705152 0.684627 0.528655
O O4 0.000000 0.747413 0.750000
O O5 0.922224 0.347026 0.486820
O O6 0.500000 0.500000 0.500000
O O7 0.650454 0.411054 0.331375
O O8 0.500000 0.837863 0.750000
O O9 0.728762 0.905620 0.775111
O O10 0.500000 0.876378 0.250000
O O11 0.833552 0.422682 0.092828
O O12 0.000000 0.500000 0.500000
O O13 0.500000 0.025875 0.250000
O O14 0.768436 0.015057 0.705175
#
# Coordination Sequence:
#
# PCOD9233924 Si02
#       7
#     4   2   2   4   4   2   4
#     4  10  24  42  66  91 126 173 212 265 316 377
#     4  10  21  44  72  90 118 175 224 250 314 376
#     4  12  30  46  64  98 134 160 194 260 336 382
#     4  11  24  38  63 102 128 164 218 265 318 374
#     4  11  24  44  66  93 123 165 207 257 321 375
#     4  12  23  38  68  90 112 151 208 252 284 370
#     4   9  16  32  57  87 128 167 205 258 310 365
#
# _framework density 23.228656000000001
#
# number of rings (size 3 to 8) (size 9 to 14) (size 15 to 20)
#    0.000    1.455    2.727    4.364    8.909    0.000 
#    0.000    0.000    0.000    1.091    0.000    0.000 
#    0.000    0.000    0.000    0.000    0.000    0.000 
#
# Total GULP energy -122648.431633 kJ/mol
# GULP energy per Si atom -5574.928711 kJ/mol
# Density = 2.317579 g / cm^3
# Si number density = 23.228656 Si / 1000 Ang^3
#
#
#
# Elastic Constant Matrix: (Units=GPa)
#
#
# Indices 1 2 3 4 5 6 
#
# 1 62.3629 55.6582 25.7826 0.0000 -30.2005 0.0000
# 2 55.6582 173.5576 36.9053 0.0000 -35.8158 0.0000
# 3 25.7826 36.9053 87.1901 0.0000 -40.4162 0.0000
# 4 0.0000 0.0000 0.0000 28.2251 0.0000 -13.3909
# 5 -30.2005 -35.8158 -40.4162 0.0000 35.7284 0.0000
# 6 0.0000 0.0000 0.0000 -13.3909 0.0000 21.6831
#
#
#
# Elastic Compliance Matrix: (Units=1/GPa)
#
#
# Indices 1 2 3 4 5 6 
#
# 1 0.032557 -0.005844 0.006070 0.000000 0.028527 0.000000
# 2 -0.005844 0.008330 -0.000456 0.000000 0.002895 0.000000
# 3 0.006070 -0.000456 0.025300 0.000000 0.033294 0.000000
# 4 0.000000 0.000000 0.000000 0.050112 0.000000 0.030948
# 5 0.028527 0.002895 0.033294 0.000000 0.092667 0.000000
# 6 0.000000 0.000000 0.000000 0.030948 0.000000 0.065232
#
#
# Mechanical properties :
#
#
# Convention : Reuss Voigt Hill
#
# Bulk Modulus (GPa) = 15.21445 62.20032 38.70738
# Shear Modulus (GPa) = 16.85962 30.77827 23.81895
#
# Velocity S-wave (km/s) = 2.69701 3.64402 3.20568
# Velocity P-wave (km/s) = 4.03269 6.67388 5.51377
#
# Compressibility (1/GPa) = 0.06572700
#
# Stress axis : x y z
#
# Youngs Moduli (GPa) = 30.71573 120.04306 39.52552
#
# Poissons Ratio (x) = 0.70157 -0.23993
# Poissons Ratio (y) = 0.17951 0.01802
# Poissons Ratio (z) = -0.18645 0.05473
#
# Static dielectric constant tensor:
#      x y z
#    x 2.039890 0.000000 -0.204340 
#    y 0.000000 1.907480 0.000000 
#    z -0.204340 0.000000 1.814560 
# 
# From -- ./inp_files/2145.got.cif
#   From: 2010.05.17/outbox.cif.g08.bks.cpg/sg13_2_cif.got.tgz:2145.got - 2010.06.03 16:44:36.
