data_PCOD9233749
_publ_section_title
;
Structure prediction by ZEFSAII (Michael W. Deem and Ramdas Pophale) SiO2 
 PCOD9233749
Probable space group: P 2/C
;
_chemical_formula_sum "Si O2"
_cell_formula_units_Z 20
_cell_length_a 14.963295
_cell_length_b 5.162685
_cell_length_c 19.123620
_cell_angle_alpha 90.000000
_cell_angle_beta 144.843325
_cell_angle_gamma 90.000000
_cell_volume 850.658770
_symmetry_space_group_name_H-M "P 2/C"
_symmetry_group_IT_number 13
_symmetry_cell_setting 'monoclinic'
loop_
_space_group_symop_operation_xyz
x,y,z
-x,y,1/2-z
-x,-y,-z
x,-y,1/2+z
loop_
_atom_site_type_symbol
_atom_site_label
_atom_site_fract_x
_atom_site_fract_y
_atom_site_fract_z
Si Si1 0.096933 0.319839 0.508399
Si Si2 0.562694 0.749984 0.080966
Si Si3 0.688567 0.749412 0.474541
Si Si4 0.131385 0.728409 0.388489
Si Si5 0.101338 0.878355 0.156023
O O1 0.258090 0.341601 0.568370
O O2 0.145376 0.119260 0.602676
O O3 0.000000 0.500000 0.500000
O O4 0.974104 0.161754 0.380875
O O5 0.746037 0.790553 0.205684
O O6 0.500000 0.500000 0.000000
O O7 0.484494 0.733984 0.107768
O O8 0.500000 0.000000 0.000000
O O9 0.788813 0.538551 0.582483
O O10 0.747017 0.041073 0.524244
O O11 0.000000 0.807335 0.250000
O O12 0.038936 0.697257 0.403303
#
# Coordination Sequence:
#
# PCOD9233749 Si02
#       5
#     4   4   4   4   4
#     4  10  21  42  69  98 128 173 230 282 328 394
#     4  12  27  45  65  98 141 179 218 276 347 410
#     4  11  23  40  64  93 131 169 219 272 331 401
#     4  11  21  38  63  94 125 171 223 268 321 394
#     4  10  23  40  67  97 133 174 222 282 333 396
#
# _framework density 23.511189000000002
#
# number of rings (size 3 to 8) (size 9 to 14) (size 15 to 20)
#    0.000    1.200    2.000    4.200    2.800    2.400 
#    0.000    0.000    0.000    0.000    0.000    0.000 
#    0.000    0.000    0.000    0.000    0.000    0.000 
#
# Total GULP energy -111433.733232 kJ/mol
# GULP energy per Si atom -5571.686662 kJ/mol
# Density = 2.345768 g / cm^3
# Si number density = 23.511189 Si / 1000 Ang^3
#
#
#
# Elastic Constant Matrix: (Units=GPa)
#
#
# Indices 1 2 3 4 5 6 
#
# 1 158.9159 8.4234 6.2760 0.0000 25.7365 0.0000
# 2 8.4234 68.3466 -7.1256 0.0000 26.4623 0.0000
# 3 6.2760 -7.1256 50.1671 0.0000 22.6009 0.0000
# 4 0.0000 0.0000 0.0000 22.0505 0.0000 -2.2217
# 5 25.7365 26.4623 22.6009 0.0000 38.3134 0.0000
# 6 0.0000 0.0000 0.0000 -2.2217 0.0000 26.4415
#
#
#
# Elastic Compliance Matrix: (Units=1/GPa)
#
#
# Indices 1 2 3 4 5 6 
#
# 1 0.007499 0.003090 0.003720 0.000000 -0.009366 0.000000
# 2 0.003090 0.029023 0.018661 0.000000 -0.033129 0.000000
# 3 0.003720 0.018661 0.039566 0.000000 -0.038727 0.000000
# 4 0.000000 0.000000 0.000000 0.045738 0.000000 0.003843
# 5 -0.009366 -0.033129 -0.038727 0.000000 0.078119 0.000000
# 6 0.000000 0.000000 0.000000 0.003843 0.000000 0.038142
#
#
# Mechanical properties :
#
#
# Convention : Reuss Voigt Hill
#
# Bulk Modulus (GPa) = 7.87220 32.50857 20.19038
# Shear Modulus (GPa) = 21.78774 35.35146 28.56960
#
# Velocity S-wave (km/s) = 3.04747 3.88184 3.48968
# Velocity P-wave (km/s) = 3.96716 5.82653 4.98431
#
# Compressibility (1/GPa) = 0.12702929
#
# Stress axis : x y z
#
# Youngs Moduli (GPa) = 133.35580 34.45559 25.27444
#
# Poissons Ratio (x) = -0.10647 -0.09403
# Poissons Ratio (y) = -0.41206 -0.47164
# Poissons Ratio (z) = -0.49611 -0.64297
#
# Static dielectric constant tensor:
#      x y z
#    x 2.088040 0.000000 -0.116390 
#    y 0.000000 2.866460 0.000000 
#    z -0.116390 0.000000 1.942610 
# 
# From -- ./inp_files/65246.got.cif
#   From: 2010.05.17/outbox.cif.g08.bks.cpg/sg13_33_cif.got.tgz:65246.got - 2010.06.03 16:44:36.
