data_PCOD9233504
_publ_section_title
;
Structure prediction by ZEFSAII (Michael W. Deem and Ramdas Pophale) SiO2 
 PCOD9233504
Probable space group: P 2/C
;
_chemical_formula_sum "Si O2"
_cell_formula_units_Z 16
_cell_length_a 9.411756
_cell_length_b 10.869075
_cell_length_c 7.791893
_cell_angle_alpha 90.000000
_cell_angle_beta 48.433884
_cell_angle_gamma 90.000000
_cell_volume 596.373684
_symmetry_space_group_name_H-M "P 2/C"
_symmetry_group_IT_number 13
_symmetry_cell_setting 'monoclinic'
loop_
_space_group_symop_operation_xyz
x,y,z
-x,y,1/2-z
-x,-y,-z
x,-y,1/2+z
loop_
_atom_site_type_symbol
_atom_site_label
_atom_site_fract_x
_atom_site_fract_y
_atom_site_fract_z
Si Si1 0.418502 0.864189 0.551339
Si Si2 0.815706 0.300408 0.073306
Si Si3 0.708977 0.531457 0.991276
Si Si4 0.204424 0.763263 0.399404
O O1 0.328350 0.812124 0.795520
O O2 0.256737 0.843332 0.530438
O O3 0.599145 0.781914 0.355920
O O4 0.500000 0.000000 0.500000
O O5 0.791021 0.394403 0.935651
O O6 0.738558 0.395241 0.287866
O O7 0.011588 0.225673 0.948577
O O8 0.500000 0.532037 0.250000
O O9 0.824607 0.623537 0.017707
#
# Coordination Sequence:
#
# PCOD9233504 Si02
#       4
#     4   4   4   4
#     4  10  21  41  65  89 128 177 228 269 324 388
#     4  11  23  41  66  98 136 173 218 274 339 404
#     4  11  20  39  67  97 136 174 212 273 346 404
#     4  10  21  41  65  92 129 175 209 278 346 386
#
# _framework density 26.828817000000001
#
# number of rings (size 3 to 8) (size 9 to 14) (size 15 to 20)
#    0.000    1.500    5.000    4.500    0.000    1.000 
#    4.500    0.000    0.000    6.000    0.000    0.000 
#    0.000    0.000    0.000    0.000    0.000    0.000 
#
# Total GULP energy -89270.403836 kJ/mol
# GULP energy per Si atom -5579.400240 kJ/mol
# Density = 2.676775 g / cm^3
# Si number density = 26.828817 Si / 1000 Ang^3
#
#
#
# Elastic Constant Matrix: (Units=GPa)
#
#
# Indices 1 2 3 4 5 6 
#
# 1 139.7327 53.0230 36.2482 0.0000 -22.0943 0.0000
# 2 53.0230 172.4558 10.8097 0.0000 -11.3826 0.0000
# 3 36.2482 10.8097 91.7892 0.0000 -18.4074 0.0000
# 4 0.0000 0.0000 0.0000 15.7344 0.0000 5.6679
# 5 -22.0943 -11.3826 -18.4074 0.0000 52.5083 0.0000
# 6 0.0000 0.0000 0.0000 5.6679 0.0000 33.0501
#
#
#
# Elastic Compliance Matrix: (Units=1/GPa)
#
#
# Indices 1 2 3 4 5 6 
#
# 1 0.009221 -0.002501 -0.002880 0.000000 0.002328 0.000000
# 2 -0.002501 0.006580 0.000309 0.000000 0.000483 0.000000
# 3 -0.002880 0.000309 0.012656 0.000000 0.003292 0.000000
# 4 0.000000 0.000000 0.000000 0.067740 0.000000 -0.011617
# 5 0.002328 0.000483 0.003292 0.000000 0.021283 0.000000
# 6 0.000000 0.000000 0.000000 -0.011617 0.000000 0.032249
#
#
# Mechanical properties :
#
#
# Convention : Reuss Voigt Hill
#
# Bulk Modulus (GPa) = 54.60413 67.12662 60.86538
# Shear Modulus (GPa) = 30.12497 40.51834 35.32166
#
# Velocity S-wave (km/s) = 3.35454 3.89042 3.63237
# Velocity P-wave (km/s) = 5.94987 6.72719 6.35043
#
# Compressibility (1/GPa) = 0.01831363
#
# Stress axis : x y z
#
# Youngs Moduli (GPa) = 108.45191 151.97717 79.01689
#
# Poissons Ratio (x) = 0.38006 0.22756
# Poissons Ratio (y) = 0.27122 -0.02445
# Poissons Ratio (z) = 0.31233 -0.04703
#
# Static dielectric constant tensor:
#      x y z
#    x 2.290910 0.000000 0.154000 
#    y 0.000000 2.039820 0.000000 
#    z 0.154000 0.000000 2.249280 
# 
# From -- ./inp_files/11476.got.cif
#   From: 2010.05.17/outbox.cif.g08.bks.cpg/sg13_6_cif.got.tgz:11476.got - 2010.06.03 16:44:36.
