data_PCOD9233042
_publ_section_title
;
Structure prediction by ZEFSAII (Michael W. Deem and Ramdas Pophale) SiO2 
 PCOD9233042
Probable space group: P 2/C
;
_chemical_formula_sum "Si O2"
_cell_formula_units_Z 32
_cell_length_a 13.802274
_cell_length_b 5.687005
_cell_length_c 16.849151
_cell_angle_alpha 90.000000
_cell_angle_beta 86.807680
_cell_angle_gamma 90.000000
_cell_volume 1320.498256
_symmetry_space_group_name_H-M "P 2/C"
_symmetry_group_IT_number 13
_symmetry_cell_setting 'monoclinic'
loop_
_space_group_symop_operation_xyz
x,y,z
-x,y,1/2-z
-x,-y,-z
x,-y,1/2+z
loop_
_atom_site_type_symbol
_atom_site_label
_atom_site_fract_x
_atom_site_fract_y
_atom_site_fract_z
Si Si1 0.773829 0.461216 0.935304
Si Si2 0.605378 0.401857 0.058927
Si Si3 0.348001 0.112068 0.732092
Si Si4 0.914690 0.913189 0.405253
Si Si5 0.887536 0.741805 0.053596
Si Si6 0.832247 0.789006 0.791759
Si Si7 0.240393 0.530195 0.320625
Si Si8 0.523926 0.911250 0.114221
O O1 0.668401 0.435998 0.976785
O O2 0.850542 0.521996 0.003095
O O3 0.816299 0.228029 0.895484
O O4 0.786946 0.661822 0.870813
O O5 0.688596 0.392680 0.123543
O O6 0.549914 0.151057 0.064893
O O7 0.549101 0.650315 0.077559
O O8 0.254266 0.950800 0.735273
O O9 0.411604 0.069866 0.808257
O O10 0.414689 0.082218 0.652223
O O11 0.308991 0.375097 0.747689
O O12 0.007751 0.747390 0.410602
O O13 0.895646 0.050620 0.488709
O O14 0.922641 0.079856 0.328118
O O15 0.806035 0.741947 0.125431
O O16 0.845837 0.611170 0.718008
#
# Coordination Sequence:
#
# PCOD9233042 Si02
#       8
#     4   4   4   4   4   4   4   4
#     4  10  22  38  64  90 132 164 216 269 333 394
#     4  10  22  39  67  97 125 167 229 278 324 394
#     4  10  22  37  62  88 133 166 215 270 344 389
#     4  10  21  40  66  93 127 165 218 276 331 397
#     4   9  21  40  67  95 119 168 224 270 325 393
#     4  11  22  39  59  91 130 175 202 269 343 406
#     4  10  21  39  63  94 129 169 218 270 338 404
#     4  10  22  39  66  97 125 168 230 286 321 399
#
# _framework density 24.233277000000001
#
# number of rings (size 3 to 8) (size 9 to 14) (size 15 to 20)
#    0.000    2.000    1.250    1.125    8.750    1.000 
#    0.000    5.000    0.000    3.000    0.000    0.000 
#    0.000    0.000    0.000    0.000    0.000    0.000 
#
# Total GULP energy -178611.141141 kJ/mol
# GULP energy per Si atom -5581.598161 kJ/mol
# Density = 2.417812 g / cm^3
# Si number density = 24.233277 Si / 1000 Ang^3
#
#
#
# Elastic Constant Matrix: (Units=GPa)
#
#
# Indices 1 2 3 4 5 6 
#
# 1 71.0036 27.9398 35.9260 0.0000 -3.4787 0.0000
# 2 27.9398 96.3811 34.3618 0.0000 -9.0259 0.0000
# 3 35.9260 34.3618 67.3200 0.0000 9.4904 0.0000
# 4 0.0000 0.0000 0.0000 13.2396 0.0000 10.1218
# 5 -3.4787 -9.0259 9.4904 0.0000 35.0438 0.0000
# 6 0.0000 0.0000 0.0000 10.1218 0.0000 29.4552
#
#
#
# Elastic Compliance Matrix: (Units=1/GPa)
#
#
# Indices 1 2 3 4 5 6 
#
# 1 0.020342 -0.001693 -0.010620 0.000000 0.004459 0.000000
# 2 -0.001693 0.013814 -0.006889 0.000000 0.005255 0.000000
# 3 -0.010620 -0.006889 0.025407 0.000000 -0.009709 0.000000
# 4 0.000000 0.000000 0.000000 0.102445 0.000000 -0.035204
# 5 0.004459 0.005255 -0.009709 0.000000 0.032961 0.000000
# 6 0.000000 0.000000 0.000000 -0.035204 0.000000 0.046047
#
#
# Mechanical properties :
#
#
# Convention : Reuss Voigt Hill
#
# Bulk Modulus (GPa) = 47.25991 47.90665 47.58328
# Shear Modulus (GPa) = 17.45363 24.64619 21.04991
#
# Velocity S-wave (km/s) = 2.68663 3.19256 2.95046
# Velocity P-wave (km/s) = 5.40078 5.77943 5.59331
#
# Compressibility (1/GPa) = 0.02115958
#
# Stress axis : x y z
#
# Youngs Moduli (GPa) = 49.15930 72.38850 39.35946
#
# Poissons Ratio (x) = 0.12255 0.41801
# Poissons Ratio (y) = 0.08323 0.27113
# Poissons Ratio (z) = 0.52208 0.49866
#
# Static dielectric constant tensor:
#      x y z
#    x 1.931410 0.000000 0.068430 
#    y 0.000000 1.993160 0.000000 
#    z 0.068430 0.000000 1.974840 
# 
# From -- ./inp_files/67567.got.cif
#   From: 2010.05.17/outbox.cif.g08.bks.cpg/sg13_34_cif.got.tgz:67567.got - 2010.06.03 16:44:36.
