data_PCOD9233792
_publ_section_title
;
Structure prediction by ZEFSAII (Michael W. Deem and Ramdas Pophale) SiO2 
 PCOD9233792
Probable space group: P 2/C
;
_chemical_formula_sum "Si O2"
_cell_formula_units_Z 18
_cell_length_a 14.275214
_cell_length_b 5.510999
_cell_length_c 13.760668
_cell_angle_alpha 90.000000
_cell_angle_beta 136.781263
_cell_angle_gamma 90.000000
_cell_volume 741.322200
_symmetry_space_group_name_H-M "P 2/C"
_symmetry_group_IT_number 13
_symmetry_cell_setting 'monoclinic'
loop_
_space_group_symop_operation_xyz
x,y,z
-x,y,1/2-z
-x,-y,-z
x,-y,1/2+z
loop_
_atom_site_type_symbol
_atom_site_label
_atom_site_fract_x
_atom_site_fract_y
_atom_site_fract_z
Si Si1 0.500000 0.956387 0.250000
Si Si2 0.289201 0.396734 0.287416
Si Si3 0.992256 0.246690 0.431243
Si Si4 0.273641 0.388340 0.577598
Si Si5 0.596371 0.296831 0.489797
O O1 0.579263 0.093819 0.395642
O O2 0.619248 0.796634 0.294911
O O3 0.158324 0.258871 0.229496
O O4 0.271081 0.400790 0.157135
O O5 0.442670 0.300613 0.417681
O O6 0.297908 0.666628 0.342037
O O7 0.000000 0.500000 0.500000
O O8 0.123290 0.273568 0.459945
O O9 0.000000 0.000000 0.500000
O O10 0.346999 0.482897 0.536225
#
# Coordination Sequence:
#
# PCOD9233792 Si02
#       5
#     2   4   4   4   4
#     4  12  20  38  66  96 138 174 238 288 356 408
#     4  10  21  43  62  96 134 176 234 280 360 415
#     4  10  23  42  69  95 136 182 224 282 352 415
#     4  11  22  41  65  95 132 182 228 292 351 422
#     4  11  22  39  66  95 131 178 231 293 345 426
#
# _framework density 24.280937999999999
#
# number of rings (size 3 to 8) (size 9 to 14) (size 15 to 20)
#    0.000    1.333    4.444    1.333    3.111    1.778 
#    8.000    0.000    0.000    0.000    0.000    0.000 
#    0.000    0.000    0.000    0.000    0.000    0.000 
#
# Total GULP energy -100207.892061 kJ/mol
# GULP energy per Si atom -5567.105115 kJ/mol
# Density = 2.422567 g / cm^3
# Si number density = 24.280938 Si / 1000 Ang^3
#
#
#
# Elastic Constant Matrix: (Units=GPa)
#
#
# Indices 1 2 3 4 5 6 
#
# 1 153.6388 37.9531 60.8370 0.0000 27.9767 0.0000
# 2 37.9531 83.4179 19.0726 0.0000 11.7405 0.0000
# 3 60.8370 19.0726 81.1959 0.0000 28.3062 0.0000
# 4 0.0000 0.0000 0.0000 38.3074 0.0000 0.8987
# 5 27.9767 11.7405 28.3062 0.0000 60.0888 0.0000
# 6 0.0000 0.0000 0.0000 0.8987 0.0000 12.8353
#
#
#
# Elastic Compliance Matrix: (Units=1/GPa)
#
#
# Indices 1 2 3 4 5 6 
#
# 1 0.009959 -0.002918 -0.006412 0.000000 -0.001046 0.000000
# 2 -0.002918 0.013606 -0.000666 0.000000 -0.000986 0.000000
# 3 -0.006412 -0.000666 0.019372 0.000000 -0.006010 0.000000
# 4 0.000000 0.000000 0.000000 0.026148 0.000000 -0.001831
# 5 -0.001046 -0.000986 -0.006010 0.000000 0.020153 0.000000
# 6 0.000000 0.000000 0.000000 -0.001831 0.000000 0.078038
#
#
# Mechanical properties :
#
#
# Convention : Reuss Voigt Hill
#
# Bulk Modulus (GPa) = 43.58101 61.55313 52.56707
# Shear Modulus (GPa) = 25.65213 35.60565 30.62889
#
# Velocity S-wave (km/s) = 3.25387 3.83352 3.55553
# Velocity P-wave (km/s) = 5.66608 6.70820 6.20904
#
# Compressibility (1/GPa) = 0.02294577
#
# Stress axis : x y z
#
# Youngs Moduli (GPa) = 100.41199 73.49441 51.62189
#
# Poissons Ratio (x) = 0.21445 0.33099
# Poissons Ratio (y) = 0.29299 0.03438
# Poissons Ratio (z) = 0.64382 0.04895
#
# Static dielectric constant tensor:
#      x y z
#    x 2.137750 0.000000 -0.071020 
#    y 0.000000 2.096740 0.000000 
#    z -0.071020 0.000000 2.038830 
# 
# From -- ./inp_files/52002.got.cif
#   From: 2010.05.17/outbox.cif.g08.bks.cpg/sg13_27_cif.got.tgz:52002.got - 2010.06.03 16:44:36.
