data_PCOD9233158
_publ_section_title
;
Structure prediction by ZEFSAII (Michael W. Deem and Ramdas Pophale) SiO2 
 PCOD9233158
Probable space group: P 2/C
;
_chemical_formula_sum "Si O2"
_cell_formula_units_Z 20
_cell_length_a 8.093060
_cell_length_b 5.271060
_cell_length_c 25.363778
_cell_angle_alpha 90.000000
_cell_angle_beta 48.822003
_cell_angle_gamma 90.000000
_cell_volume 814.381696
_symmetry_space_group_name_H-M "P 2/C"
_symmetry_group_IT_number 13
_symmetry_cell_setting 'monoclinic'
loop_
_space_group_symop_operation_xyz
x,y,z
-x,y,1/2-z
-x,-y,-z
x,-y,1/2+z
loop_
_atom_site_type_symbol
_atom_site_label
_atom_site_fract_x
_atom_site_fract_y
_atom_site_fract_z
Si Si1 0.793264 0.518802 0.257190
Si Si2 0.661148 0.515134 0.584720
Si Si3 0.959110 0.644239 0.618148
Si Si4 0.454707 0.977684 0.447436
Si Si5 0.916302 0.147167 0.862759
O O1 0.567293 0.509264 0.335047
O O2 0.788108 0.366116 0.203347
O O3 0.875735 0.792881 0.217871
O O4 0.000000 0.432900 0.250000
O O5 0.850540 0.545990 0.588003
O O6 0.674700 0.269384 0.544802
O O7 0.647087 0.769772 0.554074
O O8 0.129238 0.426577 0.602417
O O9 0.035077 0.933948 0.604018
O O10 0.706400 0.943360 0.374455
O O11 0.500000 0.000000 0.500000
#
# Coordination Sequence:
#
# PCOD9233158 Si02
#       5
#     4   4   4   4   4
#     4  10  21  39  67  96 132 167 210 262 334 402
#     4  12  24  43  68 100 132 171 220 279 335 383
#     4  10  23  40  65 102 134 163 209 273 342 393
#     4  12  26  46  69  94 131 182 234 269 315 395
#     4  10  22  42  64  94 135 167 220 256 334 388
#
# _framework density 24.558510999999999
#
# number of rings (size 3 to 8) (size 9 to 14) (size 15 to 20)
#    1.200    0.000    2.000    4.800    2.800    0.800 
#    3.600    6.000    0.000    0.000    0.000    0.000 
#    0.000    0.000    0.000    0.000    0.000    0.000 
#
# Total GULP energy -111798.788790 kJ/mol
# GULP energy per Si atom -5589.939440 kJ/mol
# Density = 2.450262 g / cm^3
# Si number density = 24.558511 Si / 1000 Ang^3
#
#
#
# Elastic Constant Matrix: (Units=GPa)
#
#
# Indices 1 2 3 4 5 6 
#
# 1 111.7912 42.8415 21.4233 0.0000 30.0461 0.0000
# 2 42.8415 177.7747 31.5366 0.0000 26.5402 0.0000
# 3 21.4233 31.5366 80.0104 0.0000 8.8026 0.0000
# 4 0.0000 0.0000 0.0000 32.4062 0.0000 13.6117
# 5 30.0461 26.5402 8.8026 0.0000 44.7302 0.0000
# 6 0.0000 0.0000 0.0000 13.6117 0.0000 41.7335
#
#
#
# Elastic Compliance Matrix: (Units=1/GPa)
#
#
# Indices 1 2 3 4 5 6 
#
# 1 0.011631 -0.001503 -0.001799 0.000000 -0.006567 0.000000
# 2 -0.001503 0.006723 -0.001962 0.000000 -0.002593 0.000000
# 3 -0.001799 -0.001962 0.013791 0.000000 -0.000341 0.000000
# 4 0.000000 0.000000 0.000000 0.035757 0.000000 -0.011662
# 5 -0.006567 -0.002593 -0.000341 0.000000 0.028373 0.000000
# 6 0.000000 0.000000 0.000000 -0.011662 0.000000 0.027765
#
#
# Mechanical properties :
#
#
# Convention : Reuss Voigt Hill
#
# Bulk Modulus (GPa) = 46.26326 62.35325 54.30826
# Shear Modulus (GPa) = 35.26737 42.02564 38.64650
#
# Velocity S-wave (km/s) = 3.79364 4.14121 3.97123
# Velocity P-wave (km/s) = 6.16991 6.95061 6.57186
#
# Compressibility (1/GPa) = 0.02161542
#
# Stress axis : x y z
#
# Youngs Moduli (GPa) = 85.97604 148.75376 72.51110
#
# Poissons Ratio (x) = 0.22364 0.13047
# Poissons Ratio (y) = 0.12926 0.14226
# Poissons Ratio (z) = 0.15469 0.29184
#
# Static dielectric constant tensor:
#      x y z
#    x 1.903370 0.000000 -0.039230 
#    y 0.000000 1.927740 0.000000 
#    z -0.039230 0.000000 2.088670 
# 
# From -- ./inp_files/90616.got.cif
#   From: 2010.05.17/outbox.cif.g08.bks.cpg/sg13_46_cif.got.tgz:90616.got - 2010.06.03 16:44:36.
