data_PCOD9233596
_publ_section_title
;
Structure prediction by ZEFSAII (Michael W. Deem and Ramdas Pophale) SiO2 
 PCOD9233596
Probable space group: P 2/C
;
_chemical_formula_sum "Si O2"
_cell_formula_units_Z 28
_cell_length_a 9.538196
_cell_length_b 11.824376
_cell_length_c 11.543283
_cell_angle_alpha 90.000000
_cell_angle_beta 54.488789
_cell_angle_gamma 90.000000
_cell_volume 1059.739747
_symmetry_space_group_name_H-M "P 2/C"
_symmetry_group_IT_number 13
_symmetry_cell_setting 'monoclinic'
loop_
_space_group_symop_operation_xyz
x,y,z
-x,y,1/2-z
-x,-y,-z
x,-y,1/2+z
loop_
_atom_site_type_symbol
_atom_site_label
_atom_site_fract_x
_atom_site_fract_y
_atom_site_fract_z
Si Si1 0.556333 0.459035 0.099634
Si Si2 0.546741 0.201368 0.108309
Si Si3 0.384335 0.216484 0.966401
Si Si4 0.914772 0.261891 0.013582
Si Si5 0.088813 0.048579 0.334534
Si Si6 0.110984 0.420956 0.083469
Si Si7 0.734809 0.835532 0.214646
O O1 0.500000 0.513422 0.250000
O O2 0.481836 0.332241 0.141871
O O3 0.500000 0.500000 0.000000
O O4 0.762264 0.473864 0.000625
O O5 0.500000 0.142537 0.250000
O O6 0.750891 0.226585 0.012764
O O7 0.436672 0.152621 0.057060
O O8 0.306986 0.142995 0.900690
O O9 0.580708 0.244209 0.832447
O O10 0.251139 0.319494 0.036955
O O11 0.885086 0.177237 0.137904
O O12 0.982877 0.375021 0.046164
O O13 0.084690 0.227076 0.861569
O O14 0.000000 0.051614 0.250000
O O15 0.240219 0.957494 0.243120
O O16 0.000000 0.000000 0.500000
O O17 0.000000 0.442893 0.250000
#
# Coordination Sequence:
#
# PCOD9233596 Si02
#       7
#     4   4   4   4   4   4   4
#     4  11  26  47  72 101 146 186 236 305 368 426
#     4  11  24  43  65  99 143 181 235 298 360 422
#     4  10  21  41  69  97 137 186 228 296 355 418
#     4  10  23  40  68 101 137 194 235 286 366 440
#     4  10  22  42  68 100 145 187 233 302 357 416
#     4  11  23  43  73 101 142 192 244 288 367 445
#     4   9  22  41  69 101 134 182 243 292 353 424
#
# _framework density 26.421582999999998
#
# number of rings (size 3 to 8) (size 9 to 14) (size 15 to 20)
#    0.000    1.714    1.429    1.286   10.000    2.857 
#    5.143    0.714    0.000    0.000    0.000    0.000 
#    0.000    0.000    0.000    0.000    0.000    0.000 
#
# Total GULP energy -156128.768614 kJ/mol
# GULP energy per Si atom -5576.027450 kJ/mol
# Density = 2.636145 g / cm^3
# Si number density = 26.421583 Si / 1000 Ang^3
#
#
#
# Elastic Constant Matrix: (Units=GPa)
#
#
# Indices 1 2 3 4 5 6 
#
# 1 176.7950 -15.4800 35.3767 0.0000 19.8814 0.0000
# 2 -15.4800 30.8656 -6.2960 0.0000 5.4777 0.0000
# 3 35.3767 -6.2960 122.0734 0.0000 -3.6921 0.0000
# 4 0.0000 0.0000 0.0000 -164.4347 0.0000 -15.1311
# 5 19.8814 5.4777 -3.6921 0.0000 58.8464 0.0000
# 6 0.0000 0.0000 0.0000 -15.1311 0.0000 34.5576
#
#
#
# Elastic Compliance Matrix: (Units=1/GPa)
#
#
# Indices 1 2 3 4 5 6 
#
# 1 0.006621 0.003423 -0.001823 0.000000 -0.002670 0.000000
# 2 0.003423 0.035031 0.000683 0.000000 -0.004374 0.000000
# 3 -0.001823 0.000683 0.008789 0.000000 0.001104 0.000000
# 4 0.000000 0.000000 0.000000 -0.005846 0.000000 -0.002560
# 5 -0.002670 -0.004374 0.001104 0.000000 0.018372 0.000000
# 6 0.000000 0.000000 0.000000 -0.002560 0.000000 0.027816
#
#
# Mechanical properties :
#
#
# Convention : Reuss Voigt Hill
#
# Bulk Modulus (GPa) = 18.18034 39.65951 28.91992
# Shear Modulus (GPa) = 47.82259 6.86941 27.34600
#
# Velocity S-wave (km/s) = 4.25900 1.61418 3.22061
# Velocity P-wave (km/s) = 5.57506 4.30313 4.97987
#
# Compressibility (1/GPa) = 0.05500448
#
# Stress axis : x y z
#
# Youngs Moduli (GPa) = 151.03545 28.54651 113.78280
#
# Poissons Ratio (x) = -0.09770 0.20742
# Poissons Ratio (y) = -0.51693 -0.07766
# Poissons Ratio (z) = 0.27533 -0.01948
#
# Static dielectric constant tensor:
#      x y z
#    x 2.133610 0.000000 0.004590 
#    y 0.000000 2.156750 0.000000 
#    z 0.004590 0.000000 2.296670 
# 
# From -- ./inp_files/30265.got.cif
#   From: 2010.05.17/outbox.cif.g08.bks.cpg/sg13_16_cif.got.tgz:30265.got - 2010.06.03 16:44:36.
