data_PCOD9233908
_publ_section_title
;
Structure prediction by ZEFSAII (Michael W. Deem and Ramdas Pophale) SiO2 
 PCOD9233908
Probable space group: P 2/C
;
_chemical_formula_sum "Si O2"
_cell_formula_units_Z 30
_cell_length_a 19.409454
_cell_length_b 6.573580
_cell_length_c 12.340762
_cell_angle_alpha 90.000000
_cell_angle_beta 63.455832
_cell_angle_gamma 90.000000
_cell_volume 1408.579460
_symmetry_space_group_name_H-M "P 2/C"
_symmetry_group_IT_number 13
_symmetry_cell_setting 'monoclinic'
loop_
_space_group_symop_operation_xyz
x,y,z
-x,y,1/2-z
-x,-y,-z
x,-y,1/2+z
loop_
_atom_site_type_symbol
_atom_site_label
_atom_site_fract_x
_atom_site_fract_y
_atom_site_fract_z
Si Si1 0.698079 0.954803 0.161981
Si Si2 0.234469 0.432586 0.985206
Si Si3 0.500000 0.566334 0.250000
Si Si4 0.370801 0.706158 0.936197
Si Si5 0.987692 0.286355 0.070748
Si Si6 0.111747 0.166307 0.150448
Si Si7 0.144054 0.179154 0.490212
Si Si8 0.441191 0.152400 0.598169
O O1 0.634621 0.959529 0.300674
O O2 0.654911 0.075134 0.094185
O O3 0.781931 0.062954 0.113902
O O4 0.719072 0.719218 0.125898
O O5 0.192232 0.280160 0.095433
O O6 0.293513 0.579085 0.001452
O O7 0.172401 0.588393 0.978317
O O8 0.572374 0.416811 0.182566
O O9 0.518102 0.715493 0.337522
O O10 0.411965 0.710477 0.021264
O O11 0.935526 0.251574 0.215496
O O12 0.935387 0.166648 0.020504
O O13 0.069283 0.226298 0.067054
O O14 0.000000 0.500000 0.000000
O O15 0.127041 0.926745 0.119326
O O16 0.500000 0.000000 0.500000
#
# Coordination Sequence:
#
# PCOD9233908 Si02
#       8
#     4   4   2   4   4   4   4   4
#     4  10  23  44  66 101 146 172 235 291 339 422
#     4  10  21  44  67  98 139 180 228 284 346 416
#     4  12  24  48  66 100 142 172 236 292 342 438
#     4  11  24  42  69  97 134 182 222 285 349 410
#     4  11  22  44  69 101 139 184 230 290 355 413
#     4  10  23  43  66 102 137 176 236 287 341 428
#     4  10  22  42  70  98 139 185 229 287 354 411
#     4  12  25  43  72 101 133 189 230 287 363 419
#
# _framework density 21.298052999999999
#
# number of rings (size 3 to 8) (size 9 to 14) (size 15 to 20)
#    0.000    1.333    2.667    2.400    0.000    4.267 
#    7.200    0.000    0.000    0.000    0.000    0.000 
#    0.000    0.000    0.000    0.000    0.000    0.000 
#
# Total GULP energy -167150.567534 kJ/mol
# GULP energy per Si atom -5571.685584 kJ/mol
# Density = 2.124958 g / cm^3
# Si number density = 21.298053 Si / 1000 Ang^3
#
#
#
# Elastic Constant Matrix: (Units=GPa)
#
#
# Indices 1 2 3 4 5 6 
#
# 1 64.0933 35.9461 14.4801 0.0000 -7.1543 0.0000
# 2 35.9461 105.8102 52.0095 0.0000 9.8042 0.0000
# 3 14.4801 52.0095 83.8085 0.0000 -9.3471 0.0000
# 4 0.0000 0.0000 0.0000 45.4395 0.0000 -11.6597
# 5 -7.1543 9.8042 -9.3471 0.0000 34.9791 0.0000
# 6 0.0000 0.0000 0.0000 -11.6597 0.0000 33.8985
#
#
#
# Elastic Compliance Matrix: (Units=1/GPa)
#
#
# Indices 1 2 3 4 5 6 
#
# 1 0.021023 -0.009348 0.003031 0.000000 0.007730 0.000000
# 2 -0.009348 0.019226 -0.011472 0.000000 -0.010367 0.000000
# 3 0.003031 -0.011472 0.019538 0.000000 0.009056 0.000000
# 4 0.000000 0.000000 0.000000 0.024138 0.000000 0.008302
# 5 0.007730 -0.010367 0.009056 0.000000 0.035495 0.000000
# 6 0.000000 0.000000 0.000000 0.008302 0.000000 0.032356
#
#
# Mechanical properties :
#
#
# Convention : Reuss Voigt Hill
#
# Bulk Modulus (GPa) = 41.30820 50.95372 46.13096
# Shear Modulus (GPa) = 25.58536 32.94849 29.26692
#
# Velocity S-wave (km/s) = 3.46974 3.93748 3.71099
# Velocity P-wave (km/s) = 5.95731 6.68190 6.32998
#
# Compressibility (1/GPa) = 0.02420827
#
# Stress axis : x y z
#
# Youngs Moduli (GPa) = 47.56654 52.01199 51.18277
#
# Poissons Ratio (x) = 0.48622 -0.15514
# Poissons Ratio (y) = 0.44466 0.58719
# Poissons Ratio (z) = -0.14418 0.59670
#
# Static dielectric constant tensor:
#      x y z
#    x 1.791360 0.000000 -0.018110 
#    y 0.000000 4.294800 0.000000 
#    z -0.018110 0.000000 1.791930 
# 
# From -- ./inp_files/40124.got.cif
#   From: 2010.05.17/outbox.cif.g08.bks.cpg/sg13_21_cif.got.tgz:40124.got - 2010.06.03 16:44:36.
