data_PCOD9233062
_publ_section_title
;
Structure prediction by ZEFSAII (Michael W. Deem and Ramdas Pophale) SiO2 
 PCOD9233062
Probable space group: P 2/C
;
_chemical_formula_sum "Si O2"
_cell_formula_units_Z 28
_cell_length_a 12.272410
_cell_length_b 5.078429
_cell_length_c 18.740879
_cell_angle_alpha 90.000000
_cell_angle_beta 102.414069
_cell_angle_gamma 90.000000
_cell_volume 1140.708291
_symmetry_space_group_name_H-M "P 2/C"
_symmetry_group_IT_number 13
_symmetry_cell_setting 'monoclinic'
loop_
_space_group_symop_operation_xyz
x,y,z
-x,y,1/2-z
-x,-y,-z
x,-y,1/2+z
loop_
_atom_site_type_symbol
_atom_site_label
_atom_site_fract_x
_atom_site_fract_y
_atom_site_fract_z
Si Si1 0.806696 0.846009 0.124780
Si Si2 0.217308 0.538980 0.590155
Si Si3 0.871259 0.326032 0.209235
Si Si4 0.005568 0.763626 0.444605
Si Si5 0.551312 0.681288 0.926953
Si Si6 0.819169 0.947281 0.328551
Si Si7 0.546123 0.810553 0.088930
O O1 0.830106 0.622041 0.188737
O O2 0.868295 0.725402 0.064324
O O3 0.674769 0.882820 0.103426
O O4 0.854594 0.142057 0.138310
O O5 0.091612 0.449760 0.549247
O O6 0.326702 0.550764 0.556738
O O7 0.207730 0.836986 0.615123
O O8 0.241288 0.325232 0.657518
O O9 0.810993 0.130711 0.257807
O O10 0.000000 0.343793 0.250000
O O11 0.000000 0.000000 0.500000
O O12 0.947229 0.859808 0.360724
O O13 0.471257 0.471973 0.877938
O O14 0.532430 0.966061 0.889565
O O15 0.513349 0.747165 0.002192
#
# Coordination Sequence:
#
# PCOD9233062 Si02
#       7
#     4   4   4   4   4   4   4
#     4  12  25  40  67  97 135 172 221 281 329 401
#     4  10  21  39  64  91 123 174 211 268 329 398
#     4  12  22  42  64  89 136 178 224 267 325 404
#     4  10  25  39  61 100 141 165 215 276 342 411
#     4  10  21  42  65  87 135 166 221 269 330 409
#     4  10  22  40  60  96 121 177 218 255 339 388
#     4  10  23  39  63  97 123 177 216 272 332 382
#
# _framework density 24.546151999999999
#
# number of rings (size 3 to 8) (size 9 to 14) (size 15 to 20)
#    0.857    0.571    1.429    3.857    2.000    4.000 
#    0.000    0.000    0.000   12.857    0.000    0.000 
#    0.000    0.000    0.000    0.000    0.000    0.000 
#
# Total GULP energy -155908.376995 kJ/mol
# GULP energy per Si atom -5568.156321 kJ/mol
# Density = 2.449028 g / cm^3
# Si number density = 24.546152 Si / 1000 Ang^3
#
#
#
# Elastic Constant Matrix: (Units=GPa)
#
#
# Indices 1 2 3 4 5 6 
#
# 1 129.5287 36.9748 8.7990 0.0000 7.5866 0.0000
# 2 36.9748 148.7275 0.9133 0.0000 17.3072 0.0000
# 3 8.7990 0.9133 17.5045 0.0000 1.3311 0.0000
# 4 0.0000 0.0000 0.0000 31.6451 0.0000 -17.8980
# 5 7.5866 17.3072 1.3311 0.0000 25.0852 0.0000
# 6 0.0000 0.0000 0.0000 -17.8980 0.0000 11.1345
#
#
#
# Elastic Compliance Matrix: (Units=1/GPa)
#
#
# Indices 1 2 3 4 5 6 
#
# 1 0.008634 -0.002004 -0.004159 0.000000 -0.001008 0.000000
# 2 -0.002004 0.007776 0.000967 0.000000 -0.004810 0.000000
# 3 -0.004159 0.000967 0.059363 0.000000 -0.002560 0.000000
# 4 0.000000 0.000000 0.000000 0.347804 0.000000 0.559073
# 5 -0.001008 -0.004810 -0.002560 0.000000 0.043624 0.000000
# 6 0.000000 0.000000 0.000000 0.559073 0.000000 0.988487
#
#
# Mechanical properties :
#
#
# Convention : Reuss Voigt Hill
#
# Bulk Modulus (GPa) = 15.29473 43.23719 29.26596
# Shear Modulus (GPa) = 3.36051 30.17786 16.76918
#
# Velocity S-wave (km/s) = 1.17134 3.51013 2.61659
# Velocity P-wave (km/s) = 2.84146 5.83789 4.59101
#
# Compressibility (1/GPa) = 0.06538201
#
# Stress axis : x y z
#
# Youngs Moduli (GPa) = 115.82405 128.60734 16.84556
#
# Poissons Ratio (x) = 0.25767 0.07006
# Poissons Ratio (y) = 0.23206 -0.01629
# Poissons Ratio (z) = 0.48168 -0.12439
#
# Static dielectric constant tensor:
#      x y z
#    x 1.954180 0.000000 -0.038180 
#    y 0.000000 2.119520 0.000000 
#    z -0.038180 0.000000 2.207000 
# 
# From -- ./inp_files/77282.got.cif
#   From: 2010.05.17/outbox.cif.g08.bks.cpg/sg13_39_cif.got.tgz:77282.got - 2010.06.03 16:44:36.
