data_PCOD9233951
_publ_section_title
;
Structure prediction by ZEFSAII (Michael W. Deem and Ramdas Pophale) SiO2 
 PCOD9233951
Probable space group: P 2/C
;
_chemical_formula_sum "Si O2"
_cell_formula_units_Z 26
_cell_length_a 14.866583
_cell_length_b 6.420047
_cell_length_c 15.438118
_cell_angle_alpha 90.000000
_cell_angle_beta 43.432869
_cell_angle_gamma 90.000000
_cell_volume 1013.022491
_symmetry_space_group_name_H-M "P 2/C"
_symmetry_group_IT_number 13
_symmetry_cell_setting 'monoclinic'
loop_
_space_group_symop_operation_xyz
x,y,z
-x,y,1/2-z
-x,-y,-z
x,-y,1/2+z
loop_
_atom_site_type_symbol
_atom_site_label
_atom_site_fract_x
_atom_site_fract_y
_atom_site_fract_z
Si Si1 0.111648 0.949030 0.853289
Si Si2 0.012439 0.419244 0.140537
Si Si3 0.597861 0.953477 0.055158
Si Si4 0.265244 0.324351 0.470763
Si Si5 0.500000 0.392835 0.750000
Si Si6 0.243878 0.634539 0.193587
Si Si7 0.634352 0.248170 0.344730
O O1 0.195484 0.140528 0.756463
O O2 0.237822 0.819702 0.799071
O O3 0.018960 0.824182 0.850402
O O4 0.000000 0.000000 0.000000
O O5 0.000000 0.460637 0.250000
O O6 0.884487 0.511964 0.187042
O O7 0.135588 0.557593 0.027114
O O8 0.701571 0.075826 0.044468
O O9 0.494160 0.132513 0.099409
O O10 0.521915 0.771956 0.157533
O O11 0.653671 0.842115 0.929733
O O12 0.379285 0.449475 0.342811
O O13 0.262858 0.371755 0.576870
O O14 0.362427 0.498802 0.149861
#
# Coordination Sequence:
#
# PCOD9233951 Si02
#       7
#     4   4   4   4   2   4   4
#     4  11  24  43  69 104 138 187 243 303 352 424
#     4   9  23  42  69 101 132 185 239 301 361 434
#     4  11  24  44  71 102 142 195 238 301 359 429
#     4  11  23  44  67 101 138 186 239 296 369 427
#     4  12  26  42  64 104 144 176 252 304 348 440
#     4  10  21  45  70  95 137 184 237 293 364 431
#     4  10  23  44  70 101 142 191 242 291 366 435
#
# _framework density 25.665769000000001
#
# number of rings (size 3 to 8) (size 9 to 14) (size 15 to 20)
#    0.000    1.538    3.077    0.462    2.154    7.385 
#    5.538    0.000    0.000    0.000    0.000    0.000 
#    0.000    0.000    0.000    0.000    0.000    0.000 
#
# Total GULP energy -144968.529250 kJ/mol
# GULP energy per Si atom -5575.712663 kJ/mol
# Density = 2.560735 g / cm^3
# Si number density = 25.665769 Si / 1000 Ang^3
#
#
#
# Elastic Constant Matrix: (Units=GPa)
#
#
# Indices 1 2 3 4 5 6 
#
# 1 49.1754 38.8720 26.4858 0.0000 -14.1297 0.0000
# 2 38.8720 131.8087 44.4377 0.0000 -11.1088 0.0000
# 3 26.4858 44.4377 156.4219 0.0000 -13.2667 0.0000
# 4 0.0000 0.0000 0.0000 36.9078 0.0000 -1.0895
# 5 -14.1297 -11.1088 -13.2667 0.0000 32.7885 0.0000
# 6 0.0000 0.0000 0.0000 -1.0895 0.0000 40.0843
#
#
#
# Elastic Compliance Matrix: (Units=1/GPa)
#
#
# Indices 1 2 3 4 5 6 
#
# 1 0.030055 -0.007315 -0.002198 0.000000 0.009584 0.000000
# 2 -0.007315 0.010292 -0.001716 0.000000 -0.000359 0.000000
# 3 -0.002198 -0.001716 0.007376 0.000000 0.001456 0.000000
# 4 0.000000 0.000000 0.000000 0.027116 0.000000 0.000737
# 5 0.009584 -0.000359 0.001456 0.000000 0.035096 0.000000
# 6 0.000000 0.000000 0.000000 0.000737 0.000000 0.024967
#
#
# Mechanical properties :
#
#
# Convention : Reuss Voigt Hill
#
# Bulk Modulus (GPa) = 39.57884 61.88855 50.73369
# Shear Modulus (GPa) = 30.15993 37.13016 33.64505
#
# Velocity S-wave (km/s) = 3.43170 3.80765 3.62455
# Velocity P-wave (km/s) = 5.58179 6.59519 6.10954
#
# Compressibility (1/GPa) = 0.02526603
#
# Stress axis : x y z
#
# Youngs Moduli (GPa) = 33.27192 97.16123 135.57346
#
# Poissons Ratio (x) = 0.71072 0.29801
# Poissons Ratio (y) = 0.24338 0.23262
# Poissons Ratio (z) = 0.07314 0.16671
#
# Static dielectric constant tensor:
#      x y z
#    x 2.139840 0.000000 -0.007140 
#    y 0.000000 2.270270 0.000000 
#    z -0.007140 0.000000 2.008790 
# 
# From -- ./inp_files/81354.got.cif
#   From: 2010.05.17/outbox.cif.g08.bks.cpg/sg13_41_cif.got.tgz:81354.got - 2010.06.03 16:44:36.
