data_PCOD9233692
_publ_section_title
;
Structure prediction by ZEFSAII (Michael W. Deem and Ramdas Pophale) SiO2 
 PCOD9233692
Probable space group: P 2/C
;
_chemical_formula_sum "Si O2"
_cell_formula_units_Z 32
_cell_length_a 17.657373
_cell_length_b 15.160696
_cell_length_c 12.257201
_cell_angle_alpha 90.000000
_cell_angle_beta 28.245851
_cell_angle_gamma 90.000000
_cell_volume 1552.860900
_symmetry_space_group_name_H-M "P 2/C"
_symmetry_group_IT_number 13
_symmetry_cell_setting 'monoclinic'
loop_
_space_group_symop_operation_xyz
x,y,z
-x,y,1/2-z
-x,-y,-z
x,-y,1/2+z
loop_
_atom_site_type_symbol
_atom_site_label
_atom_site_fract_x
_atom_site_fract_y
_atom_site_fract_z
Si Si1 0.816947 0.405721 0.444561
Si Si2 0.107945 0.413594 0.388267
Si Si3 0.854810 0.092753 0.864092
Si Si4 0.157575 0.285698 0.689257
Si Si5 0.624414 0.312037 0.877569
Si Si6 0.634809 0.001216 0.485427
Si Si7 0.436512 0.133640 0.101807
Si Si8 0.331331 0.583941 0.806042
O O1 0.830599 0.374002 0.303308
O O2 0.733703 0.341324 0.637302
O O3 0.715240 0.495972 0.570214
O O4 0.000000 0.424852 0.250000
O O5 0.249821 0.430749 0.292092
O O6 0.000000 0.500000 0.500000
O O7 0.991345 0.346843 0.596270
O O8 0.903163 0.187882 0.756776
O O9 0.000000 0.054772 0.750000
O O10 0.793567 0.028670 0.846667
O O11 0.703758 0.118933 0.132100
O O12 0.270033 0.284086 0.652924
O O13 0.254482 0.333196 0.468632
O O14 0.503849 0.231810 0.003783
O O15 0.515895 0.394044 0.054049
O O16 0.500000 0.005110 0.750000
O O17 0.581815 0.926305 0.465349
O O18 0.629479 0.091643 0.425677
#
# Coordination Sequence:
#
# PCOD9233692 Si02
#       8
#     4   4   4   4   4   4   4   4
#     4  12  24  44  64  91 136 187 227 275 343 396
#     4  12  23  42  65  89 134 184 222 278 338 402
#     4  11  22  38  68 104 133 170 223 279 333 404
#     4  12  22  40  67  96 134 172 229 281 334 395
#     4  12  25  42  67  98 133 173 233 283 335 400
#     4   9  20  41  70  93 130 176 215 267 346 410
#     4  10  21  42  66  97 132 171 221 277 336 408
#     4  12  24  40  66  97 127 180 231 280 330 390
#
# _framework density 20.607126000000001
#
# number of rings (size 3 to 8) (size 9 to 14) (size 15 to 20)
#    0.000    0.750    6.250    1.875    0.000    1.000 
#    4.500    0.000    0.000    3.000    0.000    0.000 
#    0.000    0.000    0.000    0.000    0.000    0.000 
#
# Total GULP energy -178911.847789 kJ/mol
# GULP energy per Si atom -5590.995243 kJ/mol
# Density = 2.056022 g / cm^3
# Si number density = 20.607126 Si / 1000 Ang^3
#
#
#
# Elastic Constant Matrix: (Units=GPa)
#
#
# Indices 1 2 3 4 5 6 
#
# 1 93.9124 15.8775 12.6318 0.0000 0.0209 0.0000
# 2 15.8775 64.7677 13.0061 0.0000 -4.2334 0.0000
# 3 12.6318 13.0061 75.1949 0.0000 8.6349 0.0000
# 4 0.0000 0.0000 0.0000 15.5069 0.0000 -0.7982
# 5 0.0209 -4.2334 8.6349 0.0000 36.0885 0.0000
# 6 0.0000 0.0000 0.0000 -0.7982 0.0000 31.2244
#
#
#
# Elastic Compliance Matrix: (Units=1/GPa)
#
#
# Indices 1 2 3 4 5 6 
#
# 1 0.011262 -0.002461 -0.001473 0.000000 0.000057 0.000000
# 2 -0.002461 0.016776 -0.002791 0.000000 0.002637 0.000000
# 3 -0.001473 -0.002791 0.014464 0.000000 -0.003787 0.000000
# 4 0.000000 0.000000 0.000000 0.064572 0.000000 0.001651
# 5 0.000057 0.002637 -0.003787 0.000000 0.028925 0.000000
# 6 0.000000 0.000000 0.000000 0.001651 0.000000 0.032068
#
#
# Mechanical properties :
#
#
# Convention : Reuss Voigt Hill
#
# Bulk Modulus (GPa) = 34.42118 35.21175 34.81647
# Shear Modulus (GPa) = 26.15024 29.38792 27.76908
#
# Velocity S-wave (km/s) = 3.56615 3.78048 3.67488
# Velocity P-wave (km/s) = 5.80486 6.01500 5.91087
#
# Compressibility (1/GPa) = 0.02905188
#
# Stress axis : x y z
#
# Youngs Moduli (GPa) = 88.79051 59.60877 69.13787
#
# Poissons Ratio (x) = 0.14672 0.10182
# Poissons Ratio (y) = 0.21855 0.19296
# Poissons Ratio (z) = 0.13077 0.16637
#
# Static dielectric constant tensor:
#      x y z
#    x 1.736620 0.000000 -0.008630 
#    y 0.000000 1.741410 0.000000 
#    z -0.008630 0.000000 1.739830 
# 
# From -- ./inp_files/39464.got.cif
#   From: 2010.05.17/outbox.cif.g08.bks.cpg/sg13_20_cif.got.tgz:39464.got - 2010.06.03 16:44:36.
