data_PCOD9233998
_publ_section_title
;
Structure prediction by ZEFSAII (Michael W. Deem and Ramdas Pophale) SiO2 
 PCOD9233998
Probable space group: P 2/C
;
_chemical_formula_sum "Si O2"
_cell_formula_units_Z 30
_cell_length_a 12.400363
_cell_length_b 13.582361
_cell_length_c 8.862392
_cell_angle_alpha 90.000000
_cell_angle_beta 71.119953
_cell_angle_gamma 90.000000
_cell_volume 1412.351180
_symmetry_space_group_name_H-M "P 2/C"
_symmetry_group_IT_number 13
_symmetry_cell_setting 'monoclinic'
loop_
_space_group_symop_operation_xyz
x,y,z
-x,y,1/2-z
-x,-y,-z
x,-y,1/2+z
loop_
_atom_site_type_symbol
_atom_site_label
_atom_site_fract_x
_atom_site_fract_y
_atom_site_fract_z
Si Si1 0.419401 0.552126 0.411124
Si Si2 0.812792 0.098097 0.836547
Si Si3 0.057323 0.692346 0.886180
Si Si4 0.548350 0.903328 0.391625
Si Si5 0.170564 0.096373 0.321296
Si Si6 0.410300 0.182700 0.176611
Si Si7 0.693160 0.384857 0.245551
Si Si8 0.000000 0.265928 0.750000
O O1 0.500000 0.605039 0.250000
O O2 0.500000 0.500000 0.500000
O O3 0.354542 0.471587 0.337400
O O4 0.331886 0.605366 0.563354
O O5 0.684150 0.106826 0.834586
O O6 0.889042 0.195308 0.788276
O O7 0.871359 0.004275 0.732128
O O8 0.802423 0.076189 0.017442
O O9 0.089251 0.808865 0.853647
O O10 0.174498 0.632165 0.839976
O O11 0.000000 0.665650 0.750000
O O12 0.004771 0.682128 0.080895
O O13 0.500000 0.910698 0.250000
O O14 0.486758 0.809377 0.494891
O O15 0.500000 0.000000 0.500000
O O16 0.293208 0.126131 0.195413
O O17 0.500000 0.133883 0.250000
O O18 0.371187 0.284247 0.268488
#
# Coordination Sequence:
#
# PCOD9233998 Si02
#       8
#     4   4   4   4   4   4   4   2
#     4   9  18  39  67 102 130 157 195 253 324 423
#     4  11  22  37  56  86 118 175 234 279 329 382
#     4  10  24  45  63  92 130 175 221 285 327 391
#     4  12  23  35  55  87 131 173 223 276 331 402
#     4  10  22  34  59  84 118 168 220 274 332 377
#     4  11  20  36  55  86 126 167 201 260 330 401
#     4  10  22  41  69  97 131 168 208 266 343 408
#     4  10  26  44  62  88 132 182 242 286 330 374
#
# _framework density 21.241177
#
# number of rings (size 3 to 8) (size 9 to 14) (size 15 to 20)
#    0.000    1.600    2.667    2.400    2.800    2.667 
#    4.800    0.667    0.000    0.000    0.000    0.000 
#    0.000    0.000    0.000    0.000    0.000    0.000 
#
# Total GULP energy -167239.918577 kJ/mol
# GULP energy per Si atom -5574.663953 kJ/mol
# Density = 2.119283 g / cm^3
# Si number density = 21.241177 Si / 1000 Ang^3
#
#
#
# Elastic Constant Matrix: (Units=GPa)
#
#
# Indices 1 2 3 4 5 6 
#
# 1 105.3847 7.3623 49.2379 0.0000 13.7288 0.0000
# 2 7.3623 15.1243 13.7772 0.0000 3.5704 0.0000
# 3 49.2379 13.7772 143.9364 0.0000 4.0816 0.0000
# 4 0.0000 0.0000 0.0000 31.7203 0.0000 -5.6554
# 5 13.7288 3.5704 4.0816 0.0000 33.4238 0.0000
# 6 0.0000 0.0000 0.0000 -5.6554 0.0000 9.3714
#
#
#
# Elastic Compliance Matrix: (Units=1/GPa)
#
#
# Indices 1 2 3 4 5 6 
#
# 1 0.011931 -0.001301 -0.003835 0.000000 -0.004293 0.000000
# 2 -0.001301 0.074205 -0.006471 0.000000 -0.006602 0.000000
# 3 -0.003835 -0.006471 0.008845 0.000000 0.001186 0.000000
# 4 0.000000 0.000000 0.000000 0.035326 0.000000 0.021318
# 5 -0.004293 -0.006602 0.001186 0.000000 0.032243 0.000000
# 6 0.000000 0.000000 0.000000 0.021318 0.000000 0.119573
#
#
# Mechanical properties :
#
#
# Convention : Reuss Voigt Hill
#
# Bulk Modulus (GPa) = 13.93373 45.02226 29.47799
# Shear Modulus (GPa) = 15.18562 27.84094 21.51328
#
# Velocity S-wave (km/s) = 2.67669 3.62430 3.18592
# Velocity P-wave (km/s) = 4.01583 6.22541 5.23845
#
# Compressibility (1/GPa) = 0.07176828
#
# Stress axis : x y z
#
# Youngs Moduli (GPa) = 83.81458 13.47619 113.05636
#
# Poissons Ratio (x) = 0.01753 0.43359
# Poissons Ratio (y) = 0.10903 0.73153
# Poissons Ratio (z) = 0.32144 0.08720
#
# Static dielectric constant tensor:
#      x y z
#    x 1.762900 0.000000 -0.017010 
#    y 0.000000 1.843680 0.000000 
#    z -0.017010 0.000000 1.806600 
# 
# From -- ./inp_files/16726.got.cif
#   From: 2010.05.17/outbox.cif.g08.bks.cpg/sg13_9_cif.got.tgz:16726.got - 2010.06.03 16:44:36.
