data_PCOD9233573
_publ_section_title
;
Structure prediction by ZEFSAII (Michael W. Deem and Ramdas Pophale) SiO2 
 PCOD9233573
Probable space group: P 2/C
;
_chemical_formula_sum "Si O2"
_cell_formula_units_Z 16
_cell_length_a 9.398297
_cell_length_b 10.510619
_cell_length_c 12.209939
_cell_angle_alpha 90.000000
_cell_angle_beta 146.378797
_cell_angle_gamma 90.000000
_cell_volume 667.829003
_symmetry_space_group_name_H-M "P 2/C"
_symmetry_group_IT_number 13
_symmetry_cell_setting 'monoclinic'
loop_
_space_group_symop_operation_xyz
x,y,z
-x,y,1/2-z
-x,-y,-z
x,-y,1/2+z
loop_
_atom_site_type_symbol
_atom_site_label
_atom_site_fract_x
_atom_site_fract_y
_atom_site_fract_z
Si Si1 0.719536 0.090621 0.089710
Si Si2 0.458115 0.255262 0.338192
Si Si3 0.500000 0.254598 0.750000
Si Si4 0.000000 0.641169 0.250000
Si Si5 0.295031 0.477507 0.769117
O O1 0.728841 0.193843 0.193036
O O2 0.000000 0.031287 0.250000
O O3 0.638207 0.162677 0.926414
O O4 0.500000 0.000000 0.000000
O O5 0.500000 0.183833 0.250000
O O6 0.328185 0.390488 0.229119
O O7 0.742040 0.276547 0.571225
O O8 0.344389 0.354239 0.726806
O O9 0.962838 0.548768 0.329457
O O10 0.500000 0.500000 0.000000
#
# Coordination Sequence:
#
# PCOD9233573 Si02
#       5
#     4   4   2   2   4
#     4  12  32  52  79 110 151 209 276 318 390 455
#     4  11  25  44  71 112 151 197 253 309 382 465
#     4  12  24  50  80 112 160 196 250 326 384 468
#     4  10  22  40  68 102 164 188 242 302 384 446
#     4  10  21  41  68 113 152 194 232 301 387 459
#
# _framework density 23.958227999999998
#
# number of rings (size 3 to 8) (size 9 to 14) (size 15 to 20)
#    0.000    1.000    6.250    0.000    8.750    2.000 
#    0.000    0.000    0.000    0.000    0.000    0.000 
#    0.000    0.000    0.000    0.000    0.000    0.000 
#
# Total GULP energy -89338.250013 kJ/mol
# GULP energy per Si atom -5583.640626 kJ/mol
# Density = 2.390370 g / cm^3
# Si number density = 23.958228 Si / 1000 Ang^3
#
#
#
# Elastic Constant Matrix: (Units=GPa)
#
#
# Indices 1 2 3 4 5 6 
#
# 1 182.5589 44.1829 49.1896 0.0000 0.1393 0.0000
# 2 44.1829 94.6725 35.4091 0.0000 6.8054 0.0000
# 3 49.1896 35.4091 112.2425 0.0000 -1.2552 0.0000
# 4 0.0000 0.0000 0.0000 18.3379 0.0000 5.1183
# 5 0.1393 6.8054 -1.2552 0.0000 50.4642 0.0000
# 6 0.0000 0.0000 0.0000 5.1183 0.0000 36.5743
#
#
#
# Elastic Compliance Matrix: (Units=1/GPa)
#
#
# Indices 1 2 3 4 5 6 
#
# 1 0.006618 -0.002292 -0.002175 0.000000 0.000237 0.000000
# 2 -0.002292 0.012919 -0.003091 0.000000 -0.001813 0.000000
# 3 -0.002175 -0.003091 0.010845 0.000000 0.000693 0.000000
# 4 0.000000 0.000000 0.000000 0.056748 0.000000 -0.007942
# 5 0.000237 -0.001813 0.000693 0.000000 0.020077 0.000000
# 6 0.000000 0.000000 0.000000 -0.007942 0.000000 0.028453
#
#
# Mechanical properties :
#
#
# Convention : Reuss Voigt Hill
#
# Bulk Modulus (GPa) = 65.50441 71.89300 68.69870
# Shear Modulus (GPa) = 32.07885 38.45479 35.26682
#
# Velocity S-wave (km/s) = 3.66314 4.01069 3.84084
# Velocity P-wave (km/s) = 6.72992 7.17776 6.95745
#
# Compressibility (1/GPa) = 0.01526615
#
# Stress axis : x y z
#
# Youngs Moduli (GPa) = 151.09779 77.40514 92.20669
#
# Poissons Ratio (x) = 0.17744 0.20051
# Poissons Ratio (y) = 0.34637 0.28503
# Poissons Ratio (z) = 0.32857 0.23928
#
# Static dielectric constant tensor:
#      x y z
#    x 2.001050 0.000000 -0.074730 
#    y 0.000000 2.026600 0.000000 
#    z -0.074730 0.000000 2.045700 
# 
# From -- ./inp_files/29229.got.cif
#   From: 2010.05.17/outbox.cif.g08.bks.cpg/sg13_15_cif.got.tgz:29229.got - 2010.06.03 16:44:36.
