data_PCOD9233605
_publ_section_title
;
Structure prediction by ZEFSAII (Michael W. Deem and Ramdas Pophale) SiO2 
 PCOD9233605
Probable space group: P 2/C
;
_chemical_formula_sum "Si O2"
_cell_formula_units_Z 28
_cell_length_a 8.128249
_cell_length_b 5.454972
_cell_length_c 27.223039
_cell_angle_alpha 90.000000
_cell_angle_beta 72.507829
_cell_angle_gamma 90.000000
_cell_volume 1151.235937
_symmetry_space_group_name_H-M "P 2/C"
_symmetry_group_IT_number 13
_symmetry_cell_setting 'monoclinic'
loop_
_space_group_symop_operation_xyz
x,y,z
-x,y,1/2-z
-x,-y,-z
x,-y,1/2+z
loop_
_atom_site_type_symbol
_atom_site_label
_atom_site_fract_x
_atom_site_fract_y
_atom_site_fract_z
Si Si1 0.562737 0.903187 0.811254
Si Si2 0.150238 0.662476 0.645246
Si Si3 0.119070 0.949493 0.783088
Si Si4 0.980184 0.736112 0.116027
Si Si5 0.464810 0.693928 0.460036
Si Si6 0.390882 0.423270 0.858650
Si Si7 0.781963 0.036988 0.456640
O O1 0.702865 0.808463 0.839291
O O2 0.686693 0.939878 0.753205
O O3 0.445757 0.658287 0.821728
O O4 0.470306 0.160813 0.833039
O O5 0.980184 0.698844 0.694439
O O6 0.139021 0.378646 0.632959
O O7 0.154396 0.773372 0.590254
O O8 0.000000 0.061675 0.750000
O O9 0.100057 0.081357 0.836664
O O10 0.815947 0.571455 0.119434
O O11 0.062827 0.844045 0.059234
O O12 0.500000 0.500000 0.500000
O O13 0.458358 0.561365 0.408552
O O14 0.612778 0.898265 0.451062
O O15 0.284705 0.830125 0.488845
#
# Coordination Sequence:
#
# PCOD9233605 Si02
#       7
#     4   4   4   4   4   4   4
#     4  11  25  47  70 102 140 194 237 294 350 446
#     4  10  21  43  70 100 134 184 240 291 346 428
#     4   9  23  42  71  99 131 183 243 284 352 427
#     4  11  25  43  70 104 146 187 230 310 363 430
#     4  11  23  43  72 105 134 195 242 301 353 442
#     4  12  28  45  70 106 152 184 238 298 375 416
#     4  10  21  41  70  99 135 180 248 281 356 423
#
# _framework density 24.321684999999999
#
# number of rings (size 3 to 8) (size 9 to 14) (size 15 to 20)
#    0.000    1.429    1.429    2.571   12.000    1.714 
#    0.000    2.857    0.000    0.000    0.000    0.000 
#    0.000    0.000    0.000    0.000    0.000    0.000 
#
# Total GULP energy -156212.694443 kJ/mol
# GULP energy per Si atom -5579.024802 kJ/mol
# Density = 2.426633 g / cm^3
# Si number density = 24.321685 Si / 1000 Ang^3
#
#
#
# Elastic Constant Matrix: (Units=GPa)
#
#
# Indices 1 2 3 4 5 6 
#
# 1 83.8678 24.8572 32.5336 0.0000 -22.2680 0.0000
# 2 24.8572 98.5112 47.3649 0.0000 -17.1057 0.0000
# 3 32.5336 47.3649 121.0006 0.0000 -30.9685 0.0000
# 4 0.0000 0.0000 0.0000 37.7838 0.0000 -8.3422
# 5 -22.2680 -17.1057 -30.9685 0.0000 46.9464 0.0000
# 6 0.0000 0.0000 0.0000 -8.3422 0.0000 25.6006
#
#
#
# Elastic Compliance Matrix: (Units=1/GPa)
#
#
# Indices 1 2 3 4 5 6 
#
# 1 0.014537 -0.001895 -0.001899 0.000000 0.004952 0.000000
# 2 -0.001895 0.012852 -0.004275 0.000000 0.000964 0.000000
# 3 -0.001899 -0.004275 0.011814 0.000000 0.005335 0.000000
# 4 0.000000 0.000000 0.000000 0.028518 0.000000 0.009293
# 5 0.004952 0.000964 0.005335 0.000000 0.027520 0.000000
# 6 0.000000 0.000000 0.000000 0.009293 0.000000 0.042090
#
#
# Mechanical properties :
#
#
# Convention : Reuss Voigt Hill
#
# Bulk Modulus (GPa) = 43.35654 56.98789 50.17222
# Shear Modulus (GPa) = 31.02580 35.30775 33.16677
#
# Velocity S-wave (km/s) = 3.57549 3.81425 3.69680
# Velocity P-wave (km/s) = 5.90851 6.54826 6.23660
#
# Compressibility (1/GPa) = 0.02306457
#
# Stress axis : x y z
#
# Youngs Moduli (GPa) = 68.79129 77.80927 84.64775
#
# Poissons Ratio (x) = 0.14744 0.16078
# Poissons Ratio (y) = 0.13036 0.36183
# Poissons Ratio (z) = 0.13066 0.33260
#
# Static dielectric constant tensor:
#      x y z
#    x 2.086090 0.000000 -0.012610 
#    y 0.000000 2.061490 0.000000 
#    z -0.012610 0.000000 1.890120 
# 
# From -- ./inp_files/95416.got.cif
#   From: 2010.05.17/outbox.cif.g08.bks.cpg/sg13_48_cif.got.tgz:95416.got - 2010.06.03 16:44:36.
