data_PCOD9233306
_publ_section_title
;
Structure prediction by ZEFSAII (Michael W. Deem and Ramdas Pophale) SiO2 
 PCOD9233306
Probable space group: P 2/C
;
_chemical_formula_sum "Si O2"
_cell_formula_units_Z 28
_cell_length_a 9.239345
_cell_length_b 11.176509
_cell_length_c 14.726664
_cell_angle_alpha 90.000000
_cell_angle_beta 114.846602
_cell_angle_gamma 90.000000
_cell_volume 1379.963964
_symmetry_space_group_name_H-M "P 2/C"
_symmetry_group_IT_number 13
_symmetry_cell_setting 'monoclinic'
loop_
_space_group_symop_operation_xyz
x,y,z
-x,y,1/2-z
-x,-y,-z
x,-y,1/2+z
loop_
_atom_site_type_symbol
_atom_site_label
_atom_site_fract_x
_atom_site_fract_y
_atom_site_fract_z
Si Si1 0.137711 0.931572 0.481693
Si Si2 0.247333 0.306462 0.552360
Si Si3 0.440516 0.803705 0.632568
Si Si4 0.647213 0.550799 0.857644
Si Si5 0.358815 0.098124 0.462744
Si Si6 0.992942 0.423948 0.356602
Si Si7 0.993458 0.302504 0.856652
O O1 0.295949 0.897731 0.581181
O O2 0.086575 0.806715 0.425527
O O3 0.197606 0.022862 0.420512
O O4 0.000000 0.000000 0.500000
O O5 0.343039 0.430177 0.581774
O O6 0.342107 0.191371 0.541574
O O7 0.176017 0.292380 0.635173
O O8 0.099600 0.333342 0.444246
O O9 0.500000 0.806030 0.750000
O O10 0.379649 0.671288 0.593237
O O11 0.594720 0.827133 0.612171
O O12 0.500000 0.538181 0.750000
O O13 0.811514 0.573240 0.845251
O O14 0.500000 0.000000 0.500000
O O15 0.051018 0.561208 0.390060
O O16 0.000000 0.401679 0.250000
O O17 0.000000 0.289270 0.750000
#
# Coordination Sequence:
#
# PCOD9233306 Si02
#       7
#     4   4   4   4   4   4   4
#     4  11  21  41  68  91 122 171 223 268 314 389
#     4  11  21  42  68  94 133 176 210 267 330 389
#     4  10  23  42  61  90 135 165 208 271 325 383
#     4  10  22  40  62  99 129 163 215 266 332 393
#     4  10  24  43  59  92 128 165 221 259 316 380
#     4  10  22  39  67  99 133 166 218 268 329 398
#     4  10  21  40  64  97 127 161 221 274 322 379
#
# _framework density 20.290386000000002
#
# number of rings (size 3 to 8) (size 9 to 14) (size 15 to 20)
#    0.000    1.714    1.429    3.429    4.000    1.714 
#   15.429    1.429    0.000    0.000    0.000    0.000 
#    0.000    0.000    0.000    0.000    0.000    0.000 
#
# Total GULP energy -156114.935950 kJ/mol
# GULP energy per Si atom -5575.533427 kJ/mol
# Density = 2.024420 g / cm^3
# Si number density = 20.290386 Si / 1000 Ang^3
#
#
#
# Elastic Constant Matrix: (Units=GPa)
#
#
# Indices 1 2 3 4 5 6 
#
# 1 106.0221 56.4973 26.3803 0.0000 -12.5724 0.0000
# 2 56.4973 111.5859 25.4188 0.0000 -4.5477 0.0000
# 3 26.3803 25.4188 46.7933 0.0000 -2.6308 0.0000
# 4 0.0000 0.0000 0.0000 115.0237 0.0000 75.0834
# 5 -12.5724 -4.5477 -2.6308 0.0000 36.4726 0.0000
# 6 0.0000 0.0000 0.0000 75.0834 0.0000 112.9478
#
#
#
# Elastic Compliance Matrix: (Units=1/GPa)
#
#
# Indices 1 2 3 4 5 6 
#
# 1 0.014216 -0.006009 -0.004535 0.000000 0.003824 0.000000
# 2 -0.006009 0.012795 -0.003604 0.000000 -0.000736 0.000000
# 3 -0.004535 -0.003604 0.025877 0.000000 -0.000146 0.000000
# 4 0.000000 0.000000 0.000000 0.015358 0.000000 -0.010210
# 5 0.003824 -0.000736 -0.000146 0.000000 0.028634 0.000000
# 6 0.000000 0.000000 0.000000 -0.010210 0.000000 0.015641
#
#
# Mechanical properties :
#
#
# Convention : Reuss Voigt Hill
#
# Bulk Modulus (GPa) = 40.66483 53.44376 47.05430
# Shear Modulus (GPa) = 33.55376 63.29584 48.42480
#
# Velocity S-wave (km/s) = 4.07096 5.59131 4.89057
# Velocity P-wave (km/s) = 6.49475 8.25108 7.42503
#
# Compressibility (1/GPa) = 0.02459127
#
# Stress axis : x y z
#
# Youngs Moduli (GPa) = 70.34399 78.15537 38.64411
#
# Poissons Ratio (x) = 0.46961 0.17527
# Poissons Ratio (y) = 0.42267 0.13929
# Poissons Ratio (z) = 0.31904 0.28170
#
# Static dielectric constant tensor:
#      x y z
#    x 1.766460 0.000000 0.001510 
#    y 0.000000 1.768760 0.000000 
#    z 0.001510 0.000000 1.720110 
# 
# From -- ./inp_files/47307.got.cif
#   From: 2010.05.17/outbox.cif.g08.bks.cpg/sg13_24_cif.got.tgz:47307.got - 2010.06.03 16:44:36.
