data_PCOD9233218
_publ_section_title
;
Structure prediction by ZEFSAII (Michael W. Deem and Ramdas Pophale) SiO2 
 PCOD9233218
Probable space group: P 2/C
;
_chemical_formula_sum "Si O2"
_cell_formula_units_Z 20
_cell_length_a 7.844939
_cell_length_b 13.539037
_cell_length_c 10.642332
_cell_angle_alpha 90.000000
_cell_angle_beta 126.052415
_cell_angle_gamma 90.000000
_cell_volume 913.866719
_symmetry_space_group_name_H-M "P 2/C"
_symmetry_group_IT_number 13
_symmetry_cell_setting 'monoclinic'
loop_
_space_group_symop_operation_xyz
x,y,z
-x,y,1/2-z
-x,-y,-z
x,-y,1/2+z
loop_
_atom_site_type_symbol
_atom_site_label
_atom_site_fract_x
_atom_site_fract_y
_atom_site_fract_z
Si Si1 0.419063 0.103858 0.840490
Si Si2 0.101231 0.381122 0.930572
Si Si3 0.843577 0.616480 0.565298
Si Si4 0.485890 0.262720 0.046096
Si Si5 0.763874 0.089639 0.185687
O O1 0.500000 0.152792 0.750000
O O2 0.270824 0.010348 0.751563
O O3 0.341828 0.186524 0.902291
O O4 0.633459 0.066682 0.001499
O O5 0.160060 0.497686 0.951145
O O6 0.000000 0.359713 0.750000
O O7 0.323111 0.327718 0.050195
O O8 0.942677 0.352479 0.974499
O O9 0.627295 0.669350 0.514069
O O10 0.000000 0.637164 0.750000
O O11 0.646605 0.187348 0.184591
O O12 0.000000 0.109906 0.250000
#
# Coordination Sequence:
#
# PCOD9233218 Si02
#       5
#     4   4   4   4   4
#     4   9  21  39  57  88 118 160 206 254 318 365
#     4  10  23  39  63  91 125 166 206 252 315 374
#     4  10  22  41  60  92 128 162 203 258 315 364
#     4  10  21  40  60  92 118 164 209 260 299 382
#     4   9  20  40  55  84 122 156 203 255 311 367
#
# _framework density 21.885027999999998
#
# number of rings (size 3 to 8) (size 9 to 14) (size 15 to 20)
#    1.200    1.200    0.000    1.200    2.800    2.400 
#    7.200    6.000    0.000    0.000    0.000    0.000 
#    0.000    0.000    0.000    0.000    0.000    0.000 
#
# Total GULP energy -111337.637212 kJ/mol
# GULP energy per Si atom -5566.881861 kJ/mol
# Density = 2.183522 g / cm^3
# Si number density = 21.885028 Si / 1000 Ang^3
#
#
#
# Elastic Constant Matrix: (Units=GPa)
#
#
# Indices 1 2 3 4 5 6 
#
# 1 101.9440 33.4981 19.0850 0.0000 12.3602 0.0000
# 2 33.4981 66.6660 6.6082 0.0000 12.8608 0.0000
# 3 19.0850 6.6082 50.8779 0.0000 -11.7428 0.0000
# 4 0.0000 0.0000 0.0000 9.1581 0.0000 0.8996
# 5 12.3602 12.8608 -11.7428 0.0000 25.6034 0.0000
# 6 0.0000 0.0000 0.0000 0.8996 0.0000 46.2995
#
#
#
# Elastic Compliance Matrix: (Units=1/GPa)
#
#
# Indices 1 2 3 4 5 6 
#
# 1 0.013313 -0.004804 -0.005923 0.000000 -0.006730 0.000000
# 2 -0.004804 0.019349 -0.002706 0.000000 -0.008641 0.000000
# 3 -0.005923 -0.002706 0.025949 0.000000 0.016120 0.000000
# 4 0.000000 0.000000 0.000000 0.109402 0.000000 -0.002126
# 5 -0.006730 -0.008641 0.016120 0.000000 0.054040 0.000000
# 6 0.000000 0.000000 0.000000 -0.002126 0.000000 0.021640
#
#
# Mechanical properties :
#
#
# Convention : Reuss Voigt Hill
#
# Bulk Modulus (GPa) = 31.50073 37.54116 34.52095
# Shear Modulus (GPa) = 17.78478 26.89865 22.34172
#
# Velocity S-wave (km/s) = 2.85379 3.50964 3.19857
# Velocity P-wave (km/s) = 5.02830 5.79780 5.42671
#
# Compressibility (1/GPa) = 0.03174530
#
# Stress axis : x y z
#
# Youngs Moduli (GPa) = 75.11607 51.68202 38.53769
#
# Poissons Ratio (x) = 0.24827 0.22827
# Poissons Ratio (y) = 0.36084 0.10426
# Poissons Ratio (z) = 0.44493 0.13983
#
# Static dielectric constant tensor:
#      x y z
#    x 1.782920 0.000000 -0.024440 
#    y 0.000000 1.840810 0.000000 
#    z -0.024440 0.000000 1.851760 
# 
# From -- ./inp_files/26309.got.cif
#   From: 2010.05.17/outbox.cif.g08.bks.cpg/sg13_14_cif.got.tgz:26309.got - 2010.06.03 16:44:36.
