data_PCOD9233774
_publ_section_title
;
Structure prediction by ZEFSAII (Michael W. Deem and Ramdas Pophale) SiO2 
 PCOD9233774
Probable space group: P 2/C
;
_chemical_formula_sum "Si O2"
_cell_formula_units_Z 28
_cell_length_a 8.721431
_cell_length_b 8.554986
_cell_length_c 28.080808
_cell_angle_alpha 90.000000
_cell_angle_beta 40.476088
_cell_angle_gamma 90.000000
_cell_volume 1360.030859
_symmetry_space_group_name_H-M "P 2/C"
_symmetry_group_IT_number 13
_symmetry_cell_setting 'monoclinic'
loop_
_space_group_symop_operation_xyz
x,y,z
-x,y,1/2-z
-x,-y,-z
x,-y,1/2+z
loop_
_atom_site_type_symbol
_atom_site_label
_atom_site_fract_x
_atom_site_fract_y
_atom_site_fract_z
Si Si1 0.416178 0.348310 0.112742
Si Si2 0.770578 0.405598 0.770603
Si Si3 0.053286 0.628949 0.027179
Si Si4 0.051788 0.421004 0.121135
Si Si5 0.242573 0.953147 0.704239
Si Si6 0.248947 0.131487 0.312587
Si Si7 0.381705 0.850482 0.352912
O O1 0.390577 0.489748 0.156262
O O2 0.297075 0.395560 0.091042
O O3 0.264478 0.206732 0.170266
O O4 0.687935 0.302357 0.043823
O O5 0.598787 0.270283 0.789929
O O6 0.000000 0.366623 0.750000
O O7 0.875382 0.508846 0.702877
O O8 0.064920 0.541290 0.075049
O O9 0.843918 0.753947 0.077865
O O10 0.000000 0.500000 0.000000
O O11 0.950265 0.254930 0.126683
O O12 0.214344 0.921283 0.766801
O O13 0.000000 0.037353 0.750000
O O14 0.481912 0.048046 0.639561
O O15 0.500000 0.220284 0.250000
O O16 0.293401 0.979398 0.335067
#
# Coordination Sequence:
#
# PCOD9233774 Si02
#       7
#     4   4   4   4   4   4   4
#     4  11  22  48  69  99 133 183 232 277 340 419
#     4  10  21  42  73 101 128 174 233 291 340 388
#     4  12  28  45  67  99 145 185 229 279 345 413
#     4  11  24  43  73  97 132 182 233 282 340 406
#     4  11  21  43  71 100 136 172 227 284 343 402
#     4  10  23  39  66 103 131 168 222 282 344 395
#     4  11  26  41  65 103 141 170 222 284 343 405
#
# _framework density 20.587768000000001
#
# number of rings (size 3 to 8) (size 9 to 14) (size 15 to 20)
#    0.000    1.143    4.286    1.286   12.000    0.571 
#    0.000    0.714    0.000    0.000    0.000    0.000 
#    0.000    0.000    0.000    0.000    0.000    0.000 
#
# Total GULP energy -156215.997300 kJ/mol
# GULP energy per Si atom -5579.142761 kJ/mol
# Density = 2.054091 g / cm^3
# Si number density = 20.587768 Si / 1000 Ang^3
#
#
#
# Elastic Constant Matrix: (Units=GPa)
#
#
# Indices 1 2 3 4 5 6 
#
# 1 105.5931 31.4778 42.0353 0.0000 -9.2990 0.0000
# 2 31.4778 92.6374 32.0737 0.0000 -5.9099 0.0000
# 3 42.0353 32.0737 83.6478 0.0000 -23.2194 0.0000
# 4 0.0000 0.0000 0.0000 18.2676 0.0000 -12.6543
# 5 -9.2990 -5.9099 -23.2194 0.0000 33.0480 0.0000
# 6 0.0000 0.0000 0.0000 -12.6543 0.0000 24.6190
#
#
#
# Elastic Compliance Matrix: (Units=1/GPa)
#
#
# Indices 1 2 3 4 5 6 
#
# 1 0.012283 -0.002317 -0.005515 0.000000 -0.000833 0.000000
# 2 -0.002317 0.012937 -0.004143 0.000000 -0.001249 0.000000
# 3 -0.005515 -0.004143 0.019477 0.000000 0.011392 0.000000
# 4 0.000000 0.000000 0.000000 0.085011 0.000000 0.043696
# 5 -0.000833 -0.001249 0.011392 0.000000 0.037805 0.000000
# 6 0.000000 0.000000 0.000000 0.043696 0.000000 0.063079
#
#
# Mechanical properties :
#
#
# Convention : Reuss Voigt Hill
#
# Bulk Modulus (GPa) = 48.20118 54.78354 51.49236
# Shear Modulus (GPa) = 19.12343 26.93967 23.03155
#
# Velocity S-wave (km/s) = 3.05105 3.62128 3.34833
# Velocity P-wave (km/s) = 5.98959 6.64473 6.32565
#
# Compressibility (1/GPa) = 0.02074638
#
# Stress axis : x y z
#
# Youngs Moduli (GPa) = 81.41060 77.29872 51.34192
#
# Poissons Ratio (x) = 0.17913 0.28318
# Poissons Ratio (y) = 0.18866 0.21269
# Poissons Ratio (z) = 0.44902 0.32022
#
# Static dielectric constant tensor:
#      x y z
#    x 2.006820 0.000000 -0.080170 
#    y 0.000000 1.767980 0.000000 
#    z -0.080170 0.000000 1.737330 
# 
# From -- ./inp_files/95914.got.cif
#   From: 2010.05.17/outbox.cif.g08.bks.cpg/sg13_48_cif.got.tgz:95914.got - 2010.06.03 16:44:36.
