data_PCOD9233744
_publ_section_title
;
Structure prediction by ZEFSAII (Michael W. Deem and Ramdas Pophale) SiO2 
 PCOD9233744
Probable space group: P 2/C
;
_chemical_formula_sum "Si O2"
_cell_formula_units_Z 32
_cell_length_a 13.779076
_cell_length_b 8.986120
_cell_length_c 21.802915
_cell_angle_alpha 90.000000
_cell_angle_beta 147.170339
_cell_angle_gamma 90.000000
_cell_volume 1463.595121
_symmetry_space_group_name_H-M "P 2/C"
_symmetry_group_IT_number 13
_symmetry_cell_setting 'monoclinic'
loop_
_space_group_symop_operation_xyz
x,y,z
-x,y,1/2-z
-x,-y,-z
x,-y,1/2+z
loop_
_atom_site_type_symbol
_atom_site_label
_atom_site_fract_x
_atom_site_fract_y
_atom_site_fract_z
Si Si1 0.933759 0.585855 0.404749
Si Si2 0.185904 0.313475 0.881157
Si Si3 0.531145 0.664906 0.196335
Si Si4 0.550615 0.988816 0.843924
Si Si5 0.528202 0.863536 0.561883
Si Si6 0.068835 0.118575 0.222109
Si Si7 0.927488 0.119882 0.563437
Si Si8 0.832766 0.401053 0.067376
O O1 0.721737 0.595716 0.279623
O O2 0.000000 0.500000 0.500000
O O3 0.993012 0.759713 0.440798
O O4 0.031636 0.494977 0.403169
O O5 0.160182 0.228311 0.932185
O O6 0.195627 0.490955 0.890401
O O7 0.000000 0.278137 0.750000
O O8 0.375250 0.251024 0.959566
O O9 0.500000 0.618584 0.250000
O O10 0.528892 0.845006 0.194246
O O11 0.359544 0.616276 0.066439
O O12 0.500000 0.922615 0.750000
O O13 0.497077 0.909346 0.879583
O O14 0.766806 0.984718 0.955989
O O15 0.733835 0.815740 0.665438
O O16 0.500000 0.000000 0.500000
O O17 0.000000 0.053672 0.250000
O O18 0.925582 0.244914 0.129689
O O19 0.068057 0.987910 0.171340
#
# Coordination Sequence:
#
# PCOD9233744 Si02
#       8
#     4   4   4   4   4   4   4   4
#     4  11  24  43  67 100 137 189 234 291 361 436
#     4  10  22  44  64  96 134 177 230 291 354 422
#     4  11  22  43  69  92 142 184 233 294 367 428
#     4  10  22  43  68 108 136 182 234 297 357 425
#     4  11  24  42  73 105 137 189 240 294 367 433
#     4  12  24  44  68 102 139 183 240 302 353 431
#     4  10  21  42  69  95 137 178 228 287 351 429
#     4  11  25  43  65 100 138 184 240 295 366 430
#
# _framework density 21.863969000000001
#
# number of rings (size 3 to 8) (size 9 to 14) (size 15 to 20)
#    0.000    1.250    2.500    3.750    1.750    2.000 
#    4.500    3.750    0.000    0.000    0.000    0.000 
#    0.000    0.000    0.000    0.000    0.000    0.000 
#
# Total GULP energy -178608.186964 kJ/mol
# GULP energy per Si atom -5581.505843 kJ/mol
# Density = 2.181421 g / cm^3
# Si number density = 21.863969 Si / 1000 Ang^3
#
#
#
# Elastic Constant Matrix: (Units=GPa)
#
#
# Indices 1 2 3 4 5 6 
#
# 1 63.2293 27.6021 48.7299 0.0000 7.3423 0.0000
# 2 27.6021 112.7734 49.0222 0.0000 3.2027 0.0000
# 3 48.7299 49.0222 176.5577 0.0000 25.2704 0.0000
# 4 0.0000 0.0000 0.0000 39.1095 0.0000 6.2782
# 5 7.3423 3.2027 25.2704 0.0000 38.1370 0.0000
# 6 0.0000 0.0000 0.0000 6.2782 0.0000 36.0443
#
#
#
# Elastic Compliance Matrix: (Units=1/GPa)
#
#
# Indices 1 2 3 4 5 6 
#
# 1 0.020939 -0.002993 -0.004869 0.000000 -0.000554 0.000000
# 2 -0.002993 0.010555 -0.002276 0.000000 0.001198 0.000000
# 3 -0.004869 -0.002276 0.008262 0.000000 -0.004346 0.000000
# 4 0.000000 0.000000 0.000000 0.026305 0.000000 -0.004582
# 5 -0.000554 0.001198 -0.004346 0.000000 0.029107 0.000000
# 6 0.000000 0.000000 0.000000 -0.004582 0.000000 0.028542
#
#
# Mechanical properties :
#
#
# Convention : Reuss Voigt Hill
#
# Bulk Modulus (GPa) = 51.33470 67.02985 59.18228
# Shear Modulus (GPa) = 33.22756 37.80526 35.51641
#
# Velocity S-wave (km/s) = 3.90261 4.16277 4.03479
# Velocity P-wave (km/s) = 6.62097 7.33683 6.98808
#
# Compressibility (1/GPa) = 0.01948000
#
# Stress axis : x y z
#
# Youngs Moduli (GPa) = 47.75889 94.73958 121.04063
#
# Poissons Ratio (x) = 0.28352 0.58933
# Poissons Ratio (y) = 0.14293 0.27551
# Poissons Ratio (z) = 0.23253 0.21565
#
# Static dielectric constant tensor:
#      x y z
#    x 1.876760 0.000000 -0.062870 
#    y 0.000000 1.804600 0.000000 
#    z -0.062870 0.000000 2.181760 
# 
# From -- ./inp_files/87455.got.cif
#   From: 2010.05.17/outbox.cif.g08.bks.cpg/sg13_44_cif.got.tgz:87455.got - 2010.06.03 16:44:36.
