data_PCOD9233870
_publ_section_title
;
Structure prediction by ZEFSAII (Michael W. Deem and Ramdas Pophale) SiO2 
 PCOD9233870
Probable space group: P 2/C
;
_chemical_formula_sum "Si O2"
_cell_formula_units_Z 26
_cell_length_a 28.726879
_cell_length_b 6.922488
_cell_length_c 19.592179
_cell_angle_alpha 90.000000
_cell_angle_beta 161.730199
_cell_angle_gamma 90.000000
_cell_volume 1221.405454
_symmetry_space_group_name_H-M "P 2/C"
_symmetry_group_IT_number 13
_symmetry_cell_setting 'monoclinic'
loop_
_space_group_symop_operation_xyz
x,y,z
-x,y,1/2-z
-x,-y,-z
x,-y,1/2+z
loop_
_atom_site_type_symbol
_atom_site_label
_atom_site_fract_x
_atom_site_fract_y
_atom_site_fract_z
Si Si1 0.310003 0.112959 0.192041
Si Si2 0.449139 0.223648 0.803191
Si Si3 0.226262 0.354960 0.807073
Si Si4 0.245999 0.965081 0.751346
Si Si5 0.500000 0.500000 0.500000
Si Si6 0.500000 0.443104 0.750000
Si Si7 0.000000 0.321913 0.750000
Si Si8 0.975885 0.627176 0.067092
O O1 0.295671 0.990635 0.242756
O O2 0.412802 0.296750 0.353510
O O3 0.370256 0.971860 0.217842
O O4 0.147605 0.193570 0.948521
O O5 0.404047 0.311408 0.667856
O O6 0.622839 0.168912 0.037311
O O7 0.437748 0.384431 0.845897
O O8 0.138909 0.490855 0.632380
O O9 0.130138 0.364514 0.742221
O O10 0.228944 0.147242 0.775623
O O11 0.390711 0.427704 0.052346
O O12 0.097610 0.839221 0.538023
O O13 0.985898 0.436233 0.659591
#
# Coordination Sequence:
#
# PCOD9233870 Si02
#       8
#     4   4   4   4   2   2   2   4
#     4  10  24  43  69 104 135 180 232 291 352 413
#     4  11  25  42  67 101 136 177 229 291 346 416
#     4  11  25  45  68  97 138 188 225 284 346 409
#     4  10  21  43  71  95 128 180 227 282 351 411
#     4  10  22  44  74  96 132 176 234 290 350 404
#     4  12  28  44  64 110 138 182 244 278 348 424
#     4  10  24  44  68 102 136 176 232 284 342 422
#     4  10  23  47  66  98 138 177 232 281 352 414
#
# _framework density 21.286950999999998
#
# number of rings (size 3 to 8) (size 9 to 14) (size 15 to 20)
#    0.000    1.538    1.538    2.308    6.462    1.846 
#   11.077    1.538    0.000    0.000    0.000    0.000 
#    0.000    0.000    0.000    0.000    0.000    0.000 
#
# Total GULP energy -144792.328952 kJ/mol
# GULP energy per Si atom -5568.935729 kJ/mol
# Density = 2.123850 g / cm^3
# Si number density = 21.286951 Si / 1000 Ang^3
#
#
#
# Elastic Constant Matrix: (Units=GPa)
#
#
# Indices 1 2 3 4 5 6 
#
# 1 106.2596 54.4005 21.8023 0.0000 -12.9673 0.0000
# 2 54.4005 71.7405 11.1406 0.0000 5.1654 0.0000
# 3 21.8023 11.1406 58.1978 0.0000 8.8524 0.0000
# 4 0.0000 0.0000 0.0000 -3.7247 0.0000 4.2929
# 5 -12.9673 5.1654 8.8524 0.0000 15.7313 0.0000
# 6 0.0000 0.0000 0.0000 4.2929 0.0000 33.7864
#
#
#
# Elastic Compliance Matrix: (Units=1/GPa)
#
#
# Indices 1 2 3 4 5 6 
#
# 1 0.027019 -0.021277 -0.011482 0.000000 0.035719 0.000000
# 2 -0.021277 0.031296 0.006792 0.000000 -0.031637 0.000000
# 3 -0.011482 0.006792 0.024019 0.000000 -0.025211 0.000000
# 4 0.000000 0.000000 0.000000 -0.234181 0.000000 0.029755
# 5 0.035719 -0.031637 -0.025211 0.000000 0.117585 0.000000
# 6 0.000000 0.000000 0.000000 0.029755 0.000000 0.025817
#
#
# Mechanical properties :
#
#
# Convention : Reuss Voigt Hill
#
# Bulk Modulus (GPa) = 32.89447 45.65385 39.27416
# Shear Modulus (GPa) = 93.24651 19.08222 56.16436
#
# Velocity S-wave (km/s) = 6.62568 2.99729 5.14215
# Velocity P-wave (km/s) = 8.60345 5.78548 7.33113
#
# Compressibility (1/GPa) = 0.03040024
#
# Stress axis : x y z
#
# Youngs Moduli (GPa) = 37.01160 31.95254 41.63413
#
# Poissons Ratio (x) = 0.67985 0.47804
# Poissons Ratio (y) = 0.78749 -0.28278
# Poissons Ratio (z) = 0.42497 -0.21702
#
# Static dielectric constant tensor:
#      x y z
#    x 1.823680 0.000000 0.006250 
#    y 0.000000 1.741030 0.000000 
#    z 0.006250 0.000000 1.790130 
# 
# From -- ./inp_files/82697.got.cif
#   From: 2010.05.17/outbox.cif.g08.bks.cpg/sg13_42_cif.got.tgz:82697.got - 2010.06.03 16:44:36.
