data_PCOD9233350
_publ_section_title
;
Structure prediction by ZEFSAII (Michael W. Deem and Ramdas Pophale) SiO2 
 PCOD9233350
Probable space group: P 2/C
;
_chemical_formula_sum "Si O2"
_cell_formula_units_Z 28
_cell_length_a 12.728272
_cell_length_b 12.671959
_cell_length_c 8.787658
_cell_angle_alpha 90.000000
_cell_angle_beta 44.967352
_cell_angle_gamma 90.000000
_cell_volume 1001.667878
_symmetry_space_group_name_H-M "P 2/C"
_symmetry_group_IT_number 13
_symmetry_cell_setting 'monoclinic'
loop_
_space_group_symop_operation_xyz
x,y,z
-x,y,1/2-z
-x,-y,-z
x,-y,1/2+z
loop_
_atom_site_type_symbol
_atom_site_label
_atom_site_fract_x
_atom_site_fract_y
_atom_site_fract_z
Si Si1 0.889998 0.454736 0.742744
Si Si2 0.804908 0.766862 0.643946
Si Si3 0.488135 0.339308 0.089109
Si Si4 0.091461 0.184257 0.026451
Si Si5 0.595479 0.066427 0.524613
Si Si6 0.721762 0.380811 0.634500
Si Si7 0.292188 0.855237 0.061796
O O1 0.778497 0.391015 0.753365
O O2 0.000000 0.400790 0.750000
O O3 0.000000 0.500000 0.500000
O O4 0.795455 0.536652 0.943478
O O5 0.688019 0.670562 0.763374
O O6 0.803483 0.799047 0.469047
O O7 0.964447 0.756936 0.557166
O O8 0.714744 0.859433 0.823717
O O9 0.500000 0.385441 0.250000
O O10 0.551468 0.383837 0.863754
O O11 0.571507 0.223460 0.027896
O O12 0.000000 0.125344 0.250000
O O13 0.202041 0.270245 0.987474
O O14 0.192573 0.120227 0.809935
O O15 0.500000 0.127514 0.750000
O O16 0.500000 0.000000 0.500000
O O17 0.664065 0.968409 0.546478
#
# Coordination Sequence:
#
# PCOD9233350 Si02
#       7
#     4   4   4   4   4   4   4
#     4   9  18  35  62  93 120 160 204 252 321 385
#     4  11  23  40  65  94 126 176 216 265 331 382
#     4   9  19  38  63  91 127 169 212 262 320 389
#     4  11  25  40  63  95 129 162 220 279 321 375
#     4  12  22  38  64  93 129 178 221 265 320 386
#     4  10  21  40  66  95 127 162 212 268 316 400
#     4  10  21  41  61  91 127 168 223 266 316 383
#
# _framework density 27.953378000000001
#
# number of rings (size 3 to 8) (size 9 to 14) (size 15 to 20)
#    0.000    1.714    2.857    2.143    2.000    4.000 
#    0.000    0.714    0.000    5.143    0.000    1.000 
#    0.000    0.000    0.000    0.000    0.000    0.000 
#
# Total GULP energy -156651.093473 kJ/mol
# GULP energy per Si atom -5594.681910 kJ/mol
# Density = 2.788975 g / cm^3
# Si number density = 27.953378 Si / 1000 Ang^3
#
#
#
# Elastic Constant Matrix: (Units=GPa)
#
#
# Indices 1 2 3 4 5 6 
#
# 1 106.0843 10.4244 20.1557 0.0000 7.2916 0.0000
# 2 10.4244 62.7912 42.4574 0.0000 6.9357 0.0000
# 3 20.1557 42.4574 216.4330 0.0000 15.9330 0.0000
# 4 0.0000 0.0000 0.0000 47.8013 0.0000 6.7624
# 5 7.2916 6.9357 15.9330 0.0000 44.5435 0.0000
# 6 0.0000 0.0000 0.0000 6.7624 0.0000 33.7714
#
#
#
# Elastic Compliance Matrix: (Units=1/GPa)
#
#
# Indices 1 2 3 4 5 6 
#
# 1 0.009730 -0.001071 -0.000607 0.000000 -0.001209 0.000000
# 2 -0.001071 0.018593 -0.003438 0.000000 -0.001490 0.000000
# 3 -0.000607 -0.003438 0.005448 0.000000 -0.001314 0.000000
# 4 0.000000 0.000000 0.000000 0.021530 0.000000 -0.004311
# 5 -0.001209 -0.001490 -0.001314 0.000000 0.023350 0.000000
# 6 0.000000 0.000000 0.000000 -0.004311 0.000000 0.030474
#
#
# Mechanical properties :
#
#
# Convention : Reuss Voigt Hill
#
# Bulk Modulus (GPa) = 42.48363 59.04259 50.76311
# Shear Modulus (GPa) = 39.30707 46.04130 42.67419
#
# Velocity S-wave (km/s) = 3.75396 4.06282 3.91144
# Velocity P-wave (km/s) = 5.83272 6.57087 6.21277
#
# Compressibility (1/GPa) = 0.02353848
#
# Stress axis : x y z
#
# Youngs Moduli (GPa) = 102.77325 53.78421 183.55252
#
# Poissons Ratio (x) = 0.05763 0.11141
# Poissons Ratio (y) = 0.11011 0.63103
# Poissons Ratio (z) = 0.06238 0.18490
#
# Static dielectric constant tensor:
#      x y z
#    x 2.323970 0.000000 -0.113590 
#    y 0.000000 2.208990 0.000000 
#    z -0.113590 0.000000 2.305470 
# 
# From -- ./inp_files/19832.got.cif
#   From: 2010.05.17/outbox.cif.g08.bks.cpg/sg13_10_cif.got.tgz:19832.got - 2010.06.03 16:44:36.
