data_PCOD9233348
_publ_section_title
;
Structure prediction by ZEFSAII (Michael W. Deem and Ramdas Pophale) SiO2 
 PCOD9233348
Probable space group: P 2/C
;
_chemical_formula_sum "Si O2"
_cell_formula_units_Z 30
_cell_length_a 19.604116
_cell_length_b 12.033286
_cell_length_c 10.375623
_cell_angle_alpha 90.000000
_cell_angle_beta 146.868174
_cell_angle_gamma 90.000000
_cell_volume 1337.794031
_symmetry_space_group_name_H-M "P 2/C"
_symmetry_group_IT_number 13
_symmetry_cell_setting 'monoclinic'
loop_
_space_group_symop_operation_xyz
x,y,z
-x,y,1/2-z
-x,-y,-z
x,-y,1/2+z
loop_
_atom_site_type_symbol
_atom_site_label
_atom_site_fract_x
_atom_site_fract_y
_atom_site_fract_z
Si Si1 0.361469 0.221698 0.985102
Si Si2 0.672869 0.608776 0.275338
Si Si3 0.788116 0.701393 0.031610
Si Si4 0.500000 0.195067 0.750000
Si Si5 0.405366 0.606763 0.950617
Si Si6 0.076336 0.521320 0.750137
Si Si7 0.146384 0.065219 0.987516
Si Si8 0.702921 0.977122 0.515235
O O1 0.500000 0.257242 0.250000
O O2 0.345977 0.271099 0.817671
O O3 0.240192 0.273032 0.865418
O O4 0.351235 0.093216 0.012449
O O5 0.665095 0.512006 0.150773
O O6 0.797151 0.593250 0.554769
O O7 0.551733 0.581775 0.169116
O O8 0.879110 0.602076 0.144984
O O9 0.833968 0.809639 0.031529
O O10 0.654284 0.657526 0.772233
O O11 0.403472 0.282539 0.533942
O O12 0.409705 0.110047 0.682212
O O13 0.000000 0.567772 0.750000
O O14 0.000000 0.500000 0.500000
O O15 0.226141 0.996267 0.007610
O O16 0.000000 0.035546 0.750000
O O17 0.202553 0.057568 0.220146
#
# Coordination Sequence:
#
# PCOD9233348 Si02
#       8
#     4   4   4   2   4   4   4   4
#     4  11  21  38  66  98 138 180 217 290 352 423
#     4  10  23  40  65 100 136 181 230 282 348 419
#     4  10  21  40  66  94 130 177 224 277 350 401
#     4  12  24  40  66 106 138 176 224 304 350 412
#     4  10  22  38  63  98 134 171 223 290 353 405
#     4  11  24  44  67  96 137 182 231 278 334 414
#     4  11  24  47  68  97 137 187 233 283 334 418
#     4  11  26  42  72 102 138 181 237 283 355 408
#
# _framework density 22.424976000000001
#
# number of rings (size 3 to 8) (size 9 to 14) (size 15 to 20)
#    0.000    1.333    3.333    1.600    2.800    2.667 
#    2.400    3.333    0.000    0.000    0.000    0.000 
#    0.000    0.000    0.000    0.000    0.000    0.000 
#
# Total GULP energy -167183.694593 kJ/mol
# GULP energy per Si atom -5572.789820 kJ/mol
# Density = 2.237394 g / cm^3
# Si number density = 22.424976 Si / 1000 Ang^3
#
#
#
# Elastic Constant Matrix: (Units=GPa)
#
#
# Indices 1 2 3 4 5 6 
#
# 1 49.6329 28.7402 32.8347 0.0000 6.8483 0.0000
# 2 28.7402 81.7526 -2.3003 0.0000 7.8729 0.0000
# 3 32.8347 -2.3003 104.8668 0.0000 7.4604 0.0000
# 4 0.0000 0.0000 0.0000 19.5855 0.0000 0.0245
# 5 6.8483 7.8729 7.4604 0.0000 31.7835 0.0000
# 6 0.0000 0.0000 0.0000 0.0245 0.0000 28.9909
#
#
#
# Elastic Compliance Matrix: (Units=1/GPa)
#
#
# Indices 1 2 3 4 5 6 
#
# 1 0.034912 -0.012407 -0.011072 0.000000 -0.001850 0.000000
# 2 -0.012407 0.016966 0.004440 0.000000 -0.002571 0.000000
# 3 -0.011072 0.004440 0.013229 0.000000 -0.001819 0.000000
# 4 0.000000 0.000000 0.000000 0.051058 0.000000 -0.000043
# 5 -0.001850 -0.002571 -0.001819 0.000000 0.032926 0.000000
# 6 0.000000 0.000000 0.000000 -0.000043 0.000000 0.034494
#
#
# Mechanical properties :
#
#
# Convention : Reuss Voigt Hill
#
# Bulk Modulus (GPa) = 36.99573 39.42239 38.20906
# Shear Modulus (GPa) = 21.67579 27.87051 24.77315
#
# Velocity S-wave (km/s) = 3.11238 3.52921 3.32733
# Velocity P-wave (km/s) = 5.42672 5.85021 5.64244
#
# Compressibility (1/GPa) = 0.02703015
#
# Stress axis : x y z
#
# Youngs Moduli (GPa) = 28.64355 58.94089 75.58927
#
# Poissons Ratio (x) = 0.73126 0.83690
# Poissons Ratio (y) = 0.35537 -0.33560
# Poissons Ratio (z) = 0.31713 -0.26168
#
# Static dielectric constant tensor:
#      x y z
#    x 1.732040 0.000000 -0.018830 
#    y 0.000000 1.863980 0.000000 
#    z -0.018830 0.000000 1.885010 
# 
# From -- ./inp_files/40906.got.cif
#   From: 2010.05.17/outbox.cif.g08.bks.cpg/sg13_21_cif.got.tgz:40906.got - 2010.06.03 16:44:36.
