data_PCOD9233470
_publ_section_title
;
Structure prediction by ZEFSAII (Michael W. Deem and Ramdas Pophale) SiO2 
 PCOD9233470
Probable space group: P 2/C
;
_chemical_formula_sum "Si O2"
_cell_formula_units_Z 22
_cell_length_a 6.218416
_cell_length_b 5.980026
_cell_length_c 26.892151
_cell_angle_alpha 90.000000
_cell_angle_beta 84.636797
_cell_angle_gamma 90.000000
_cell_volume 995.641422
_symmetry_space_group_name_H-M "P 2/C"
_symmetry_group_IT_number 13
_symmetry_cell_setting 'monoclinic'
loop_
_space_group_symop_operation_xyz
x,y,z
-x,y,1/2-z
-x,-y,-z
x,-y,1/2+z
loop_
_atom_site_type_symbol
_atom_site_label
_atom_site_fract_x
_atom_site_fract_y
_atom_site_fract_z
Si Si1 0.822874 0.570036 0.071111
Si Si2 0.153304 0.087364 0.614012
Si Si3 0.829083 0.811837 0.793044
Si Si4 0.500000 0.847229 0.250000
Si Si5 0.857357 0.809941 0.976254
Si Si6 0.479511 0.568648 0.157741
O O1 0.650010 0.483367 0.114019
O O2 0.964018 0.760040 0.095667
O O3 0.982288 0.374562 0.050292
O O4 0.728144 0.684200 0.022849
O O5 0.333418 0.250103 0.632333
O O6 0.070633 0.932159 0.660792
O O7 0.251095 0.933091 0.567916
O O8 0.671189 0.623661 0.817300
O O9 0.000000 0.719527 0.750000
O O10 0.688904 0.997003 0.767002
O O11 0.581680 0.693056 0.203040
O O12 0.000000 0.000000 0.000000
#
# Coordination Sequence:
#
# PCOD9233470 Si02
#       6
#     4   4   4   2   4   4
#     4  10  21  41  63  88 122 157 198 246 296 352
#     4  10  22  40  62  89 119 157 200 246 299 353
#     4  11  24  41  61  88 123 159 197 246 301 355
#     4  10  24  42  60  88 120 158 200 246 300 352
#     4   9  20  39  63  88 121 160 195 243 299 351
#     4  11  24  39  63  92 117 155 204 248 294 354
#
# _framework density 22.096309999999999
#
# number of rings (size 3 to 8) (size 9 to 14) (size 15 to 20)
#    0.000    1.818    0.000    2.727    0.000   15.273 
#    0.000   12.727    0.000    0.000    0.000    0.000 
#    0.000    0.000    0.000    0.000    0.000    0.000 
#
# Total GULP energy -122998.867174 kJ/mol
# GULP energy per Si atom -5590.857599 kJ/mol
# Density = 2.204602 g / cm^3
# Si number density = 22.096310 Si / 1000 Ang^3
#
#
#
# Elastic Constant Matrix: (Units=GPa)
#
#
# Indices 1 2 3 4 5 6 
#
# 1 31.4394 23.9629 54.1707 0.0000 -8.7774 0.0000
# 2 23.9629 112.6471 74.8621 0.0000 -3.3113 0.0000
# 3 54.1707 74.8621 188.3508 0.0000 -11.9986 0.0000
# 4 0.0000 0.0000 0.0000 -14.0048 0.0000 -14.7228
# 5 -8.7774 -3.3113 -11.9986 0.0000 32.2524 0.0000
# 6 0.0000 0.0000 0.0000 -14.7228 0.0000 15.7373
#
#
#
# Elastic Compliance Matrix: (Units=1/GPa)
#
#
# Indices 1 2 3 4 5 6 
#
# 1 0.067241 -0.002175 -0.017744 0.000000 0.011475 0.000000
# 2 -0.002175 0.012144 -0.004261 0.000000 -0.000930 0.000000
# 3 -0.017744 -0.004261 0.012056 0.000000 -0.000781 0.000000
# 4 0.000000 0.000000 0.000000 -0.035999 0.000000 -0.033678
# 5 0.011475 -0.000930 -0.000781 0.000000 0.033742 0.000000
# 6 0.000000 0.000000 0.000000 -0.033678 0.000000 0.032036
#
#
# Mechanical properties :
#
#
# Convention : Reuss Voigt Hill
#
# Bulk Modulus (GPa) = 23.21076 70.93654 47.07365
# Shear Modulus (GPa) = 27.18288 18.75973 22.97131
#
# Velocity S-wave (km/s) = 3.51123 2.91692 3.22778
# Velocity P-wave (km/s) = 5.19283 6.59679 5.93646
#
# Compressibility (1/GPa) = 0.04308347
#
# Stress axis : x y z
#
# Youngs Moduli (GPa) = 14.87186 82.34518 82.94615
#
# Poissons Ratio (x) = 0.17908 1.47176
# Poissons Ratio (y) = 0.03234 0.35340
# Poissons Ratio (z) = 0.26388 0.35084
#
# Static dielectric constant tensor:
#      x y z
#    x 1.799600 0.000000 0.017190 
#    y 0.000000 1.793110 0.000000 
#    z 0.017190 0.000000 1.832840 
# 
# From -- ./inp_files/88800.got.cif
#   From: 2010.05.17/outbox.cif.g08.bks.cpg/sg13_45_cif.got.tgz:88800.got - 2010.06.03 16:44:36.
