data_PCOD9233849
_publ_section_title
;
Structure prediction by ZEFSAII (Michael W. Deem and Ramdas Pophale) SiO2 
 PCOD9233849
Probable space group: P 2/C
;
_chemical_formula_sum "Si O2"
_cell_formula_units_Z 26
_cell_length_a 15.109298
_cell_length_b 15.001950
_cell_length_c 9.455242
_cell_angle_alpha 90.000000
_cell_angle_beta 144.821093
_cell_angle_gamma 90.000000
_cell_volume 1234.770467
_symmetry_space_group_name_H-M "P 2/C"
_symmetry_group_IT_number 13
_symmetry_cell_setting 'monoclinic'
loop_
_space_group_symop_operation_xyz
x,y,z
-x,y,1/2-z
-x,-y,-z
x,-y,1/2+z
loop_
_atom_site_type_symbol
_atom_site_label
_atom_site_fract_x
_atom_site_fract_y
_atom_site_fract_z
Si Si1 0.020258 0.591873 0.107907
Si Si2 0.681615 0.030514 0.847345
Si Si3 0.500000 0.191596 0.750000
Si Si4 0.710432 0.896905 0.103736
Si Si5 0.234027 0.260681 0.226531
Si Si6 0.956092 0.128252 0.338373
Si Si7 0.673804 0.296948 0.475948
O O1 0.186472 0.638237 0.295686
O O2 0.000000 0.577657 0.250000
O O3 0.000000 0.500000 0.000000
O O4 0.881766 0.659079 0.888487
O O5 0.596276 0.120863 0.783048
O O6 0.656929 0.030444 0.648753
O O7 0.853173 0.051670 0.131039
O O8 0.653536 0.935975 0.881666
O O9 0.393282 0.254432 0.516920
O O10 0.664070 0.793916 0.054770
O O11 0.890631 0.895758 0.377820
O O12 0.144970 0.175726 0.173876
O O13 0.270923 0.265437 0.108483
O O14 0.000000 0.182634 0.250000
O O15 0.500000 0.335413 0.250000
#
# Coordination Sequence:
#
# PCOD9233849 Si02
#       7
#     4   4   2   4   4   4   4
#     4  10  23  48  73 104 131 171 215 271 341 410
#     4  10  23  35  55  87 130 176 231 281 323 378
#     4  10  22  40  60  92 134 172 238 272 326 388
#     4  11  22  38  58  88 131 179 228 274 332 375
#     4  10  21  43  68  94 132 176 220 269 338 399
#     4   9  19  37  57  88 122 172 231 275 324 385
#     4  11  24  43  69  97 137 176 222 269 335 398
#
# _framework density 21.056546000000001
#
# number of rings (size 3 to 8) (size 9 to 14) (size 15 to 20)
#    0.000    1.846    1.538    1.385    5.385    1.231 
#    6.923    1.538    0.000    0.000    0.000    0.000 
#    0.000    0.000    0.000    0.000    0.000    0.000 
#
# Total GULP energy -144954.497298 kJ/mol
# GULP energy per Si atom -5575.172973 kJ/mol
# Density = 2.100862 g / cm^3
# Si number density = 21.056546 Si / 1000 Ang^3
#
#
#
# Elastic Constant Matrix: (Units=GPa)
#
#
# Indices 1 2 3 4 5 6 
#
# 1 74.2345 20.6268 21.1603 0.0000 9.5095 0.0000
# 2 20.6268 95.0565 50.0310 0.0000 3.9588 0.0000
# 3 21.1603 50.0310 131.1007 0.0000 18.9763 0.0000
# 4 0.0000 0.0000 0.0000 25.1191 0.0000 -13.2321
# 5 9.5095 3.9588 18.9763 0.0000 35.8261 0.0000
# 6 0.0000 0.0000 0.0000 -13.2321 0.0000 20.6909
#
#
#
# Elastic Compliance Matrix: (Units=1/GPa)
#
#
# Indices 1 2 3 4 5 6 
#
# 1 0.014867 -0.002593 -0.000954 0.000000 -0.003155 0.000000
# 2 -0.002593 0.013673 -0.005069 0.000000 0.001862 0.000000
# 3 -0.000954 -0.005069 0.010395 0.000000 -0.004693 0.000000
# 4 0.000000 0.000000 0.000000 0.060035 0.000000 0.038393
# 5 -0.003155 0.001862 -0.004693 0.000000 0.031030 0.000000
# 6 0.000000 0.000000 0.000000 0.038393 0.000000 0.072883
#
#
# Mechanical properties :
#
#
# Convention : Reuss Voigt Hill
#
# Bulk Modulus (GPa) = 46.07261 53.78088 49.92675
# Shear Modulus (GPa) = 21.99263 30.23213 26.11238
#
# Velocity S-wave (km/s) = 3.23531 3.79325 3.52534
# Velocity P-wave (km/s) = 5.99034 6.69191 6.35082
#
# Compressibility (1/GPa) = 0.02170487
#
# Stress axis : x y z
#
# Youngs Moduli (GPa) = 67.26218 73.13619 96.19658
#
# Poissons Ratio (x) = 0.18963 0.09172
# Poissons Ratio (y) = 0.17440 0.48762
# Poissons Ratio (z) = 0.06414 0.37073
#
# Static dielectric constant tensor:
#      x y z
#    x 1.944110 0.000000 0.049430 
#    y 0.000000 1.727270 0.000000 
#    z 0.049430 0.000000 1.811600 
# 
# From -- ./inp_files/19920.got.cif
#   From: 2010.05.17/outbox.cif.g08.bks.cpg/sg13_10_cif.got.tgz:19920.got - 2010.06.03 16:44:36.
