data_PCOD9233030
_publ_section_title
;
Structure prediction by ZEFSAII (Michael W. Deem and Ramdas Pophale) SiO2 
 PCOD9233030
Probable space group: P 2/C
;
_chemical_formula_sum "Si O2"
_cell_formula_units_Z 24
_cell_length_a 9.122923
_cell_length_b 15.509559
_cell_length_c 13.071169
_cell_angle_alpha 90.000000
_cell_angle_beta 145.696496
_cell_angle_gamma 90.000000
_cell_volume 1042.319391
_symmetry_space_group_name_H-M "P 2/C"
_symmetry_group_IT_number 13
_symmetry_cell_setting 'monoclinic'
loop_
_space_group_symop_operation_xyz
x,y,z
-x,y,1/2-z
-x,-y,-z
x,-y,1/2+z
loop_
_atom_site_type_symbol
_atom_site_label
_atom_site_fract_x
_atom_site_fract_y
_atom_site_fract_z
Si Si1 0.271991 0.786645 0.347049
Si Si2 0.515300 0.050907 0.881496
Si Si3 0.242170 0.402468 0.814161
Si Si4 0.065728 0.064241 0.131950
Si Si5 0.696961 0.759271 0.768086
Si Si6 0.659190 0.429304 0.235702
O O1 0.359054 0.866418 0.329977
O O2 0.246521 0.694937 0.274791
O O3 0.505106 0.772001 0.561626
O O4 0.000000 0.802870 0.250000
O O5 0.500000 0.049132 0.750000
O O6 0.356509 0.967827 0.829882
O O7 0.825897 0.055272 0.071179
O O8 0.215763 0.478316 0.716490
O O9 0.000000 0.407568 0.750000
O O10 0.481671 0.415494 0.031355
O O11 0.098927 0.163083 0.116077
O O12 0.000000 0.000000 0.000000
O O13 0.500000 0.766688 0.750000
O O14 0.809161 0.661967 0.830757
O O15 0.500000 0.435930 0.250000
#
# Coordination Sequence:
#
# PCOD9233030 Si02
#       6
#     4   4   4   4   4   4
#     4  10  23  39  63  92 125 166 211 257 319 377
#     4  10  23  41  63  91 125 164 207 259 319 376
#     4   9  19  39  58  86 127 160 199 262 312 364
#     4  10  22  41  64  92 127 164 205 263 318 372
#     4  10  21  39  63  89 126 166 210 259 315 377
#     4   9  19  37  60  89 117 162 210 250 308 372
#
# _framework density 23.025572
#
# number of rings (size 3 to 8) (size 9 to 14) (size 15 to 20)
#    0.000    2.333    0.000    1.500    7.000    2.667 
#    9.000    0.000    0.000    0.000    0.000    0.000 
#    0.000    0.000    0.000    0.000    0.000    0.000 
#
# Total GULP energy -133991.955872 kJ/mol
# GULP energy per Si atom -5582.998161 kJ/mol
# Density = 2.297316 g / cm^3
# Si number density = 23.025572 Si / 1000 Ang^3
#
#
#
# Elastic Constant Matrix: (Units=GPa)
#
#
# Indices 1 2 3 4 5 6 
#
# 1 100.9615 95.6448 12.1858 0.0000 16.7588 0.0000
# 2 95.6448 239.8491 28.3005 0.0000 23.4136 0.0000
# 3 12.1858 28.3005 71.1217 0.0000 7.7385 0.0000
# 4 0.0000 0.0000 0.0000 22.9852 0.0000 -0.4336
# 5 16.7588 23.4136 7.7385 0.0000 30.9222 0.0000
# 6 0.0000 0.0000 0.0000 -0.4336 0.0000 45.6238
#
#
#
# Elastic Compliance Matrix: (Units=1/GPa)
#
#
# Indices 1 2 3 4 5 6 
#
# 1 0.016422 -0.006143 0.000096 0.000000 -0.004273 0.000000
# 2 -0.006143 0.006952 -0.001546 0.000000 -0.001548 0.000000
# 3 0.000096 -0.001546 0.014944 0.000000 -0.002621 0.000000
# 4 0.000000 0.000000 0.000000 0.043514 0.000000 0.000414
# 5 -0.004273 -0.001548 -0.002621 0.000000 0.036483 0.000000
# 6 0.000000 0.000000 0.000000 0.000414 0.000000 0.021922
#
#
# Mechanical properties :
#
#
# Convention : Reuss Voigt Hill
#
# Bulk Modulus (GPa) = 43.22835 76.02161 59.62498
# Shear Modulus (GPa) = 30.64964 38.29299 34.47132
#
# Velocity S-wave (km/s) = 3.65240 4.08249 3.87342
# Velocity P-wave (km/s) = 6.04992 7.43708 6.77907
#
# Compressibility (1/GPa) = 0.02313297
#
# Stress axis : x y z
#
# Youngs Moduli (GPa) = 60.89515 143.83745 66.91538
#
# Poissons Ratio (x) = 0.88354 -0.00639
# Poissons Ratio (y) = 0.37406 0.10342
# Poissons Ratio (z) = -0.00582 0.22230
#
# Static dielectric constant tensor:
#      x y z
#    x 9.149980 0.000000 -19.608570 
#    y 0.000000 1.882300 0.000000 
#    z -19.608570 0.000000 54.227850 
# 
# From -- ./inp_files/47795.got.cif
#   From: 2010.05.17/outbox.cif.g08.bks.cpg/sg13_24_cif.got.tgz:47795.got - 2010.06.03 16:44:36.
