data_PCOD9233058
_publ_section_title
;
Structure prediction by ZEFSAII (Michael W. Deem and Ramdas Pophale) SiO2 
 PCOD9233058
Probable space group: P 2/C
;
_chemical_formula_sum "Si O2"
_cell_formula_units_Z 24
_cell_length_a 5.333054
_cell_length_b 13.628639
_cell_length_c 18.871006
_cell_angle_alpha 90.000000
_cell_angle_beta 52.320341
_cell_angle_gamma 90.000000
_cell_volume 1085.530023
_symmetry_space_group_name_H-M "P 2/C"
_symmetry_group_IT_number 13
_symmetry_cell_setting 'monoclinic'
loop_
_space_group_symop_operation_xyz
x,y,z
-x,y,1/2-z
-x,-y,-z
x,-y,1/2+z
loop_
_atom_site_type_symbol
_atom_site_label
_atom_site_fract_x
_atom_site_fract_y
_atom_site_fract_z
Si Si1 0.561933 0.483175 0.890887
Si Si2 0.877226 0.005141 0.940711
Si Si3 0.770127 0.188956 0.144942
Si Si4 0.191380 0.785785 0.028931
Si Si5 0.800286 0.618509 0.161164
Si Si6 0.263959 0.653174 0.553865
O O1 0.395399 0.465511 0.845500
O O2 0.609688 0.596918 0.898787
O O3 0.900541 0.427007 0.846821
O O4 0.312055 0.433740 0.989076
O O5 0.025136 0.910592 0.877553
O O6 0.945252 0.118263 0.908877
O O7 0.500000 0.000000 0.000000
O O8 0.000000 0.000000 0.000000
O O9 0.500000 0.183697 0.250000
O O10 0.942786 0.292971 0.125241
O O11 0.716000 0.190192 0.068575
O O12 0.950897 0.695699 0.079983
O O13 0.508886 0.742525 0.008990
O O14 0.500000 0.671436 0.250000
#
# Coordination Sequence:
#
# PCOD9233058 Si02
#       6
#     4   4   4   4   4   4
#     4  10  23  39  64  90 129 171 222 265 326 384
#     4  10  21  41  65  89 123 165 208 262 326 387
#     4  11  23  40  64  99 132 170 219 272 330 397
#     4  10  22  41  67  89 132 169 214 269 328 386
#     4  11  23  41  63  94 128 172 223 269 320 386
#     4  10  21  39  64  89 128 174 214 266 329 388
#
# _framework density 22.109013999999998
#
# number of rings (size 3 to 8) (size 9 to 14) (size 15 to 20)
#    0.000    1.667    3.333    0.500    2.333    4.000 
#    3.000    0.000    0.000    2.000    0.000    0.000 
#    0.000    0.000    0.000    0.000    0.000    0.000 
#
# Total GULP energy -133687.102240 kJ/mol
# GULP energy per Si atom -5570.295927 kJ/mol
# Density = 2.205869 g / cm^3
# Si number density = 22.109014 Si / 1000 Ang^3
#
#
#
# Elastic Constant Matrix: (Units=GPa)
#
#
# Indices 1 2 3 4 5 6 
#
# 1 94.3232 29.1062 34.8565 0.0000 -14.2332 0.0000
# 2 29.1062 125.7234 25.8932 0.0000 -10.0060 0.0000
# 3 34.8565 25.8932 122.1428 0.0000 -24.2296 0.0000
# 4 0.0000 0.0000 0.0000 20.1750 0.0000 -9.5870
# 5 -14.2332 -10.0060 -24.2296 0.0000 28.7158 0.0000
# 6 0.0000 0.0000 0.0000 -9.5870 0.0000 37.7989
#
#
#
# Elastic Compliance Matrix: (Units=1/GPa)
#
#
# Indices 1 2 3 4 5 6 
#
# 1 0.012706 -0.002155 -0.002485 0.000000 0.003450 0.000000
# 2 -0.002155 0.008752 -0.001018 0.000000 0.001123 0.000000
# 3 -0.002485 -0.001018 0.010566 0.000000 0.007329 0.000000
# 4 0.000000 0.000000 0.000000 0.056359 0.000000 0.014294
# 5 0.003450 0.001123 0.007329 0.000000 0.043109 0.000000
# 6 0.000000 0.000000 0.000000 0.014294 0.000000 0.030081
#
#
# Mechanical properties :
#
#
# Convention : Reuss Voigt Hill
#
# Bulk Modulus (GPa) = 48.28897 57.98902 53.13899
# Shear Modulus (GPa) = 27.81017 34.16017 30.98517
#
# Velocity S-wave (km/s) = 3.55049 3.93501 3.74769
# Velocity P-wave (km/s) = 6.22066 6.85065 6.54324
#
# Compressibility (1/GPa) = 0.02070866
#
# Stress axis : x y z
#
# Youngs Moduli (GPa) = 78.70489 114.26164 94.64538
#
# Poissons Ratio (x) = 0.24626 0.23515
# Poissons Ratio (y) = 0.16962 0.09631
# Poissons Ratio (z) = 0.19555 0.11627
#
# Static dielectric constant tensor:
#      x y z
#    x 1.907200 0.000000 0.018200 
#    y 0.000000 1.877580 0.000000 
#    z 0.018200 0.000000 1.949430 
# 
# From -- ./inp_files/73788.got.cif
#   From: 2010.05.17/outbox.cif.g08.bks.cpg/sg13_37_cif.got.tgz:73788.got - 2010.06.03 16:44:36.
