data_PCOD9233716
_publ_section_title
;
Structure prediction by ZEFSAII (Michael W. Deem and Ramdas Pophale) SiO2 
 PCOD9233716
Probable space group: P 2/C
;
_chemical_formula_sum "Si O2"
_cell_formula_units_Z 28
_cell_length_a 28.543688
_cell_length_b 11.762636
_cell_length_c 22.852206
_cell_angle_alpha 90.000000
_cell_angle_beta 169.297021
_cell_angle_gamma 90.000000
_cell_volume 1424.938697
_symmetry_space_group_name_H-M "P 2/C"
_symmetry_group_IT_number 13
_symmetry_cell_setting 'monoclinic'
loop_
_space_group_symop_operation_xyz
x,y,z
-x,y,1/2-z
-x,-y,-z
x,-y,1/2+z
loop_
_atom_site_type_symbol
_atom_site_label
_atom_site_fract_x
_atom_site_fract_y
_atom_site_fract_z
Si Si1 0.487454 0.372645 0.461197
Si Si2 0.517145 0.276336 0.616968
Si Si3 0.000000 0.157953 0.250000
Si Si4 0.799667 0.966732 0.927421
Si Si5 0.709055 0.480758 0.625281
Si Si6 0.006737 0.718448 0.194482
Si Si7 0.500000 0.376138 0.250000
Si Si8 0.246767 0.045752 0.269171
O O1 0.500000 0.500000 0.500000
O O2 0.597077 0.291680 0.646364
O O3 0.611655 0.380919 0.549723
O O4 0.196828 0.340181 0.096959
O O5 0.422178 0.398587 0.521276
O O6 0.307731 0.176894 0.360573
O O7 0.752236 0.234846 0.943721
O O8 0.034030 0.071848 0.345977
O O9 0.792082 0.964656 0.848077
O O10 0.518809 0.982282 0.610534
O O11 0.916220 0.847253 0.088361
O O12 0.631714 0.447547 0.464239
O O13 0.000000 0.500000 0.000000
O O14 0.283294 0.702508 0.510166
O O15 0.000000 0.662094 0.250000
O O16 0.000000 0.000000 0.000000
#
# Coordination Sequence:
#
# PCOD9233716 Si02
#       8
#     4   4   2   4   4   4   2   4
#     4  10  21  42  68  89 126 175 217 273 333 394
#     4  10  22  43  66  92 131 178 222 271 339 394
#     4  10  22  42  64  96 130 172 220 268 332 406
#     4  10  22  42  64  95 133 168 222 275 329 398
#     4  11  25  43  65 101 135 171 232 280 334 411
#     4  12  23  42  66  95 134 176 214 275 343 382
#     4  12  26  42  66 100 136 176 228 282 332 414
#     4  10  22  42  68  96 127 173 227 273 328 399
#
# _framework density 19.649968000000001
#
# number of rings (size 3 to 8) (size 9 to 14) (size 15 to 20)
#    0.000    1.429    3.571    1.714    0.000    5.714 
#    2.571    0.000    0.000    0.000    0.000    0.000 
#    0.000    0.000    0.000    0.000    0.000    0.000 
#
# Total GULP energy -156170.750214 kJ/mol
# GULP energy per Si atom -5577.526793 kJ/mol
# Density = 1.960524 g / cm^3
# Si number density = 19.649968 Si / 1000 Ang^3
#
#
#
# Elastic Constant Matrix: (Units=GPa)
#
#
# Indices 1 2 3 4 5 6 
#
# 1 80.7280 17.0938 49.1451 0.0000 -1.3977 0.0000
# 2 17.0938 89.7384 47.6766 0.0000 -0.8726 0.0000
# 3 49.1451 47.6766 137.5195 0.0000 -5.8963 0.0000
# 4 0.0000 0.0000 0.0000 22.2307 0.0000 0.2797
# 5 -1.3977 -0.8726 -5.8963 0.0000 39.1887 0.0000
# 6 0.0000 0.0000 0.0000 0.2797 0.0000 19.1358
#
#
#
# Elastic Compliance Matrix: (Units=1/GPa)
#
#
# Indices 1 2 3 4 5 6 
#
# 1 0.015835 -0.000007 -0.005669 0.000000 -0.000288 0.000000
# 2 -0.000007 0.013666 -0.004753 0.000000 -0.000411 0.000000
# 3 -0.005669 -0.004753 0.011003 0.000000 0.001348 0.000000
# 4 0.000000 0.000000 0.000000 0.044991 0.000000 -0.000658
# 5 -0.000288 -0.000411 0.001348 0.000000 0.025701 0.000000
# 6 0.000000 0.000000 0.000000 -0.000658 0.000000 0.052268
#
#
# Mechanical properties :
#
#
# Convention : Reuss Voigt Hill
#
# Bulk Modulus (GPa) = 50.90092 59.53522 55.21807
# Shear Modulus (GPa) = 26.19583 29.04905 27.62244
#
# Velocity S-wave (km/s) = 3.65516 3.84907 3.75337
# Velocity P-wave (km/s) = 6.61616 7.07937 6.85168
#
# Compressibility (1/GPa) = 0.01964601
#
# Stress axis : x y z
#
# Youngs Moduli (GPa) = 63.15212 73.17413 90.88407
#
# Poissons Ratio (x) = 0.00054 0.51519
# Poissons Ratio (y) = 0.00047 0.43196
# Poissons Ratio (z) = 0.35799 0.34779
#
# Static dielectric constant tensor:
#      x y z
#    x 1.740040 0.000000 -0.019110 
#    y 0.000000 1.643870 0.000000 
#    z -0.019110 0.000000 1.710200 
# 
# From -- ./inp_files/89711.got.cif
#   From: 2010.05.17/outbox.cif.g08.bks.cpg/sg13_45_cif.got.tgz:89711.got - 2010.06.03 16:44:36.
