data_PCOD9233033
_publ_section_title
;
Structure prediction by ZEFSAII (Michael W. Deem and Ramdas Pophale) SiO2 
 PCOD9233033
Probable space group: P 2/C
;
_chemical_formula_sum "Si O2"
_cell_formula_units_Z 16
_cell_length_a 18.762144
_cell_length_b 6.942900
_cell_length_c 15.880232
_cell_angle_alpha 90.000000
_cell_angle_beta 20.328520
_cell_angle_gamma 90.000000
_cell_volume 718.642846
_symmetry_space_group_name_H-M "P 2/C"
_symmetry_group_IT_number 13
_symmetry_cell_setting 'monoclinic'
loop_
_space_group_symop_operation_xyz
x,y,z
-x,y,1/2-z
-x,-y,-z
x,-y,1/2+z
loop_
_atom_site_type_symbol
_atom_site_label
_atom_site_fract_x
_atom_site_fract_y
_atom_site_fract_z
Si Si1 0.658806 0.104626 0.502484
Si Si2 0.990062 0.604651 0.876852
Si Si3 0.759246 0.718725 0.301100
Si Si4 0.572704 0.525002 0.266009
O O1 0.525617 0.267449 0.602264
O O2 0.850196 0.228113 0.326141
O O3 0.744164 0.934074 0.351741
O O4 0.500000 0.031860 0.750000
O O5 0.112779 0.421651 0.778114
O O6 0.863783 0.694589 0.095472
O O7 0.814998 0.532102 0.007935
O O8 0.530216 0.632167 0.560211
O O9 0.500000 0.489314 0.250000
#
# Coordination Sequence:
#
# PCOD9233033 Si02
#       4
#     4   4   4   4
#     4  10  22  38  58  88 120 154 197 243 295 355
#     4  10  22  40  62  87 120 156 196 248 299 349
#     4  10  21  39  63  90 117 154 201 246 297 353
#     4  10  22  39  59  88 123 156 195 244 295 352
#
# _framework density 22.264188999999998
#
# number of rings (size 3 to 8) (size 9 to 14) (size 15 to 20)
#    0.000    2.000    0.000    2.250    0.000   13.000 
#    0.000    5.000    0.000    0.000    0.000    0.000 
#    0.000    0.000    0.000    0.000    0.000    0.000 
#
# Total GULP energy -89401.730303 kJ/mol
# GULP energy per Si atom -5587.608144 kJ/mol
# Density = 2.221351 g / cm^3
# Si number density = 22.264189 Si / 1000 Ang^3
#
#
#
# Elastic Constant Matrix: (Units=GPa)
#
#
# Indices 1 2 3 4 5 6 
#
# 1 66.9420 -7.3377 35.1417 0.0000 -6.8252 0.0000
# 2 -7.3377 39.4299 6.6903 0.0000 2.6277 0.0000
# 3 35.1417 6.6903 148.3911 0.0000 -14.1092 0.0000
# 4 0.0000 0.0000 0.0000 27.0282 0.0000 -0.2970
# 5 -6.8252 2.6277 -14.1092 0.0000 43.6199 0.0000
# 6 0.0000 0.0000 0.0000 -0.2970 0.0000 4.7544
#
#
#
# Elastic Compliance Matrix: (Units=1/GPa)
#
#
# Indices 1 2 3 4 5 6 
#
# 1 0.017728 0.003946 -0.004266 0.000000 0.001156 0.000000
# 2 0.003946 0.026601 -0.002298 0.000000 -0.001728 0.000000
# 3 -0.004266 -0.002298 0.008050 0.000000 0.002075 0.000000
# 4 0.000000 0.000000 0.000000 0.037024 0.000000 0.002313
# 5 0.001156 -0.001728 0.002075 0.000000 0.023881 0.000000
# 6 0.000000 0.000000 0.000000 0.002313 0.000000 0.210477
#
#
# Mechanical properties :
#
#
# Convention : Reuss Voigt Hill
#
# Bulk Modulus (GPa) = 21.21229 35.97240 28.59235
# Shear Modulus (GPa) = 14.50482 29.76507 22.13494
#
# Velocity S-wave (km/s) = 2.55519 3.66034 3.15651
# Velocity P-wave (km/s) = 4.27242 5.83577 5.11419
#
# Compressibility (1/GPa) = 0.04714247
#
# Stress axis : x y z
#
# Youngs Moduli (GPa) = 56.40671 37.59269 124.22070
#
# Poissons Ratio (x) = -0.14834 0.52997
# Poissons Ratio (y) = -0.22258 0.28548
# Poissons Ratio (z) = 0.24065 0.08639
#
# Static dielectric constant tensor:
#      x y z
#    x 1.880510 0.000000 0.021410 
#    y 0.000000 1.776810 0.000000 
#    z 0.021410 0.000000 1.866870 
# 
# From -- ./inp_files/70354.got.cif
#   From: 2010.05.17/outbox.cif.g08.bks.cpg/sg13_36_cif.got.tgz:70354.got - 2010.06.03 16:44:36.
