data_PCOD9233474
_publ_section_title
;
Structure prediction by ZEFSAII (Michael W. Deem and Ramdas Pophale) SiO2 
 PCOD9233474
Probable space group: P 2/C
;
_chemical_formula_sum "Si O2"
_cell_formula_units_Z 16
_cell_length_a 10.091388
_cell_length_b 7.214703
_cell_length_c 19.527972
_cell_angle_alpha 90.000000
_cell_angle_beta 155.552571
_cell_angle_gamma 90.000000
_cell_volume 588.407247
_symmetry_space_group_name_H-M "P 2/C"
_symmetry_group_IT_number 13
_symmetry_cell_setting 'monoclinic'
loop_
_space_group_symop_operation_xyz
x,y,z
-x,y,1/2-z
-x,-y,-z
x,-y,1/2+z
loop_
_atom_site_type_symbol
_atom_site_label
_atom_site_fract_x
_atom_site_fract_y
_atom_site_fract_z
Si Si1 0.315896 0.325159 0.995443
Si Si2 0.149130 0.844929 0.655427
Si Si3 0.823479 0.267122 0.872203
Si Si4 0.695378 0.256519 0.054971
O O1 0.568516 0.243962 0.168167
O O2 0.389994 0.212795 0.959673
O O3 0.374651 0.539166 0.006420
O O4 0.975027 0.329212 0.872295
O O5 0.066651 0.724553 0.550200
O O6 0.831625 0.857005 0.554650
O O7 0.230831 0.049038 0.668505
O O8 0.500000 0.350324 0.750000
O O9 0.000000 0.267188 0.250000
#
# Coordination Sequence:
#
# PCOD9233474 Si02
#       4
#     4   4   4   4
#     4  10  21  41  67  93 126 162 207 257 308 369
#     4  10  21  41  63  91 127 164 207 257 308 364
#     4  11  23  38  62  93 127 164 207 254 306 369
#     4   9  21  41  66  93 122 160 208 261 308 361
#
# _framework density 27.192049000000001
#
# number of rings (size 3 to 8) (size 9 to 14) (size 15 to 20)
#    0.000    2.000    0.000    3.750    0.000    8.000 
#    0.000    7.500    0.000    0.000    0.000    0.000 
#    0.000    0.000    0.000    0.000    0.000    0.000 
#
# Total GULP energy -89664.948722 kJ/mol
# GULP energy per Si atom -5604.059295 kJ/mol
# Density = 2.713016 g / cm^3
# Si number density = 27.192049 Si / 1000 Ang^3
#
#
#
# Elastic Constant Matrix: (Units=GPa)
#
#
# Indices 1 2 3 4 5 6 
#
# 1 294.4641 38.1547 44.2959 0.0000 59.7132 0.0000
# 2 38.1547 46.4493 22.0295 0.0000 4.2592 0.0000
# 3 44.2959 22.0295 69.8298 0.0000 7.9936 0.0000
# 4 0.0000 0.0000 0.0000 36.4398 0.0000 0.0730
# 5 59.7132 4.2592 7.9936 0.0000 50.0609 0.0000
# 6 0.0000 0.0000 0.0000 0.0730 0.0000 44.5167
#
#
#
# Elastic Compliance Matrix: (Units=1/GPa)
#
#
# Indices 1 2 3 4 5 6 
#
# 1 0.005180 -0.002922 -0.001716 0.000000 -0.005656 0.000000
# 2 -0.002922 0.027005 -0.006928 0.000000 0.002294 0.000000
# 3 -0.001716 -0.006928 0.017615 0.000000 -0.000176 0.000000
# 4 0.000000 0.000000 0.000000 0.027443 0.000000 -0.000045
# 5 -0.005656 0.002294 -0.000176 0.000000 0.026555 0.000000
# 6 0.000000 0.000000 0.000000 -0.000045 0.000000 0.022464
#
#
# Mechanical properties :
#
#
# Convention : Reuss Voigt Hill
#
# Bulk Modulus (GPa) = 37.50111 68.85593 53.17852
# Shear Modulus (GPa) = 31.58903 46.62101 39.10502
#
# Velocity S-wave (km/s) = 3.41207 4.14516 3.79635
# Velocity P-wave (km/s) = 5.41702 6.94887 6.23021
#
# Compressibility (1/GPa) = 0.02666588
#
# Stress axis : x y z
#
# Youngs Moduli (GPa) = 193.06000 37.03070 56.76930
#
# Poissons Ratio (x) = 0.10821 0.09744
# Poissons Ratio (y) = 0.56414 0.39331
# Poissons Ratio (z) = 0.33138 0.25656
#
# Static dielectric constant tensor:
#      x y z
#    x 2.158540 0.000000 0.075140 
#    y 0.000000 2.100860 0.000000 
#    z 0.075140 0.000000 2.117880 
# 
# From -- ./inp_files/14448.got.cif
#   From: 2010.05.17/outbox.cif.g08.bks.cpg/sg13_8_cif.got.tgz:14448.got - 2010.06.03 16:44:36.
