data_PCOD9233656
_publ_section_title
;
Structure prediction by ZEFSAII (Michael W. Deem and Ramdas Pophale) SiO2 
 PCOD9233656
Probable space group: P 2/C
;
_chemical_formula_sum "Si O2"
_cell_formula_units_Z 20
_cell_length_a 27.533830
_cell_length_b 7.420989
_cell_length_c 14.156742
_cell_angle_alpha 90.000000
_cell_angle_beta 21.277221
_cell_angle_gamma 90.000000
_cell_volume 1049.677072
_symmetry_space_group_name_H-M "P 2/C"
_symmetry_group_IT_number 13
_symmetry_cell_setting 'monoclinic'
loop_
_space_group_symop_operation_xyz
x,y,z
-x,y,1/2-z
-x,-y,-z
x,-y,1/2+z
loop_
_atom_site_type_symbol
_atom_site_label
_atom_site_fract_x
_atom_site_fract_y
_atom_site_fract_z
Si Si1 0.196568 0.470006 0.208964
Si Si2 0.967098 0.297719 0.165909
Si Si3 0.140151 0.023124 0.539877
Si Si4 0.209332 0.146169 0.622483
Si Si5 0.344406 0.870592 0.509606
O O1 0.128529 0.371327 0.242843
O O2 0.262777 0.653661 0.049824
O O3 0.293615 0.332118 0.083308
O O4 0.070937 0.540966 0.500177
O O5 0.884775 0.188917 0.392257
O O6 0.068497 0.150965 0.935291
O O7 0.177594 0.116926 0.570653
O O8 0.257441 0.051496 0.253258
O O9 0.000000 0.091212 0.750000
O O10 0.303240 0.992273 0.494210
O O11 0.500000 0.878067 0.250000
#
# Coordination Sequence:
#
# PCOD9233656 Si02
#       5
#     4   4   4   4   4
#     4   9  20  41  64  90 135 168 208 286 332 369
#     4   9  18  37  67  93 123 161 213 288 328 372
#     4  12  21  38  70 100 121 170 226 273 327 388
#     4  10  21  42  63  93 135 166 214 282 329 374
#     4  12  26  43  64  95 141 183 220 260 325 409
#
# _framework density 19.05348
#
# number of rings (size 3 to 8) (size 9 to 14) (size 15 to 20)
#    1.200    0.400    4.000    1.800    0.000    1.600 
#    7.200    1.000    0.000    0.000    0.000    0.000 
#    0.000    0.000    0.000    0.000    0.000    0.000 
#
# Total GULP energy -111484.954822 kJ/mol
# GULP energy per Si atom -5574.247741 kJ/mol
# Density = 1.901011 g / cm^3
# Si number density = 19.053480 Si / 1000 Ang^3
#
#
#
# Elastic Constant Matrix: (Units=GPa)
#
#
# Indices 1 2 3 4 5 6 
#
# 1 107.6734 55.6937 57.5744 0.0000 -0.0476 0.0000
# 2 55.6937 122.4055 48.2877 0.0000 -12.7488 0.0000
# 3 57.5744 48.2877 108.9537 0.0000 -6.8739 0.0000
# 4 0.0000 0.0000 0.0000 14.9103 0.0000 4.9820
# 5 -0.0476 -12.7488 -6.8739 0.0000 13.7695 0.0000
# 6 0.0000 0.0000 0.0000 4.9820 0.0000 25.4580
#
#
#
# Elastic Compliance Matrix: (Units=1/GPa)
#
#
# Indices 1 2 3 4 5 6 
#
# 1 0.015422 -0.005382 -0.006273 0.000000 -0.008061 0.000000
# 2 -0.005382 0.012523 -0.002040 0.000000 0.010557 0.000000
# 3 -0.006273 -0.002040 0.013708 0.000000 0.004933 0.000000
# 4 0.000000 0.000000 0.000000 0.071760 0.000000 -0.014043
# 5 -0.008061 0.010557 0.004933 0.000000 0.084834 0.000000
# 6 0.000000 0.000000 0.000000 -0.014043 0.000000 0.042029
#
#
# Mechanical properties :
#
#
# Convention : Reuss Voigt Hill
#
# Bulk Modulus (GPa) = 70.10875 73.57158 71.84016
# Shear Modulus (GPa) = 18.35418 22.65935 20.50676
#
# Velocity S-wave (km/s) = 3.10707 3.45229 3.28422
# Velocity P-wave (km/s) = 7.05319 7.38838 7.22273
#
# Compressibility (1/GPa) = 0.01426355
#
# Stress axis : x y z
#
# Youngs Moduli (GPa) = 64.84439 79.85586 72.94928
#
# Poissons Ratio (x) = 0.42977 0.45758
# Poissons Ratio (y) = 0.34898 0.14881
# Poissons Ratio (z) = 0.40674 0.16290
#
# Static dielectric constant tensor:
#      x y z
#    x 1.685220 0.000000 0.014250 
#    y 0.000000 1.712470 0.000000 
#    z 0.014250 0.000000 1.631160 
# 
# From -- ./inp_files/59349.got.cif
#   From: 2010.05.17/outbox.cif.g08.bks.cpg/sg13_30_cif.got.tgz:59349.got - 2010.06.03 16:44:36.
