data_PCOD9233124
_publ_section_title
;
Structure prediction by ZEFSAII (Michael W. Deem and Ramdas Pophale) SiO2 
 PCOD9233124
Probable space group: P 2/C
;
_chemical_formula_sum "Si O2"
_cell_formula_units_Z 26
_cell_length_a 21.203426
_cell_length_b 7.341479
_cell_length_c 9.748249
_cell_angle_alpha 90.000000
_cell_angle_beta 132.286673
_cell_angle_gamma 90.000000
_cell_volume 1122.595434
_symmetry_space_group_name_H-M "P 2/C"
_symmetry_group_IT_number 13
_symmetry_cell_setting 'monoclinic'
loop_
_space_group_symop_operation_xyz
x,y,z
-x,y,1/2-z
-x,-y,-z
x,-y,1/2+z
loop_
_atom_site_type_symbol
_atom_site_label
_atom_site_fract_x
_atom_site_fract_y
_atom_site_fract_z
Si Si1 0.641924 0.207900 0.622893
Si Si2 0.811400 0.321209 0.983013
Si Si3 0.931645 0.757083 0.436054
Si Si4 0.116787 0.829253 0.643323
Si Si5 0.792388 0.280638 0.498363
Si Si6 0.630010 0.037382 0.341279
Si Si7 0.500000 0.291078 0.250000
O O1 0.741152 0.251758 0.773543
O O2 0.633973 0.030766 0.512301
O O3 0.620272 0.147217 0.744364
O O4 0.581687 0.356606 0.458519
O O5 0.895513 0.349703 0.014392
O O6 0.770969 0.506380 0.980221
O O7 0.832525 0.185830 0.138703
O O8 0.029509 0.720142 0.544871
O O9 0.916392 0.971142 0.448915
O O10 0.872831 0.736760 0.217084
O O11 0.175222 0.756932 0.607656
O O12 0.713727 0.149337 0.418017
O O13 0.547796 0.167117 0.205672
#
# Coordination Sequence:
#
# PCOD9233124 Si02
#       7
#     4   4   4   4   4   4   2
#     4  10  21  39  66  92 122 157 202 254 307 365
#     4  12  25  40  60  92 127 164 203 248 308 367
#     4  11  22  45  59  92 118 164 214 255 300 357
#     4  11  25  38  69  85 123 161 209 259 304 354
#     4  12  25  40  60  92 127 164 203 248 308 367
#     4  10  21  39  66  92 122 157 202 254 307 365
#     4   8  20  38  68  92 122 150 202 262 298 362
#
# _framework density 23.160612
#
# number of rings (size 3 to 8) (size 9 to 14) (size 15 to 20)
#    0.923    0.308    1.538    5.077    2.154    6.154 
#    0.000    0.769    0.000    1.846    0.000    0.000 
#    0.000    0.000    0.000    0.000    0.000    0.000 
#
# Total GULP energy -144938.209180 kJ/mol
# GULP energy per Si atom -5574.546507 kJ/mol
# Density = 2.310790 g / cm^3
# Si number density = 23.160612 Si / 1000 Ang^3
#
#
#
# Elastic Constant Matrix: (Units=GPa)
#
#
# Indices 1 2 3 4 5 6 
#
# 1 90.7627 -9.2405 35.5664 0.0000 9.6725 0.0000
# 2 -9.2405 29.7609 -7.4860 0.0000 0.7002 0.0000
# 3 35.5664 -7.4860 108.1596 0.0000 9.8010 0.0000
# 4 0.0000 0.0000 0.0000 6.2857 0.0000 -9.1185
# 5 9.6725 0.7002 9.8010 0.0000 32.1563 0.0000
# 6 0.0000 0.0000 0.0000 -9.1185 0.0000 14.4137
#
#
#
# Elastic Compliance Matrix: (Units=1/GPa)
#
#
# Indices 1 2 3 4 5 6 
#
# 1 0.013153 0.003184 -0.003846 0.000000 -0.002853 0.000000
# 2 0.003184 0.035038 0.001578 0.000000 -0.002201 0.000000
# 3 -0.003846 0.001578 0.010817 0.000000 -0.002174 0.000000
# 4 0.000000 0.000000 0.000000 1.934216 0.000000 1.223646
# 5 -0.002853 -0.002201 -0.002174 0.000000 0.032667 0.000000
# 6 0.000000 0.000000 0.000000 1.223646 0.000000 0.843496
#
#
# Mechanical properties :
#
#
# Convention : Reuss Voigt Hill
#
# Bulk Modulus (GPa) = 16.43707 29.59588 23.01647
# Shear Modulus (GPa) = 1.73140 24.56067 13.14604
#
# Velocity S-wave (km/s) = 0.86555 3.25999 2.38503
# Velocity P-wave (km/s) = 2.84804 5.19387 4.18853
#
# Compressibility (1/GPa) = 0.06083810
#
# Stress axis : x y z
#
# Youngs Moduli (GPa) = 76.02733 28.54022 92.45052
#
# Poissons Ratio (x) = -0.09086 0.35559
# Poissons Ratio (y) = -0.24204 -0.14586
# Poissons Ratio (z) = 0.29242 -0.04503
#
# Static dielectric constant tensor:
#      x y z
#    x 1.870490 0.000000 0.021660 
#    y 0.000000 1.949060 0.000000 
#    z 0.021660 0.000000 1.888460 
# 
# From -- ./inp_files/22994.got.cif
#   From: 2010.05.17/outbox.cif.g08.bks.cpg/sg13_12_cif.got.tgz:22994.got - 2010.06.03 16:44:36.
