data_PCOD9233109
_publ_section_title
;
Structure prediction by ZEFSAII (Michael W. Deem and Ramdas Pophale) SiO2 
 PCOD9233109
Probable space group: P 2/C
;
_chemical_formula_sum "Si O2"
_cell_formula_units_Z 22
_cell_length_a 11.525853
_cell_length_b 5.692769
_cell_length_c 14.115700
_cell_angle_alpha 90.000000
_cell_angle_beta 87.573370
_cell_angle_gamma 90.000000
_cell_volume 925.357253
_symmetry_space_group_name_H-M "P 2/C"
_symmetry_group_IT_number 13
_symmetry_cell_setting 'monoclinic'
loop_
_space_group_symop_operation_xyz
x,y,z
-x,y,1/2-z
-x,-y,-z
x,-y,1/2+z
loop_
_atom_site_type_symbol
_atom_site_label
_atom_site_fract_x
_atom_site_fract_y
_atom_site_fract_z
Si Si1 0.015570 0.485661 0.610003
Si Si2 0.363301 0.406697 0.253569
Si Si3 0.168820 0.744035 0.251584
Si Si4 0.000000 0.869342 0.750000
Si Si5 0.358771 0.748541 0.961477
Si Si6 0.359719 0.244891 0.047901
O O1 0.111518 0.310962 0.650654
O O2 0.045062 0.730758 0.657333
O O3 0.000000 0.500000 0.500000
O O4 0.897427 0.420954 0.669764
O O5 0.500000 0.452030 0.250000
O O6 0.500389 0.247129 0.030243
O O7 0.335092 0.271125 0.350735
O O8 0.334922 0.260241 0.160509
O O9 0.298974 0.657799 0.249666
O O10 0.113205 0.989596 0.279303
O O11 0.318502 0.496118 0.006038
O O12 0.316199 0.998365 0.005216
#
# Coordination Sequence:
#
# PCOD9233109 Si02
#       6
#     4   4   4   2   4   4
#     4   9  19  39  68  94 130 165 220 282 356 409
#     4  10  21  39  65  96 139 186 228 283 353 416
#     4   9  20  37  62  96 136 167 223 282 331 423
#     4   8  18  40  64 100 132 168 216 294 332 416
#     4   9  19  37  58  85 124 172 230 284 334 406
#     4   9  19  37  58  85 124 172 230 284 334 406
#
# _framework density 23.7746
#
# number of rings (size 3 to 8) (size 9 to 14) (size 15 to 20)
#    0.000    3.273    0.000    0.000    0.000    5.818 
#   13.091    7.273    0.000    0.000    0.000    0.000 
#    0.000    0.000    0.000    0.000    0.000    0.000 
#
# Total GULP energy -122791.949739 kJ/mol
# GULP energy per Si atom -5581.452261 kJ/mol
# Density = 2.372049 g / cm^3
# Si number density = 23.774600 Si / 1000 Ang^3
#
#
#
# Elastic Constant Matrix: (Units=GPa)
#
#
# Indices 1 2 3 4 5 6 
#
# 1 71.6806 18.6243 16.8395 0.0000 8.5572 0.0000
# 2 18.6243 146.6820 61.2748 0.0000 0.3305 0.0000
# 3 16.8395 61.2748 184.0051 0.0000 -1.5567 0.0000
# 4 0.0000 0.0000 0.0000 11.0755 0.0000 2.3167
# 5 8.5572 0.3305 -1.5567 0.0000 12.2602 0.0000
# 6 0.0000 0.0000 0.0000 2.3167 0.0000 22.2000
#
#
#
# Elastic Compliance Matrix: (Units=1/GPa)
#
#
# Indices 1 2 3 4 5 6 
#
# 1 0.015939 -0.001568 -0.001032 0.000000 -0.011214 0.000000
# 2 -0.001568 0.008077 -0.002542 0.000000 0.000554 0.000000
# 3 -0.001032 -0.002542 0.006389 0.000000 0.001600 0.000000
# 4 0.000000 0.000000 0.000000 0.092304 0.000000 -0.009633
# 5 -0.011214 0.000554 0.001600 0.000000 0.089580 0.000000
# 6 0.000000 0.000000 0.000000 -0.009633 0.000000 0.046050
#
#
# Mechanical properties :
#
#
# Convention : Reuss Voigt Hill
#
# Bulk Modulus (GPa) = 49.69288 66.20500 57.94894
# Shear Modulus (GPa) = 18.16010 29.48240 23.82125
#
# Velocity S-wave (km/s) = 2.76677 3.52530 3.16881
# Velocity P-wave (km/s) = 5.58155 6.66916 6.14945
#
# Compressibility (1/GPa) = 0.02012361
#
# Stress axis : x y z
#
# Youngs Moduli (GPa) = 62.73882 123.80904 156.52116
#
# Poissons Ratio (x) = 0.19408 0.16146
# Poissons Ratio (y) = 0.09835 0.39780
# Poissons Ratio (z) = 0.06472 0.31466
#
# Static dielectric constant tensor:
#      x y z
#    x 1.915510 0.000000 -0.010220 
#    y 0.000000 2.022110 0.000000 
#    z -0.010220 0.000000 1.878370 
# 
# From -- ./inp_files/35527.got.cif
#   From: 2010.05.17/outbox.cif.g08.bks.cpg/sg13_18_cif.got.tgz:35527.got - 2010.06.03 16:44:36.
