data_PCOD9233366
_publ_section_title
;
Structure prediction by ZEFSAII (Michael W. Deem and Ramdas Pophale) SiO2 
 PCOD9233366
Probable space group: P 2/C
;
_chemical_formula_sum "Si O2"
_cell_formula_units_Z 32
_cell_length_a 30.759362
_cell_length_b 5.597841
_cell_length_c 18.242852
_cell_angle_alpha 90.000000
_cell_angle_beta 29.289746
_cell_angle_gamma 90.000000
_cell_volume 1536.740290
_symmetry_space_group_name_H-M "P 2/C"
_symmetry_group_IT_number 13
_symmetry_cell_setting 'monoclinic'
loop_
_space_group_symop_operation_xyz
x,y,z
-x,y,1/2-z
-x,-y,-z
x,-y,1/2+z
loop_
_atom_site_type_symbol
_atom_site_label
_atom_site_fract_x
_atom_site_fract_y
_atom_site_fract_z
Si Si1 0.671966 0.657998 0.934485
Si Si2 0.586496 0.709168 0.656673
Si Si3 0.774780 0.970377 0.353265
Si Si4 0.037042 0.975284 0.361358
Si Si5 0.214098 0.287511 0.815818
Si Si6 0.976731 0.474700 0.370560
Si Si7 0.638376 0.986531 0.852726
Si Si8 0.462081 0.301949 0.108710
O O1 0.712335 0.473798 0.818003
O O2 0.640352 0.869918 0.930025
O O3 0.749113 0.755955 0.873968
O O4 0.599783 0.522583 0.087045
O O5 0.500000 0.840827 0.750000
O O6 0.680650 0.849033 0.513711
O O7 0.567075 0.631841 0.767581
O O8 0.856266 0.946885 0.288205
O O9 0.806143 0.859356 0.229026
O O10 0.000670 0.728282 0.376388
O O11 0.000000 0.000000 0.500000
O O12 0.016579 0.227919 0.349081
O O13 0.267649 0.119702 0.792774
O O14 0.128464 0.424267 0.968877
O O15 0.000000 0.490684 0.250000
O O16 0.621235 0.812352 0.810569
O O17 0.547744 0.134021 0.989062
O O18 0.500000 0.500000 0.000000
#
# Coordination Sequence:
#
# PCOD9233366 Si02
#       8
#     4   4   4   4   4   4   4   4
#     4  10  21  40  67  94 128 170 226 282 343 409
#     4  11  23  39  64  96 132 171 229 288 339 401
#     4  10  23  40  68 101 131 174 240 288 346 414
#     4  12  25  48  78 106 143 193 247 302 365 446
#     4  10  21  41  67  96 131 180 223 283 348 427
#     4  12  28  47  73 108 152 186 237 304 379 435
#     4  10  22  40  64  92 130 175 226 270 341 426
#     4  11  23  42  61  92 132 179 223 274 345 419
#
# _framework density 20.823297
#
# number of rings (size 3 to 8) (size 9 to 14) (size 15 to 20)
#    0.000    1.250    1.250    5.250    5.250    4.500 
#    4.500    1.250    0.000    0.000    0.000    0.000 
#    0.000    0.000    0.000    0.000    0.000    0.000 
#
# Total GULP energy -178492.204231 kJ/mol
# GULP energy per Si atom -5577.881382 kJ/mol
# Density = 2.077590 g / cm^3
# Si number density = 20.823297 Si / 1000 Ang^3
#
#
#
# Elastic Constant Matrix: (Units=GPa)
#
#
# Indices 1 2 3 4 5 6 
#
# 1 139.9037 65.0619 72.4971 0.0000 -6.3133 0.0000
# 2 65.0619 100.3352 27.9454 0.0000 -1.7103 0.0000
# 3 72.4971 27.9454 108.3633 0.0000 9.4561 0.0000
# 4 0.0000 0.0000 0.0000 13.1930 0.0000 -1.0328
# 5 -6.3133 -1.7103 9.4561 0.0000 42.2582 0.0000
# 6 0.0000 0.0000 0.0000 -1.0328 0.0000 34.1933
#
#
#
# Elastic Compliance Matrix: (Units=1/GPa)
#
#
# Indices 1 2 3 4 5 6 
#
# 1 0.015242 -0.007415 -0.008626 0.000000 0.003907 0.000000
# 2 -0.007415 0.014393 0.001320 0.000000 -0.000821 0.000000
# 3 -0.008626 0.001320 0.015061 0.000000 -0.004605 0.000000
# 4 0.000000 0.000000 0.000000 0.075977 0.000000 0.002295
# 5 0.003907 -0.000821 -0.004605 0.000000 0.025245 0.000000
# 6 0.000000 0.000000 0.000000 0.002295 0.000000 0.029315
#
#
# Mechanical properties :
#
#
# Convention : Reuss Voigt Hill
#
# Bulk Modulus (GPa) = 65.55246 75.51236 70.53241
# Shear Modulus (GPa) = 23.83687 30.13541 26.98614
#
# Velocity S-wave (km/s) = 3.38704 3.80833 3.60385
# Velocity P-wave (km/s) = 6.84432 7.46190 7.15977
#
# Compressibility (1/GPa) = 0.01525496
#
# Stress axis : x y z
#
# Youngs Moduli (GPa) = 65.60685 69.47917 66.39794
#
# Poissons Ratio (x) = 0.51516 0.57276
# Poissons Ratio (y) = 0.48645 -0.08767
# Poissons Ratio (z) = 0.56594 -0.09174
#
# Static dielectric constant tensor:
#      x y z
#    x 1.769940 0.000000 -0.092650 
#    y 0.000000 1.947250 0.000000 
#    z -0.092650 0.000000 1.809590 
# 
# From -- ./inp_files/72203.got.cif
#   From: 2010.05.17/outbox.cif.g08.bks.cpg/sg13_37_cif.got.tgz:72203.got - 2010.06.03 16:44:36.
