data_PCOD9233909
_publ_section_title
;
Structure prediction by ZEFSAII (Michael W. Deem and Ramdas Pophale) SiO2 
 PCOD9233909
Probable space group: P 2/C
;
_chemical_formula_sum "Si O2"
_cell_formula_units_Z 32
_cell_length_a 17.751293
_cell_length_b 5.120582
_cell_length_c 15.438872
_cell_angle_alpha 90.000000
_cell_angle_beta 85.846737
_cell_angle_gamma 90.000000
_cell_volume 1399.661052
_symmetry_space_group_name_H-M "P 2/C"
_symmetry_group_IT_number 13
_symmetry_cell_setting 'monoclinic'
loop_
_space_group_symop_operation_xyz
x,y,z
-x,y,1/2-z
-x,-y,-z
x,-y,1/2+z
loop_
_atom_site_type_symbol
_atom_site_label
_atom_site_fract_x
_atom_site_fract_y
_atom_site_fract_z
Si Si1 0.605689 0.111685 0.059863
Si Si2 0.722873 0.378163 0.160800
Si Si3 0.456834 0.129325 0.168753
Si Si4 0.375660 0.341848 0.621418
Si Si5 0.139924 0.926420 0.877069
Si Si6 0.226968 0.522569 0.160730
Si Si7 0.080847 0.571983 0.287568
Si Si8 0.241284 0.798092 0.488927
O O1 0.643984 0.291018 0.130320
O O2 0.525027 0.029326 0.101829
O O3 0.673614 0.908344 0.032516
O O4 0.591755 0.276488 0.975555
O O5 0.723226 0.496300 0.255388
O O6 0.760630 0.563085 0.083700
O O7 0.777703 0.128898 0.171896
O O8 0.500000 0.220783 0.250000
O O9 0.405950 0.366642 0.137783
O O10 0.405603 0.873749 0.185849
O O11 0.285981 0.282961 0.611093
O O12 0.095041 0.162634 0.838440
O O13 0.171777 0.008348 0.968568
O O14 0.095179 0.665879 0.853652
O O15 0.144611 0.567343 0.206367
O O16 0.226419 0.301637 0.087126
O O17 0.000000 0.555511 0.250000
#
# Coordination Sequence:
#
# PCOD9233909 Si02
#       8
#     4   4   4   4   4   4   4   4
#     4  11  25  41  71  97 146 177 237 295 348 399
#     4  10  22  43  71 100 140 180 233 286 343 402
#     4  12  28  45  67  98 140 184 239 287 355 408
#     4  12  26  44  66 101 132 188 233 286 352 414
#     4  10  21  44  68 100 142 179 225 282 340 412
#     4  11  24  44  74 101 138 181 241 278 348 426
#     4  11  24  45  74 105 142 185 225 286 352 410
#     4  11  22  44  70 108 134 189 231 289 340 408
#
# _framework density 22.862680000000001
#
# number of rings (size 3 to 8) (size 9 to 14) (size 15 to 20)
#    0.000    1.000    3.750    3.000    3.500    4.000 
#    0.000    1.250    0.000    0.000    0.000    0.000 
#    0.000    0.000    0.000    0.000    0.000    0.000 
#
# Total GULP energy -178369.455410 kJ/mol
# GULP energy per Si atom -5574.045482 kJ/mol
# Density = 2.281064 g / cm^3
# Si number density = 22.862680 Si / 1000 Ang^3
#
#
#
# Elastic Constant Matrix: (Units=GPa)
#
#
# Indices 1 2 3 4 5 6 
#
# 1 136.0208 38.7358 14.8680 0.0000 23.2142 0.0000
# 2 38.7358 111.2149 15.4412 0.0000 26.3217 0.0000
# 3 14.8680 15.4412 66.2994 0.0000 8.4245 0.0000
# 4 0.0000 0.0000 0.0000 10.7268 0.0000 10.1006
# 5 23.2142 26.3217 8.4245 0.0000 24.0700 0.0000
# 6 0.0000 0.0000 0.0000 10.1006 0.0000 31.0805
#
#
#
# Elastic Compliance Matrix: (Units=1/GPa)
#
#
# Indices 1 2 3 4 5 6 
#
# 1 0.009013 -0.001398 -0.000822 0.000000 -0.006877 0.000000
# 2 -0.001398 0.012439 -0.001074 0.000000 -0.011879 0.000000
# 3 -0.000822 -0.001074 0.015978 0.000000 -0.003625 0.000000
# 4 0.000000 0.000000 0.000000 0.134332 0.000000 -0.043656
# 5 -0.006877 -0.011879 -0.003625 0.000000 0.062436 0.000000
# 6 0.000000 0.000000 0.000000 -0.043656 0.000000 0.046362
#
#
# Mechanical properties :
#
#
# Convention : Reuss Voigt Hill
#
# Bulk Modulus (GPa) = 32.42247 50.18055 41.30151
# Shear Modulus (GPa) = 16.81074 29.47479 23.14277
#
# Velocity S-wave (km/s) = 2.71457 3.59445 3.18504
# Velocity P-wave (km/s) = 4.90279 6.26284 5.62408
#
# Compressibility (1/GPa) = 0.03084281
#
# Stress axis : x y z
#
# Youngs Moduli (GPa) = 110.94693 80.39301 62.58522
#
# Poissons Ratio (x) = 0.11236 0.05144
# Poissons Ratio (y) = 0.15506 0.06723
# Poissons Ratio (z) = 0.09119 0.08636
#
# Static dielectric constant tensor:
#      x y z
#    x 1.850830 0.000000 -0.033250 
#    y 0.000000 2.025130 0.000000 
#    z -0.033250 0.000000 1.975700 
# 
# From -- ./inp_files/54669.got.cif
#   From: 2010.05.17/outbox.cif.g08.bks.cpg/sg13_28_cif.got.tgz:54669.got - 2010.06.03 16:44:36.
