data_PCOD9233549
_publ_section_title
;
Structure prediction by ZEFSAII (Michael W. Deem and Ramdas Pophale) SiO2 
 PCOD9233549
Probable space group: P 2/C
;
_chemical_formula_sum "Si O2"
_cell_formula_units_Z 24
_cell_length_a 12.272498
_cell_length_b 7.248291
_cell_length_c 21.714589
_cell_angle_alpha 90.000000
_cell_angle_beta 149.668654
_cell_angle_gamma 90.000000
_cell_volume 975.464571
_symmetry_space_group_name_H-M "P 2/C"
_symmetry_group_IT_number 13
_symmetry_cell_setting 'monoclinic'
loop_
_space_group_symop_operation_xyz
x,y,z
-x,y,1/2-z
-x,-y,-z
x,-y,1/2+z
loop_
_atom_site_type_symbol
_atom_site_label
_atom_site_fract_x
_atom_site_fract_y
_atom_site_fract_z
Si Si1 0.042979 0.283845 0.456996
Si Si2 0.449349 0.291529 0.583004
Si Si3 0.097571 0.116208 0.733941
Si Si4 0.365375 0.180455 0.413094
Si Si5 0.560056 0.682906 0.680625
Si Si6 0.104143 0.271853 0.984655
O O1 0.796693 0.252451 0.315366
O O2 0.041488 0.225687 0.527608
O O3 0.249026 0.202999 0.521937
O O4 0.072119 0.506125 0.462061
O O5 0.670945 0.187433 0.676828
O O6 0.353186 0.313026 0.466278
O O7 0.532424 0.462311 0.664535
O O8 0.000000 0.200789 0.750000
O O9 0.952182 0.166091 0.605167
O O10 0.148505 0.906129 0.778328
O O11 0.478196 0.269928 0.409846
O O12 0.500000 0.000000 0.500000
O O13 0.358227 0.757083 0.620402
#
# Coordination Sequence:
#
# PCOD9233549 Si02
#       6
#     4   4   4   4   4   4
#     4  10  22  38  68  99 128 165 213 272 319 387
#     4  10  22  41  65  99 126 164 217 270 322 376
#     4  11  23  42  66  92 131 175 211 266 326 386
#     4  10  23  40  62  88 131 168 209 260 320 379
#     4  11  21  41  66  97 129 163 221 266 319 379
#     4  10  21  41  66  98 130 166 212 266 330 378
#
# _framework density 24.603660000000001
#
# number of rings (size 3 to 8) (size 9 to 14) (size 15 to 20)
#    0.000    1.667    1.667    3.000    2.333    2.000 
#    0.000    0.833    7.333    0.000    0.000    0.000 
#    0.000    0.000    0.000    0.000    0.000    0.000 
#
# Total GULP energy -133838.925261 kJ/mol
# GULP energy per Si atom -5576.621886 kJ/mol
# Density = 2.454766 g / cm^3
# Si number density = 24.603660 Si / 1000 Ang^3
#
#
#
# Elastic Constant Matrix: (Units=GPa)
#
#
# Indices 1 2 3 4 5 6 
#
# 1 187.8689 3.9630 68.8484 0.0000 29.8314 0.0000
# 2 3.9630 42.0302 16.9160 0.0000 2.9878 0.0000
# 3 68.8484 16.9160 137.5249 0.0000 17.3286 0.0000
# 4 0.0000 0.0000 0.0000 24.2780 0.0000 10.9604
# 5 29.8314 2.9878 17.3286 0.0000 53.7118 0.0000
# 6 0.0000 0.0000 0.0000 10.9604 0.0000 -41.4511
#
#
#
# Elastic Compliance Matrix: (Units=1/GPa)
#
#
# Indices 1 2 3 4 5 6 
#
# 1 0.006938 0.000844 -0.003217 0.000000 -0.002863 0.000000
# 2 0.000844 0.025143 -0.003419 0.000000 -0.000764 0.000000
# 3 -0.003217 -0.003419 0.009437 0.000000 -0.001068 0.000000
# 4 0.000000 0.000000 0.000000 0.036797 0.000000 0.009730
# 5 -0.002863 -0.000764 -0.001068 0.000000 0.020595 0.000000
# 6 0.000000 0.000000 0.000000 0.009730 0.000000 -0.021552
#
#
# Mechanical properties :
#
#
# Convention : Reuss Voigt Hill
#
# Bulk Modulus (GPa) = 33.40545 60.76430 47.08487
# Shear Modulus (GPa) = 50.54595 25.82083 38.18339
#
# Velocity S-wave (km/s) = 4.53747 3.24307 3.94374
# Velocity P-wave (km/s) = 6.40769 6.22689 6.31794
#
# Compressibility (1/GPa) = 0.02993523
#
# Stress axis : x y z
#
# Youngs Moduli (GPa) = 144.12468 39.77224 105.96792
#
# Poissons Ratio (x) = -0.03356 0.34086
# Poissons Ratio (y) = -0.12163 0.36229
# Poissons Ratio (z) = 0.46360 0.13598
#
# Static dielectric constant tensor:
#      x y z
#    x 1.968730 0.000000 -0.080750 
#    y 0.000000 1.990900 0.000000 
#    z -0.080750 0.000000 1.916820 
# 
# From -- ./inp_files/86438.got.cif
#   From: 2010.05.17/outbox.cif.g08.bks.cpg/sg13_44_cif.got.tgz:86438.got - 2010.06.03 16:44:36.
