data_PCOD9233221
_publ_section_title
;
Structure prediction by ZEFSAII (Michael W. Deem and Ramdas Pophale) SiO2 
 PCOD9233221
Probable space group: P 2/C
;
_chemical_formula_sum "Si O2"
_cell_formula_units_Z 26
_cell_length_a 18.692966
_cell_length_b 6.015711
_cell_length_c 18.971423
_cell_angle_alpha 90.000000
_cell_angle_beta 32.926997
_cell_angle_gamma 90.000000
_cell_volume 1159.633020
_symmetry_space_group_name_H-M "P 2/C"
_symmetry_group_IT_number 13
_symmetry_cell_setting 'monoclinic'
loop_
_space_group_symop_operation_xyz
x,y,z
-x,y,1/2-z
-x,-y,-z
x,-y,1/2+z
loop_
_atom_site_type_symbol
_atom_site_label
_atom_site_fract_x
_atom_site_fract_y
_atom_site_fract_z
Si Si1 0.000000 0.105901 0.250000
Si Si2 0.101068 0.189359 0.441419
Si Si3 0.140123 0.567977 0.300363
Si Si4 0.566084 0.927045 0.121345
Si Si5 0.706019 0.816326 0.210216
Si Si6 0.216669 0.755132 0.097684
Si Si7 0.208592 0.613693 0.500115
O O1 0.076183 0.255942 0.130482
O O2 0.107417 0.945713 0.196389
O O3 0.141893 0.337402 0.340643
O O4 0.008828 0.339188 0.567972
O O5 0.226125 0.052409 0.365558
O O6 0.000000 0.000000 0.500000
O O7 0.237477 0.734018 0.262454
O O8 0.188945 0.573648 0.180412
O O9 0.500000 0.002300 0.250000
O O10 0.449526 0.834607 0.169378
O O11 0.672469 0.741405 0.057051
O O12 0.643538 0.124500 0.019190
O O13 0.757528 0.642275 0.109320
O O14 0.200730 0.632653 0.036499
#
# Coordination Sequence:
#
# PCOD9233221 Si02
#       7
#     2   4   4   4   4   4   4
#     4  10  22  38  60  88 120 154 194 242 298 350
#     4   9  20  37  59  84 119 155 191 236 292 356
#     4  10  22  37  60  93 120 151 195 246 300 353
#     4   9  22  41  60  84 116 157 202 246 292 350
#     4  10  21  40  61  82 116 161 200 239 295 357
#     4  11  23  39  62  91 121 152 196 250 299 350
#     4  10  22  38  59  86 117 154 199 246 291 350
#
# _framework density 22.420887
#
# number of rings (size 3 to 8) (size 9 to 14) (size 15 to 20)
#    0.000    2.154    0.000    1.385    0.000   19.692 
#    0.000    1.538    0.000    0.000    0.000    0.000 
#    0.000    0.000    0.000    0.000    0.000    0.000 
#
# Total GULP energy -145453.484002 kJ/mol
# GULP energy per Si atom -5594.364769 kJ/mol
# Density = 2.236986 g / cm^3
# Si number density = 22.420887 Si / 1000 Ang^3
#
#
#
# Elastic Constant Matrix: (Units=GPa)
#
#
# Indices 1 2 3 4 5 6 
#
# 1 69.1973 8.6403 28.3158 0.0000 -11.0019 0.0000
# 2 8.6403 60.1603 26.3436 0.0000 -8.0425 0.0000
# 3 28.3158 26.3436 105.5777 0.0000 -17.4836 0.0000
# 4 0.0000 0.0000 0.0000 27.5259 0.0000 6.6057
# 5 -11.0019 -8.0425 -17.4836 0.0000 33.8837 0.0000
# 6 0.0000 0.0000 0.0000 6.6057 0.0000 25.8178
#
#
#
# Elastic Compliance Matrix: (Units=1/GPa)
#
#
# Indices 1 2 3 4 5 6 
#
# 1 0.016583 -0.000257 -0.003829 0.000000 0.003348 0.000000
# 2 -0.000257 0.018819 -0.004265 0.000000 0.002182 0.000000
# 3 -0.003829 -0.004265 0.012235 0.000000 0.004057 0.000000
# 4 0.000000 0.000000 0.000000 0.038706 0.000000 -0.009903
# 5 0.003348 0.002182 0.004057 0.000000 0.033211 0.000000
# 6 0.000000 0.000000 0.000000 -0.009903 0.000000 0.041267
#
#
# Mechanical properties :
#
#
# Convention : Reuss Voigt Hill
#
# Bulk Modulus (GPa) = 32.32789 40.17050 36.24919
# Shear Modulus (GPa) = 26.61925 28.88786 27.75355
#
# Velocity S-wave (km/s) = 3.44939 3.59337 3.52212
# Velocity P-wave (km/s) = 5.50585 5.93059 5.72216
#
# Compressibility (1/GPa) = 0.03093304
#
# Stress axis : x y z
#
# Youngs Moduli (GPa) = 60.30420 53.13879 81.73452
#
# Poissons Ratio (x) = 0.01368 0.31295
# Poissons Ratio (y) = 0.01553 0.34861
# Poissons Ratio (z) = 0.23089 0.22665
#
# Static dielectric constant tensor:
#      x y z
#    x 1.829550 0.000000 -0.008640 
#    y 0.000000 1.835920 0.000000 
#    z -0.008640 0.000000 1.795750 
# 
# From -- ./inp_files/81351.got.cif
#   From: 2010.05.17/outbox.cif.g08.bks.cpg/sg13_41_cif.got.tgz:81351.got - 2010.06.03 16:44:36.
