data_PCOD9233664
_publ_section_title
;
Structure prediction by ZEFSAII (Michael W. Deem and Ramdas Pophale) SiO2 
 PCOD9233664
Probable space group: P 2/C
;
_chemical_formula_sum "Si O2"
_cell_formula_units_Z 24
_cell_length_a 12.174714
_cell_length_b 8.254005
_cell_length_c 9.879570
_cell_angle_alpha 90.000000
_cell_angle_beta 73.074138
_cell_angle_gamma 90.000000
_cell_volume 949.793654
_symmetry_space_group_name_H-M "P 2/C"
_symmetry_group_IT_number 13
_symmetry_cell_setting 'monoclinic'
loop_
_space_group_symop_operation_xyz
x,y,z
-x,y,1/2-z
-x,-y,-z
x,-y,1/2+z
loop_
_atom_site_type_symbol
_atom_site_label
_atom_site_fract_x
_atom_site_fract_y
_atom_site_fract_z
Si Si1 0.957192 0.816176 0.535488
Si Si2 0.602545 0.402586 0.394151
Si Si3 0.727584 0.889453 0.526265
Si Si4 0.500000 0.871578 0.750000
Si Si5 0.806736 0.228704 0.468089
Si Si6 0.242257 0.351610 0.730007
Si Si7 0.000000 0.386781 0.750000
O O1 0.820124 0.827372 0.605914
O O2 0.056422 0.736978 0.593226
O O3 0.964924 0.723292 0.390548
O O4 0.000000 0.000000 0.500000
O O5 0.500000 0.500000 0.500000
O O6 0.554506 0.243314 0.343521
O O7 0.711578 0.349713 0.445091
O O8 0.657941 0.525208 0.266151
O O9 0.608894 0.949161 0.636042
O O10 0.717198 0.747736 0.417584
O O11 0.781741 0.045312 0.432710
O O12 0.785757 0.232048 0.637871
O O13 0.123762 0.452306 0.750447
#
# Coordination Sequence:
#
# PCOD9233664 Si02
#       7
#     4   4   4   2   4   4   2
#     4   8  16  37  61  93 121 156 199 257 319 371
#     4  12  25  44  62  86 130 177 210 256 321 379
#     4  10  22  41  67  94 129 163 208 268 313 378
#     4  12  26  42  60  90 130 164 218 256 310 376
#     4  10  23  41  70  95 121 167 216 261 327 372
#     4  10  21  42  64  91 128 164 206 262 312 375
#     4   8  16  34  62  86 120 158 198 254 308 360
#
# _framework density 25.268643999999998
#
# number of rings (size 3 to 8) (size 9 to 14) (size 15 to 20)
#    0.000    2.000    1.667    1.000    2.333    2.000 
#    6.000    2.500    0.000    0.000    0.000    0.000 
#    0.000    0.000    0.000    0.000    0.000    0.000 
#
# Total GULP energy -133965.037148 kJ/mol
# GULP energy per Si atom -5581.876548 kJ/mol
# Density = 2.521113 g / cm^3
# Si number density = 25.268644 Si / 1000 Ang^3
#
#
#
# Elastic Constant Matrix: (Units=GPa)
#
#
# Indices 1 2 3 4 5 6 
#
# 1 137.8543 15.5550 41.7530 0.0000 -17.8143 0.0000
# 2 15.5550 28.4662 0.2827 0.0000 0.5977 0.0000
# 3 41.7530 0.2827 72.4670 0.0000 -17.9648 0.0000
# 4 0.0000 0.0000 0.0000 1.6326 0.0000 23.0031
# 5 -17.8143 0.5977 -17.9648 0.0000 33.2932 0.0000
# 6 0.0000 0.0000 0.0000 23.0031 0.0000 -37.7466
#
#
#
# Elastic Compliance Matrix: (Units=1/GPa)
#
#
# Indices 1 2 3 4 5 6 
#
# 1 0.009676 -0.005294 -0.004903 0.000000 0.002627 0.000000
# 2 -0.005294 0.038046 0.002344 0.000000 -0.002251 0.000000
# 3 -0.004903 0.002344 0.018418 0.000000 0.007273 0.000000
# 4 0.000000 0.000000 0.000000 0.063894 0.000000 0.038938
# 5 0.002627 -0.002251 0.007273 0.000000 0.035406 0.000000
# 6 0.000000 0.000000 0.000000 0.038938 0.000000 -0.002764
#
#
# Mechanical properties :
#
#
# Convention : Reuss Voigt Hill
#
# Bulk Modulus (GPa) = 19.82799 39.32987 29.57893
# Shear Modulus (GPa) = 25.61551 11.51565 18.56558
#
# Velocity S-wave (km/s) = 3.18736 2.13710 2.71353
# Velocity P-wave (km/s) = 4.62705 4.65704 4.64207
#
# Compressibility (1/GPa) = 0.05043376
#
# Stress axis : x y z
#
# Youngs Moduli (GPa) = 103.35035 26.28393 54.29426
#
# Poissons Ratio (x) = 0.13914 0.26621
# Poissons Ratio (y) = 0.54711 -0.12725
# Poissons Ratio (z) = 0.50673 -0.06160
#
# Static dielectric constant tensor:
#      x y z
#    x 2.127850 0.000000 0.042600 
#    y 0.000000 2.009220 0.000000 
#    z 0.042600 0.000000 2.059130 
# 
# From -- ./inp_files/32534.got.cif
#   From: 2010.05.17/outbox.cif.g08.bks.cpg/sg13_17_cif.got.tgz:32534.got - 2010.06.03 16:44:36.
