data_PCOD9233388
_publ_section_title
;
Structure prediction by ZEFSAII (Michael W. Deem and Ramdas Pophale) SiO2 
 PCOD9233388
Probable space group: P 2/C
;
_chemical_formula_sum "Si O2"
_cell_formula_units_Z 24
_cell_length_a 14.087653
_cell_length_b 5.957417
_cell_length_c 14.525081
_cell_angle_alpha 90.000000
_cell_angle_beta 128.876470
_cell_angle_gamma 90.000000
_cell_volume 949.017822
_symmetry_space_group_name_H-M "P 2/C"
_symmetry_group_IT_number 13
_symmetry_cell_setting 'monoclinic'
loop_
_space_group_symop_operation_xyz
x,y,z
-x,y,1/2-z
-x,-y,-z
x,-y,1/2+z
loop_
_atom_site_type_symbol
_atom_site_label
_atom_site_fract_x
_atom_site_fract_y
_atom_site_fract_z
Si Si1 0.667382 0.354215 0.945945
Si Si2 0.298176 0.675579 0.704357
Si Si3 0.860722 0.053628 0.841218
Si Si4 0.729222 0.643219 0.139953
Si Si5 0.000000 0.418933 0.750000
Si Si6 0.075149 0.215808 0.429341
Si Si7 0.500000 0.006342 0.750000
O O1 0.690830 0.487877 0.866434
O O2 0.565586 0.170876 0.863235
O O3 0.644267 0.551030 0.006269
O O4 0.793890 0.219295 0.042103
O O5 0.291682 0.552692 0.798018
O O6 0.178513 0.829866 0.628420
O O7 0.406678 0.846752 0.746718
O O8 0.743465 0.135341 0.712000
O O9 0.897602 0.220991 0.945272
O O10 0.982085 0.991262 0.858352
O O11 0.862388 0.668507 0.173147
O O12 0.993802 0.573197 0.654681
#
# Coordination Sequence:
#
# PCOD9233388 Si02
#       7
#     4   4   4   4   2   4   2
#     4  11  26  48  74 105 150 198 250 304 374 433
#     4  12  24  47  75 101 146 192 245 316 364 434
#     4  11  23  40  71 106 147 190 238 295 378 446
#     4  11  25  45  69 113 150 189 236 299 370 450
#     4  10  22  38  64 104 148 186 230 282 364 446
#     4  10  21  40  68 103 145 188 231 294 361 451
#     4  12  26  50  74 106 136 200 266 310 366 428
#
# _framework density 25.289304999999999
#
# number of rings (size 3 to 8) (size 9 to 14) (size 15 to 20)
#    0.000    1.000    5.000    0.500    0.000   10.667 
#    0.000    5.833    0.000    0.000    0.000    0.000 
#    0.000    0.000    0.000    0.000    0.000    0.000 
#
# Total GULP energy -133958.243965 kJ/mol
# GULP energy per Si atom -5581.593499 kJ/mol
# Density = 2.523175 g / cm^3
# Si number density = 25.289305 Si / 1000 Ang^3
#
#
#
# Elastic Constant Matrix: (Units=GPa)
#
#
# Indices 1 2 3 4 5 6 
#
# 1 78.8735 35.4033 28.6973 0.0000 -6.0629 0.0000
# 2 35.4033 76.7551 19.0700 0.0000 7.0118 0.0000
# 3 28.6973 19.0700 52.6583 0.0000 -0.6670 0.0000
# 4 0.0000 0.0000 0.0000 12.2565 0.0000 0.1322
# 5 -6.0629 7.0118 -0.6670 0.0000 40.3838 0.0000
# 6 0.0000 0.0000 0.0000 0.1322 0.0000 37.3192
#
#
#
# Elastic Compliance Matrix: (Units=1/GPa)
#
#
# Indices 1 2 3 4 5 6 
#
# 1 0.019033 -0.007229 -0.007704 0.000000 0.003985 0.000000
# 2 -0.007229 0.017334 -0.002390 0.000000 -0.004135 0.000000
# 3 -0.007704 -0.002390 0.024050 0.000000 -0.000344 0.000000
# 4 0.000000 0.000000 0.000000 0.081592 0.000000 -0.000289
# 5 0.003985 -0.004135 -0.000344 0.000000 0.026073 0.000000
# 6 0.000000 0.000000 0.000000 -0.000289 0.000000 0.026797
#
#
# Mechanical properties :
#
#
# Convention : Reuss Voigt Hill
#
# Bulk Modulus (GPa) = 38.80364 41.62535 40.21449
# Shear Modulus (GPa) = 20.99820 26.33299 23.66560
#
# Velocity S-wave (km/s) = 2.88465 3.23037 3.06239
# Velocity P-wave (km/s) = 5.14511 5.51445 5.33298
#
# Compressibility (1/GPa) = 0.02577078
#
# Stress axis : x y z
#
# Youngs Moduli (GPa) = 52.54151 57.68892 41.57995
#
# Poissons Ratio (x) = 0.41702 0.32033
# Poissons Ratio (y) = 0.37981 0.09940
# Poissons Ratio (z) = 0.40477 0.13790
#
# Static dielectric constant tensor:
#      x y z
#    x 1.993490 0.000000 0.001320 
#    y 0.000000 2.029860 0.000000 
#    z 0.001320 0.000000 2.031550 
# 
# From -- ./inp_files/52371.got.cif
#   From: 2010.05.17/outbox.cif.g08.bks.cpg/sg13_27_cif.got.tgz:52371.got - 2010.06.03 16:44:36.
