data_PCOD9233194
_publ_section_title
;
Structure prediction by ZEFSAII (Michael W. Deem and Ramdas Pophale) SiO2 
 PCOD9233194
Probable space group: P 2/C
;
_chemical_formula_sum "Si O2"
_cell_formula_units_Z 20
_cell_length_a 9.748085
_cell_length_b 7.842114
_cell_length_c 29.004738
_cell_angle_alpha 90.000000
_cell_angle_beta 155.206489
_cell_angle_gamma 90.000000
_cell_volume 929.816603
_symmetry_space_group_name_H-M "P 2/C"
_symmetry_group_IT_number 13
_symmetry_cell_setting 'monoclinic'
loop_
_space_group_symop_operation_xyz
x,y,z
-x,y,1/2-z
-x,-y,-z
x,-y,1/2+z
loop_
_atom_site_type_symbol
_atom_site_label
_atom_site_fract_x
_atom_site_fract_y
_atom_site_fract_z
Si Si1 0.535730 0.131509 0.444085
Si Si2 0.217276 0.202400 0.436349
Si Si3 0.561028 0.910372 0.686200
Si Si4 0.255338 0.236778 0.631911
Si Si5 0.198615 0.612193 0.622258
O O1 0.392017 0.246340 0.441414
O O2 0.349631 0.131261 0.338891
O O3 0.904464 0.180820 0.543708
O O4 0.559469 0.938762 0.470737
O O5 0.873969 0.115133 0.314847
O O6 0.115516 0.347456 0.441710
O O7 0.284276 0.775197 0.617451
O O8 0.406677 0.097527 0.643816
O O9 0.500000 0.236676 0.750000
O O10 0.215181 0.430224 0.602422
O O11 0.500000 0.604717 0.750000
#
# Coordination Sequence:
#
# PCOD9233194 Si02
#       5
#     4   4   4   4   4
#     4  11  22  35  62  85 113 154 189 227 296 331
#     4  10  21  40  57  85 117 151 187 235 283 343
#     4  11  20  40  60  83 115 150 189 239 276 338
#     4  11  20  37  61  85 114 151 190 237 278 335
#     4   9  20  36  61  82 112 152 191 228 285 332
#
# _framework density 21.509616999999999
#
# number of rings (size 3 to 8) (size 9 to 14) (size 15 to 20)
#    0.000    1.600    4.000    1.800    0.000    1.600 
#    0.000    0.000    0.000    2.400    0.000    0.000 
#    0.000    0.000    0.000    0.000    0.000    0.000 
#
# Total GULP energy -111666.591404 kJ/mol
# GULP energy per Si atom -5583.329570 kJ/mol
# Density = 2.146066 g / cm^3
# Si number density = 21.509617 Si / 1000 Ang^3
#
#
#
# Elastic Constant Matrix: (Units=GPa)
#
#
# Indices 1 2 3 4 5 6 
#
# 1 109.6921 22.5510 6.9706 0.0000 1.5479 0.0000
# 2 22.5510 71.8718 8.4906 0.0000 -14.6976 0.0000
# 3 6.9706 8.4906 34.0990 0.0000 -1.3246 0.0000
# 4 0.0000 0.0000 0.0000 7.2316 0.0000 7.1611
# 5 1.5479 -14.6976 -1.3246 0.0000 32.7973 0.0000
# 6 0.0000 0.0000 0.0000 7.1611 0.0000 12.0739
#
#
#
# Elastic Compliance Matrix: (Units=1/GPa)
#
#
# Indices 1 2 3 4 5 6 
#
# 1 0.009920 -0.003379 -0.001266 0.000000 -0.002034 0.000000
# 2 -0.003379 0.016911 -0.003224 0.000000 0.007607 0.000000
# 3 -0.001266 -0.003224 0.030382 0.000000 -0.000158 0.000000
# 4 0.000000 0.000000 0.000000 0.335087 0.000000 -0.198743
# 5 -0.002034 0.007607 -0.000158 0.000000 0.033989 0.000000
# 6 0.000000 0.000000 0.000000 -0.198743 0.000000 0.200700
#
#
# Mechanical properties :
#
#
# Convention : Reuss Voigt Hill
#
# Bulk Modulus (GPa) = 24.11112 32.40968 28.26040
# Shear Modulus (GPa) = 7.61555 22.26394 14.93974
#
# Velocity S-wave (km/s) = 1.88367 3.22074 2.63831
# Velocity P-wave (km/s) = 3.99559 5.37877 4.73793
#
# Compressibility (1/GPa) = 0.04147464
#
# Stress axis : x y z
#
# Youngs Moduli (GPa) = 100.80429 59.13484 32.91441
#
# Poissons Ratio (x) = 0.19982 0.04165
# Poissons Ratio (y) = 0.34062 0.10613
# Poissons Ratio (z) = 0.12757 0.19068
#
# Static dielectric constant tensor:
#      x y z
#    x 1.804300 0.000000 -0.020730 
#    y 0.000000 1.792120 0.000000 
#    z -0.020730 0.000000 1.800720 
# 
# From -- ./inp_files/59258.got.cif
#   From: 2010.05.17/outbox.cif.g08.bks.cpg/sg13_30_cif.got.tgz:59258.got - 2010.06.03 16:44:36.
