data_PCOD9233372
_publ_section_title
;
Structure prediction by ZEFSAII (Michael W. Deem and Ramdas Pophale) SiO2 
 PCOD9233372
Probable space group: P 2/C
;
_chemical_formula_sum "Si O2"
_cell_formula_units_Z 24
_cell_length_a 5.458818
_cell_length_b 8.114969
_cell_length_c 21.445585
_cell_angle_alpha 90.000000
_cell_angle_beta 80.655948
_cell_angle_gamma 90.000000
_cell_volume 937.394125
_symmetry_space_group_name_H-M "P 2/C"
_symmetry_group_IT_number 13
_symmetry_cell_setting 'monoclinic'
loop_
_space_group_symop_operation_xyz
x,y,z
-x,y,1/2-z
-x,-y,-z
x,-y,1/2+z
loop_
_atom_site_type_symbol
_atom_site_label
_atom_site_fract_x
_atom_site_fract_y
_atom_site_fract_z
Si Si1 0.240861 0.323800 0.763778
Si Si2 0.890540 0.587446 0.091890
Si Si3 0.405301 0.897838 0.597347
Si Si4 0.727936 0.681783 0.784772
Si Si5 0.092075 0.942336 0.427629
Si Si6 0.331576 0.348001 0.494580
O O1 0.500000 0.230247 0.750000
O O2 0.184479 0.404563 0.833387
O O3 0.273312 0.482449 0.717567
O O4 0.000000 0.228573 0.750000
O O5 0.785513 0.760066 0.070019
O O6 0.831980 0.417532 0.058180
O O7 0.168630 0.644006 0.063527
O O8 0.317559 0.749570 0.644953
O O9 0.514902 0.812163 0.530095
O O10 0.667846 0.967895 0.611514
O O11 0.163048 0.014072 0.599682
O O12 0.500000 0.734697 0.750000
O O13 0.000000 0.733608 0.750000
O O14 0.000000 0.000000 0.500000
O O15 0.500000 0.500000 0.500000
#
# Coordination Sequence:
#
# PCOD9233372 Si02
#       6
#     4   4   4   4   4   4
#     4  10  23  42  67  96 136 181 229 294 351 402
#     4  11  26  44  70 107 144 185 240 297 365 423
#     4  12  26  45  73 101 145 192 237 290 360 435
#     4  10  21  40  67  96 131 177 237 290 339 404
#     4  12  26  48  69 107 148 194 224 293 369 442
#     4  11  25  40  73 108 140 181 241 303 356 422
#
# _framework density 25.602895
#
# number of rings (size 3 to 8) (size 9 to 14) (size 15 to 20)
#    0.000    1.000    1.667    4.500   11.667    0.000 
#    0.000    5.000    0.000    0.000    0.000    0.000 
#    0.000    0.000    0.000    0.000    0.000    0.000 
#
# Total GULP energy -133799.561672 kJ/mol
# GULP energy per Si atom -5574.981736 kJ/mol
# Density = 2.554462 g / cm^3
# Si number density = 25.602895 Si / 1000 Ang^3
#
#
#
# Elastic Constant Matrix: (Units=GPa)
#
#
# Indices 1 2 3 4 5 6 
#
# 1 198.8369 8.3670 41.6250 0.0000 -27.4477 0.0000
# 2 8.3670 70.9727 1.2939 0.0000 -3.1926 0.0000
# 3 41.6250 1.2939 75.6984 0.0000 -19.5206 0.0000
# 4 0.0000 0.0000 0.0000 28.1550 0.0000 -4.5219
# 5 -27.4477 -3.1926 -19.5206 0.0000 35.6202 0.0000
# 6 0.0000 0.0000 0.0000 -4.5219 0.0000 14.4606
#
#
#
# Elastic Compliance Matrix: (Units=1/GPa)
#
#
# Indices 1 2 3 4 5 6 
#
# 1 0.006014 -0.000518 -0.002463 0.000000 0.003238 0.000000
# 2 -0.000518 0.014192 0.000312 0.000000 0.001043 0.000000
# 3 -0.002463 0.000312 0.016394 0.000000 0.007114 0.000000
# 4 0.000000 0.000000 0.000000 0.037396 0.000000 0.011694
# 5 0.003238 0.001043 0.007114 0.000000 0.034561 0.000000
# 6 0.000000 0.000000 0.000000 0.011694 0.000000 0.072810
#
#
# Mechanical properties :
#
#
# Convention : Reuss Voigt Hill
#
# Bulk Modulus (GPa) = 31.98974 49.78664 40.88819
# Shear Modulus (GPa) = 25.36445 35.26198 30.31321
#
# Velocity S-wave (km/s) = 3.15093 3.71518 3.44463
# Velocity P-wave (km/s) = 5.07539 6.15559 5.64140
#
# Compressibility (1/GPa) = 0.03126002
#
# Stress axis : x y z
#
# Youngs Moduli (GPa) = 166.28986 70.46083 60.99822
#
# Poissons Ratio (x) = 0.03653 0.15024
# Poissons Ratio (y) = 0.08621 -0.01900
# Poissons Ratio (z) = 0.40957 -0.02195
#
# Static dielectric constant tensor:
#      x y z
#    x 2.143500 0.000000 0.134710 
#    y 0.000000 1.793990 0.000000 
#    z 0.134710 0.000000 2.105000 
# 
# From -- ./inp_files/83308.got.cif
#   From: 2010.05.17/outbox.cif.g08.bks.cpg/sg13_42_cif.got.tgz:83308.got - 2010.06.03 16:44:36.
