data_PCOD9233425
_publ_section_title
;
Structure prediction by ZEFSAII (Michael W. Deem and Ramdas Pophale) SiO2 
 PCOD9233425
Probable space group: P 2/C
;
_chemical_formula_sum "Si O2"
_cell_formula_units_Z 20
_cell_length_a 9.861468
_cell_length_b 5.572930
_cell_length_c 22.715993
_cell_angle_alpha 90.000000
_cell_angle_beta 35.012530
_cell_angle_gamma 90.000000
_cell_volume 716.281597
_symmetry_space_group_name_H-M "P 2/C"
_symmetry_group_IT_number 13
_symmetry_cell_setting 'monoclinic'
loop_
_space_group_symop_operation_xyz
x,y,z
-x,y,1/2-z
-x,-y,-z
x,-y,1/2+z
loop_
_atom_site_type_symbol
_atom_site_label
_atom_site_fract_x
_atom_site_fract_y
_atom_site_fract_z
Si Si1 0.864256 0.825463 0.860791
Si Si2 0.734385 0.671770 0.373035
Si Si3 0.900954 0.790467 0.080397
Si Si4 0.325209 0.152139 0.261406
Si Si5 0.636806 0.473427 0.078788
O O1 0.739721 0.083327 0.908278
O O2 0.000000 0.840415 0.750000
O O3 0.712369 0.587025 0.911654
O O4 0.056975 0.774740 0.842799
O O5 0.531310 0.660370 0.395523
O O6 0.000000 0.663521 0.250000
O O7 0.744995 0.618198 0.095454
O O8 0.738525 0.890608 0.190654
O O9 0.124786 0.654841 0.028009
O O10 0.000000 0.000000 0.000000
O O11 0.500000 0.247945 0.250000
O O12 0.467726 0.246687 0.154716
#
# Coordination Sequence:
#
# PCOD9233425 Si02
#       5
#     4   4   4   4   4
#     4  10  22  41  68 112 142 195 260 304 382 466
#     4  10  21  40  75 100 150 201 255 306 389 453
#     4  11  27  48  72 115 157 196 263 316 396 462
#     4  12  25  45  79 109 147 206 252 317 387 460
#     4  11  25  50  73 111 156 206 252 331 382 465
#
# _framework density 27.921980999999999
#
# number of rings (size 3 to 8) (size 9 to 14) (size 15 to 20)
#    0.000    1.200    6.000    0.000    8.400    2.400 
#    0.000    2.000    0.000    0.000    0.000    0.000 
#    0.000    0.000    0.000    0.000    0.000    0.000 
#
# Total GULP energy -111776.085176 kJ/mol
# GULP energy per Si atom -5588.804259 kJ/mol
# Density = 2.785843 g / cm^3
# Si number density = 27.921981 Si / 1000 Ang^3
#
#
#
# Elastic Constant Matrix: (Units=GPa)
#
#
# Indices 1 2 3 4 5 6 
#
# 1 167.5975 74.0796 59.7739 0.0000 -65.9308 0.0000
# 2 74.0796 221.8366 92.3021 0.0000 -27.4269 0.0000
# 3 59.7739 92.3021 119.2554 0.0000 -26.0463 0.0000
# 4 0.0000 0.0000 0.0000 25.9613 0.0000 15.8954
# 5 -65.9308 -27.4269 -26.0463 0.0000 56.5730 0.0000
# 6 0.0000 0.0000 0.0000 15.8954 0.0000 40.1912
#
#
#
# Elastic Compliance Matrix: (Units=1/GPa)
#
#
# Indices 1 2 3 4 5 6 
#
# 1 0.012509 -0.001697 -0.002170 0.000000 0.012756 0.000000
# 2 -0.001697 0.006926 -0.004679 0.000000 -0.000774 0.000000
# 3 -0.002170 -0.004679 0.013393 0.000000 0.001369 0.000000
# 4 0.000000 0.000000 0.000000 0.050827 0.000000 -0.020102
# 5 0.012756 -0.000774 0.001369 0.000000 0.032797 0.000000
# 6 0.000000 0.000000 0.000000 -0.020102 0.000000 0.032831
#
#
# Mechanical properties :
#
#
# Convention : Reuss Voigt Hill
#
# Bulk Modulus (GPa) = 63.54999 106.77785 85.16392
# Shear Modulus (GPa) = 29.13408 43.38070 36.25739
#
# Velocity S-wave (km/s) = 3.23369 3.94590 3.60741
# Velocity P-wave (km/s) = 6.06231 7.68666 6.92229
#
# Compressibility (1/GPa) = 0.01573564
#
# Stress axis : x y z
#
# Youngs Moduli (GPa) = 79.94301 144.39255 74.66347
#
# Poissons Ratio (x) = 0.24505 0.16204
# Poissons Ratio (y) = 0.13567 0.34934
# Poissons Ratio (z) = 0.17350 0.67558
#
# Static dielectric constant tensor:
#      x y z
#    x 2.191770 0.000000 0.096840 
#    y 0.000000 2.169500 0.000000 
#    z 0.096840 0.000000 2.218810 
# 
# From -- ./inp_files/96292.got.cif
#   From: 2010.05.17/outbox.cif.g08.bks.cpg/sg13_49_cif.got.tgz:96292.got - 2010.06.03 16:44:36.
