data_PCOD9233482
_publ_section_title
;
Structure prediction by ZEFSAII (Michael W. Deem and Ramdas Pophale) SiO2 
 PCOD9233482
Probable space group: P 2/C
;
_chemical_formula_sum "Si O2"
_cell_formula_units_Z 24
_cell_length_a 19.703046
_cell_length_b 7.740059
_cell_length_c 8.979198
_cell_angle_alpha 90.000000
_cell_angle_beta 133.030950
_cell_angle_gamma 90.000000
_cell_volume 1000.976245
_symmetry_space_group_name_H-M "P 2/C"
_symmetry_group_IT_number 13
_symmetry_cell_setting 'monoclinic'
loop_
_space_group_symop_operation_xyz
x,y,z
-x,y,1/2-z
-x,-y,-z
x,-y,1/2+z
loop_
_atom_site_type_symbol
_atom_site_label
_atom_site_fract_x
_atom_site_fract_y
_atom_site_fract_z
Si Si1 0.815150 0.626471 0.037905
Si Si2 0.500000 0.545091 0.250000
Si Si3 0.589477 0.791272 0.167137
Si Si4 0.500000 0.028342 0.250000
Si Si5 0.887827 0.243119 0.093813
Si Si6 0.301478 0.453105 0.846008
Si Si7 0.893556 0.949492 0.305986
O O1 0.866840 0.447304 0.072148
O O2 0.876867 0.797705 0.156648
O O3 0.767266 0.591472 0.124552
O O4 0.734346 0.625684 0.791099
O O5 0.516993 0.655050 0.126634
O O6 0.598018 0.458979 0.426876
O O7 0.682246 0.690859 0.259110
O O8 0.584934 0.925671 0.296479
O O9 0.546541 0.873982 0.956057
O O10 0.854298 0.129489 0.184177
O O11 0.855923 0.134248 0.901224
O O12 0.000000 0.235631 0.250000
O O13 0.000000 0.000000 0.500000
#
# Coordination Sequence:
#
# PCOD9233482 Si02
#       7
#     4   2   4   2   4   4   4
#     4  12  26  47  72 112 152 199 252 319 374 449
#     4  11  23  42  70  98 143 199 256 310 370 444
#     4  10  21  41  63  98 135 199 257 303 380 437
#     4   9  21  40  64  92 139 189 260 314 370 446
#     4  10  24  46  75 109 147 195 245 303 388 467
#     4  12  25  44  70 105 148 199 261 314 371 442
#     4  10  24  47  74 108 147 193 242 301 388 461
#
# _framework density 23.976592
#
# number of rings (size 3 to 8) (size 9 to 14) (size 15 to 20)
#    0.000    1.333    3.333    1.000    4.667    4.667 
#    3.000    0.000    0.000    0.000    0.000    0.000 
#    0.000    0.000    0.000    0.000    0.000    0.000 
#
# Total GULP energy -133795.316274 kJ/mol
# GULP energy per Si atom -5574.804845 kJ/mol
# Density = 2.392202 g / cm^3
# Si number density = 23.976592 Si / 1000 Ang^3
#
#
#
# Elastic Constant Matrix: (Units=GPa)
#
#
# Indices 1 2 3 4 5 6 
#
# 1 91.2307 23.4113 20.2098 0.0000 -18.9588 0.0000
# 2 23.4113 102.0744 42.4476 0.0000 2.4319 0.0000
# 3 20.2098 42.4476 113.9586 0.0000 -2.7970 0.0000
# 4 0.0000 0.0000 0.0000 43.7564 0.0000 8.4846
# 5 -18.9588 2.4319 -2.7970 0.0000 26.9525 0.0000
# 6 0.0000 0.0000 0.0000 8.4846 0.0000 50.6616
#
#
#
# Elastic Compliance Matrix: (Units=1/GPa)
#
#
# Indices 1 2 3 4 5 6 
#
# 1 0.014069 -0.002995 -0.001133 0.000000 0.010049 0.000000
# 2 -0.002995 0.012291 -0.004136 0.000000 -0.003645 0.000000
# 3 -0.001133 -0.004136 0.010533 0.000000 0.000669 0.000000
# 4 0.000000 0.000000 0.000000 0.023621 0.000000 -0.003956
# 5 0.010049 -0.003645 0.000669 0.000000 0.044569 0.000000
# 6 0.000000 0.000000 0.000000 -0.003956 0.000000 0.020401
#
#
# Mechanical properties :
#
#
# Convention : Reuss Voigt Hill
#
# Bulk Modulus (GPa) = 49.10544 53.26677 51.18611
# Shear Modulus (GPa) = 33.60185 39.02043 36.31114
#
# Velocity S-wave (km/s) = 3.74765 4.03853 3.89580
# Velocity P-wave (km/s) = 6.26510 6.63405 6.45222
#
# Compressibility (1/GPa) = 0.02036434
#
# Stress axis : x y z
#
# Youngs Moduli (GPa) = 71.07774 81.36243 94.93824
#
# Poissons Ratio (x) = 0.24369 0.10754
# Poissons Ratio (y) = 0.21289 0.39270
# Poissons Ratio (z) = 0.08051 0.33654
#
# Static dielectric constant tensor:
#      x y z
#    x 1.948570 0.000000 0.008850 
#    y 0.000000 2.044290 0.000000 
#    z 0.008850 0.000000 2.083380 
# 
# From -- ./inp_files/22830.got.cif
#   From: 2010.05.17/outbox.cif.g08.bks.cpg/sg13_12_cif.got.tgz:22830.got - 2010.06.03 16:44:36.
