data_PCOD9233918
_publ_section_title
;
Structure prediction by ZEFSAII (Michael W. Deem and Ramdas Pophale) SiO2 
 PCOD9233918
Probable space group: P 2/C
;
_chemical_formula_sum "Si O2"
_cell_formula_units_Z 22
_cell_length_a 9.255069
_cell_length_b 5.402920
_cell_length_c 20.439340
_cell_angle_alpha 90.000000
_cell_angle_beta 110.435014
_cell_angle_gamma 90.000000
_cell_volume 957.737613
_symmetry_space_group_name_H-M "P 2/C"
_symmetry_group_IT_number 13
_symmetry_cell_setting 'monoclinic'
loop_
_space_group_symop_operation_xyz
x,y,z
-x,y,1/2-z
-x,-y,-z
x,-y,1/2+z
loop_
_atom_site_type_symbol
_atom_site_label
_atom_site_fract_x
_atom_site_fract_y
_atom_site_fract_z
Si Si1 0.500000 0.720567 0.750000
Si Si2 0.857350 0.012346 0.108874
Si Si3 0.856360 0.491391 0.525792
Si Si4 0.618744 0.927878 0.176364
Si Si5 0.890355 0.309150 0.786140
Si Si6 0.324489 0.621615 0.125950
O O1 0.568240 0.571714 0.820402
O O2 0.368302 0.885024 0.761438
O O3 0.877648 0.277600 0.078351
O O4 0.842691 0.776610 0.057469
O O5 0.699303 0.024777 0.124634
O O6 0.999252 0.926774 0.178116
O O7 0.716866 0.547455 0.453897
O O8 0.000000 0.500000 0.500000
O O9 0.732318 0.713635 0.219942
O O10 0.439385 0.857817 0.141850
O O11 0.823262 0.369116 0.848360
O O12 0.000000 0.450738 0.750000
#
# Coordination Sequence:
#
# PCOD9233918 Si02
#       6
#     2   4   4   4   4   4
#     4  12  24  42  74 102 140 188 236 296 358 418
#     4  11  28  48  73 107 143 186 241 293 354 425
#     4  12  28  47  74 104 147 192 237 288 357 430
#     4  11  25  45  71 106 141 184 240 298 358 415
#     4  10  21  44  70 103 139 181 237 301 351 420
#     4  12  25  44  73 101 144 187 237 292 360 422
#
# _framework density 22.970801999999999
#
# number of rings (size 3 to 8) (size 9 to 14) (size 15 to 20)
#    0.000    0.727    5.455    0.545    7.636    1.455 
#    0.000    2.727    0.000    0.000    0.000    0.000 
#    0.000    0.000    0.000    0.000    0.000    0.000 
#
# Total GULP energy -122629.988883 kJ/mol
# GULP energy per Si atom -5574.090404 kJ/mol
# Density = 2.291852 g / cm^3
# Si number density = 22.970802 Si / 1000 Ang^3
#
#
#
# Elastic Constant Matrix: (Units=GPa)
#
#
# Indices 1 2 3 4 5 6 
#
# 1 132.7498 35.3657 29.1997 0.0000 -30.8121 0.0000
# 2 35.3657 60.3640 -1.9102 0.0000 -13.6164 0.0000
# 3 29.1997 -1.9102 80.4195 0.0000 1.5136 0.0000
# 4 0.0000 0.0000 0.0000 47.5400 0.0000 -13.1127
# 5 -30.8121 -13.6164 1.5136 0.0000 51.2219 0.0000
# 6 0.0000 0.0000 0.0000 -13.1127 0.0000 12.4792
#
#
#
# Elastic Compliance Matrix: (Units=1/GPa)
#
#
# Indices 1 2 3 4 5 6 
#
# 1 0.011190 -0.005473 -0.004295 0.000000 0.005403 0.000000
# 2 -0.005473 0.020308 0.002431 0.000000 0.002035 0.000000
# 3 -0.004295 0.002431 0.014096 0.000000 -0.002354 0.000000
# 4 0.000000 0.000000 0.000000 0.029619 0.000000 0.031123
# 5 0.005403 0.002035 -0.002354 0.000000 0.023384 0.000000
# 6 0.000000 0.000000 0.000000 0.031123 0.000000 0.112836
#
#
# Mechanical properties :
#
#
# Convention : Reuss Voigt Hill
#
# Bulk Modulus (GPa) = 32.33952 44.31597 38.32775
# Shear Modulus (GPa) = 21.14942 36.30677 28.72809
#
# Velocity S-wave (km/s) = 3.03761 3.97994 3.54027
# Velocity P-wave (km/s) = 5.13925 6.36035 5.78213
#
# Compressibility (1/GPa) = 0.03092192
#
# Stress axis : x y z
#
# Youngs Moduli (GPa) = 89.36752 49.24054 70.94117
#
# Poissons Ratio (x) = 0.26949 0.30466
# Poissons Ratio (y) = 0.48910 -0.17248
# Poissons Ratio (z) = 0.38380 -0.11972
#
# Static dielectric constant tensor:
#      x y z
#    x 1.973790 0.000000 0.067560 
#    y 0.000000 1.905800 0.000000 
#    z 0.067560 0.000000 1.921250 
# 
# From -- ./inp_files/74486.got.cif
#   From: 2010.05.17/outbox.cif.g08.bks.cpg/sg13_38_cif.got.tgz:74486.got - 2010.06.03 16:44:36.
