data_PCOD9233722
_publ_section_title
;
Structure prediction by ZEFSAII (Michael W. Deem and Ramdas Pophale) SiO2 
 PCOD9233722
Probable space group: P 2/C
;
_chemical_formula_sum "Si O2"
_cell_formula_units_Z 18
_cell_length_a 23.875650
_cell_length_b 5.363014
_cell_length_c 23.058558
_cell_angle_alpha 90.000000
_cell_angle_beta 12.869808
_cell_angle_gamma 90.000000
_cell_volume 657.638974
_symmetry_space_group_name_H-M "P 2/C"
_symmetry_group_IT_number 13
_symmetry_cell_setting 'monoclinic'
loop_
_space_group_symop_operation_xyz
x,y,z
-x,y,1/2-z
-x,-y,-z
x,-y,1/2+z
loop_
_atom_site_type_symbol
_atom_site_label
_atom_site_fract_x
_atom_site_fract_y
_atom_site_fract_z
Si Si1 0.746664 0.004834 0.792517
Si Si2 0.110984 0.827294 0.703248
Si Si3 0.862013 0.326265 0.978922
Si Si4 0.563425 0.500343 0.004784
Si Si5 0.500000 0.134590 0.250000
O O1 0.742594 0.264294 0.829642
O O2 0.000000 0.000000 0.500000
O O3 0.500000 0.000000 0.000000
O O4 0.699509 0.761828 0.878879
O O5 0.000000 0.841186 0.750000
O O6 0.380458 0.953985 0.419571
O O7 0.948035 0.038935 0.901783
O O8 0.073004 0.538519 0.757348
O O9 0.679669 0.437664 0.212367
O O10 0.698140 0.303472 0.084950
O O11 0.500000 0.500000 0.000000
#
# Coordination Sequence:
#
# PCOD9233722 Si02
#       5
#     4   4   4   4   2
#     4  10  21  42  68  93 136 184 231 286 344 417
#     4  10  22  41  69  95 138 174 227 291 343 420
#     4  11  23  43  68 101 135 179 232 281 352 417
#     4  10  22  43  66  98 137 177 226 282 346 421
#     4  10  24  46  70 104 134 184 236 294 366 414
#
# _framework density 27.370642
#
# number of rings (size 3 to 8) (size 9 to 14) (size 15 to 20)
#    0.000    1.778    0.000    4.000    0.000    8.000 
#   24.000    0.000    4.889    0.000    0.000    0.000 
#    0.000    0.000    0.000    0.000    0.000    0.000 
#
# Total GULP energy -100885.896522 kJ/mol
# GULP energy per Si atom -5604.772029 kJ/mol
# Density = 2.730835 g / cm^3
# Si number density = 27.370642 Si / 1000 Ang^3
#
#
#
# Elastic Constant Matrix: (Units=GPa)
#
#
# Indices 1 2 3 4 5 6 
#
# 1 102.0911 43.0071 11.7715 0.0000 -2.2373 0.0000
# 2 43.0071 272.1488 78.4172 0.0000 15.9256 0.0000
# 3 11.7715 78.4172 186.0081 0.0000 32.6859 0.0000
# 4 0.0000 0.0000 0.0000 59.9680 0.0000 3.3454
# 5 -2.2373 15.9256 32.6859 0.0000 53.7101 0.0000
# 6 0.0000 0.0000 0.0000 3.3454 0.0000 57.7456
#
#
#
# Elastic Compliance Matrix: (Units=1/GPa)
#
#
# Indices 1 2 3 4 5 6 
#
# 1 0.010544 -0.001687 -0.000136 0.000000 0.001022 0.000000
# 2 -0.001687 0.004454 -0.001709 0.000000 -0.000351 0.000000
# 3 -0.000136 -0.001709 0.006738 0.000000 -0.003599 0.000000
# 4 0.000000 0.000000 0.000000 0.016730 0.000000 -0.000969
# 5 0.001022 -0.000351 -0.003599 0.000000 0.020955 0.000000
# 6 0.000000 0.000000 0.000000 -0.000969 0.000000 0.017373
#
#
# Mechanical properties :
#
#
# Convention : Reuss Voigt Hill
#
# Bulk Modulus (GPa) = 68.15805 91.84886 80.00346
# Shear Modulus (GPa) = 56.33881 62.75489 59.54685
#
# Velocity S-wave (km/s) = 4.54184 4.79349 4.66936
# Velocity P-wave (km/s) = 7.24296 8.01667 7.63962
#
# Compressibility (1/GPa) = 0.01467178
#
# Stress axis : x y z
#
# Youngs Moduli (GPa) = 94.84196 224.51193 148.41662
#
# Poissons Ratio (x) = 0.37874 0.02014
# Poissons Ratio (y) = 0.15999 0.25370
# Poissons Ratio (z) = 0.01287 0.38378
#
# Static dielectric constant tensor:
#      x y z
#    x 2.121080 0.000000 0.036270 
#    y 0.000000 2.151810 0.000000 
#    z 0.036270 0.000000 2.133890 
# 
# From -- ./inp_files/89799.got.cif
#   From: 2010.05.17/outbox.cif.g08.bks.cpg/sg13_45_cif.got.tgz:89799.got - 2010.06.03 16:44:36.
