data_PCOD9233624
_publ_section_title
;
Structure prediction by ZEFSAII (Michael W. Deem and Ramdas Pophale) SiO2 
 PCOD9233624
Probable space group: P 2/C
;
_chemical_formula_sum "Si O2"
_cell_formula_units_Z 30
_cell_length_a 17.139115
_cell_length_b 5.552268
_cell_length_c 16.280436
_cell_angle_alpha 90.000000
_cell_angle_beta 130.317597
_cell_angle_gamma 90.000000
_cell_volume 1181.265187
_symmetry_space_group_name_H-M "P 2/C"
_symmetry_group_IT_number 13
_symmetry_cell_setting 'monoclinic'
loop_
_space_group_symop_operation_xyz
x,y,z
-x,y,1/2-z
-x,-y,-z
x,-y,1/2+z
loop_
_atom_site_type_symbol
_atom_site_label
_atom_site_fract_x
_atom_site_fract_y
_atom_site_fract_z
Si Si1 0.703105 0.267988 0.608833
Si Si2 0.685038 0.465406 0.430986
Si Si3 0.806299 0.251870 0.136578
Si Si4 0.943231 0.085709 0.353196
Si Si5 0.430488 0.999561 0.370515
Si Si6 0.500000 0.787848 0.250000
Si Si7 0.090845 0.310445 0.569125
Si Si8 0.251983 0.310182 0.185083
O O1 0.640486 0.348083 0.484583
O O2 0.643715 0.217102 0.651464
O O3 0.769411 0.512029 0.663530
O O4 0.751570 0.007470 0.616162
O O5 0.774907 0.641265 0.527066
O O6 0.598536 0.619419 0.328495
O O7 0.724064 0.262059 0.395118
O O8 0.917496 0.196112 0.248515
O O9 0.844738 0.168069 0.342324
O O10 0.798503 0.574908 0.360386
O O11 0.051868 0.139367 0.468601
O O12 0.927795 0.803116 0.353734
O O13 0.486879 0.937801 0.324700
O O14 0.500000 0.000000 0.500000
O O15 0.354617 0.224730 0.301745
O O16 0.000000 0.500000 0.500000
#
# Coordination Sequence:
#
# PCOD9233624 Si02
#       8
#     4   4   4   4   4   2   4   4
#     4  10  25  47  71 106 148 201 267 316 393 476
#     4  10  28  44  71 105 153 207 270 325 404 465
#     4  10  23  43  74 106 149 203 253 320 396 478
#     4  10  21  41  74 114 149 194 254 333 395 503
#     4  12  29  47  77 110 160 208 279 328 412 474
#     4  12  30  46  70 110 162 206 272 348 390 478
#     4   9  22  41  71 116 149 189 264 317 413 488
#     4  11  25  42  76 105 150 206 256 332 395 486
#
# _framework density 25.396495999999999
#
# number of rings (size 3 to 8) (size 9 to 14) (size 15 to 20)
#    0.800    0.800    1.333    0.800   13.067    0.533 
#    0.000    0.667    0.000    0.000    0.000    0.000 
#    0.000    0.000    0.000    0.000    0.000    0.000 
#
# Total GULP energy -167078.737358 kJ/mol
# GULP energy per Si atom -5569.291245 kJ/mol
# Density = 2.533869 g / cm^3
# Si number density = 25.396496 Si / 1000 Ang^3
#
#
#
# Elastic Constant Matrix: (Units=GPa)
#
#
# Indices 1 2 3 4 5 6 
#
# 1 105.3556 32.6642 61.8177 0.0000 -8.9234 0.0000
# 2 32.6642 115.1005 53.4868 0.0000 11.2135 0.0000
# 3 61.8177 53.4868 208.6547 0.0000 21.2345 0.0000
# 4 0.0000 0.0000 0.0000 63.0831 0.0000 9.5318
# 5 -8.9234 11.2135 21.2345 0.0000 39.8784 0.0000
# 6 0.0000 0.0000 0.0000 9.5318 0.0000 29.1979
#
#
#
# Elastic Compliance Matrix: (Units=1/GPa)
#
#
# Indices 1 2 3 4 5 6 
#
# 1 0.012944 -0.002466 -0.003773 0.000000 0.005598 0.000000
# 2 -0.002466 0.010419 -0.001677 0.000000 -0.002589 0.000000
# 3 -0.003773 -0.001677 0.006744 0.000000 -0.003963 0.000000
# 4 0.000000 0.000000 0.000000 0.016675 0.000000 -0.005444
# 5 0.005598 -0.002589 -0.003963 0.000000 0.029167 0.000000
# 6 0.000000 0.000000 0.000000 -0.005444 0.000000 0.036026
#
#
# Mechanical properties :
#
#
# Convention : Reuss Voigt Hill
#
# Bulk Modulus (GPa) = 70.04616 80.56091 75.30353
# Shear Modulus (GPa) = 37.71770 45.17468 41.44619
#
# Velocity S-wave (km/s) = 3.85795 4.22213 4.04414
# Velocity P-wave (km/s) = 6.89100 7.45377 7.17790
#
# Compressibility (1/GPa) = 0.01427630
#
# Stress axis : x y z
#
# Youngs Moduli (GPa) = 77.25680 95.97626 148.29062
#
# Poissons Ratio (x) = 0.23664 0.55943
# Poissons Ratio (y) = 0.19049 0.24868
# Poissons Ratio (z) = 0.29146 0.16095
#
# Static dielectric constant tensor:
#      x y z
#    x 2.091450 0.000000 -0.025020 
#    y 0.000000 2.124950 0.000000 
#    z -0.025020 0.000000 2.165040 
# 
# From -- ./inp_files/59129.got.cif
#   From: 2010.05.17/outbox.cif.g08.bks.cpg/sg13_30_cif.got.tgz:59129.got - 2010.06.03 16:44:36.
