data_PCOD9233763
_publ_section_title
;
Structure prediction by ZEFSAII (Michael W. Deem and Ramdas Pophale) SiO2 
 PCOD9233763
Probable space group: P 2/C
;
_chemical_formula_sum "Si O2"
_cell_formula_units_Z 28
_cell_length_a 13.512240
_cell_length_b 5.438498
_cell_length_c 16.032527
_cell_angle_alpha 90.000000
_cell_angle_beta 71.715211
_cell_angle_gamma 90.000000
_cell_volume 1118.683672
_symmetry_space_group_name_H-M "P 2/C"
_symmetry_group_IT_number 13
_symmetry_cell_setting 'monoclinic'
loop_
_space_group_symop_operation_xyz
x,y,z
-x,y,1/2-z
-x,-y,-z
x,-y,1/2+z
loop_
_atom_site_type_symbol
_atom_site_label
_atom_site_fract_x
_atom_site_fract_y
_atom_site_fract_z
Si Si1 0.210035 0.196414 0.172819
Si Si2 0.577836 0.195477 0.021906
Si Si3 0.586589 0.491766 0.354037
Si Si4 0.876696 0.606615 0.975021
Si Si5 0.733480 0.180181 0.737301
Si Si6 0.782651 0.092640 0.061717
Si Si7 0.935062 0.497923 0.689494
O O1 0.318422 0.304095 0.176339
O O2 0.185664 0.327836 0.093533
O O3 0.110804 0.253746 0.257572
O O4 0.232548 0.911146 0.178924
O O5 0.521048 0.343177 0.112616
O O6 0.681833 0.070557 0.028468
O O7 0.596140 0.386429 0.942778
O O8 0.500000 0.000000 0.000000
O O9 0.620682 0.694163 0.276840
O O10 0.990224 0.538903 0.908507
O O11 0.827042 0.365318 0.031612
O O12 0.865693 0.873764 0.021692
O O13 0.829745 0.359702 0.693140
O O14 0.740270 0.972883 0.664837
O O15 0.000000 0.380671 0.750000
#
# Coordination Sequence:
#
# PCOD9233763 Si02
#       7
#     4   4   4   4   4   4   4
#     4  10  21  43  69 100 138 191 248 304 360 439
#     4  11  23  44  74 103 132 192 248 303 360 449
#     4  10  21  42  70  99 135 181 251 296 372 428
#     4  11  25  46  71 102 146 200 245 297 357 450
#     4  11  25  43  72 104 154 191 237 319 378 435
#     4  12  28  45  71 107 154 189 244 306 377 434
#     4   9  23  41  70 106 139 195 257 299 362 445
#
# _framework density 25.029415
#
# number of rings (size 3 to 8) (size 9 to 14) (size 15 to 20)
#    0.000    1.429    1.429    2.571   12.000    1.714 
#    0.000    4.286    0.000    0.000    0.000    0.000 
#    0.000    0.000    0.000    0.000    0.000    0.000 
#
# Total GULP energy -156328.067451 kJ/mol
# GULP energy per Si atom -5583.145266 kJ/mol
# Density = 2.497245 g / cm^3
# Si number density = 25.029415 Si / 1000 Ang^3
#
#
#
# Elastic Constant Matrix: (Units=GPa)
#
#
# Indices 1 2 3 4 5 6 
#
# 1 81.9749 31.2694 33.5375 0.0000 -15.9417 0.0000
# 2 31.2694 120.9047 70.7917 0.0000 -16.4224 0.0000
# 3 33.5375 70.7917 155.2893 0.0000 -25.3117 0.0000
# 4 0.0000 0.0000 0.0000 41.4303 0.0000 1.1479
# 5 -15.9417 -16.4224 -25.3117 0.0000 38.9374 0.0000
# 6 0.0000 0.0000 0.0000 1.1479 0.0000 24.7992
#
#
#
# Elastic Compliance Matrix: (Units=1/GPa)
#
#
# Indices 1 2 3 4 5 6 
#
# 1 0.014454 -0.002385 -0.001380 0.000000 0.004015 0.000000
# 2 -0.002385 0.011764 -0.004696 0.000000 0.000933 0.000000
# 3 -0.001380 -0.004696 0.009466 0.000000 0.003608 0.000000
# 4 0.000000 0.000000 0.000000 0.024168 0.000000 -0.001119
# 5 0.004015 0.000933 0.003608 0.000000 0.030065 0.000000
# 6 0.000000 0.000000 0.000000 -0.001119 0.000000 0.040376
#
#
# Mechanical properties :
#
#
# Convention : Reuss Voigt Hill
#
# Bulk Modulus (GPa) = 53.29625 69.92955 61.61290
# Shear Modulus (GPa) = 32.58004 35.87140 34.22572
#
# Velocity S-wave (km/s) = 3.61178 3.78983 3.70188
# Velocity P-wave (km/s) = 6.22358 6.86659 6.55297
#
# Compressibility (1/GPa) = 0.01876304
#
# Stress axis : x y z
#
# Youngs Moduli (GPa) = 69.18543 85.00607 105.63678
#
# Poissons Ratio (x) = 0.20273 0.14578
# Poissons Ratio (y) = 0.16500 0.49604
# Poissons Ratio (z) = 0.09548 0.39916
#
# Static dielectric constant tensor:
#      x y z
#    x 1.980210 0.000000 0.049270 
#    y 0.000000 2.111780 0.000000 
#    z 0.049270 0.000000 2.103810 
# 
# From -- ./inp_files/67498.got.cif
#   From: 2010.05.17/outbox.cif.g08.bks.cpg/sg13_34_cif.got.tgz:67498.got - 2010.06.03 16:44:36.
