data_PCOD9233187
_publ_section_title
;
Structure prediction by ZEFSAII (Michael W. Deem and Ramdas Pophale) SiO2 
 PCOD9233187
Probable space group: P 2/C
;
_chemical_formula_sum "Si O2"
_cell_formula_units_Z 20
_cell_length_a 5.210514
_cell_length_b 13.293914
_cell_length_c 16.000612
_cell_angle_alpha 90.000000
_cell_angle_beta 56.614854
_cell_angle_gamma 90.000000
_cell_volume 925.447072
_symmetry_space_group_name_H-M "P 2/C"
_symmetry_group_IT_number 13
_symmetry_cell_setting 'monoclinic'
loop_
_space_group_symop_operation_xyz
x,y,z
-x,y,1/2-z
-x,-y,-z
x,-y,1/2+z
loop_
_atom_site_type_symbol
_atom_site_label
_atom_site_fract_x
_atom_site_fract_y
_atom_site_fract_z
Si Si1 0.832992 0.930218 0.651109
Si Si2 0.707192 0.249475 0.427717
Si Si3 0.246533 0.086838 0.531853
Si Si4 0.000000 0.385339 0.250000
Si Si5 0.500000 0.511816 0.250000
Si Si6 0.696793 0.438058 0.535579
O O1 0.500000 0.919739 0.750000
O O2 0.825749 0.915090 0.553050
O O3 0.061752 0.841447 0.636489
O O4 0.969057 0.043010 0.636917
O O5 0.398650 0.195110 0.514902
O O6 0.785988 0.328159 0.485908
O O7 0.732437 0.318720 0.341148
O O8 0.500000 0.000000 0.500000
O O9 0.190144 0.447248 0.285419
O O10 0.464753 0.568990 0.344612
O O11 0.500000 0.500000 0.500000
O O12 0.000000 0.500000 0.500000
#
# Coordination Sequence:
#
# PCOD9233187 Si02
#       6
#     4   4   4   2   2   4
#     4  10  21  39  70  98 133 173 228 290 347 423
#     4  11  23  37  67 102 135 183 232 288 351 423
#     4   9  21  40  61  97 136 169 221 282 358 413
#     4  12  24  38  72 104 134 176 244 288 348 418
#     4  12  24  46  62 104 138 188 238 290 354 416
#     4  12  25  43  69  99 145 187 229 299 352 410
#
# _framework density 21.611177999999999
#
# number of rings (size 3 to 8) (size 9 to 14) (size 15 to 20)
#    0.000    1.200    4.000    1.200    7.000    2.400 
#    0.000    0.000   24.200    0.000    0.000    0.000 
#    0.000    0.000    0.000    0.000    0.000    0.000 
#
# Total GULP energy -111446.328964 kJ/mol
# GULP energy per Si atom -5572.316448 kJ/mol
# Density = 2.156199 g / cm^3
# Si number density = 21.611178 Si / 1000 Ang^3
#
#
#
# Elastic Constant Matrix: (Units=GPa)
#
#
# Indices 1 2 3 4 5 6 
#
# 1 79.5471 16.6687 10.1199 0.0000 1.6159 0.0000
# 2 16.6687 90.3663 50.5387 0.0000 -8.4309 0.0000
# 3 10.1199 50.5387 117.0571 0.0000 0.3236 0.0000
# 4 0.0000 0.0000 0.0000 28.1511 0.0000 -0.3865
# 5 1.6159 -8.4309 0.3236 0.0000 40.6113 0.0000
# 6 0.0000 0.0000 0.0000 -0.3865 0.0000 34.7674
#
#
#
# Elastic Compliance Matrix: (Units=1/GPa)
#
#
# Indices 1 2 3 4 5 6 
#
# 1 0.013120 -0.002484 -0.000059 0.000000 -0.001037 0.000000
# 2 -0.002484 0.015454 -0.006467 0.000000 0.003359 0.000000
# 3 -0.000059 -0.006467 0.011344 0.000000 -0.001431 0.000000
# 4 0.000000 0.000000 0.000000 0.035528 0.000000 0.000395
# 5 -0.001037 0.003359 -0.001431 0.000000 0.025374 0.000000
# 6 0.000000 0.000000 0.000000 0.000395 0.000000 0.028767
#
#
# Mechanical properties :
#
#
# Convention : Reuss Voigt Hill
#
# Bulk Modulus (GPa) = 45.66429 49.06946 47.36688
# Shear Modulus (GPa) = 32.27760 34.68216 33.47988
#
# Velocity S-wave (km/s) = 3.86885 4.01037 3.94025
# Velocity P-wave (km/s) = 6.41352 6.64823 6.53193
#
# Compressibility (1/GPa) = 0.02189895
#
# Stress axis : x y z
#
# Youngs Moduli (GPa) = 76.21818 64.70698 88.15295
#
# Poissons Ratio (x) = 0.16073 0.00520
# Poissons Ratio (y) = 0.18932 0.57007
# Poissons Ratio (z) = 0.00450 0.41845
#
# Static dielectric constant tensor:
#      x y z
#    x 1.832430 0.000000 -0.055320 
#    y 0.000000 1.905310 0.000000 
#    z -0.055320 0.000000 1.840270 
# 
# From -- ./inp_files/61005.got.cif
#   From: 2010.05.17/outbox.cif.g08.bks.cpg/sg13_31_cif.got.tgz:61005.got - 2010.06.03 16:44:36.
