data_PCOD9233604
_publ_section_title
;
Structure prediction by ZEFSAII (Michael W. Deem and Ramdas Pophale) SiO2 
 PCOD9233604
Probable space group: P 2/C
;
_chemical_formula_sum "Si O2"
_cell_formula_units_Z 22
_cell_length_a 17.819435
_cell_length_b 13.675327
_cell_length_c 11.462217
_cell_angle_alpha 90.000000
_cell_angle_beta 158.524698
_cell_angle_gamma 90.000000
_cell_volume 1022.586732
_symmetry_space_group_name_H-M "P 2/C"
_symmetry_group_IT_number 13
_symmetry_cell_setting 'monoclinic'
loop_
_space_group_symop_operation_xyz
x,y,z
-x,y,1/2-z
-x,-y,-z
x,-y,1/2+z
loop_
_atom_site_type_symbol
_atom_site_label
_atom_site_fract_x
_atom_site_fract_y
_atom_site_fract_z
Si Si1 0.175682 0.445152 0.918956
Si Si2 0.555640 0.887248 0.069279
Si Si3 0.000000 0.796450 0.750000
Si Si4 0.935801 0.702503 0.414459
Si Si5 0.500000 0.571337 0.250000
Si Si6 0.280202 0.718624 0.760598
Si Si7 0.500000 0.206491 0.250000
O O1 0.069405 0.405274 0.647520
O O2 0.000000 0.490239 0.750000
O O3 0.365298 0.508896 0.147724
O O4 0.250728 0.349203 0.102559
O O5 0.796566 0.861945 0.435264
O O6 0.435339 0.807826 0.972983
O O7 0.472279 0.859896 0.821367
O O8 0.500000 0.000000 0.000000
O O9 0.019684 0.728579 0.663157
O O10 0.068197 0.758810 0.507771
O O11 0.698288 0.731094 0.068321
O O12 0.641065 0.642434 0.529507
#
# Coordination Sequence:
#
# PCOD9233604 Si02
#       7
#     4   4   2   4   2   4   2
#     4  10  23  43  69 103 138 195 243 287 363 432
#     4  11  25  45  71 104 141 180 234 292 356 429
#     4  10  24  42  68 110 134 186 232 296 354 420
#     4  10  21  43  70  99 140 185 234 290 355 420
#     4  12  25  43  68 106 150 188 239 307 356 428
#     4  11  24  44  66 102 140 187 233 295 357 419
#     4  10  21  41  70  98 130 194 223 281 360 426
#
# _framework density 21.514066
#
# number of rings (size 3 to 8) (size 9 to 14) (size 15 to 20)
#    0.000    1.455    1.818    2.182    2.545    6.545 
#   13.091    3.636    0.000    0.000    0.000    0.000 
#    0.000    0.000    0.000    0.000    0.000    0.000 
#
# Total GULP energy -122757.534672 kJ/mol
# GULP energy per Si atom -5579.887940 kJ/mol
# Density = 2.146510 g / cm^3
# Si number density = 21.514066 Si / 1000 Ang^3
#
#
#
# Elastic Constant Matrix: (Units=GPa)
#
#
# Indices 1 2 3 4 5 6 
#
# 1 110.8164 56.8262 21.9001 0.0000 2.3323 0.0000
# 2 56.8262 100.7709 38.8160 0.0000 7.8429 0.0000
# 3 21.9001 38.8160 92.0236 0.0000 4.9792 0.0000
# 4 0.0000 0.0000 0.0000 14.8051 0.0000 22.4178
# 5 2.3323 7.8429 4.9792 0.0000 52.4090 0.0000
# 6 0.0000 0.0000 0.0000 22.4178 0.0000 -105.0565
#
#
#
# Elastic Compliance Matrix: (Units=1/GPa)
#
#
# Indices 1 2 3 4 5 6 
#
# 1 0.012709 -0.007201 -0.000015 0.000000 0.000513 0.000000
# 2 -0.007201 0.016018 -0.004956 0.000000 -0.001606 0.000000
# 3 -0.000015 -0.004956 0.012987 0.000000 -0.000492 0.000000
# 4 0.000000 0.000000 0.000000 0.051050 0.000000 0.010893
# 5 0.000513 -0.001606 -0.000492 0.000000 0.019345 0.000000
# 6 0.000000 0.000000 0.000000 0.010893 0.000000 -0.007194
#
#
# Mechanical properties :
#
#
# Convention : Reuss Voigt Hill
#
# Bulk Modulus (GPa) = 57.56789 59.85504 58.71146
# Shear Modulus (GPa) = 37.02392 4.83610 20.93001
#
# Velocity S-wave (km/s) = 4.15289 1.50092 3.12244
# Velocity P-wave (km/s) = 7.05774 5.55747 6.35205
#
# Compressibility (1/GPa) = 0.01737079
#
# Stress axis : x y z
#
# Youngs Moduli (GPa) = 78.68680 62.42939 76.99792
#
# Poissons Ratio (x) = 0.44954 0.00115
# Poissons Ratio (y) = 0.56661 0.38160
# Poissons Ratio (z) = 0.00117 0.30940
#
# Static dielectric constant tensor:
#      x y z
#    x 1.638700 0.000000 -0.027460 
#    y 0.000000 1.876220 0.000000 
#    z -0.027460 0.000000 1.831950 
# 
# From -- ./inp_files/39431.got.cif
#   From: 2010.05.17/outbox.cif.g08.bks.cpg/sg13_20_cif.got.tgz:39431.got - 2010.06.03 16:44:36.
