data_PCOD9233120
_publ_section_title
;
Structure prediction by ZEFSAII (Michael W. Deem and Ramdas Pophale) SiO2 
 PCOD9233120
Probable space group: P 2/C
;
_chemical_formula_sum "Si O2"
_cell_formula_units_Z 28
_cell_length_a 28.578243
_cell_length_b 8.828508
_cell_length_c 9.778451
_cell_angle_alpha 90.000000
_cell_angle_beta 146.446842
_cell_angle_gamma 90.000000
_cell_volume 1363.611168
_symmetry_space_group_name_H-M "P 2/C"
_symmetry_group_IT_number 13
_symmetry_cell_setting 'monoclinic'
loop_
_space_group_symop_operation_xyz
x,y,z
-x,y,1/2-z
-x,-y,-z
x,-y,1/2+z
loop_
_atom_site_type_symbol
_atom_site_label
_atom_site_fract_x
_atom_site_fract_y
_atom_site_fract_z
Si Si1 0.741450 0.546457 0.963571
Si Si2 0.169243 0.058047 0.084291
Si Si3 0.926942 0.931116 0.413614
Si Si4 0.944233 0.428383 0.984048
Si Si5 0.320977 0.133128 0.071649
Si Si6 0.597095 0.951022 0.447107
Si Si7 0.706067 0.681885 0.591689
O O1 0.843709 0.531746 0.233599
O O2 0.696382 0.406506 0.927618
O O3 0.704304 0.697864 0.945642
O O4 0.719586 0.566942 0.750938
O O5 0.207458 0.221782 0.206381
O O6 0.091111 0.018225 0.990709
O O7 0.238173 0.938004 0.300993
O O8 0.152560 0.051129 0.882858
O O9 0.943429 0.754514 0.476403
O O10 0.000000 0.000000 0.500000
O O11 0.000000 0.475138 0.250000
O O12 0.000000 0.500000 0.000000
O O13 0.350670 0.048710 0.283065
O O14 0.389417 0.095001 0.119971
O O15 0.500000 0.931099 0.250000
O O16 0.634567 0.804714 0.456835
#
# Coordination Sequence:
#
# PCOD9233120 Si02
#       7
#     4   4   4   4   4   4   4
#     4  11  22  43  59  90 123 162 217 247 303 375
#     4  11  21  43  59  87 119 162 208 256 304 366
#     4  12  25  39  60  88 121 161 210 263 314 358
#     4  12  26  42  60  88 124 166 212 264 312 353
#     4  10  21  39  66  89 124 160 207 249 305 374
#     4  10  21  41  65  98 126 155 199 253 312 373
#     4  10  23  39  64  87 121 166 198 251 303 370
#
# _framework density 20.533714
#
# number of rings (size 3 to 8) (size 9 to 14) (size 15 to 20)
#    0.000    1.143    2.857    4.286    2.000    3.429 
#    0.000    3.571    0.000    0.000    0.000    0.000 
#    0.000    0.000    0.000    0.000    0.000    0.000 
#
# Total GULP energy -156307.976955 kJ/mol
# GULP energy per Si atom -5582.427748 kJ/mol
# Density = 2.048698 g / cm^3
# Si number density = 20.533714 Si / 1000 Ang^3
#
#
#
# Elastic Constant Matrix: (Units=GPa)
#
#
# Indices 1 2 3 4 5 6 
#
# 1 140.2832 40.9466 28.5504 0.0000 9.3284 0.0000
# 2 40.9466 24.2346 5.7933 0.0000 -4.6435 0.0000
# 3 28.5504 5.7933 44.7082 0.0000 2.3022 0.0000
# 4 0.0000 0.0000 0.0000 16.8707 0.0000 -9.6656
# 5 9.3284 -4.6435 2.3022 0.0000 39.2073 0.0000
# 6 0.0000 0.0000 0.0000 -9.6656 0.0000 43.0551
#
#
#
# Elastic Compliance Matrix: (Units=1/GPa)
#
#
# Indices 1 2 3 4 5 6 
#
# 1 0.017699 -0.029609 -0.007090 0.000000 -0.007301 0.000000
# 2 -0.029609 0.093278 0.005907 0.000000 0.017745 0.000000
# 3 -0.007090 0.005907 0.026085 0.000000 0.000855 0.000000
# 4 0.000000 0.000000 0.000000 0.068023 0.000000 0.015271
# 5 -0.007301 0.017745 0.000855 0.000000 0.029294 0.000000
# 6 0.000000 0.000000 0.000000 0.015271 0.000000 0.026654
#
#
# Mechanical properties :
#
#
# Convention : Reuss Voigt Hill
#
# Bulk Modulus (GPa) = 13.24861 39.97853 26.61357
# Shear Modulus (GPa) = 14.37703 28.75567 21.56635
#
# Velocity S-wave (km/s) = 2.64894 3.74627 3.24433
# Velocity P-wave (km/s) = 3.97768 6.18261 5.19840
#
# Compressibility (1/GPa) = 0.07547964
#
# Stress axis : x y z
#
# Youngs Moduli (GPa) = 56.49957 10.72066 38.33563
#
# Poissons Ratio (x) = 0.31742 0.27180
# Poissons Ratio (y) = 1.67288 -0.22646
# Poissons Ratio (z) = 0.40058 -0.06333
#
# Static dielectric constant tensor:
#      x y z
#    x 1.648350 0.000000 0.045750 
#    y 0.000000 1.721040 0.000000 
#    z 0.045750 0.000000 1.811430 
# 
# From -- ./inp_files/24592.got.cif
#   From: 2010.05.17/outbox.cif.g08.bks.cpg/sg13_13_cif.got.tgz:24592.got - 2010.06.03 16:44:36.
