data_PCOD9233606
_publ_section_title
;
Structure prediction by ZEFSAII (Michael W. Deem and Ramdas Pophale) SiO2 
 PCOD9233606
Probable space group: P 2/C
;
_chemical_formula_sum "Si O2"
_cell_formula_units_Z 22
_cell_length_a 5.161157
_cell_length_b 16.418291
_cell_length_c 10.314127
_cell_angle_alpha 90.000000
_cell_angle_beta 96.742920
_cell_angle_gamma 90.000000
_cell_volume 867.946647
_symmetry_space_group_name_H-M "P 2/C"
_symmetry_group_IT_number 13
_symmetry_cell_setting 'monoclinic'
loop_
_space_group_symop_operation_xyz
x,y,z
-x,y,1/2-z
-x,-y,-z
x,-y,1/2+z
loop_
_atom_site_type_symbol
_atom_site_label
_atom_site_fract_x
_atom_site_fract_y
_atom_site_fract_z
Si Si1 0.981647 0.290144 0.902870
Si Si2 0.245438 0.554987 0.975725
Si Si3 0.000000 0.353422 0.250000
Si Si4 0.230120 0.950559 0.656659
Si Si5 0.770193 0.125131 0.842635
Si Si6 0.313328 0.230485 0.109622
O O1 0.828943 0.205647 0.926892
O O2 0.000000 0.296751 0.750000
O O3 0.809397 0.366464 0.939060
O O4 0.285685 0.273783 0.967518
O O5 0.215294 0.589385 0.827336
O O6 0.500000 0.500000 0.000000
O O7 0.000000 0.500000 0.000000
O O8 0.914132 0.290123 0.352654
O O9 0.500000 0.958181 0.750000
O O10 0.261879 0.865010 0.585335
O O11 0.000000 0.941151 0.750000
O O12 0.216165 0.037899 0.583210
O O13 0.500000 0.132709 0.750000
O O14 0.000000 0.119054 0.750000
O O15 0.500000 0.234627 0.250000
#
# Coordination Sequence:
#
# PCOD9233606 Si02
#       6
#     4   4   2   4   4   4
#     4  10  24  47  73 108 143 190 234 298 367 431
#     4  11  28  49  74 104 140 182 238 304 361 435
#     4  10  24  46  70 104 136 186 238 294 354 428
#     4   9  17  34  62  98 140 187 237 286 340 408
#     4   9  19  38  62  99 144 186 234 287 349 421
#     4  10  21  41  71 102 144 189 240 290 348 419
#
# _framework density 25.347179000000001
#
# number of rings (size 3 to 8) (size 9 to 14) (size 15 to 20)
#    0.000    2.182    0.909    0.000    6.364    3.636 
#    6.545    0.000    0.000   18.545    0.000    0.000 
#    0.000    0.000    0.000    0.000    0.000    0.000 
#
# Total GULP energy -122592.795798 kJ/mol
# GULP energy per Si atom -5572.399809 kJ/mol
# Density = 2.528949 g / cm^3
# Si number density = 25.347179 Si / 1000 Ang^3
#
#
#
# Elastic Constant Matrix: (Units=GPa)
#
#
# Indices 1 2 3 4 5 6 
#
# 1 132.1697 58.5436 27.0111 0.0000 30.4209 0.0000
# 2 58.5436 233.3298 62.8631 0.0000 27.3261 0.0000
# 3 27.0111 62.8631 108.2920 0.0000 27.9213 0.0000
# 4 0.0000 0.0000 0.0000 42.1244 0.0000 13.2620
# 5 30.4209 27.3261 27.9213 0.0000 28.2160 0.0000
# 6 0.0000 0.0000 0.0000 13.2620 0.0000 27.3235
#
#
#
# Elastic Compliance Matrix: (Units=1/GPa)
#
#
# Indices 1 2 3 4 5 6 
#
# 1 0.010594 -0.001690 0.001156 0.000000 -0.010930 0.000000
# 2 -0.001690 0.005506 -0.002510 0.000000 -0.001027 0.000000
# 3 0.001156 -0.002510 0.013556 0.000000 -0.012231 0.000000
# 4 0.000000 0.000000 0.000000 0.028021 0.000000 -0.013601
# 5 -0.010930 -0.001027 -0.012231 0.000000 0.060322 0.000000
# 6 0.000000 0.000000 0.000000 -0.013601 0.000000 0.043200
#
#
# Mechanical properties :
#
#
# Convention : Reuss Voigt Hill
#
# Bulk Modulus (GPa) = 42.42698 85.62525 64.02612
# Shear Modulus (GPa) = 28.54817 41.22437 34.88627
#
# Velocity S-wave (km/s) = 3.35966 4.03723 3.71393
# Velocity P-wave (km/s) = 5.64131 7.45564 6.61101
#
# Compressibility (1/GPa) = 0.02356991
#
# Stress axis : x y z
#
# Youngs Moduli (GPa) = 94.39592 181.61155 73.76556
#
# Poissons Ratio (x) = 0.30684 -0.08531
# Poissons Ratio (y) = 0.15949 0.18516
# Poissons Ratio (z) = -0.10916 0.45587
#
# Static dielectric constant tensor:
#      x y z
#    x 1.993540 0.000000 -0.112670 
#    y 0.000000 1.958940 0.000000 
#    z -0.112670 0.000000 2.682020 
# 
# From -- ./inp_files/26559.got.cif
#   From: 2010.05.17/outbox.cif.g08.bks.cpg/sg13_14_cif.got.tgz:26559.got - 2010.06.03 16:44:36.
