data_PCOD9233143
_publ_section_title
;
Structure prediction by ZEFSAII (Michael W. Deem and Ramdas Pophale) SiO2 
 PCOD9233143
Probable space group: P 2/C
;
_chemical_formula_sum "Si O2"
_cell_formula_units_Z 30
_cell_length_a 17.098148
_cell_length_b 6.680507
_cell_length_c 13.683219
_cell_angle_alpha 90.000000
_cell_angle_beta 118.360830
_cell_angle_gamma 90.000000
_cell_volume 1375.359969
_symmetry_space_group_name_H-M "P 2/C"
_symmetry_group_IT_number 13
_symmetry_cell_setting 'monoclinic'
loop_
_space_group_symop_operation_xyz
x,y,z
-x,y,1/2-z
-x,-y,-z
x,-y,1/2+z
loop_
_atom_site_type_symbol
_atom_site_label
_atom_site_fract_x
_atom_site_fract_y
_atom_site_fract_z
Si Si1 0.500000 0.768495 0.750000
Si Si2 0.478645 0.909044 0.093439
Si Si3 0.737322 0.441088 0.366065
Si Si4 0.342454 0.751350 0.331034
Si Si5 0.050267 0.644230 0.677741
Si Si6 0.102622 0.306276 0.563254
Si Si7 0.413564 0.475802 0.061564
Si Si8 0.201800 0.065286 0.213804
O O1 0.493965 0.608567 0.836328
O O2 0.555129 0.928382 0.849122
O O3 0.576922 0.839192 0.184774
O O4 0.421257 0.711177 0.048638
O O5 0.500000 0.000000 0.000000
O O6 0.708902 0.585758 0.260870
O O7 0.829477 0.544914 0.454005
O O8 0.661518 0.442124 0.401674
O O9 0.751741 0.220833 0.332212
O O10 0.385495 0.643038 0.449262
O O11 0.275644 0.934667 0.314770
O O12 0.079924 0.432285 0.648132
O O13 0.133702 0.795917 0.734078
O O14 0.000000 0.623664 0.750000
O O15 0.982818 0.726157 0.554844
O O16 0.147264 0.098910 0.619775
#
# Coordination Sequence:
#
# PCOD9233143 Si02
#       8
#     2   4   4   4   4   4   4   4
#     4  12  24  42  68  92 124 176 224 276 342 402
#     4  12  26  45  66  96 132 177 223 278 340 409
#     4  10  23  41  63  91 133 171 220 277 332 400
#     4  11  24  42  64  93 132 168 223 283 332 395
#     4  10  21  39  66  96 130 172 218 270 336 409
#     4   9  21  41  61  92 134 171 211 276 332 393
#     4  12  26  41  66  96 128 177 228 282 340 402
#     4  10  22  41  65  95 130 178 217 276 340 396
#
# _framework density 21.812470999999999
#
# number of rings (size 3 to 8) (size 9 to 14) (size 15 to 20)
#    0.000    1.333    1.333    3.600    3.733    5.867 
#    0.000    0.000    0.000    0.000    0.000    0.000 
#    0.000    0.000    0.000    0.000    0.000    0.000 
#
# Total GULP energy -167349.778193 kJ/mol
# GULP energy per Si atom -5578.325940 kJ/mol
# Density = 2.176283 g / cm^3
# Si number density = 21.812471 Si / 1000 Ang^3
#
#
#
# Elastic Constant Matrix: (Units=GPa)
#
#
# Indices 1 2 3 4 5 6 
#
# 1 118.9157 52.7369 17.2421 0.0000 -16.4076 0.0000
# 2 52.7369 152.4050 31.8502 0.0000 -13.3828 0.0000
# 3 17.2421 31.8502 39.5086 0.0000 -9.7585 0.0000
# 4 0.0000 0.0000 0.0000 32.0204 0.0000 10.6852
# 5 -16.4076 -13.3828 -9.7585 0.0000 33.6711 0.0000
# 6 0.0000 0.0000 0.0000 10.6852 0.0000 39.1948
#
#
#
# Elastic Compliance Matrix: (Units=1/GPa)
#
#
# Indices 1 2 3 4 5 6 
#
# 1 0.010421 -0.003041 -0.001229 0.000000 0.003513 0.000000
# 2 -0.003041 0.008839 -0.005705 0.000000 0.000378 0.000000
# 3 -0.001229 -0.005705 0.032032 0.000000 0.006417 0.000000
# 4 0.000000 0.000000 0.000000 0.034355 0.000000 -0.009366
# 5 0.003513 0.000378 0.006417 0.000000 0.033421 0.000000
# 6 0.000000 0.000000 0.000000 -0.009366 0.000000 0.028067
#
#
# Mechanical properties :
#
#
# Convention : Reuss Voigt Hill
#
# Bulk Modulus (GPa) = 31.90617 57.16532 44.53574
# Shear Modulus (GPa) = 28.16398 34.91061 31.53729
#
# Velocity S-wave (km/s) = 3.59721 4.00495 3.80654
# Velocity P-wave (km/s) = 5.64911 6.90295 6.30726
#
# Compressibility (1/GPa) = 0.03134190
#
# Stress axis : x y z
#
# Youngs Moduli (GPa) = 95.96310 113.13325 31.21912
#
# Poissons Ratio (x) = 0.34399 0.03836
# Poissons Ratio (y) = 0.29178 0.17812
# Poissons Ratio (z) = 0.11792 0.64547
#
# Static dielectric constant tensor:
#      x y z
#    x 1.879750 0.000000 0.094130 
#    y 0.000000 1.820530 0.000000 
#    z 0.094130 0.000000 1.842260 
# 
# From -- ./inp_files/54739.got.cif
#   From: 2010.05.17/outbox.cif.g08.bks.cpg/sg13_28_cif.got.tgz:54739.got - 2010.06.03 16:44:36.
