data_PCOD9233040
_publ_section_title
;
Structure prediction by ZEFSAII (Michael W. Deem and Ramdas Pophale) SiO2 
 PCOD9233040
Probable space group: P 2/C
;
_chemical_formula_sum "Si O2"
_cell_formula_units_Z 18
_cell_length_a 6.252713
_cell_length_b 9.757822
_cell_length_c 18.914509
_cell_angle_alpha 90.000000
_cell_angle_beta 125.005454
_cell_angle_gamma 90.000000
_cell_volume 945.261627
_symmetry_space_group_name_H-M "P 2/C"
_symmetry_group_IT_number 13
_symmetry_cell_setting 'monoclinic'
loop_
_space_group_symop_operation_xyz
x,y,z
-x,y,1/2-z
-x,-y,-z
x,-y,1/2+z
loop_
_atom_site_type_symbol
_atom_site_label
_atom_site_fract_x
_atom_site_fract_y
_atom_site_fract_z
Si Si1 0.055961 0.152900 0.034638
Si Si2 0.500000 0.498905 0.750000
Si Si3 0.573695 0.660780 0.972213
Si Si4 0.980136 0.711591 0.826987
Si Si5 0.613460 0.373801 0.919522
O O1 0.317393 0.209560 0.048128
O O2 0.068660 0.175702 0.121477
O O3 0.833266 0.257820 0.964599
O O4 0.000000 0.000000 0.000000
O O5 0.752872 0.598008 0.791432
O O6 0.518624 0.406152 0.823255
O O7 0.702354 0.523268 0.965868
O O8 0.265035 0.649824 0.898192
O O9 0.599385 0.669803 0.061559
O O10 0.000000 0.761050 0.750000
#
# Coordination Sequence:
#
# PCOD9233040 Si02
#       5
#     4   2   4   4   4
#     4  11  24  42  61  89 130 171 202 246 311 380
#     4  12  22  38  62 102 122 154 206 274 322 346
#     4  10  21  39  63  93 118 160 209 254 309 362
#     4  11  21  37  64  95 120 157 211 264 309 367
#     4  10  22  36  64  92 122 153 208 259 306 368
#
# _framework density 19.042345999999998
#
# number of rings (size 3 to 8) (size 9 to 14) (size 15 to 20)
#    0.000    1.333    4.444    0.667    6.222    3.556 
#    0.000    5.556    0.000    0.000    5.778    0.000 
#    0.000    0.000    0.000    0.000    0.000    0.000 
#
# Total GULP energy -100432.073906 kJ/mol
# GULP energy per Si atom -5579.559661 kJ/mol
# Density = 1.899901 g / cm^3
# Si number density = 19.042346 Si / 1000 Ang^3
#
#
#
# Elastic Constant Matrix: (Units=GPa)
#
#
# Indices 1 2 3 4 5 6 
#
# 1 118.2485 53.9569 70.0324 0.0000 -14.9947 0.0000
# 2 53.9569 102.1108 55.1483 0.0000 0.3740 0.0000
# 3 70.0324 55.1483 140.0027 0.0000 -46.3794 0.0000
# 4 0.0000 0.0000 0.0000 24.9395 0.0000 -1.6606
# 5 -14.9947 0.3740 -46.3794 0.0000 51.9324 0.0000
# 6 0.0000 0.0000 0.0000 -1.6606 0.0000 12.8628
#
#
#
# Elastic Compliance Matrix: (Units=1/GPa)
#
#
# Indices 1 2 3 4 5 6 
#
# 1 0.013435 -0.004205 -0.005352 0.000000 -0.000871 0.000000
# 2 -0.004205 0.015424 -0.006264 0.000000 -0.006920 0.000000
# 3 -0.005352 -0.006264 0.016745 0.000000 0.013454 0.000000
# 4 0.000000 0.000000 0.000000 0.040445 0.000000 0.005222
# 5 -0.000871 -0.006920 0.013454 0.000000 0.031070 0.000000
# 6 0.000000 0.000000 0.000000 0.005222 0.000000 0.078418
#
#
# Mechanical properties :
#
#
# Convention : Reuss Voigt Hill
#
# Bulk Modulus (GPa) = 71.63633 79.84856 75.74245
# Shear Modulus (GPa) = 21.56712 30.02855 25.79783
#
# Velocity S-wave (km/s) = 3.36904 3.97537 3.68470
# Velocity P-wave (km/s) = 7.26878 7.94321 7.61346
#
# Compressibility (1/GPa) = 0.01395940
#
# Stress axis : x y z
#
# Youngs Moduli (GPa) = 74.43065 64.83320 59.72026
#
# Poissons Ratio (x) = 0.27265 0.31965
# Poissons Ratio (y) = 0.31301 0.37412
# Poissons Ratio (z) = 0.39839 0.40615
#
# Static dielectric constant tensor:
#      x y z
#    x 1.731210 0.000000 -0.014000 
#    y 0.000000 1.622640 0.000000 
#    z -0.014000 0.000000 1.706210 
# 
# From -- ./inp_files/60353.got.cif
#   From: 2010.05.17/outbox.cif.g08.bks.cpg/sg13_31_cif.got.tgz:60353.got - 2010.06.03 16:44:36.
