data_PCOD9233969
_publ_section_title
;
Structure prediction by ZEFSAII (Michael W. Deem and Ramdas Pophale) SiO2 
 PCOD9233969
Probable space group: P 2/C
;
_chemical_formula_sum "Si O2"
_cell_formula_units_Z 18
_cell_length_a 4.912011
_cell_length_b 6.173126
_cell_length_c 25.773565
_cell_angle_alpha 90.000000
_cell_angle_beta 55.152239
_cell_angle_gamma 90.000000
_cell_volume 641.370838
_symmetry_space_group_name_H-M "P 2/C"
_symmetry_group_IT_number 13
_symmetry_cell_setting 'monoclinic'
loop_
_space_group_symop_operation_xyz
x,y,z
-x,y,1/2-z
-x,-y,-z
x,-y,1/2+z
loop_
_atom_site_type_symbol
_atom_site_label
_atom_site_fract_x
_atom_site_fract_y
_atom_site_fract_z
Si Si1 0.561142 0.389828 0.844537
Si Si2 0.956833 0.993161 0.815757
Si Si3 0.500000 0.673111 0.750000
Si Si4 0.926658 0.064484 0.927005
Si Si5 0.737089 0.310478 0.041500
O O1 0.580996 0.519324 0.789179
O O2 0.244426 0.223759 0.878564
O O3 0.531105 0.561120 0.894500
O O4 0.886990 0.245421 0.815602
O O5 0.000000 0.921336 0.750000
O O6 0.252905 0.845323 0.803445
O O7 0.750984 0.986296 0.892964
O O8 0.076829 0.864857 0.942529
O O9 0.688440 0.204307 0.990021
O O10 0.000000 0.500000 0.000000
#
# Coordination Sequence:
#
# PCOD9233969 Si02
#       5
#     4   4   2   4   4
#     4  11  24  45  74 104 148 206 254 314 398 453
#     4  12  26  44  74 112 146 201 264 310 380 472
#     4  12  26  50  76 106 164 202 254 334 374 448
#     4  10  21  46  72 107 153 188 263 325 368 477
#     4   9  20  43  76 105 147 203 245 322 397 440
#
# _framework density 28.064892
#
# number of rings (size 3 to 8) (size 9 to 14) (size 15 to 20)
#    0.000    1.333    2.222    2.667    0.000    3.556 
#    0.000   10.000    0.000    0.000    0.000    0.000 
#    0.000    0.000    0.000    0.000    0.000    0.000 
#
# Total GULP energy -100404.440842 kJ/mol
# GULP energy per Si atom -5578.024491 kJ/mol
# Density = 2.800102 g / cm^3
# Si number density = 28.064892 Si / 1000 Ang^3
#
#
#
# Elastic Constant Matrix: (Units=GPa)
#
#
# Indices 1 2 3 4 5 6 
#
# 1 80.2406 60.0683 36.5798 0.0000 7.5258 0.0000
# 2 60.0683 203.1520 66.7960 0.0000 -7.2029 0.0000
# 3 36.5798 66.7960 218.7115 0.0000 32.4327 0.0000
# 4 0.0000 0.0000 0.0000 71.0291 0.0000 -12.2326
# 5 7.5258 -7.2029 32.4327 0.0000 43.1779 0.0000
# 6 0.0000 0.0000 0.0000 -12.2326 0.0000 49.8918
#
#
#
# Elastic Compliance Matrix: (Units=1/GPa)
#
#
# Indices 1 2 3 4 5 6 
#
# 1 0.016715 -0.004756 -0.000893 0.000000 -0.003036 0.000000
# 2 -0.004756 0.007064 -0.001867 0.000000 0.003410 0.000000
# 3 -0.000893 -0.001867 0.005981 0.000000 -0.004649 0.000000
# 4 0.000000 0.000000 0.000000 0.014699 0.000000 0.003604
# 5 -0.003036 0.003410 -0.004649 0.000000 0.027750 0.000000
# 6 0.000000 0.000000 0.000000 0.003604 0.000000 0.020927
#
#
# Mechanical properties :
#
#
# Convention : Reuss Voigt Hill
#
# Bulk Modulus (GPa) = 67.90395 92.11024 80.00709
# Shear Modulus (GPa) = 44.21711 55.39710 49.80711
#
# Velocity S-wave (km/s) = 3.97360 4.44767 4.21730
# Velocity P-wave (km/s) = 6.73057 7.69853 7.23077
#
# Compressibility (1/GPa) = 0.01472668
#
# Stress axis : x y z
#
# Youngs Moduli (GPa) = 59.82672 141.56793 167.18959
#
# Poissons Ratio (x) = 0.67336 0.14925
# Poissons Ratio (y) = 0.28456 0.31222
# Poissons Ratio (z) = 0.05341 0.26438
#
# Static dielectric constant tensor:
#      x y z
#    x 2.305330 0.000000 -0.041410 
#    y 0.000000 2.126300 0.000000 
#    z -0.041410 0.000000 2.221730 
# 
# From -- ./inp_files/89872.got.cif
#   From: 2010.05.17/outbox.cif.g08.bks.cpg/sg13_45_cif.got.tgz:89872.got - 2010.06.03 16:44:36.
