data_PCOD9233828
_publ_section_title
;
Structure prediction by ZEFSAII (Michael W. Deem and Ramdas Pophale) SiO2 
 PCOD9233828
Probable space group: P 2/C
;
_chemical_formula_sum "Si O2"
_cell_formula_units_Z 28
_cell_length_a 10.030629
_cell_length_b 11.774728
_cell_length_c 16.691896
_cell_angle_alpha 90.000000
_cell_angle_beta 141.502205
_cell_angle_gamma 90.000000
_cell_volume 1227.194148
_symmetry_space_group_name_H-M "P 2/C"
_symmetry_group_IT_number 13
_symmetry_cell_setting 'monoclinic'
loop_
_space_group_symop_operation_xyz
x,y,z
-x,y,1/2-z
-x,-y,-z
x,-y,1/2+z
loop_
_atom_site_type_symbol
_atom_site_label
_atom_site_fract_x
_atom_site_fract_y
_atom_site_fract_z
Si Si1 0.182536 0.491806 0.885474
Si Si2 0.535524 0.075636 0.596759
Si Si3 0.429095 0.852537 0.627137
Si Si4 0.564111 0.369884 0.129832
Si Si5 0.061791 0.399182 0.089568
Si Si6 0.861474 0.153701 0.004185
Si Si7 0.941186 0.079942 0.868490
O O1 0.320633 0.568430 0.889985
O O2 0.000000 0.426184 0.750000
O O3 0.057747 0.574901 0.884109
O O4 0.324267 0.414004 0.008774
O O5 0.174886 0.860236 0.487434
O O6 0.500000 0.000000 0.500000
O O7 0.348611 0.162668 0.537279
O O8 0.778643 0.118864 0.722190
O O9 0.500000 0.818445 0.750000
O O10 0.545709 0.765316 0.621943
O O11 0.512699 0.977918 0.652599
O O12 0.689757 0.404487 0.269018
O O13 0.000000 0.500000 0.000000
O O14 0.982489 0.270692 0.039394
O O15 0.822986 0.102784 0.897483
O O16 0.004413 0.054753 0.112849
#
# Coordination Sequence:
#
# PCOD9233828 Si02
#       7
#     4   4   4   4   4   4   4
#     4   9  22  44  64  92 136 174 225 287 346 413
#     4  11  24  42  64 100 140 178 224 285 351 418
#     4  11  23  39  72  97 128 184 230 284 348 422
#     4  10  22  44  67  94 132 180 229 284 348 414
#     4  11  24  41  68 103 133 182 231 281 344 420
#     4  10  22  42  68  95 134 177 226 285 342 408
#     4  10  21  43  66  97 134 174 230 284 343 410
#
# _framework density 22.816276999999999
#
# number of rings (size 3 to 8) (size 9 to 14) (size 15 to 20)
#    0.000    1.714    0.000    4.714    6.000    2.286 
#   10.286    0.000    0.000    0.000    0.000    0.000 
#    0.000    0.000    0.000    0.000    0.000    0.000 
#
# Total GULP energy -156057.243108 kJ/mol
# GULP energy per Si atom -5573.472968 kJ/mol
# Density = 2.276435 g / cm^3
# Si number density = 22.816277 Si / 1000 Ang^3
#
#
#
# Elastic Constant Matrix: (Units=GPa)
#
#
# Indices 1 2 3 4 5 6 
#
# 1 49.4997 11.7881 41.4284 0.0000 3.0787 0.0000
# 2 11.7881 97.6812 46.6835 0.0000 -1.2171 0.0000
# 3 41.4284 46.6835 180.8965 0.0000 9.1781 0.0000
# 4 0.0000 0.0000 0.0000 15.0874 0.0000 7.7014
# 5 3.0787 -1.2171 9.1781 0.0000 19.6926 0.0000
# 6 0.0000 0.0000 0.0000 7.7014 0.0000 22.1811
#
#
#
# Elastic Compliance Matrix: (Units=1/GPa)
#
#
# Indices 1 2 3 4 5 6 
#
# 1 0.025036 -0.000377 -0.005568 0.000000 -0.001342 0.000000
# 2 -0.000377 0.011775 -0.003065 0.000000 0.002215 0.000000
# 3 -0.005568 -0.003065 0.007743 0.000000 -0.002928 0.000000
# 4 0.000000 0.000000 0.000000 0.080558 0.000000 -0.027970
# 5 -0.001342 0.002215 -0.002928 0.000000 0.052492 0.000000
# 6 0.000000 0.000000 0.000000 -0.027970 0.000000 0.054795
#
#
# Mechanical properties :
#
#
# Convention : Reuss Voigt Hill
#
# Bulk Modulus (GPa) = 37.68798 58.65304 48.17051
# Shear Modulus (GPa) = 19.28549 26.60405 22.94477
#
# Velocity S-wave (km/s) = 2.91047 3.41840 3.17461
# Velocity P-wave (km/s) = 5.27716 6.42986 5.88181
#
# Compressibility (1/GPa) = 0.02653366
#
# Stress axis : x y z
#
# Youngs Moduli (GPa) = 39.94299 84.92416 129.15345
#
# Poissons Ratio (x) = 0.03200 0.71916
# Poissons Ratio (y) = 0.01505 0.39584
# Poissons Ratio (z) = 0.22241 0.26028
#
# Static dielectric constant tensor:
#      x y z
#    x 1.904570 0.000000 0.070770 
#    y 0.000000 1.857020 0.000000 
#    z 0.070770 0.000000 2.015970 
# 
# From -- ./inp_files/78597.got.cif
#   From: 2010.05.17/outbox.cif.g08.bks.cpg/sg13_40_cif.got.tgz:78597.got - 2010.06.03 16:44:36.
