data_PCOD9233831
_publ_section_title
;
Structure prediction by ZEFSAII (Michael W. Deem and Ramdas Pophale) SiO2 
 PCOD9233831
Probable space group: P 2/C
;
_chemical_formula_sum "Si O2"
_cell_formula_units_Z 24
_cell_length_a 21.756423
_cell_length_b 4.949394
_cell_length_c 18.838915
_cell_angle_alpha 90.000000
_cell_angle_beta 149.309824
_cell_angle_gamma 90.000000
_cell_volume 1035.385854
_symmetry_space_group_name_H-M "P 2/C"
_symmetry_group_IT_number 13
_symmetry_cell_setting 'monoclinic'
loop_
_space_group_symop_operation_xyz
x,y,z
-x,y,1/2-z
-x,-y,-z
x,-y,1/2+z
loop_
_atom_site_type_symbol
_atom_site_label
_atom_site_fract_x
_atom_site_fract_y
_atom_site_fract_z
Si Si1 0.806406 0.460364 0.772451
Si Si2 0.627249 0.689065 0.915994
Si Si3 0.373445 0.356309 0.795239
Si Si4 0.739797 0.127107 0.390658
Si Si5 0.366514 0.810698 0.981305
Si Si6 0.029630 0.795166 0.465294
O O1 0.700405 0.297605 0.706160
O O2 0.747192 0.719264 0.677452
O O3 0.898823 0.310752 0.812099
O O4 0.891603 0.555159 0.921610
O O5 0.500000 0.726212 0.750000
O O6 0.726952 0.771260 0.957834
O O7 0.636006 0.385449 0.952455
O O8 0.630571 0.887424 0.986878
O O9 0.337445 0.657830 0.734182
O O10 0.323602 0.158569 0.684905
O O11 0.513104 0.283809 0.940431
O O12 0.877091 0.098884 0.500254
O O13 0.000000 0.000000 0.500000
#
# Coordination Sequence:
#
# PCOD9233831 Si02
#       6
#     4   4   4   4   4   4
#     4  10  24  39  63  97 123 161 211 259 326 360
#     4  12  23  41  62  92 129 171 202 249 312 385
#     4  11  20  38  63  96 126 157 199 265 311 382
#     4  11  22  38  66  90 119 169 217 239 311 375
#     4  12  24  39  65  95 132 160 204 263 315 380
#     4  10  21  43  67  84 122 167 207 265 304 378
#
# _framework density 23.179766000000001
#
# number of rings (size 3 to 8) (size 9 to 14) (size 15 to 20)
#    0.000    1.000    5.000    2.000    2.333    0.000 
#    0.000    5.000    0.000    0.000    0.000    0.000 
#    0.000    0.000    0.000    0.000    0.000    0.000 
#
# Total GULP energy -134234.501007 kJ/mol
# GULP energy per Si atom -5593.104209 kJ/mol
# Density = 2.312701 g / cm^3
# Si number density = 23.179766 Si / 1000 Ang^3
#
#
#
# Elastic Constant Matrix: (Units=GPa)
#
#
# Indices 1 2 3 4 5 6 
#
# 1 99.5339 -1.5350 32.6997 0.0000 29.3882 0.0000
# 2 -1.5350 59.6421 -0.8944 0.0000 2.3525 0.0000
# 3 32.6997 -0.8944 76.9340 0.0000 19.7887 0.0000
# 4 0.0000 0.0000 0.0000 28.4058 0.0000 -6.3670
# 5 29.3882 2.3525 19.7887 0.0000 40.6160 0.0000
# 6 0.0000 0.0000 0.0000 -6.3670 0.0000 34.3720
#
#
#
# Elastic Compliance Matrix: (Units=1/GPa)
#
#
# Indices 1 2 3 4 5 6 
#
# 1 0.013675 0.000616 -0.003717 0.000000 -0.008119 0.000000
# 2 0.000616 0.016850 0.000343 0.000000 -0.001589 0.000000
# 3 -0.003717 0.000343 0.015886 0.000000 -0.005071 0.000000
# 4 0.000000 0.000000 0.000000 0.036729 0.000000 0.006804
# 5 -0.008119 -0.001589 -0.005071 0.000000 0.033058 0.000000
# 6 0.000000 0.000000 0.000000 0.006804 0.000000 0.030354
#
#
# Mechanical properties :
#
#
# Convention : Reuss Voigt Hill
#
# Bulk Modulus (GPa) = 24.45228 32.96117 28.70673
# Shear Modulus (GPa) = 30.17515 34.40140 32.28828
#
# Velocity S-wave (km/s) = 3.61194 3.85660 3.73627
# Velocity P-wave (km/s) = 5.28836 5.83796 5.56994
#
# Compressibility (1/GPa) = 0.04089598
#
# Stress axis : x y z
#
# Youngs Moduli (GPa) = 73.12798 59.34588 62.94824
#
# Poissons Ratio (x) = -0.03658 0.23395
# Poissons Ratio (y) = -0.04508 -0.02156
# Poissons Ratio (z) = 0.27179 -0.02033
#
# Static dielectric constant tensor:
#      x y z
#    x 1.912310 0.000000 0.033400 
#    y 0.000000 1.884390 0.000000 
#    z 0.033400 0.000000 1.883790 
# 
# From -- ./inp_files/81407.got.cif
#   From: 2010.05.17/outbox.cif.g08.bks.cpg/sg13_41_cif.got.tgz:81407.got - 2010.06.03 16:44:36.
