data_PCOD9233621
_publ_section_title
;
Structure prediction by ZEFSAII (Michael W. Deem and Ramdas Pophale) SiO2 
 PCOD9233621
Probable space group: P 2/C
;
_chemical_formula_sum "Si O2"
_cell_formula_units_Z 22
_cell_length_a 18.482001
_cell_length_b 9.325478
_cell_length_c 14.425547
_cell_angle_alpha 90.000000
_cell_angle_beta 157.091695
_cell_angle_gamma 90.000000
_cell_volume 967.808292
_symmetry_space_group_name_H-M "P 2/C"
_symmetry_group_IT_number 13
_symmetry_cell_setting 'monoclinic'
loop_
_space_group_symop_operation_xyz
x,y,z
-x,y,1/2-z
-x,-y,-z
x,-y,1/2+z
loop_
_atom_site_type_symbol
_atom_site_label
_atom_site_fract_x
_atom_site_fract_y
_atom_site_fract_z
Si Si1 0.774322 0.192518 0.401626
Si Si2 0.794378 0.850679 0.127471
Si Si3 0.328125 0.484688 0.724976
Si Si4 0.732586 0.146075 0.154154
Si Si5 0.500000 0.356232 0.750000
Si Si6 0.090645 0.655808 0.086521
O O1 0.698980 0.155023 0.414172
O O2 0.778546 0.364684 0.401317
O O3 0.666412 0.142451 0.182825
O O4 0.985102 0.138004 0.636989
O O5 0.780220 0.710171 0.176121
O O6 0.738652 0.989784 0.118453
O O7 0.384685 0.449112 0.687338
O O8 0.201644 0.363247 0.622431
O O9 0.500000 0.500000 0.000000
O O10 0.935052 0.222102 0.393901
O O11 0.616265 0.253013 0.953883
O O12 0.000000 0.500000 0.000000
#
# Coordination Sequence:
#
# PCOD9233621 Si02
#       6
#     4   4   4   4   2   4
#     4  10  21  41  72  96 137 177 231 293 342 400
#     4  10  23  41  74 103 132 178 234 287 349 414
#     4  12  25  44  67 105 146 177 235 296 339 417
#     4  11  24  47  67 101 146 178 234 288 344 427
#     4  12  28  44  68 104 148 190 228 278 368 412
#     4  11  21  43  75 104 130 184 236 288 344 405
#
# _framework density 22.731776
#
# number of rings (size 3 to 8) (size 9 to 14) (size 15 to 20)
#    0.000    1.091    5.455    2.182    5.091    5.091 
#    3.273    1.818    0.000    0.000    0.000    0.000 
#    0.000    0.000    0.000    0.000    0.000    0.000 
#
# Total GULP energy -123009.878710 kJ/mol
# GULP energy per Si atom -5591.358123 kJ/mol
# Density = 2.268004 g / cm^3
# Si number density = 22.731776 Si / 1000 Ang^3
#
#
#
# Elastic Constant Matrix: (Units=GPa)
#
#
# Indices 1 2 3 4 5 6 
#
# 1 199.5774 67.3539 25.1975 0.0000 -46.1032 0.0000
# 2 67.3539 108.8192 7.8675 0.0000 -15.8467 0.0000
# 3 25.1975 7.8675 48.3037 0.0000 -23.8395 0.0000
# 4 0.0000 0.0000 0.0000 16.5322 0.0000 -4.8663
# 5 -46.1032 -15.8467 -23.8395 0.0000 39.3811 0.0000
# 6 0.0000 0.0000 0.0000 -4.8663 0.0000 31.7064
#
#
#
# Elastic Compliance Matrix: (Units=1/GPa)
#
#
# Indices 1 2 3 4 5 6 
#
# 1 0.008180 -0.003889 0.000457 0.000000 0.008288 0.000000
# 2 -0.003889 0.011619 0.000281 0.000000 0.000292 0.000000
# 3 0.000457 0.000281 0.029573 0.000000 0.018550 0.000000
# 4 0.000000 0.000000 0.000000 0.063350 0.000000 0.009723
# 5 0.008288 0.000292 0.018550 0.000000 0.046442 0.000000
# 6 0.000000 0.000000 0.000000 0.009723 0.000000 0.033032
#
#
# Mechanical properties :
#
#
# Convention : Reuss Voigt Hill
#
# Bulk Modulus (GPa) = 23.21878 61.94867 42.58372
# Shear Modulus (GPa) = 23.49003 34.60935 29.04969
#
# Velocity S-wave (km/s) = 3.21807 3.90617 3.57870
# Velocity P-wave (km/s) = 4.90351 6.90329 5.98748
#
# Compressibility (1/GPa) = 0.04306859
#
# Stress axis : x y z
#
# Youngs Moduli (GPa) = 122.25041 86.06581 33.81408
#
# Poissons Ratio (x) = 0.33472 -0.01544
# Poissons Ratio (y) = 0.47545 -0.00949
# Poissons Ratio (z) = -0.05583 -0.02415
#
# Static dielectric constant tensor:
#      x y z
#    x 1.969600 0.000000 -0.008990 
#    y 0.000000 1.761360 0.000000 
#    z -0.008990 0.000000 1.970460 
# 
# From -- ./inp_files/55384.got.cif
#   From: 2010.05.17/outbox.cif.g08.bks.cpg/sg13_28_cif.got.tgz:55384.got - 2010.06.03 16:44:36.
