data_PCOD9233720
_publ_section_title
;
Structure prediction by ZEFSAII (Michael W. Deem and Ramdas Pophale) SiO2 
 PCOD9233720
Probable space group: P 2/C
;
_chemical_formula_sum "Si O2"
_cell_formula_units_Z 18
_cell_length_a 21.059033
_cell_length_b 5.381403
_cell_length_c 10.878693
_cell_angle_alpha 90.000000
_cell_angle_beta 35.257623
_cell_angle_gamma 90.000000
_cell_volume 711.668085
_symmetry_space_group_name_H-M "P 2/C"
_symmetry_group_IT_number 13
_symmetry_cell_setting 'monoclinic'
loop_
_space_group_symop_operation_xyz
x,y,z
-x,y,1/2-z
-x,-y,-z
x,-y,1/2+z
loop_
_atom_site_type_symbol
_atom_site_label
_atom_site_fract_x
_atom_site_fract_y
_atom_site_fract_z
Si Si1 0.570338 0.512280 0.015922
Si Si2 0.120994 0.494209 0.867032
Si Si3 0.000000 0.787912 0.750000
Si Si4 0.176018 0.991216 0.654755
Si Si5 0.627489 0.013367 0.842820
O O1 0.500000 0.545139 0.250000
O O2 0.500000 0.500000 0.000000
O O3 0.631495 0.250325 0.924628
O O4 0.645809 0.750284 0.877802
O O5 0.165706 0.768432 0.769731
O O6 0.179085 0.268010 0.703635
O O7 0.000000 0.500000 0.000000
O O8 0.094543 0.390804 0.044244
O O9 0.066482 0.955430 0.742737
O O10 0.285873 0.950328 0.401963
O O11 0.500000 0.000000 0.000000
#
# Coordination Sequence:
#
# PCOD9233720 Si02
#       5
#     4   4   2   4   4
#     4  10  21  42  68  92 133 178 222 272 325 392
#     4  10  22  40  66  91 132 165 215 274 322 393
#     4  10  22  42  64  98 124 170 216 276 332 382
#     4  11  23  42  65  97 128 171 220 263 331 388
#     4  10  22  43  65  95 133 172 217 268 329 400
#
# _framework density 25.292688999999999
#
# number of rings (size 3 to 8) (size 9 to 14) (size 15 to 20)
#    0.000    1.778    0.000    4.667    0.000    8.000 
#   24.000    0.000    0.000    0.000    0.000    0.000 
#    0.000    0.000    0.000    0.000    0.000    0.000 
#
# Total GULP energy -100735.793741 kJ/mol
# GULP energy per Si atom -5596.432986 kJ/mol
# Density = 2.523512 g / cm^3
# Si number density = 25.292689 Si / 1000 Ang^3
#
#
#
# Elastic Constant Matrix: (Units=GPa)
#
#
# Indices 1 2 3 4 5 6 
#
# 1 143.9435 -7.8194 7.7946 0.0000 -22.0404 0.0000
# 2 -7.8194 131.2860 -9.9060 0.0000 -4.0943 0.0000
# 3 7.7946 -9.9060 129.9549 0.0000 -1.8667 0.0000
# 4 0.0000 0.0000 0.0000 53.8405 0.0000 -7.0982
# 5 -22.0404 -4.0943 -1.8667 0.0000 40.3338 0.0000
# 6 0.0000 0.0000 0.0000 -7.0982 0.0000 318.3588
#
#
#
# Elastic Compliance Matrix: (Units=1/GPa)
#
#
# Indices 1 2 3 4 5 6 
#
# 1 0.007642 0.000560 -0.000355 0.000000 0.004217 0.000000
# 2 0.000560 0.007728 0.000572 0.000000 0.001117 0.000000
# 3 -0.000355 0.000572 0.007763 0.000000 0.000223 0.000000
# 4 0.000000 0.000000 0.000000 0.018628 0.000000 0.000415
# 5 0.004217 0.001117 0.000223 0.000000 0.027221 0.000000
# 6 0.000000 0.000000 0.000000 0.000415 0.000000 0.003150
#
#
# Mechanical properties :
#
#
# Convention : Reuss Voigt Hill
#
# Bulk Modulus (GPa) = 40.50818 42.81366 41.66092
# Shear Modulus (GPa) = 63.44415 110.18095 86.81255
#
# Velocity S-wave (km/s) = 5.01383 6.60734 5.86495
# Velocity P-wave (km/s) = 7.04049 8.67025 7.89752
#
# Compressibility (1/GPa) = 0.02468637
#
# Stress axis : x y z
#
# Youngs Moduli (GPa) = 130.84788 129.39522 128.81529
#
# Poissons Ratio (x) = -0.07245 0.04575
# Poissons Ratio (y) = -0.07326 -0.07363
# Poissons Ratio (z) = 0.04647 -0.07396
#
# Static dielectric constant tensor:
#      x y z
#    x 1.931580 0.000000 0.015540 
#    y 0.000000 1.972670 0.000000 
#    z 0.015540 0.000000 2.016960 
# 
# From -- ./inp_files/41953.got.cif
#   From: 2010.05.17/outbox.cif.g08.bks.cpg/sg13_21_cif.got.tgz:41953.got - 2010.06.03 16:44:36.
