data_PCOD9233006
_publ_section_title
;
Structure prediction by ZEFSAII (Michael W. Deem and Ramdas Pophale) SiO2 
 PCOD9233006
Probable space group: P 2/C
;
_chemical_formula_sum "Si O2"
_cell_formula_units_Z 26
_cell_length_a 14.050101
_cell_length_b 5.611154
_cell_length_c 14.299780
_cell_angle_alpha 90.000000
_cell_angle_beta 110.288633
_cell_angle_gamma 90.000000
_cell_volume 1057.412072
_symmetry_space_group_name_H-M "P 2/C"
_symmetry_group_IT_number 13
_symmetry_cell_setting 'monoclinic'
loop_
_space_group_symop_operation_xyz
x,y,z
-x,y,1/2-z
-x,-y,-z
x,-y,1/2+z
loop_
_atom_site_type_symbol
_atom_site_label
_atom_site_fract_x
_atom_site_fract_y
_atom_site_fract_z
Si Si1 0.386692 0.909099 0.985074
Si Si2 0.882435 0.175179 0.350298
Si Si3 0.762484 0.690384 0.969476
Si Si4 0.000000 0.912410 0.250000
Si Si5 0.405401 0.603990 0.167688
Si Si6 0.811900 0.441987 0.675492
Si Si7 0.686184 0.073030 0.724347
O O1 0.306154 0.092256 0.009911
O O2 0.410536 0.689958 0.062328
O O3 0.340818 0.882445 0.864611
O O4 0.500000 0.000000 0.000000
O O5 0.868004 0.253473 0.451855
O O6 0.853562 0.372916 0.263622
O O7 0.790299 0.988222 0.310881
O O8 0.982051 0.063501 0.338515
O O9 0.691360 0.568051 0.867354
O O10 0.788854 0.500843 0.060074
O O11 0.099722 0.757001 0.299976
O O12 0.500000 0.479681 0.250000
O O13 0.390907 0.844172 0.223638
O O14 0.710231 0.316298 0.677216
#
# Coordination Sequence:
#
# PCOD9233006 Si02
#       7
#     4   4   4   2   4   4   4
#     4  11  23  40  60  90 129 172 223 266 313 368
#     4  11  21  42  68  91 130 169 213 260 332 389
#     4  11  25  40  67  97 128 177 214 263 331 379
#     4  10  24  42  70  96 124 166 212 268 330 390
#     4  12  23  39  62  96 132 172 224 264 308 375
#     4  10  22  44  64  95 130 160 212 269 320 391
#     4  10  21  39  62  88 127 174 212 265 313 374
#
# _framework density 24.588329999999999
#
# number of rings (size 3 to 8) (size 9 to 14) (size 15 to 20)
#    0.000    1.231    4.615    1.385    0.000    3.077 
#    0.000    3.077    0.000    0.000    0.000    0.000 
#    0.000    0.000    0.000    0.000    0.000    0.000 
#
# Total GULP energy -145013.136650 kJ/mol
# GULP energy per Si atom -5577.428333 kJ/mol
# Density = 2.453237 g / cm^3
# Si number density = 24.588330 Si / 1000 Ang^3
#
#
#
# Elastic Constant Matrix: (Units=GPa)
#
#
# Indices 1 2 3 4 5 6 
#
# 1 74.5419 3.8311 -2.2294 0.0000 -27.7525 0.0000
# 2 3.8311 35.0793 1.9883 0.0000 -7.0687 0.0000
# 3 -2.2294 1.9883 98.8758 0.0000 -9.1582 0.0000
# 4 0.0000 0.0000 0.0000 9.7865 0.0000 1.3397
# 5 -27.7525 -7.0687 -9.1582 0.0000 33.3605 0.0000
# 6 0.0000 0.0000 0.0000 1.3397 0.0000 30.4535
#
#
#
# Elastic Compliance Matrix: (Units=1/GPa)
#
#
# Indices 1 2 3 4 5 6 
#
# 1 0.019871 0.001210 0.002030 0.000000 0.017345 0.000000
# 2 0.001210 0.029852 0.000109 0.000000 0.007362 0.000000
# 3 0.002030 0.000109 0.010585 0.000000 0.004618 0.000000
# 4 0.000000 0.000000 0.000000 0.102801 0.000000 -0.004522
# 5 0.017345 0.007362 0.004618 0.000000 0.047232 0.000000
# 6 0.000000 0.000000 0.000000 -0.004522 0.000000 0.033036
#
#
# Mechanical properties :
#
#
# Convention : Reuss Voigt Hill
#
# Bulk Modulus (GPa) = 14.92403 23.96411 19.44407
# Shear Modulus (GPa) = 19.30394 28.38055 23.84225
#
# Velocity S-wave (km/s) = 2.80498 3.40108 3.11731
# Velocity P-wave (km/s) = 4.07103 5.01901 4.56967
#
# Compressibility (1/GPa) = 0.06700602
#
# Stress axis : x y z
#
# Youngs Moduli (GPa) = 50.32374 33.49860 94.47322
#
# Poissons Ratio (x) = -0.04053 -0.19180
# Poissons Ratio (y) = -0.06088 -0.01028
# Poissons Ratio (z) = -0.10217 -0.00365
#
# Static dielectric constant tensor:
#      x y z
#    x 1.981530 0.000000 -0.037210 
#    y 0.000000 2.022930 0.000000 
#    z -0.037210 0.000000 2.019370 
# 
# From -- ./inp_files/52315.got.cif
#   From: 2010.05.17/outbox.cif.g08.bks.cpg/sg13_27_cif.got.tgz:52315.got - 2010.06.03 16:44:36.
