data_PCOD9233673
_publ_section_title
;
Structure prediction by ZEFSAII (Michael W. Deem and Ramdas Pophale) SiO2 
 PCOD9233673
Probable space group: P 2/C
;
_chemical_formula_sum "Si O2"
_cell_formula_units_Z 20
_cell_length_a 12.803498
_cell_length_b 13.012705
_cell_length_c 10.171589
_cell_angle_alpha 90.000000
_cell_angle_beta 145.584537
_cell_angle_gamma 90.000000
_cell_volume 957.809714
_symmetry_space_group_name_H-M "P 2/C"
_symmetry_group_IT_number 13
_symmetry_cell_setting 'monoclinic'
loop_
_space_group_symop_operation_xyz
x,y,z
-x,y,1/2-z
-x,-y,-z
x,-y,1/2+z
loop_
_atom_site_type_symbol
_atom_site_label
_atom_site_fract_x
_atom_site_fract_y
_atom_site_fract_z
Si Si1 0.281165 0.304449 0.033746
Si Si2 0.974081 0.383392 0.513292
Si Si3 0.978434 0.188205 0.077185
Si Si4 0.406649 0.124739 0.789559
Si Si5 0.257891 0.100947 0.162616
O O1 0.500000 0.318308 0.250000
O O2 0.244267 0.184264 0.032314
O O3 0.151352 0.342860 0.780631
O O4 0.201369 0.367402 0.074763
O O5 0.946007 0.302926 0.365840
O O6 0.000000 0.500000 0.500000
O O7 0.000000 0.153529 0.250000
O O8 0.082961 0.117559 0.078297
O O9 0.759655 0.192553 0.831249
O O10 0.500000 0.155971 0.750000
O O11 0.306992 0.013403 0.666406
O O12 0.565640 0.124619 0.062712
#
# Coordination Sequence:
#
# PCOD9233673 Si02
#       5
#     4   4   4   4   4
#     4  10  21  42  65  92 120 160 206 254 312 369
#     4  10  24  42  65  91 122 161 208 264 319 365
#     4  11  22  39  59  88 124 161 203 252 311 367
#     4  11  21  37  60  93 125 164 202 250 305 366
#     4  10  22  39  61  89 127 161 206 249 302 372
#
# _framework density 20.880973000000001
#
# number of rings (size 3 to 8) (size 9 to 14) (size 15 to 20)
#    0.000    1.600    2.000    2.400    2.800    2.400 
#    7.200    1.000    0.000    0.000    0.000    0.000 
#    0.000    0.000    0.000    0.000    0.000    0.000 
#
# Total GULP energy -111686.267297 kJ/mol
# GULP energy per Si atom -5584.313365 kJ/mol
# Density = 2.083345 g / cm^3
# Si number density = 20.880973 Si / 1000 Ang^3
#
#
#
# Elastic Constant Matrix: (Units=GPa)
#
#
# Indices 1 2 3 4 5 6 
#
# 1 126.2573 31.4415 58.6175 0.0000 38.7348 0.0000
# 2 31.4415 96.6362 14.7517 0.0000 1.6739 0.0000
# 3 58.6175 14.7517 77.5889 0.0000 13.0421 0.0000
# 4 0.0000 0.0000 0.0000 22.9896 0.0000 0.0153
# 5 38.7348 1.6739 13.0421 0.0000 39.8426 0.0000
# 6 0.0000 0.0000 0.0000 0.0153 0.0000 14.4163
#
#
#
# Elastic Compliance Matrix: (Units=1/GPa)
#
#
# Indices 1 2 3 4 5 6 
#
# 1 0.018131 -0.004042 -0.010577 0.000000 -0.013995 0.000000
# 2 -0.004042 0.011560 0.000293 0.000000 0.003348 0.000000
# 3 -0.010577 0.000293 0.020209 0.000000 0.003655 0.000000
# 4 0.000000 0.000000 0.000000 0.043498 0.000000 -0.000046
# 5 -0.013995 0.003348 0.003655 0.000000 0.037367 0.000000
# 6 0.000000 0.000000 0.000000 -0.000046 0.000000 0.069366
#
#
# Mechanical properties :
#
#
# Convention : Reuss Voigt Hill
#
# Bulk Modulus (GPa) = 47.06181 56.67820 51.87000
# Shear Modulus (GPa) = 21.19849 28.49450 24.84650
#
# Velocity S-wave (km/s) = 3.18969 3.69808 3.45325
# Velocity P-wave (km/s) = 6.01270 6.74068 6.38707
#
# Compressibility (1/GPa) = 0.02124865
#
# Stress axis : x y z
#
# Youngs Moduli (GPa) = 55.15452 86.50153 49.48311
#
# Poissons Ratio (x) = 0.34965 0.52337
# Poissons Ratio (y) = 0.22294 -0.01450
# Poissons Ratio (z) = 0.58336 -0.02535
#
# Static dielectric constant tensor:
#      x y z
#    x 1.772950 0.000000 -0.018360 
#    y 0.000000 1.747090 0.000000 
#    z -0.018360 0.000000 1.799230 
# 
# From -- ./inp_files/36818.got.cif
#   From: 2010.05.17/outbox.cif.g08.bks.cpg/sg13_19_cif.got.tgz:36818.got - 2010.06.03 16:44:36.
