data_PCOD9233636
_publ_section_title
;
Structure prediction by ZEFSAII (Michael W. Deem and Ramdas Pophale) SiO2 
 PCOD9233636
Probable space group: P 2/C
;
_chemical_formula_sum "Si O2"
_cell_formula_units_Z 26
_cell_length_a 16.340988
_cell_length_b 6.390004
_cell_length_c 26.369662
_cell_angle_alpha 90.000000
_cell_angle_beta 157.686566
_cell_angle_gamma 90.000000
_cell_volume 1045.427236
_symmetry_space_group_name_H-M "P 2/C"
_symmetry_group_IT_number 13
_symmetry_cell_setting 'monoclinic'
loop_
_space_group_symop_operation_xyz
x,y,z
-x,y,1/2-z
-x,-y,-z
x,-y,1/2+z
loop_
_atom_site_type_symbol
_atom_site_label
_atom_site_fract_x
_atom_site_fract_y
_atom_site_fract_z
Si Si1 0.854122 0.932766 0.864657
Si Si2 0.710806 0.143633 0.180090
Si Si3 0.315504 0.213402 0.909402
Si Si4 0.000000 0.527849 0.750000
Si Si5 0.789212 0.142743 0.066110
Si Si6 0.902272 0.328672 0.482236
Si Si7 0.310075 0.712306 0.098792
O O1 0.696829 0.853505 0.731709
O O2 0.778783 0.835124 0.874656
O O3 0.091661 0.832556 0.990581
O O4 0.903742 0.179739 0.887331
O O5 0.642774 0.924030 0.116276
O O6 0.960972 0.149273 0.309597
O O7 0.541668 0.301572 0.059038
O O8 0.244428 0.061055 0.916999
O O9 0.128179 0.370991 0.787591
O O10 0.187963 0.661726 0.883174
O O11 0.652133 0.196808 0.936668
O O12 0.761821 0.465214 0.440760
O O13 0.000000 0.500000 0.500000
O O14 0.500000 0.735559 0.250000
#
# Coordination Sequence:
#
# PCOD9233636 Si02
#       7
#     4   4   4   2   4   4   4
#     4   9  20  38  62  83 123 164 200 259 315 373
#     4  10  21  42  61  90 126 171 208 262 324 380
#     4  11  23  40  62  91 129 161 218 266 314 388
#     4  12  22  40  66  90 126 172 204 270 330 368
#     4  11  23  43  62  93 132 162 219 273 310 391
#     4   9  19  37  57  86 115 155 204 250 296 374
#     4  10  23  38  61  91 123 164 205 255 317 376
#
# _framework density 24.870215999999999
#
# number of rings (size 3 to 8) (size 9 to 14) (size 15 to 20)
#    0.000    1.846    3.077    0.000    2.154    6.154 
#    0.000    0.000    0.000    0.000    0.000    0.000 
#    0.000    0.000    0.000    0.000    0.000    0.000 
#
# Total GULP energy -144764.535376 kJ/mol
# GULP energy per Si atom -5567.866745 kJ/mol
# Density = 2.481361 g / cm^3
# Si number density = 24.870216 Si / 1000 Ang^3
#
#
#
# Elastic Constant Matrix: (Units=GPa)
#
#
# Indices 1 2 3 4 5 6 
#
# 1 61.7299 22.2733 10.8222 0.0000 -11.1749 0.0000
# 2 22.2733 89.5670 20.6376 0.0000 4.8299 0.0000
# 3 10.8222 20.6376 122.1598 0.0000 -17.2503 0.0000
# 4 0.0000 0.0000 0.0000 19.9425 0.0000 16.4986
# 5 -11.1749 4.8299 -17.2503 0.0000 44.6976 0.0000
# 6 0.0000 0.0000 0.0000 16.4986 0.0000 34.5398
#
#
#
# Elastic Compliance Matrix: (Units=1/GPa)
#
#
# Indices 1 2 3 4 5 6 
#
# 1 0.018960 -0.004975 -0.000099 0.000000 0.005239 0.000000
# 2 -0.004975 0.013117 -0.002275 0.000000 -0.003539 0.000000
# 3 -0.000099 -0.002275 0.009107 0.000000 0.003736 0.000000
# 4 0.000000 0.000000 0.000000 0.082907 0.000000 -0.039602
# 5 0.005239 -0.003539 0.003736 0.000000 0.025507 0.000000
# 6 0.000000 0.000000 0.000000 -0.039602 0.000000 0.047869
#
#
# Mechanical properties :
#
#
# Convention : Reuss Voigt Hill
#
# Bulk Modulus (GPa) = 37.75601 42.32475 40.04038
# Shear Modulus (GPa) = 22.62508 34.48423 28.55465
#
# Velocity S-wave (km/s) = 3.01944 3.72770 3.39211
# Velocity P-wave (km/s) = 5.23165 5.96514 5.61040
#
# Compressibility (1/GPa) = 0.02648585
#
# Stress axis : x y z
#
# Youngs Moduli (GPa) = 52.74127 76.23716 109.80998
#
# Poissons Ratio (x) = 0.37925 0.01092
# Poissons Ratio (y) = 0.26237 0.24982
# Poissons Ratio (z) = 0.00524 0.17344
#
# Static dielectric constant tensor:
#      x y z
#    x 2.098960 0.000000 0.016890 
#    y 0.000000 2.084670 0.000000 
#    z 0.016890 0.000000 2.030690 
# 
# From -- ./inp_files/97457.got.cif
#   From: 2010.05.17/outbox.cif.g08.bks.cpg/sg13_49_cif.got.tgz:97457.got - 2010.06.03 16:44:36.
