data_PCOD9233477
_publ_section_title
;
Structure prediction by ZEFSAII (Michael W. Deem and Ramdas Pophale) SiO2 
 PCOD9233477
Probable space group: P 2/C
;
_chemical_formula_sum "Si O2"
_cell_formula_units_Z 28
_cell_length_a 13.850158
_cell_length_b 7.252235
_cell_length_c 16.243661
_cell_angle_alpha 90.000000
_cell_angle_beta 48.801926
_cell_angle_gamma 90.000000
_cell_volume 1227.667293
_symmetry_space_group_name_H-M "P 2/C"
_symmetry_group_IT_number 13
_symmetry_cell_setting 'monoclinic'
loop_
_space_group_symop_operation_xyz
x,y,z
-x,y,1/2-z
-x,-y,-z
x,-y,1/2+z
loop_
_atom_site_type_symbol
_atom_site_label
_atom_site_fract_x
_atom_site_fract_y
_atom_site_fract_z
Si Si1 0.617056 0.207186 0.936822
Si Si2 0.979956 0.643991 0.436484
Si Si3 0.206883 0.511184 0.591143
Si Si4 0.741739 0.263285 0.701810
Si Si5 0.252925 0.119703 0.365772
Si Si6 0.670325 0.800655 0.866498
Si Si7 0.363106 0.533191 0.853582
O O1 0.733755 0.324067 0.906948
O O2 0.630679 0.239132 0.831184
O O3 0.648597 0.991110 0.928862
O O4 0.478426 0.270769 0.049500
O O5 0.919306 0.538023 0.391265
O O6 0.881382 0.800063 0.524875
O O7 0.000000 0.500000 0.500000
O O8 0.115919 0.737512 0.340059
O O9 0.226046 0.666537 0.649159
O O10 0.312061 0.561203 0.463075
O O11 0.727142 0.461117 0.668398
O O12 0.736115 0.100170 0.637722
O O13 0.281624 0.158243 0.252840
O O14 0.352318 0.245644 0.361446
O O15 0.500000 0.470774 0.750000
#
# Coordination Sequence:
#
# PCOD9233477 Si02
#       7
#     4   4   4   4   4   4   4
#     4  10  22  39  64  93 126 156 198 253 305 374
#     4  11  23  44  61  87 121 167 210 252 302 356
#     4  11  22  36  62  89 121 162 199 254 297 362
#     4  11  22  42  63  87 124 166 204 250 310 356
#     4  10  22  40  66  85 121 167 203 251 303 367
#     4  10  21  41  63  94 124 158 198 247 318 362
#     4  11  22  37  61  94 123 157 208 253 306 366
#
# _framework density 22.807480999999999
#
# number of rings (size 3 to 8) (size 9 to 14) (size 15 to 20)
#    0.000    1.429    2.857    3.429    0.000    3.429 
#    2.571    0.000    0.000    0.000    0.000    0.000 
#    0.000    0.000    0.000    0.000    0.000    0.000 
#
# Total GULP energy -156224.057051 kJ/mol
# GULP energy per Si atom -5579.430609 kJ/mol
# Density = 2.275557 g / cm^3
# Si number density = 22.807481 Si / 1000 Ang^3
#
#
#
# Elastic Constant Matrix: (Units=GPa)
#
#
# Indices 1 2 3 4 5 6 
#
# 1 57.0136 14.0670 3.1108 0.0000 0.7139 0.0000
# 2 14.0670 73.6727 -7.1701 0.0000 12.0949 0.0000
# 3 3.1108 -7.1701 73.5748 0.0000 -17.5163 0.0000
# 4 0.0000 0.0000 0.0000 25.0478 0.0000 9.6194
# 5 0.7139 12.0949 -17.5163 0.0000 33.1630 0.0000
# 6 0.0000 0.0000 0.0000 9.6194 0.0000 23.8534
#
#
#
# Elastic Compliance Matrix: (Units=1/GPa)
#
#
# Indices 1 2 3 4 5 6 
#
# 1 0.018505 -0.003701 -0.001048 0.000000 0.000398 0.000000
# 2 -0.003701 0.015180 0.000385 0.000000 -0.005253 0.000000
# 3 -0.001048 0.000385 0.015608 0.000000 0.008126 0.000000
# 4 0.000000 0.000000 0.000000 0.047240 0.000000 -0.019051
# 5 0.000398 -0.005253 0.008126 0.000000 0.036354 0.000000
# 6 0.000000 0.000000 0.000000 -0.019051 0.000000 0.049605
#
#
# Mechanical properties :
#
#
# Convention : Reuss Voigt Hill
#
# Bulk Modulus (GPa) = 24.65158 24.91962 24.78560
# Shear Modulus (GPa) = 24.42105 29.36306 26.89206
#
# Velocity S-wave (km/s) = 3.27578 3.59197 3.43751
# Velocity P-wave (km/s) = 5.01394 5.30592 5.16200
#
# Compressibility (1/GPa) = 0.04056535
#
# Stress axis : x y z
#
# Youngs Moduli (GPa) = 54.03956 65.87592 64.06937
#
# Poissons Ratio (x) = 0.24378 0.06717
# Poissons Ratio (y) = 0.19998 -0.02468
# Poissons Ratio (z) = 0.05665 -0.02537
#
# Static dielectric constant tensor:
#      x y z
#    x 1.882400 0.000000 0.009930 
#    y 0.000000 1.850730 0.000000 
#    z 0.009930 0.000000 1.972660 
# 
# From -- ./inp_files/50259.got.cif
#   From: 2010.05.17/outbox.cif.g08.bks.cpg/sg13_26_cif.got.tgz:50259.got - 2010.06.03 16:44:36.
