data_PCOD9233618
_publ_section_title
;
Structure prediction by ZEFSAII (Michael W. Deem and Ramdas Pophale) SiO2 
 PCOD9233618
Probable space group: P 2/C
;
_chemical_formula_sum "Si O2"
_cell_formula_units_Z 28
_cell_length_a 13.473577
_cell_length_b 9.335540
_cell_length_c 8.736183
_cell_angle_alpha 90.000000
_cell_angle_beta 59.961011
_cell_angle_gamma 90.000000
_cell_volume 951.270322
_symmetry_space_group_name_H-M "P 2/C"
_symmetry_group_IT_number 13
_symmetry_cell_setting 'monoclinic'
loop_
_space_group_symop_operation_xyz
x,y,z
-x,y,1/2-z
-x,-y,-z
x,-y,1/2+z
loop_
_atom_site_type_symbol
_atom_site_label
_atom_site_fract_x
_atom_site_fract_y
_atom_site_fract_z
Si Si1 0.316685 0.938067 0.863765
Si Si2 0.000000 0.018298 0.750000
Si Si3 0.500000 0.430002 0.750000
Si Si4 0.222153 0.651943 0.975064
Si Si5 0.564124 0.174215 0.512948
Si Si6 0.657464 0.338372 0.840765
Si Si7 0.083609 0.557216 0.803373
Si Si8 0.143209 0.146500 0.902523
O O1 0.228910 0.822116 0.002525
O O2 0.395050 0.843861 0.690907
O O3 0.238489 0.025711 0.806927
O O4 0.385804 0.044441 0.922584
O O5 0.093489 0.910155 0.602878
O O6 0.955752 0.120115 0.645508
O O7 0.587751 0.318141 0.589801
O O8 0.589964 0.468503 0.811946
O O9 0.183388 0.630455 0.829342
O O10 0.336930 0.617944 0.985623
O O11 0.135711 0.561710 0.149213
O O12 0.572396 0.798380 0.396505
O O13 0.780148 0.291705 0.671174
O O14 0.000000 0.640672 0.750000
O O15 0.000000 0.500000 0.000000
#
# Coordination Sequence:
#
# PCOD9233618 Si02
#       8
#     4   2   2   4   4   4   4   4
#     4  12  23  40  70 106 148 205 242 285 357 455
#     4  10  24  36  46  74 136 198 214 304 332 402
#     4   8  20  40  62 108 154 204 240 276 330 420
#     4  11  24  44  79 107 131 185 245 317 396 433
#     4  10  23  39  65 113 160 193 245 284 335 450
#     4  10  21  41  72 106 147 204 240 291 347 454
#     4   9  22  54  78 100 128 173 260 352 380 424
#     4  11  21  40  55  88 149 188 240 279 342 435
#
# _framework density 29.434324
#
# number of rings (size 3 to 8) (size 9 to 14) (size 15 to 20)
#    0.857    0.857    1.429    2.571    0.000    8.000 
#   29.571    0.000    0.000    6.000    0.000    0.000 
#    0.000    0.000    0.000    0.000    0.000    0.000 
#
# Total GULP energy -156103.194904 kJ/mol
# GULP energy per Si atom -5575.114104 kJ/mol
# Density = 2.936733 g / cm^3
# Si number density = 29.434324 Si / 1000 Ang^3
#
#
#
# Elastic Constant Matrix: (Units=GPa)
#
#
# Indices 1 2 3 4 5 6 
#
# 1 210.1086 45.9506 38.9478 0.0000 63.2360 0.0000
# 2 45.9506 127.4552 38.1497 0.0000 17.9065 0.0000
# 3 38.9478 38.1497 135.6764 0.0000 21.7253 0.0000
# 4 0.0000 0.0000 0.0000 23.0227 0.0000 25.6847
# 5 63.2360 17.9065 21.7253 0.0000 63.9280 0.0000
# 6 0.0000 0.0000 0.0000 25.6847 0.0000 25.5203
#
#
#
# Elastic Compliance Matrix: (Units=1/GPa)
#
#
# Indices 1 2 3 4 5 6 
#
# 1 0.007133 -0.001488 -0.000599 0.000000 -0.006435 0.000000
# 2 -0.001488 0.009050 -0.002059 0.000000 -0.000363 0.000000
# 3 -0.000599 -0.002059 0.008391 0.000000 -0.001683 0.000000
# 4 0.000000 0.000000 0.000000 -0.353665 0.000000 0.355943
# 5 -0.006435 -0.000363 -0.001683 0.000000 0.022682 0.000000
# 6 0.000000 0.000000 0.000000 0.355943 0.000000 -0.319052
#
#
# Mechanical properties :
#
#
# Convention : Reuss Voigt Hill
#
# Bulk Modulus (GPa) = 61.42151 79.92624 70.67387
# Shear Modulus (GPa) = -8.17337 45.84034 18.83349
#
# Velocity S-wave (km/s) = -1.66819 3.95064 2.53227
# Velocity P-wave (km/s) = 4.14755 6.92987 5.71075
#
# Compressibility (1/GPa) = 0.01628094
#
# Stress axis : x y z
#
# Youngs Moduli (GPa) = 140.20010 110.49951 119.17836
#
# Poissons Ratio (x) = 0.16445 0.07134
# Poissons Ratio (y) = 0.20865 0.24542
# Poissons Ratio (z) = 0.08393 0.22755
#
# Static dielectric constant tensor:
#      x y z
#    x 2.127560 0.000000 -0.363350 
#    y 0.000000 2.450320 0.000000 
#    z -0.363350 0.000000 2.146570 
# 
# From -- ./inp_files/18775.got.cif
#   From: 2010.05.17/outbox.cif.g08.bks.cpg/sg13_10_cif.got.tgz:18775.got - 2010.06.03 16:44:36.
