data_PCOD9233347
_publ_section_title
;
Structure prediction by ZEFSAII (Michael W. Deem and Ramdas Pophale) SiO2 
 PCOD9233347
Probable space group: P 2/C
;
_chemical_formula_sum "Si O2"
_cell_formula_units_Z 24
_cell_length_a 15.537593
_cell_length_b 9.314030
_cell_length_c 8.534127
_cell_angle_alpha 90.000000
_cell_angle_beta 110.627567
_cell_angle_gamma 90.000000
_cell_volume 1155.860304
_symmetry_space_group_name_H-M "P 2/C"
_symmetry_group_IT_number 13
_symmetry_cell_setting 'monoclinic'
loop_
_space_group_symop_operation_xyz
x,y,z
-x,y,1/2-z
-x,-y,-z
x,-y,1/2+z
loop_
_atom_site_type_symbol
_atom_site_label
_atom_site_fract_x
_atom_site_fract_y
_atom_site_fract_z
Si Si1 0.500000 0.566523 0.250000
Si Si2 0.500000 0.905824 0.750000
Si Si3 0.000000 0.046707 0.250000
Si Si4 0.300516 0.110067 0.156669
Si Si5 0.075641 0.701453 0.006496
Si Si6 0.578934 0.317491 0.092739
Si Si7 0.000000 0.475064 0.750000
Si Si8 0.813404 0.114759 0.721805
O O1 0.557807 0.463281 0.172372
O O2 0.566954 0.657088 0.402972
O O3 0.601524 0.971477 0.814753
O O4 0.497400 0.798796 0.898331
O O5 0.023512 0.157137 0.407038
O O6 0.911157 0.948316 0.224513
O O7 0.329884 0.245636 0.280832
O O8 0.235426 0.010914 0.215114
O O9 0.249674 0.153946 0.965747
O O10 0.168690 0.758398 0.143434
O O11 0.025912 0.623787 0.120263
O O12 0.077026 0.585614 0.866711
#
# Coordination Sequence:
#
# PCOD9233347 Si02
#       8
#     2   2   2   4   4   4   2   4
#     4   9  14  34  73  90 122 185 219 258 332 389
#     4   7  18  42  55  88 134 165 201 274 320 369
#     4  11  23  40  68 102 127 177 212 270 334 383
#     4  10  23  41  59  97 132 166 218 271 321 395
#     4  10  21  40  66  94 127 172 214 269 336 383
#     4   8  17  36  62  95 124 168 217 267 321 377
#     4   9  21  40  68  94 127 171 220 270 334 399
#     4  12  23  41  66  98 133 170 219 267 328 403
#
# _framework density 20.763753999999999
#
# number of rings (size 3 to 8) (size 9 to 14) (size 15 to 20)
#    1.000    1.333    1.667    1.000    2.333    0.667 
#    3.000    1.667    0.000    0.000    0.000    0.000 
#    0.000    0.167    0.000    0.000    0.000    0.000 
#
# Total GULP energy -133690.081547 kJ/mol
# GULP energy per Si atom -5570.420064 kJ/mol
# Density = 2.071649 g / cm^3
# Si number density = 20.763754 Si / 1000 Ang^3
#
#
#
# Elastic Constant Matrix: (Units=GPa)
#
#
# Indices 1 2 3 4 5 6 
#
# 1 81.9758 13.5043 21.5148 0.0000 15.2276 0.0000
# 2 13.5043 58.1268 43.7568 0.0000 10.9927 0.0000
# 3 21.5148 43.7568 174.9516 0.0000 25.8703 0.0000
# 4 0.0000 0.0000 0.0000 31.3726 0.0000 17.7071
# 5 15.2276 10.9927 25.8703 0.0000 26.7344 0.0000
# 6 0.0000 0.0000 0.0000 17.7071 0.0000 19.4743
#
#
#
# Elastic Compliance Matrix: (Units=1/GPa)
#
#
# Indices 1 2 3 4 5 6 
#
# 1 0.013835 -0.001717 -0.000246 0.000000 -0.006936 0.000000
# 2 -0.001717 0.021816 -0.004742 0.000000 -0.003404 0.000000
# 3 -0.000246 -0.004742 0.007729 0.000000 -0.005389 0.000000
# 4 0.000000 0.000000 0.000000 0.065478 0.000000 -0.059537
# 5 -0.006936 -0.003404 -0.005389 0.000000 0.047970 0.000000
# 6 0.000000 0.000000 0.000000 -0.059537 0.000000 0.105484
#
#
# Mechanical properties :
#
#
# Convention : Reuss Voigt Hill
#
# Bulk Modulus (GPa) = 33.36766 52.51176 42.93971
# Shear Modulus (GPa) = 17.50015 31.26814 24.38415
#
# Velocity S-wave (km/s) = 2.90629 3.88480 3.43061
# Velocity P-wave (km/s) = 5.23135 6.74294 6.03466
#
# Compressibility (1/GPa) = 0.02996914
#
# Stress axis : x y z
#
# Youngs Moduli (GPa) = 72.28261 45.83795 129.38224
#
# Poissons Ratio (x) = 0.07871 0.03186
# Poissons Ratio (y) = 0.12411 0.61352
# Poissons Ratio (z) = 0.01780 0.21736
#
# Static dielectric constant tensor:
#      x y z
#    x 1.735210 0.000000 -0.033970 
#    y 0.000000 1.783040 0.000000 
#    z -0.033970 0.000000 1.748940 
# 
# From -- ./inp_files/20962.got.cif
#   From: 2010.05.17/outbox.cif.g08.bks.cpg/sg13_11_cif.got.tgz:20962.got - 2010.06.03 16:44:36.
