data_PCOD9233242
_publ_section_title
;
Structure prediction by ZEFSAII (Michael W. Deem and Ramdas Pophale) SiO2 
 PCOD9233242
Probable space group: P 2/C
;
_chemical_formula_sum "Si O2"
_cell_formula_units_Z 30
_cell_length_a 9.571278
_cell_length_b 12.298185
_cell_length_c 13.727716
_cell_angle_alpha 90.000000
_cell_angle_beta 95.591910
_cell_angle_gamma 90.000000
_cell_volume 1608.190790
_symmetry_space_group_name_H-M "P 2/C"
_symmetry_group_IT_number 13
_symmetry_cell_setting 'monoclinic'
loop_
_space_group_symop_operation_xyz
x,y,z
-x,y,1/2-z
-x,-y,-z
x,-y,1/2+z
loop_
_atom_site_type_symbol
_atom_site_label
_atom_site_fract_x
_atom_site_fract_y
_atom_site_fract_z
Si Si1 0.845688 0.994758 0.779844
Si Si2 0.668938 0.707283 0.070297
Si Si3 0.000000 0.578274 0.250000
Si Si4 0.634094 0.898354 0.607892
Si Si5 0.649677 0.313184 0.989543
Si Si6 0.773254 0.248883 0.792049
Si Si7 0.139167 0.506344 0.444842
Si Si8 0.679922 0.925079 0.946518
O O1 0.732568 0.945069 0.697845
O O2 0.807314 0.942851 0.881450
O O3 0.000000 0.971096 0.750000
O O4 0.827082 0.125286 0.786528
O O5 0.515502 0.662496 0.032703
O O6 0.685406 0.725722 0.187600
O O7 0.784806 0.622555 0.042220
O O8 0.692098 0.821202 0.017288
O O9 0.897175 0.661293 0.299877
O O10 0.911804 0.504753 0.170459
O O11 0.664054 0.775748 0.576191
O O12 0.468714 0.911382 0.619429
O O13 0.662937 0.970831 0.514112
O O14 0.692504 0.262527 0.887920
O O15 0.749618 0.414181 0.019483
O O16 0.000000 0.500000 0.500000
#
# Coordination Sequence:
#
# PCOD9233242 Si02
#       8
#     4   4   2   4   4   4   4   4
#     4  12  24  37  59  93 129 167 207 251 307 376
#     4  10  23  40  66  94 121 160 215 260 301 368
#     4  10  22  42  60  90 120 164 200 248 314 374
#     4  10  22  39  61  90 123 164 204 253 307 369
#     4  11  22  41  65  94 123 163 208 257 310 366
#     4  11  20  37  65  95 123 154 207 257 307 363
#     4  11  23  42  67  87 125 161 201 257 313 371
#     4  10  21  40  62  87 126 163 203 254 312 357
#
# _framework density 18.654502999999998
#
# number of rings (size 3 to 8) (size 9 to 14) (size 15 to 20)
#    0.000    1.333    4.667    1.200    0.000    2.667 
#    3.600    0.000    0.000    0.000    0.000    0.000 
#    0.000    0.000    0.000    0.000    0.000    0.000 
#
# Total GULP energy -167502.718519 kJ/mol
# GULP energy per Si atom -5583.423951 kJ/mol
# Density = 1.861204 g / cm^3
# Si number density = 18.654503 Si / 1000 Ang^3
#
#
#
# Elastic Constant Matrix: (Units=GPa)
#
#
# Indices 1 2 3 4 5 6 
#
# 1 88.8820 29.2023 30.3192 0.0000 -11.1451 0.0000
# 2 29.2023 60.3204 20.8285 0.0000 10.3966 0.0000
# 3 30.3192 20.8285 62.3058 0.0000 -1.0667 0.0000
# 4 0.0000 0.0000 0.0000 24.8616 0.0000 -2.4163
# 5 -11.1451 10.3966 -1.0667 0.0000 33.5108 0.0000
# 6 0.0000 0.0000 0.0000 -2.4163 0.0000 26.1425
#
#
#
# Elastic Compliance Matrix: (Units=1/GPa)
#
#
# Indices 1 2 3 4 5 6 
#
# 1 0.016493 -0.007429 -0.005412 0.000000 0.007618 0.000000
# 2 -0.007429 0.023384 -0.004371 0.000000 -0.009865 0.000000
# 3 -0.005412 -0.004371 0.020148 0.000000 0.000198 0.000000
# 4 0.000000 0.000000 0.000000 0.040587 0.000000 0.003751
# 5 0.007618 -0.009865 0.000198 0.000000 0.035441 0.000000
# 6 0.000000 0.000000 0.000000 0.003751 0.000000 0.038599
#
#
# Mechanical properties :
#
#
# Convention : Reuss Voigt Hill
#
# Bulk Modulus (GPa) = 39.06027 41.35645 40.20836
# Shear Modulus (GPa) = 22.97691 25.64687 24.31189
#
# Velocity S-wave (km/s) = 3.51338 3.71190 3.61400
# Velocity P-wave (km/s) = 6.11904 6.37093 6.24626
#
# Compressibility (1/GPa) = 0.02560146
#
# Stress axis : x y z
#
# Youngs Moduli (GPa) = 60.63209 42.76406 49.63262
#
# Poissons Ratio (x) = 0.31768 0.26861
# Poissons Ratio (y) = 0.45042 0.21695
# Poissons Ratio (z) = 0.32814 0.18693
#
# Static dielectric constant tensor:
#      x y z
#    x 1.650160 0.000000 0.002350 
#    y 0.000000 1.614470 0.000000 
#    z 0.002350 0.000000 1.650980 
# 
# From -- ./inp_files/46931.got.cif
#   From: 2010.05.17/outbox.cif.g08.bks.cpg/sg13_24_cif.got.tgz:46931.got - 2010.06.03 16:44:36.
