data_PCOD9233353
_publ_section_title
;
Structure prediction by ZEFSAII (Michael W. Deem and Ramdas Pophale) SiO2 
 PCOD9233353
Probable space group: P 2/C
;
_chemical_formula_sum "Si O2"
_cell_formula_units_Z 28
_cell_length_a 12.743473
_cell_length_b 20.161745
_cell_length_c 13.100678
_cell_angle_alpha 90.000000
_cell_angle_beta 156.976348
_cell_angle_gamma 90.000000
_cell_volume 1316.466516
_symmetry_space_group_name_H-M "P 2/C"
_symmetry_group_IT_number 13
_symmetry_cell_setting 'monoclinic'
loop_
_space_group_symop_operation_xyz
x,y,z
-x,y,1/2-z
-x,-y,-z
x,-y,1/2+z
loop_
_atom_site_type_symbol
_atom_site_label
_atom_site_fract_x
_atom_site_fract_y
_atom_site_fract_z
Si Si1 0.900190 0.729314 0.772690
Si Si2 0.780792 0.918329 0.221917
Si Si3 0.421513 0.335364 0.070273
Si Si4 0.320793 0.007667 0.184955
Si Si5 0.865837 0.598761 0.841237
Si Si6 0.165202 0.472769 0.799192
Si Si7 0.702705 0.768094 0.199328
O O1 0.980944 0.650941 0.863075
O O2 0.587206 0.749382 0.509984
O O3 0.000000 0.747916 0.750000
O O4 0.073262 0.765077 0.013845
O O5 0.727726 0.840388 0.173175
O O6 0.062635 0.946164 0.430104
O O7 0.778436 0.945896 0.336154
O O8 0.529482 0.950940 0.940026
O O9 0.500000 0.307680 0.250000
O O10 0.682943 0.350882 0.239531
O O11 0.310744 0.410111 0.980846
O O12 0.248151 0.286663 0.845628
O O13 0.500000 0.986041 0.250000
O O14 0.717489 0.540205 0.645491
O O15 0.032486 0.562360 0.080088
O O16 0.000000 0.497924 0.750000
#
# Coordination Sequence:
#
# PCOD9233353 Si02
#       7
#     4   4   4   4   4   4   4
#     4  11  23  42  62  92 125 169 215 268 327 389
#     4  10  22  41  64  97 134 168 215 266 316 378
#     4  11  22  39  59  87 122 165 209 261 324 388
#     4  10  21  40  66  96 131 171 214 263 317 377
#     4  10  22  37  57  83 118 157 206 273 322 376
#     4  11  20  37  59  82 114 156 213 263 323 387
#     4  11  24  42  65  93 132 168 212 264 319 387
#
# _framework density 21.269055000000002
#
# number of rings (size 3 to 8) (size 9 to 14) (size 15 to 20)
#    0.000    1.429    2.857    2.571    0.000    1.714 
#    0.000    4.286    0.000    0.000    0.000    0.000 
#    0.000    0.000    0.000    0.000    0.000    0.000 
#
# Total GULP energy -155945.600499 kJ/mol
# GULP energy per Si atom -5569.485732 kJ/mol
# Density = 2.122065 g / cm^3
# Si number density = 21.269055 Si / 1000 Ang^3
#
#
#
# Elastic Constant Matrix: (Units=GPa)
#
#
# Indices 1 2 3 4 5 6 
#
# 1 77.9417 -3.2959 7.7091 0.0000 -4.5822 0.0000
# 2 -3.2959 46.6548 13.2809 0.0000 -3.3599 0.0000
# 3 7.7091 13.2809 60.1860 0.0000 2.0607 0.0000
# 4 0.0000 0.0000 0.0000 20.1644 0.0000 -0.9361
# 5 -4.5822 -3.3599 2.0607 0.0000 31.5863 0.0000
# 6 0.0000 0.0000 0.0000 -0.9361 0.0000 4.8017
#
#
#
# Elastic Compliance Matrix: (Units=1/GPa)
#
#
# Indices 1 2 3 4 5 6 
#
# 1 0.013247 0.001710 -0.002151 0.000000 0.002244 0.000000
# 2 0.001710 0.023335 -0.005474 0.000000 0.003087 0.000000
# 3 -0.002151 -0.005474 0.018170 0.000000 -0.002080 0.000000
# 4 0.000000 0.000000 0.000000 0.050045 0.000000 0.009757
# 5 0.002244 0.003087 -0.002080 0.000000 0.032449 0.000000
# 6 0.000000 0.000000 0.000000 0.009757 0.000000 0.210160
#
#
# Mechanical properties :
#
#
# Convention : Reuss Voigt Hill
#
# Bulk Modulus (GPa) = 23.29814 24.46341 23.88077
# Shear Modulus (GPa) = 13.38529 22.44973 17.91751
#
# Velocity S-wave (km/s) = 2.51137 3.25239 2.90560
# Velocity P-wave (km/s) = 4.40308 5.06270 4.74436
#
# Compressibility (1/GPa) = 0.04292189
#
# Stress axis : x y z
#
# Youngs Moduli (GPa) = 75.48849 42.85337 55.03642
#
# Poissons Ratio (x) = -0.07327 0.11838
# Poissons Ratio (y) = -0.12906 0.30127
# Poissons Ratio (z) = 0.16237 0.23458
#
# Static dielectric constant tensor:
#      x y z
#    x 1.894840 0.000000 0.046610 
#    y 0.000000 1.773070 0.000000 
#    z 0.046610 0.000000 1.813440 
# 
# From -- ./inp_files/34850.got.cif
#   From: 2010.05.17/outbox.cif.g08.bks.cpg/sg13_18_cif.got.tgz:34850.got - 2010.06.03 16:44:36.
