data_PCOD9233245
_publ_section_title
;
Structure prediction by ZEFSAII (Michael W. Deem and Ramdas Pophale) SiO2 
 PCOD9233245
Probable space group: P 2/C
;
_chemical_formula_sum "Si O2"
_cell_formula_units_Z 30
_cell_length_a 8.229267
_cell_length_b 11.067824
_cell_length_c 30.689580
_cell_angle_alpha 90.000000
_cell_angle_beta 29.847741
_cell_angle_gamma 90.000000
_cell_volume 1391.166877
_symmetry_space_group_name_H-M "P 2/C"
_symmetry_group_IT_number 13
_symmetry_cell_setting 'monoclinic'
loop_
_space_group_symop_operation_xyz
x,y,z
-x,y,1/2-z
-x,-y,-z
x,-y,1/2+z
loop_
_atom_site_type_symbol
_atom_site_label
_atom_site_fract_x
_atom_site_fract_y
_atom_site_fract_z
Si Si1 0.515566 0.836942 0.169318
Si Si2 0.662188 0.963809 0.054409
Si Si3 0.500000 0.005550 0.750000
Si Si4 0.291300 0.198148 0.502245
Si Si5 0.734897 0.768691 0.658515
Si Si6 0.621173 0.412656 0.843875
Si Si7 0.396396 0.680387 0.653958
Si Si8 0.593830 0.282789 0.519345
O O1 0.436526 0.924441 0.147062
O O2 0.359246 0.903934 0.246700
O O3 0.435219 0.700973 0.174503
O O4 0.905182 0.825353 0.087081
O O5 0.554023 0.068585 0.046985
O O6 0.693078 0.840480 0.020964
O O7 0.000000 0.000000 0.000000
O O8 0.754458 0.910364 0.669021
O O9 0.453423 0.283201 0.427671
O O10 0.358506 0.250143 0.534348
O O11 0.500000 0.715240 0.750000
O O12 0.558056 0.764079 0.653174
O O13 0.058115 0.688506 0.582862
O O14 0.476602 0.543640 0.866780
O O15 0.000000 0.435641 0.750000
O O16 0.529351 0.371872 0.914411
O O17 0.000000 0.691279 0.750000
#
# Coordination Sequence:
#
# PCOD9233245 Si02
#       8
#     4   4   2   4   4   4   4   4
#     4  10  21  40  62  91 130 169 210 258 325 380
#     4   9  18  36  59  87 127 167 202 258 316 386
#     4  10  22  38  66  96 132 158 204 264 314 398
#     4  11  22  36  65  97 126 169 211 262 326 385
#     4  10  22  40  66  95 134 165 210 267 319 383
#     4  10  25  45  65  88 129 173 221 271 314 381
#     4  11  23  45  65  92 128 170 222 268 321 372
#     4  11  22  40  63  96 131 166 217 263 322 386
#
# _framework density 21.564630000000001
#
# number of rings (size 3 to 8) (size 9 to 14) (size 15 to 20)
#    0.400    1.333    0.000    6.000    1.867    2.667 
#    3.600    1.333    0.000    0.000    0.000    0.000 
#    0.000    0.000    0.000    0.000    0.000    0.000 
#
# Total GULP energy -167186.083961 kJ/mol
# GULP energy per Si atom -5572.869465 kJ/mol
# Density = 2.151555 g / cm^3
# Si number density = 21.564630 Si / 1000 Ang^3
#
#
#
# Elastic Constant Matrix: (Units=GPa)
#
#
# Indices 1 2 3 4 5 6 
#
# 1 61.8684 5.2634 16.7609 0.0000 9.6228 0.0000
# 2 5.2634 90.8836 26.3376 0.0000 10.2206 0.0000
# 3 16.7609 26.3376 70.4403 0.0000 15.4453 0.0000
# 4 0.0000 0.0000 0.0000 -36.7909 0.0000 -14.7404
# 5 9.6228 10.2206 15.4453 0.0000 30.0900 0.0000
# 6 0.0000 0.0000 0.0000 -14.7404 0.0000 7.7812
#
#
#
# Elastic Compliance Matrix: (Units=1/GPa)
#
#
# Indices 1 2 3 4 5 6 
#
# 1 0.017697 0.000439 -0.003495 0.000000 -0.004015 0.000000
# 2 0.000439 0.012465 -0.004289 0.000000 -0.002173 0.000000
# 3 -0.003495 -0.004289 0.018105 0.000000 -0.006719 0.000000
# 4 0.000000 0.000000 0.000000 -0.015452 0.000000 -0.029273
# 5 -0.004015 -0.002173 -0.006719 0.000000 0.038704 0.000000
# 6 0.000000 0.000000 0.000000 -0.029273 0.000000 0.073062
#
#
# Mechanical properties :
#
#
# Convention : Reuss Voigt Hill
#
# Bulk Modulus (GPa) = 29.78101 35.54625 32.66363
# Shear Modulus (GPa) = 29.33197 11.87141 20.60169
#
# Velocity S-wave (km/s) = 3.69207 2.34883 3.09422
# Velocity P-wave (km/s) = 5.65821 4.88624 5.28634
#
# Compressibility (1/GPa) = 0.03357844
#
# Stress axis : x y z
#
# Youngs Moduli (GPa) = 56.50601 80.22564 55.23409
#
# Poissons Ratio (x) = -0.03525 0.19304
# Poissons Ratio (y) = -0.02483 0.23688
# Poissons Ratio (z) = 0.19748 0.34406
#
# Static dielectric constant tensor:
#      x y z
#    x 1.758370 0.000000 0.016820 
#    y 0.000000 1.837500 0.000000 
#    z 0.016820 0.000000 1.916120 
# 
# From -- ./inp_files/96070.got.cif
#   From: 2010.05.17/outbox.cif.g08.bks.cpg/sg13_49_cif.got.tgz:96070.got - 2010.06.03 16:44:36.
