data_PCOD9233768
_publ_section_title
;
Structure prediction by ZEFSAII (Michael W. Deem and Ramdas Pophale) SiO2 
 PCOD9233768
Probable space group: P 2/C
;
_chemical_formula_sum "Si O2"
_cell_formula_units_Z 18
_cell_length_a 10.356310
_cell_length_b 15.404057
_cell_length_c 5.555621
_cell_angle_alpha 90.000000
_cell_angle_beta 112.193294
_cell_angle_gamma 90.000000
_cell_volume 820.623211
_symmetry_space_group_name_H-M "P 2/C"
_symmetry_group_IT_number 13
_symmetry_cell_setting 'monoclinic'
loop_
_space_group_symop_operation_xyz
x,y,z
-x,y,1/2-z
-x,-y,-z
x,-y,1/2+z
loop_
_atom_site_type_symbol
_atom_site_label
_atom_site_fract_x
_atom_site_fract_y
_atom_site_fract_z
Si Si1 0.442947 0.902177 0.456584
Si Si2 0.777701 0.670369 0.938140
Si Si3 0.000000 0.728706 0.750000
Si Si4 0.856867 0.154162 0.745927
Si Si5 0.000000 0.449348 0.750000
Si Si6 0.500000 0.557825 0.750000
O O1 0.500000 0.858610 0.250000
O O2 0.275816 0.906147 0.312485
O O3 0.500000 0.000000 0.500000
O O4 0.500000 0.863351 0.750000
O O5 0.877893 0.670936 0.777186
O O6 0.631795 0.622730 0.817279
O O7 0.789960 0.770144 0.029823
O O8 0.866449 0.612501 0.183062
O O9 0.917043 0.792025 0.511758
O O10 0.000000 0.111814 0.750000
O O11 0.000000 0.500000 0.500000
O O12 0.500000 0.500000 0.500000
#
# Coordination Sequence:
#
# PCOD9233768 Si02
#       6
#     4   4   2   4   2   2
#     4  10  24  46  71 104 142 181 223 273 349 423
#     4  11  24  43  65  99 131 183 233 287 347 410
#     4  10  21  42  72 102 137 174 248 284 345 402
#     4  10  23  41  72 103 136 180 234 293 338 410
#     4  12  23  38  66  88 127 178 222 278 337 402
#     4  12  30  46  62  96 142 180 230 292 356 414
#
# _framework density 21.934549000000001
#
# number of rings (size 3 to 8) (size 9 to 14) (size 15 to 20)
#    0.000    1.333    3.333    2.000   10.889    0.000 
#    0.000    4.444    0.000    0.000    0.000    0.000 
#    0.000    0.000    0.000    0.000    0.000    0.000 
#
# Total GULP energy -100293.854932 kJ/mol
# GULP energy per Si atom -5571.880830 kJ/mol
# Density = 2.188462 g / cm^3
# Si number density = 21.934549 Si / 1000 Ang^3
#
#
#
# Elastic Constant Matrix: (Units=GPa)
#
#
# Indices 1 2 3 4 5 6 
#
# 1 199.0524 50.5649 83.7030 0.0000 42.4707 0.0000
# 2 50.5649 42.9881 4.8803 0.0000 15.7032 0.0000
# 3 83.7030 4.8803 105.5386 0.0000 0.4935 0.0000
# 4 0.0000 0.0000 0.0000 12.2813 0.0000 24.2620
# 5 42.4707 15.7032 0.4935 0.0000 59.9670 0.0000
# 6 0.0000 0.0000 0.0000 24.2620 0.0000 46.6815
#
#
#
# Elastic Compliance Matrix: (Units=1/GPa)
#
#
# Indices 1 2 3 4 5 6 
#
# 1 0.014247 -0.013152 -0.010660 0.000000 -0.006558 0.000000
# 2 -0.013152 0.038006 0.008677 0.000000 -0.000709 0.000000
# 3 -0.010660 0.008677 0.017505 0.000000 0.005134 0.000000
# 4 0.000000 0.000000 0.000000 -3.044219 0.000000 1.582184
# 5 -0.006558 -0.000709 0.005134 0.000000 0.021464 0.000000
# 6 0.000000 0.000000 0.000000 1.582184 0.000000 -0.800893
#
#
# Mechanical properties :
#
#
# Convention : Reuss Voigt Hill
#
# Bulk Modulus (GPa) = 25.32499 69.54173 47.43336
# Shear Modulus (GPa) = -1.34754 37.68134 18.16690
#
# Velocity S-wave (km/s) = -0.78465 4.14925 2.88102
# Velocity P-wave (km/s) = 3.27870 7.39784 5.72180
#
# Compressibility (1/GPa) = 0.03948669
#
# Stress axis : x y z
#
# Youngs Moduli (GPa) = 70.19091 26.31135 57.12733
#
# Poissons Ratio (x) = 0.34605 0.60900
# Poissons Ratio (y) = 0.92315 -0.49568
# Poissons Ratio (z) = 0.74826 -0.22830
#
# Static dielectric constant tensor:
#      x y z
#    x 1.949550 0.000000 -0.019580 
#    y 0.000000 1.796810 0.000000 
#    z -0.019580 0.000000 1.892790 
# 
# From -- ./inp_files/1381.got.cif
#   From: 2010.05.17/outbox.cif.g08.bks.cpg/sg13_1_cif.got.tgz:1381.got - 2010.06.03 16:44:36.
