data_PCOD9233133
_publ_section_title
;
Structure prediction by ZEFSAII (Michael W. Deem and Ramdas Pophale) SiO2 
 PCOD9233133
Probable space group: P 2/C
;
_chemical_formula_sum "Si O2"
_cell_formula_units_Z 28
_cell_length_a 9.398185
_cell_length_b 15.659851
_cell_length_c 19.518645
_cell_angle_alpha 90.000000
_cell_angle_beta 150.562222
_cell_angle_gamma 90.000000
_cell_volume 1411.839848
_symmetry_space_group_name_H-M "P 2/C"
_symmetry_group_IT_number 13
_symmetry_cell_setting 'monoclinic'
loop_
_space_group_symop_operation_xyz
x,y,z
-x,y,1/2-z
-x,-y,-z
x,-y,1/2+z
loop_
_atom_site_type_symbol
_atom_site_label
_atom_site_fract_x
_atom_site_fract_y
_atom_site_fract_z
Si Si1 0.690983 0.289386 0.468014
Si Si2 0.807022 0.213725 0.886977
Si Si3 0.103940 0.174972 0.217443
Si Si4 0.769250 0.321475 0.000561
Si Si5 0.841619 0.072656 0.389262
Si Si6 0.799259 0.424980 0.391501
Si Si7 0.329027 0.413967 0.909974
O O1 0.419864 0.223176 0.348961
O O2 0.720744 0.350664 0.413461
O O3 0.658856 0.349720 0.520242
O O4 0.007815 0.243436 0.600676
O O5 0.500000 0.165911 0.750000
O O6 0.716574 0.289270 0.901126
O O7 0.044642 0.158839 0.027183
O O8 0.097461 0.092276 0.165207
O O9 0.000000 0.154514 0.250000
O O10 0.873587 0.242728 0.090338
O O11 0.500266 0.368705 0.920165
O O12 0.045414 0.383111 0.108533
O O13 0.500000 0.061710 0.250000
O O14 0.000000 0.000000 0.500000
O O15 0.500000 0.468634 0.250000
O O16 0.000000 0.500000 0.500000
O O17 0.000000 0.431410 0.750000
O O18 0.500000 0.500000 0.000000
#
# Coordination Sequence:
#
# PCOD9233133 Si02
#       7
#     4   4   4   4   4   4   4
#     4  11  22  39  66  87 126 173 231 278 323 406
#     4  10  21  39  66  94 124 169 220 269 324 391
#     4  11  21  41  72  98 125 180 226 269 334 411
#     4  10  22  37  61  85 120 166 229 275 325 397
#     4  11  23  42  71 107 139 169 214 267 331 408
#     4  11  23  36  56  85 123 167 223 288 345 385
#     4  12  27  40  57  89 131 175 225 287 345 386
#
# _framework density 19.832277999999999
#
# number of rings (size 3 to 8) (size 9 to 14) (size 15 to 20)
#    0.000    1.143    4.286    2.143    2.000    5.714 
#    0.000    0.714    0.000    0.000    0.000    0.000 
#    0.000    0.000    0.000    0.000    0.000    0.000 
#
# Total GULP energy -156189.420430 kJ/mol
# GULP energy per Si atom -5578.193587 kJ/mol
# Density = 1.978714 g / cm^3
# Si number density = 19.832278 Si / 1000 Ang^3
#
#
#
# Elastic Constant Matrix: (Units=GPa)
#
#
# Indices 1 2 3 4 5 6 
#
# 1 148.5930 54.6532 46.1102 0.0000 13.7641 0.0000
# 2 54.6532 73.9552 36.8795 0.0000 5.4133 0.0000
# 3 46.1102 36.8795 142.2703 0.0000 24.6694 0.0000
# 4 0.0000 0.0000 0.0000 126.0289 0.0000 -237.2108
# 5 13.7641 5.4133 24.6694 0.0000 29.8359 0.0000
# 6 0.0000 0.0000 0.0000 -237.2108 0.0000 558.9423
#
#
#
# Elastic Compliance Matrix: (Units=1/GPa)
#
#
# Indices 1 2 3 4 5 6 
#
# 1 0.009641 -0.006430 -0.001038 0.000000 -0.002423 0.000000
# 2 -0.006430 0.019827 -0.003439 0.000000 0.002213 0.000000
# 3 -0.001038 -0.003439 0.009415 0.000000 -0.006682 0.000000
# 4 0.000000 0.000000 0.000000 0.039435 0.000000 0.016736
# 5 -0.002423 0.002213 -0.006682 0.000000 0.039758 0.000000
# 6 0.000000 0.000000 0.000000 0.016736 0.000000 0.008892
#
#
# Mechanical properties :
#
#
# Convention : Reuss Voigt Hill
#
# Bulk Modulus (GPa) = 58.58489 71.12270 64.85380
# Shear Modulus (GPa) = 32.36844 158.10646 95.23745
#
# Velocity S-wave (km/s) = 4.04432 8.93839 6.93727
# Velocity P-wave (km/s) = 7.17029 11.93593 9.84580
#
# Compressibility (1/GPa) = 0.01706925
#
# Stress axis : x y z
#
# Youngs Moduli (GPa) = 103.72052 50.43728 106.20863
#
# Poissons Ratio (x) = 0.32432 0.11022
# Poissons Ratio (y) = 0.66693 0.36527
# Poissons Ratio (z) = 0.10764 0.17346
#
# Static dielectric constant tensor:
#      x y z
#    x 1.717580 0.000000 -0.032060 
#    y 0.000000 1.745710 0.000000 
#    z -0.032060 0.000000 1.821600 
# 
# From -- ./inp_files/76738.got.cif
#   From: 2010.05.17/outbox.cif.g08.bks.cpg/sg13_39_cif.got.tgz:76738.got - 2010.06.03 16:44:36.
