data_PCOD9233261
_publ_section_title
;
Structure prediction by ZEFSAII (Michael W. Deem and Ramdas Pophale) SiO2 
 PCOD9233261
Probable space group: P 2/C
;
_chemical_formula_sum "Si O2"
_cell_formula_units_Z 16
_cell_length_a 14.018548
_cell_length_b 4.808504
_cell_length_c 15.326444
_cell_angle_alpha 90.000000
_cell_angle_beta 41.697235
_cell_angle_gamma 90.000000
_cell_volume 687.231331
_symmetry_space_group_name_H-M "P 2/C"
_symmetry_group_IT_number 13
_symmetry_cell_setting 'monoclinic'
loop_
_space_group_symop_operation_xyz
x,y,z
-x,y,1/2-z
-x,-y,-z
x,-y,1/2+z
loop_
_atom_site_type_symbol
_atom_site_label
_atom_site_fract_x
_atom_site_fract_y
_atom_site_fract_z
Si Si1 0.843037 0.743538 0.182011
Si Si2 0.622579 0.113910 0.979052
Si Si3 0.621701 0.401712 0.598956
Si Si4 0.168586 0.771159 0.928370
O O1 0.754625 0.787845 0.329554
O O2 0.842367 0.429006 0.148595
O O3 0.778629 0.938151 0.148205
O O4 0.010374 0.822465 0.075119
O O5 0.557948 0.378049 0.073538
O O6 0.500000 0.000000 0.000000
O O7 0.669359 0.870259 0.013764
O O8 0.500000 0.319112 0.750000
O O9 0.739232 0.593707 0.566728
#
# Coordination Sequence:
#
# PCOD9233261 Si02
#       4
#     4   4   4   4
#     4  10  21  40  63  88 122 163 205 253 314 376
#     4  12  24  40  63  92 127 166 213 265 316 378
#     4  12  24  40  63  92 127 166 212 263 316 376
#     4  10  21  40  63  88 122 163 205 253 312 376
#
# _framework density 23.281825999999999
#
# number of rings (size 3 to 8) (size 9 to 14) (size 15 to 20)
#    0.000    1.000    0.000    7.500    0.000    1.000 
#    0.000    2.500    0.000    0.000    0.000    0.000 
#    0.000    0.000    0.000    0.000    0.000    0.000 
#
# Total GULP energy -89596.647657 kJ/mol
# GULP energy per Si atom -5599.790479 kJ/mol
# Density = 2.322884 g / cm^3
# Si number density = 23.281826 Si / 1000 Ang^3
#
#
#
# Elastic Constant Matrix: (Units=GPa)
#
#
# Indices 1 2 3 4 5 6 
#
# 1 58.4919 4.8700 38.9952 0.0000 -0.9086 0.0000
# 2 4.8700 115.6924 31.0633 0.0000 8.8491 0.0000
# 3 38.9952 31.0633 153.6814 0.0000 8.2507 0.0000
# 4 0.0000 0.0000 0.0000 37.2341 0.0000 9.2234
# 5 -0.9086 8.8491 8.2507 0.0000 23.6824 0.0000
# 6 0.0000 0.0000 0.0000 9.2234 0.0000 44.7725
#
#
#
# Elastic Compliance Matrix: (Units=1/GPa)
#
#
# Indices 1 2 3 4 5 6 
#
# 1 0.020760 0.000404 -0.005487 0.000000 0.002557 0.000000
# 2 0.000404 0.009337 -0.001838 0.000000 -0.002833 0.000000
# 3 -0.005487 -0.001838 0.008402 0.000000 -0.002451 0.000000
# 4 0.000000 0.000000 0.000000 0.028301 0.000000 -0.005830
# 5 0.002557 -0.002833 -0.002451 0.000000 0.044236 0.000000
# 6 0.000000 0.000000 0.000000 -0.005830 0.000000 0.023536
#
#
# Mechanical properties :
#
#
# Convention : Reuss Voigt Hill
#
# Bulk Modulus (GPa) = 40.55448 53.08031 46.81739
# Shear Modulus (GPa) = 31.92175 38.00029 34.96102
#
# Velocity S-wave (km/s) = 3.70686 4.04442 3.87931
# Velocity P-wave (km/s) = 5.98146 6.68268 6.34177
#
# Compressibility (1/GPa) = 0.02465819
#
# Stress axis : x y z
#
# Youngs Moduli (GPa) = 48.16893 107.10436 119.01718
#
# Poissons Ratio (x) = -0.04323 0.65300
# Poissons Ratio (y) = -0.01944 0.21870
# Poissons Ratio (z) = 0.26428 0.19681
#
# Static dielectric constant tensor:
#      x y z
#    x 1.954880 0.000000 0.014490 
#    y 0.000000 1.855390 0.000000 
#    z 0.014490 0.000000 1.815690 
# 
# From -- ./inp_files/51964.got.cif
#   From: 2010.05.17/outbox.cif.g08.bks.cpg/sg13_26_cif.got.tgz:51964.got - 2010.06.03 16:44:36.
