data_PCOD9233732
_publ_section_title
;
Structure prediction by ZEFSAII (Michael W. Deem and Ramdas Pophale) SiO2 
 PCOD9233732
Probable space group: P 2/C
;
_chemical_formula_sum "Si O2"
_cell_formula_units_Z 26
_cell_length_a 9.266994
_cell_length_b 15.237220
_cell_length_c 12.933493
_cell_angle_alpha 90.000000
_cell_angle_beta 142.419425
_cell_angle_gamma 90.000000
_cell_volume 1113.787565
_symmetry_space_group_name_H-M "P 2/C"
_symmetry_group_IT_number 13
_symmetry_cell_setting 'monoclinic'
loop_
_space_group_symop_operation_xyz
x,y,z
-x,y,1/2-z
-x,-y,-z
x,-y,1/2+z
loop_
_atom_site_type_symbol
_atom_site_label
_atom_site_fract_x
_atom_site_fract_y
_atom_site_fract_z
Si Si1 0.676640 0.824521 0.521510
Si Si2 0.228703 0.011581 0.553280
Si Si3 0.261975 0.162209 0.936640
Si Si4 0.047851 0.401381 0.561194
Si Si5 0.500000 0.688850 0.250000
Si Si6 0.626451 0.648048 0.929103
Si Si7 0.179408 0.665150 0.770595
O O1 0.808869 0.905866 0.544800
O O2 0.430826 0.855639 0.434199
O O3 0.623027 0.753215 0.402083
O O4 0.790193 0.765738 0.676808
O O5 0.500000 0.026477 0.750000
O O6 0.247782 0.922438 0.499702
O O7 0.000000 0.000000 0.500000
O O8 0.000000 0.184144 0.750000
O O9 0.355792 0.246827 0.051387
O O10 0.317588 0.371740 0.709741
O O11 0.000000 0.500000 0.500000
O O12 0.892290 0.386154 0.574500
O O13 0.931728 0.341105 0.405375
O O14 0.500000 0.620852 0.750000
O O15 0.439611 0.622635 0.911593
O O16 0.000000 0.622477 0.750000
#
# Coordination Sequence:
#
# PCOD9233732 Si02
#       7
#     4   4   4   4   2   4   4
#     4  11  24  44  69  97 140 189 243 286 353 423
#     4  12  27  44  69 106 145 193 244 303 359 431
#     4  11  23  41  66 101 141 183 243 298 356 414
#     4  11  25  44  70 104 139 181 232 289 365 435
#     4  12  24  44  76  96 140 190 228 294 368 422
#     4   9  21  40  68  93 135 183 230 291 353 430
#     4  10  21  42  68  98 129 177 230 285 344 420
#
# _framework density 23.343769000000002
#
# number of rings (size 3 to 8) (size 9 to 14) (size 15 to 20)
#    0.000    1.231    2.308    2.769    5.385    3.077 
#    0.000    5.385    0.000    0.000    0.000    0.000 
#    0.000    0.000    0.000    0.000    0.000    0.000 
#
# Total GULP energy -145180.238896 kJ/mol
# GULP energy per Si atom -5583.855342 kJ/mol
# Density = 2.329064 g / cm^3
# Si number density = 23.343769 Si / 1000 Ang^3
#
#
#
# Elastic Constant Matrix: (Units=GPa)
#
#
# Indices 1 2 3 4 5 6 
#
# 1 203.2040 46.7711 32.5747 0.0000 66.7161 0.0000
# 2 46.7711 108.3195 12.6139 0.0000 10.8708 0.0000
# 3 32.5747 12.6139 69.3201 0.0000 7.5033 0.0000
# 4 0.0000 0.0000 0.0000 2.4478 0.0000 8.6311
# 5 66.7161 10.8708 7.5033 0.0000 52.0583 0.0000
# 6 0.0000 0.0000 0.0000 8.6311 0.0000 14.3008
#
#
#
# Elastic Compliance Matrix: (Units=1/GPa)
#
#
# Indices 1 2 3 4 5 6 
#
# 1 0.009819 -0.002743 -0.002860 0.000000 -0.011599 0.000000
# 2 -0.002743 0.010357 -0.000754 0.000000 0.001461 0.000000
# 3 -0.002860 -0.000754 0.015739 0.000000 0.001554 0.000000
# 4 0.000000 0.000000 0.000000 -0.362144 0.000000 0.218567
# 5 -0.011599 0.001461 0.001554 0.000000 0.033545 0.000000
# 6 0.000000 0.000000 0.000000 0.218567 0.000000 -0.061987
#
#
# Mechanical properties :
#
#
# Convention : Reuss Voigt Hill
#
# Bulk Modulus (GPa) = 43.09874 62.75145 52.92510
# Shear Modulus (GPa) = -14.95998 33.02032 9.03017
#
# Velocity S-wave (km/s) = -2.53426 3.76510 1.96894
# Velocity P-wave (km/s) = 3.15269 6.77060 5.28112
#
# Compressibility (1/GPa) = 0.02320253
#
# Stress axis : x y z
#
# Youngs Moduli (GPa) = 101.84390 96.54929 63.53808
#
# Poissons Ratio (x) = 0.26480 0.18169
# Poissons Ratio (y) = 0.27933 0.04791
# Poissons Ratio (z) = 0.29123 0.07280
#
# Static dielectric constant tensor:
#      x y z
#    x 1.906330 0.000000 -0.051660 
#    y 0.000000 1.827720 0.000000 
#    z -0.051660 0.000000 1.744120 
# 
# From -- ./inp_files/47963.got.cif
#   From: 2010.05.17/outbox.cif.g08.bks.cpg/sg13_24_cif.got.tgz:47963.got - 2010.06.03 16:44:36.
