data_PCOD9233825
_publ_section_title
;
Structure prediction by ZEFSAII (Michael W. Deem and Ramdas Pophale) SiO2 
 PCOD9233825
Probable space group: P 2/C
;
_chemical_formula_sum "Si O2"
_cell_formula_units_Z 24
_cell_length_a 11.436398
_cell_length_b 12.478172
_cell_length_c 9.092004
_cell_angle_alpha 90.000000
_cell_angle_beta 110.360763
_cell_angle_gamma 90.000000
_cell_volume 1216.411757
_symmetry_space_group_name_H-M "P 2/C"
_symmetry_group_IT_number 13
_symmetry_cell_setting 'monoclinic'
loop_
_space_group_symop_operation_xyz
x,y,z
-x,y,1/2-z
-x,-y,-z
x,-y,1/2+z
loop_
_atom_site_type_symbol
_atom_site_label
_atom_site_fract_x
_atom_site_fract_y
_atom_site_fract_z
Si Si1 0.874402 0.454089 0.372454
Si Si2 0.431298 0.093084 0.564827
Si Si3 0.466454 0.334487 0.561811
Si Si4 0.702186 0.536399 0.062119
Si Si5 0.138881 0.897237 0.015075
Si Si6 0.000000 0.271214 0.250000
Si Si7 0.000000 0.932458 0.250000
O O1 0.804799 0.536847 0.235119
O O2 0.773743 0.428163 0.450047
O O3 0.909611 0.349384 0.298414
O O4 0.000000 0.500000 0.500000
O O5 0.500000 0.092236 0.750000
O O6 0.446644 0.212479 0.503589
O O7 0.285098 0.087511 0.545030
O O8 0.500000 0.000000 0.500000
O O9 0.500000 0.334970 0.750000
O O10 0.351792 0.415483 0.481645
O O11 0.585424 0.388312 0.538509
O O12 0.079055 0.798771 0.898921
O O13 0.078856 0.998057 0.901559
O O14 0.098258 0.883560 0.170519
#
# Coordination Sequence:
#
# PCOD9233825 Si02
#       7
#     4   4   4   4   4   2   2
#     4  12  23  40  63  92 132 166 209 270 331 392
#     4  11  24  43  64  93 131 171 212 270 324 383
#     4  10  22  42  67  90 127 175 213 270 327 382
#     4  11  22  42  65  95 127 168 224 262 327 401
#     4  10  21  43  66  95 132 163 232 262 331 394
#     4  11  24  42  63 100 128 176 209 278 329 392
#     4   9  20  42  71  92 122 182 205 284 321 380
#
# _framework density 19.730162
#
# number of rings (size 3 to 8) (size 9 to 14) (size 15 to 20)
#    0.000    1.333    3.333    2.000    0.000    0.000 
#   24.000    0.000    0.000    0.000    0.000    0.000 
#    0.000    0.000    0.000    0.000    0.000    0.000 
#
# Total GULP energy -133774.844770 kJ/mol
# GULP energy per Si atom -5573.951865 kJ/mol
# Density = 1.968526 g / cm^3
# Si number density = 19.730162 Si / 1000 Ang^3
#
#
#
# Elastic Constant Matrix: (Units=GPa)
#
#
# Indices 1 2 3 4 5 6 
#
# 1 180.5906 60.6552 60.4082 0.0000 -14.8311 0.0000
# 2 60.6552 136.7751 24.5217 0.0000 -27.4448 0.0000
# 3 60.4082 24.5217 89.3163 0.0000 -15.6627 0.0000
# 4 0.0000 0.0000 0.0000 -18.4607 0.0000 -21.9199
# 5 -14.8311 -27.4448 -15.6627 0.0000 55.2684 0.0000
# 6 0.0000 0.0000 0.0000 -21.9199 0.0000 41.1245
#
#
#
# Elastic Compliance Matrix: (Units=1/GPa)
#
#
# Indices 1 2 3 4 5 6 
#
# 1 0.008030 -0.002828 -0.004760 0.000000 -0.000598 0.000000
# 2 -0.002828 0.009340 0.000030 0.000000 0.003888 0.000000
# 3 -0.004760 0.000030 0.014928 0.000000 0.002968 0.000000
# 4 0.000000 0.000000 0.000000 -0.033174 0.000000 -0.017682
# 5 -0.000598 0.003888 0.002968 0.000000 0.020705 0.000000
# 6 0.000000 0.000000 0.000000 -0.017682 0.000000 0.014892
#
#
# Mechanical properties :
#
#
# Convention : Reuss Voigt Hill
#
# Bulk Modulus (GPa) = 58.19761 77.53915 67.86838
# Shear Modulus (GPa) = 89.98856 32.99291 61.49073
#
# Velocity S-wave (km/s) = 6.76082 4.09370 5.58869
# Velocity P-wave (km/s) = 9.51345 7.85682 8.72454
#
# Compressibility (1/GPa) = 0.01718284
#
# Stress axis : x y z
#
# Youngs Moduli (GPa) = 124.53058 107.06626 66.99026
#
# Poissons Ratio (x) = 0.30276 0.31885
# Poissons Ratio (y) = 0.35215 -0.00201
# Poissons Ratio (z) = 0.59272 -0.00321
#
# Static dielectric constant tensor:
#      x y z
#    x 1.668630 0.000000 0.001270 
#    y 0.000000 1.733020 0.000000 
#    z 0.001270 0.000000 1.658750 
# 
# From -- ./inp_files/15982.got.cif
#   From: 2010.05.17/outbox.cif.g08.bks.cpg/sg13_8_cif.got.tgz:15982.got - 2010.06.03 16:44:36.
