data_PCOD9233866
_publ_section_title
;
Structure prediction by ZEFSAII (Michael W. Deem and Ramdas Pophale) SiO2 
 PCOD9233866
Probable space group: P 2/C
;
_chemical_formula_sum "Si O2"
_cell_formula_units_Z 20
_cell_length_a 7.615221
_cell_length_b 21.714998
_cell_length_c 5.871128
_cell_angle_alpha 90.000000
_cell_angle_beta 119.883669
_cell_angle_gamma 90.000000
_cell_volume 841.787331
_symmetry_space_group_name_H-M "P 2/C"
_symmetry_group_IT_number 13
_symmetry_cell_setting 'monoclinic'
loop_
_space_group_symop_operation_xyz
x,y,z
-x,y,1/2-z
-x,-y,-z
x,-y,1/2+z
loop_
_atom_site_type_symbol
_atom_site_label
_atom_site_fract_x
_atom_site_fract_y
_atom_site_fract_z
Si Si1 0.000000 0.635220 0.250000
Si Si2 0.265332 0.477260 0.828882
Si Si3 0.289768 0.711540 0.733169
Si Si4 0.245221 0.027565 0.934884
Si Si5 0.760428 0.170445 0.560359
Si Si6 0.500000 0.752498 0.250000
O O1 0.814641 0.592754 0.217283
O O2 0.101022 0.677199 0.508292
O O3 0.192809 0.500809 0.533753
O O4 0.500000 0.500000 0.000000
O O5 0.500000 0.690919 0.750000
O O6 0.271652 0.785052 0.675788
O O7 0.338362 0.707882 0.026676
O O8 0.299518 0.099543 0.989159
O O9 0.000000 0.022408 0.750000
O O10 0.307099 0.001878 0.722217
O O11 0.635565 0.204914 0.675478
O O12 0.000000 0.171108 0.750000
#
# Coordination Sequence:
#
# PCOD9233866 Si02
#       6
#     2   4   4   4   4   2
#     4  12  24  48  82 112 148 196 256 296 374 456
#     4  10  24  50  76 112 153 195 239 302 368 434
#     4  10  24  47  67 110 145 193 251 316 377 446
#     4   9  19  35  61 101 137 187 254 315 381 463
#     4  10  21  43  69  97 145 191 249 318 391 453
#     4  10  24  46  70  98 154 192 246 318 396 440
#
# _framework density 23.758970000000001
#
# number of rings (size 3 to 8) (size 9 to 14) (size 15 to 20)
#    0.000    2.000    1.000    0.600    5.600    0.800 
#   14.400    1.000    4.400    0.000    0.000    0.000 
#    0.000    0.000    0.000    0.000    0.000    0.000 
#
# Total GULP energy -111484.679170 kJ/mol
# GULP energy per Si atom -5574.233958 kJ/mol
# Density = 2.370489 g / cm^3
# Si number density = 23.758970 Si / 1000 Ang^3
#
#
#
# Elastic Constant Matrix: (Units=GPa)
#
#
# Indices 1 2 3 4 5 6 
#
# 1 137.5896 38.1093 54.7623 0.0000 10.3707 0.0000
# 2 38.1093 135.5474 98.3217 0.0000 5.4343 0.0000
# 3 54.7623 98.3217 220.9121 0.0000 -3.0674 0.0000
# 4 0.0000 0.0000 0.0000 -37.8065 0.0000 -13.5878
# 5 10.3707 5.4343 -3.0674 0.0000 33.3120 0.0000
# 6 0.0000 0.0000 0.0000 -13.5878 0.0000 21.5288
#
#
#
# Elastic Compliance Matrix: (Units=1/GPa)
#
#
# Indices 1 2 3 4 5 6 
#
# 1 0.008415 -0.001067 -0.001647 0.000000 -0.002597 0.000000
# 2 -0.001067 0.011198 -0.004746 0.000000 -0.001932 0.000000
# 3 -0.001647 -0.004746 0.007074 0.000000 0.001938 0.000000
# 4 0.000000 0.000000 0.000000 -0.021560 0.000000 -0.013607
# 5 -0.002597 -0.001932 0.001938 0.000000 0.031321 0.000000
# 6 0.000000 0.000000 0.000000 -0.013607 0.000000 0.037861
#
#
# Mechanical properties :
#
#
# Convention : Reuss Voigt Hill
#
# Bulk Modulus (GPa) = 84.98792 97.38177 91.18485
# Shear Modulus (GPa) = 53.67583 23.59722 38.63653
#
# Velocity S-wave (km/s) = 4.75824 3.15491 4.03698
# Velocity P-wave (km/s) = 8.12628 7.37209 7.75835
#
# Compressibility (1/GPa) = 0.01176638
#
# Stress axis : x y z
#
# Youngs Moduli (GPa) = 118.83718 89.30546 141.35749
#
# Poissons Ratio (x) = 0.09528 0.23284
# Poissons Ratio (y) = 0.12679 0.67089
# Poissons Ratio (z) = 0.19575 0.42385
#
# Static dielectric constant tensor:
#      x y z
#    x 1.943300 0.000000 -0.057620 
#    y 0.000000 1.881390 0.000000 
#    z -0.057620 0.000000 2.086970 
# 
# From -- ./inp_files/2253.got.cif
#   From: 2010.05.17/outbox.cif.g08.bks.cpg/sg13_2_cif.got.tgz:2253.got - 2010.06.03 16:44:36.
