data_PCOD9233064
_publ_section_title
;
Structure prediction by ZEFSAII (Michael W. Deem and Ramdas Pophale) SiO2 
 PCOD9233064
Probable space group: P 2/C
;
_chemical_formula_sum "Si O2"
_cell_formula_units_Z 20
_cell_length_a 9.798751
_cell_length_b 5.163493
_cell_length_c 16.835746
_cell_angle_alpha 90.000000
_cell_angle_beta 99.205784
_cell_angle_gamma 90.000000
_cell_volume 840.846428
_symmetry_space_group_name_H-M "P 2/C"
_symmetry_group_IT_number 13
_symmetry_cell_setting 'monoclinic'
loop_
_space_group_symop_operation_xyz
x,y,z
-x,y,1/2-z
-x,-y,-z
x,-y,1/2+z
loop_
_atom_site_type_symbol
_atom_site_label
_atom_site_fract_x
_atom_site_fract_y
_atom_site_fract_z
Si Si1 0.454765 0.434467 0.084548
Si Si2 0.272314 0.309091 0.284928
Si Si3 0.092387 0.298078 0.418239
Si Si4 0.654335 0.802797 0.298766
Si Si5 0.179139 0.201657 0.023116
O O1 0.584228 0.338529 0.149768
O O2 0.376305 0.676416 0.118389
O O3 0.336007 0.222500 0.064362
O O4 0.500000 0.500000 0.000000
O O5 0.150613 0.260244 0.336001
O O6 0.259413 0.581604 0.239180
O O7 0.286549 0.076868 0.223717
O O8 0.144847 0.575686 0.454853
O O9 0.929088 0.266857 0.416976
O O10 0.151022 0.074037 0.481064
O O11 0.500000 0.806870 0.250000
#
# Coordination Sequence:
#
# PCOD9233064 Si02
#       5
#     4   4   4   4   4
#     4  11  23  42  68 103 127 172 228 283 315 395
#     4  11  22  41  64  91 130 173 208 259 345 388
#     4  10  21  39  64  91 131 173 203 270 335 390
#     4  10  23  40  59  92 132 169 205 267 335 394
#     4  10  22  39  61  98 130 160 222 270 321 379
#
# _framework density 23.785557000000001
#
# number of rings (size 3 to 8) (size 9 to 14) (size 15 to 20)
#    0.000    1.600    2.000    3.000    2.800    5.600 
#    0.000    1.000    0.000    7.200    0.000    0.000 
#    0.000    0.000    0.000    0.000    0.000    0.000 
#
# Total GULP energy -111922.490648 kJ/mol
# GULP energy per Si atom -5596.124532 kJ/mol
# Density = 2.373142 g / cm^3
# Si number density = 23.785557 Si / 1000 Ang^3
#
#
#
# Elastic Constant Matrix: (Units=GPa)
#
#
# Indices 1 2 3 4 5 6 
#
# 1 65.1963 15.1869 47.2811 0.0000 -20.8078 0.0000
# 2 15.1869 90.8567 4.8745 0.0000 8.8710 0.0000
# 3 47.2811 4.8745 121.2995 0.0000 -33.2396 0.0000
# 4 0.0000 0.0000 0.0000 12.8963 0.0000 0.0769
# 5 -20.8078 8.8710 -33.2396 0.0000 50.6282 0.0000
# 6 0.0000 0.0000 0.0000 0.0769 0.0000 19.7883
#
#
#
# Elastic Compliance Matrix: (Units=1/GPa)
#
#
# Indices 1 2 3 4 5 6 
#
# 1 0.023444 -0.004047 -0.007488 0.000000 0.005428 0.000000
# 2 -0.004047 0.012043 0.000073 0.000000 -0.003726 0.000000
# 3 -0.007488 0.000073 0.012576 0.000000 0.005166 0.000000
# 4 0.000000 0.000000 0.000000 0.077543 0.000000 -0.000301
# 5 0.005428 -0.003726 0.005166 0.000000 0.026027 0.000000
# 6 0.000000 0.000000 0.000000 -0.000301 0.000000 0.050536
#
#
# Mechanical properties :
#
#
# Convention : Reuss Voigt Hill
#
# Bulk Modulus (GPa) = 39.78164 45.78194 42.78179
# Shear Modulus (GPa) = 21.41576 30.66322 26.03949
#
# Velocity S-wave (km/s) = 3.00387 3.59437 3.31231
# Velocity P-wave (km/s) = 5.36586 6.04281 5.71437
#
# Compressibility (1/GPa) = 0.02513723
#
# Stress axis : x y z
#
# Youngs Moduli (GPa) = 42.65514 83.03798 79.51934
#
# Poissons Ratio (x) = 0.33605 0.59544
# Poissons Ratio (y) = 0.17262 -0.00577
# Poissons Ratio (z) = 0.31940 -0.00602
#
# Static dielectric constant tensor:
#      x y z
#    x 1.906730 0.000000 0.038020 
#    y 0.000000 1.933430 0.000000 
#    z 0.038020 0.000000 1.983150 
# 
# From -- ./inp_files/48820.got.cif
#   From: 2010.05.17/outbox.cif.g08.bks.cpg/sg13_25_cif.got.tgz:48820.got - 2010.06.03 16:44:36.
