data_PCOD9233267
_publ_section_title
;
Structure prediction by ZEFSAII (Michael W. Deem and Ramdas Pophale) SiO2 
 PCOD9233267
Probable space group: P 2/C
;
_chemical_formula_sum "Si O2"
_cell_formula_units_Z 24
_cell_length_a 7.604639
_cell_length_b 12.509053
_cell_length_c 20.020030
_cell_angle_alpha 90.000000
_cell_angle_beta 34.822026
_cell_angle_gamma 90.000000
_cell_volume 1087.492006
_symmetry_space_group_name_H-M "P 2/C"
_symmetry_group_IT_number 13
_symmetry_cell_setting 'monoclinic'
loop_
_space_group_symop_operation_xyz
x,y,z
-x,y,1/2-z
-x,-y,-z
x,-y,1/2+z
loop_
_atom_site_type_symbol
_atom_site_label
_atom_site_fract_x
_atom_site_fract_y
_atom_site_fract_z
Si Si1 0.854255 0.153542 0.658213
Si Si2 0.455839 0.782944 0.914585
Si Si3 0.233654 0.261831 0.039552
Si Si4 0.720804 0.354135 0.786428
Si Si5 0.770025 0.592551 0.756990
Si Si6 0.199954 0.077042 0.295845
O O1 0.500000 0.140591 0.750000
O O2 0.848430 0.267248 0.695932
O O3 0.118321 0.166048 0.520677
O O4 0.919706 0.043487 0.677250
O O5 0.558490 0.756635 0.958522
O O6 0.494616 0.673106 0.861509
O O7 0.692273 0.864201 0.805369
O O8 0.978494 0.352106 0.135635
O O9 0.055920 0.150042 0.088633
O O10 0.438705 0.301334 0.914415
O O11 0.659864 0.472672 0.777786
O O12 0.000000 0.370420 0.750000
O O13 0.000000 0.594045 0.750000
O O14 0.500000 0.078457 0.250000
#
# Coordination Sequence:
#
# PCOD9233267 Si02
#       6
#     4   4   4   4   4   4
#     4  11  26  40  58  86 124 160 197 246 297 349
#     4  10  21  42  62  88 121 151 200 248 294 347
#     4  10  21  40  63  91 120 152 199 247 293 351
#     4  11  22  37  63  93 117 155 203 240 294 352
#     4   8  19  36  63  87 117 156 188 244 298 348
#     4  10  24  41  63  84 116 166 196 239 303 356
#
# _framework density 22.069129
#
# number of rings (size 3 to 8) (size 9 to 14) (size 15 to 20)
#    0.000    2.000    1.667    1.500    7.000    5.333 
#    0.000    4.167    0.000    0.000    0.000    0.000 
#    0.000    0.000    0.000    0.000    0.000    0.000 
#
# Total GULP energy -133973.713585 kJ/mol
# GULP energy per Si atom -5582.238066 kJ/mol
# Density = 2.201890 g / cm^3
# Si number density = 22.069129 Si / 1000 Ang^3
#
#
#
# Elastic Constant Matrix: (Units=GPa)
#
#
# Indices 1 2 3 4 5 6 
#
# 1 27.6760 -1.0297 9.0480 0.0000 -6.1407 0.0000
# 2 -1.0297 181.9378 57.9151 0.0000 -2.8787 0.0000
# 3 9.0480 57.9151 123.7557 0.0000 -10.8001 0.0000
# 4 0.0000 0.0000 0.0000 24.5018 0.0000 6.1174
# 5 -6.1407 -2.8787 -10.8001 0.0000 22.5093 0.0000
# 6 0.0000 0.0000 0.0000 6.1174 0.0000 34.0796
#
#
#
# Elastic Compliance Matrix: (Units=1/GPa)
#
#
# Indices 1 2 3 4 5 6 
#
# 1 0.039150 0.001196 -0.002585 0.000000 0.009593 0.000000
# 2 0.001196 0.006504 -0.003163 0.000000 -0.000359 0.000000
# 3 -0.002585 -0.003163 0.010074 0.000000 0.003724 0.000000
# 4 0.000000 0.000000 0.000000 0.042728 0.000000 -0.007670
# 5 0.009593 -0.000359 0.003724 0.000000 0.048784 0.000000
# 6 0.000000 0.000000 0.000000 -0.007670 0.000000 0.030720
#
#
# Mechanical properties :
#
#
# Convention : Reuss Voigt Hill
#
# Bulk Modulus (GPa) = 21.44707 51.69291 36.56999
# Shear Modulus (GPa) = 24.67841 34.04722 29.36281
#
# Velocity S-wave (km/s) = 3.34763 3.93205 3.65155
# Velocity P-wave (km/s) = 4.96803 6.63993 5.86388
#
# Compressibility (1/GPa) = 0.04662641
#
# Stress axis : x y z
#
# Youngs Moduli (GPa) = 25.54246 153.74640 99.26066
#
# Poissons Ratio (x) = -0.18392 0.25659
# Poissons Ratio (y) = -0.03055 0.31393
# Poissons Ratio (z) = 0.06603 0.48625
#
# Static dielectric constant tensor:
#      x y z
#    x 1.911840 0.000000 -0.045860 
#    y 0.000000 1.855270 0.000000 
#    z -0.045860 0.000000 1.790780 
# 
# From -- ./inp_files/29326.got.cif
#   From: 2010.05.17/outbox.cif.g08.bks.cpg/sg13_15_cif.got.tgz:29326.got - 2010.06.03 16:44:36.
