data_PCOD9233965
_publ_section_title
;
Structure prediction by ZEFSAII (Michael W. Deem and Ramdas Pophale) SiO2 
 PCOD9233965
Probable space group: P 2/C
;
_chemical_formula_sum "Si O2"
_cell_formula_units_Z 30
_cell_length_a 18.479827
_cell_length_b 5.566551
_cell_length_c 14.353506
_cell_angle_alpha 90.000000
_cell_angle_beta 67.655602
_cell_angle_gamma 90.000000
_cell_volume 1365.664754
_symmetry_space_group_name_H-M "P 2/C"
_symmetry_group_IT_number 13
_symmetry_cell_setting 'monoclinic'
loop_
_space_group_symop_operation_xyz
x,y,z
-x,y,1/2-z
-x,-y,-z
x,-y,1/2+z
loop_
_atom_site_type_symbol
_atom_site_label
_atom_site_fract_x
_atom_site_fract_y
_atom_site_fract_z
Si Si1 0.212609 0.516518 0.765437
Si Si2 0.481231 0.237272 0.428329
Si Si3 0.500000 0.403147 0.750000
Si Si4 0.942316 0.200446 0.491547
Si Si5 0.367642 0.587961 0.570177
Si Si6 0.627774 0.139426 0.613056
Si Si7 0.957616 0.475690 0.681463
Si Si8 0.783705 0.988394 0.122027
O O1 0.291530 0.557871 0.668834
O O2 0.132022 0.524735 0.745614
O O3 0.221581 0.250965 0.808865
O O4 0.203074 0.752662 0.836458
O O5 0.487767 0.435213 0.345063
O O6 0.421326 0.350830 0.532260
O O7 0.569553 0.218071 0.421377
O O8 0.441029 0.013561 0.400110
O O9 0.581162 0.261300 0.720123
O O10 0.940895 0.365112 0.585982
O O11 0.857103 0.083233 0.520969
O O12 0.981184 0.318105 0.381295
O O13 0.000000 0.000000 0.500000
O O14 0.343744 0.672355 0.478394
O O15 0.701593 0.991580 0.609666
O O16 0.000000 0.352516 0.750000
#
# Coordination Sequence:
#
# PCOD9233965 Si02
#       8
#     4   4   2   4   4   4   4   4
#     4  11  25  46  67 102 135 177 222 281 341 398
#     4  10  22  42  60  89 128 172 219 276 338 390
#     4  10  22  38  62  92 120 172 224 272 330 406
#     4  10  21  46  66 100 139 181 221 288 343 413
#     4  10  24  40  62  90 135 167 221 279 335 397
#     4  11  24  39  65  96 122 179 222 276 334 404
#     4  10  23  43  72 102 137 182 232 280 349 420
#     4  11  26  43  70  96 138 175 226 274 338 404
#
# _framework density 21.967324999999999
#
# number of rings (size 3 to 8) (size 9 to 14) (size 15 to 20)
#    0.000    1.600    1.333    1.600   11.200    0.533 
#    2.400    0.000    0.000    0.000    0.000    0.000 
#    0.000    0.000    0.000    0.000    0.000    0.000 
#
# Total GULP energy -167142.686198 kJ/mol
# GULP energy per Si atom -5571.422873 kJ/mol
# Density = 2.191733 g / cm^3
# Si number density = 21.967325 Si / 1000 Ang^3
#
#
#
# Elastic Constant Matrix: (Units=GPa)
#
#
# Indices 1 2 3 4 5 6 
#
# 1 103.1545 -10.8734 29.2969 0.0000 -23.2696 0.0000
# 2 -10.8734 56.5981 8.2623 0.0000 -5.5599 0.0000
# 3 29.2969 8.2623 56.9774 0.0000 -25.6891 0.0000
# 4 0.0000 0.0000 0.0000 -704.5632 0.0000 426.4301
# 5 -23.2696 -5.5599 -25.6891 0.0000 41.0469 0.0000
# 6 0.0000 0.0000 0.0000 426.4301 0.0000 -229.8668
#
#
#
# Elastic Compliance Matrix: (Units=1/GPa)
#
#
# Indices 1 2 3 4 5 6 
#
# 1 0.012474 0.003553 -0.004909 0.000000 0.004480 0.000000
# 2 0.003553 0.019100 -0.003513 0.000000 0.002402 0.000000
# 3 -0.004909 -0.003513 0.026629 0.000000 0.013407 0.000000
# 4 0.000000 0.000000 0.000000 0.011559 0.000000 0.021443
# 5 0.004480 0.002402 0.013407 0.000000 0.035618 0.000000
# 6 0.000000 0.000000 0.000000 0.021443 0.000000 0.035428
#
#
# Mechanical properties :
#
#
# Convention : Reuss Voigt Hill
#
# Bulk Modulus (GPa) = 20.63381 30.01129 25.32255
# Shear Modulus (GPa) = 29.99374 -166.00701 -68.00664
#
# Velocity S-wave (km/s) = 3.69911 -8.70253 -5.57004
# Velocity P-wave (km/s) = 5.25908 9.34276 5.46028
#
# Compressibility (1/GPa) = 0.04846415
#
# Stress axis : x y z
#
# Youngs Moduli (GPa) = 80.16943 52.35617 37.55285
#
# Poissons Ratio (x) = -0.18603 0.18434
# Poissons Ratio (y) = -0.28485 0.13194
# Poissons Ratio (z) = 0.39355 0.18395
#
# Static dielectric constant tensor:
#      x y z
#    x 1.813600 0.000000 0.042800 
#    y 0.000000 1.870920 0.000000 
#    z 0.042800 0.000000 1.776300 
# 
# From -- ./inp_files/54598.got.cif
#   From: 2010.05.17/outbox.cif.g08.bks.cpg/sg13_28_cif.got.tgz:54598.got - 2010.06.03 16:44:36.
