data_PCOD9233469
_publ_section_title
;
Structure prediction by ZEFSAII (Michael W. Deem and Ramdas Pophale) SiO2 
 PCOD9233469
Probable space group: P 2/C
;
_chemical_formula_sum "Si O2"
_cell_formula_units_Z 20
_cell_length_a 22.347326
_cell_length_b 7.658540
_cell_length_c 5.331061
_cell_angle_alpha 90.000000
_cell_angle_beta 83.364482
_cell_angle_gamma 90.000000
_cell_volume 906.287971
_symmetry_space_group_name_H-M "P 2/C"
_symmetry_group_IT_number 13
_symmetry_cell_setting 'monoclinic'
loop_
_space_group_symop_operation_xyz
x,y,z
-x,y,1/2-z
-x,-y,-z
x,-y,1/2+z
loop_
_atom_site_type_symbol
_atom_site_label
_atom_site_fract_x
_atom_site_fract_y
_atom_site_fract_z
Si Si1 0.385516 0.620277 0.813192
Si Si2 0.000000 0.110413 0.750000
Si Si3 0.272695 0.886136 0.866593
Si Si4 0.083017 0.417874 0.805054
Si Si5 0.782340 0.557344 0.713096
Si Si6 0.500000 0.121162 0.250000
O O1 0.386902 0.492481 0.570019
O O2 0.327889 0.749445 0.829954
O O3 0.442371 0.751325 0.778717
O O4 0.940928 0.232777 0.769987
O O5 0.000000 0.000000 0.500000
O O6 0.214778 0.759822 0.858861
O O7 0.274204 0.016743 0.631234
O O8 0.060847 0.546430 0.596252
O O9 0.154385 0.456535 0.782585
O O10 0.751255 0.459881 0.497291
O O11 0.500000 0.000000 0.500000
#
# Coordination Sequence:
#
# PCOD9233469 Si02
#       6
#     4   2   4   4   4   2
#     4  12  24  42  66  93 127 172 216 254 313 392
#     4  12  24  40  64  98 126 156 204 262 306 358
#     4  12  24  41  64  95 125 160 210 269 316 361
#     4  10  21  41  65  87 121 166 202 241 304 375
#     4  10  21  41  63  88 121 165 206 245 306 376
#     4  12  24  42  64  96 134 166 208 272 324 362
#
# _framework density 22.068041000000001
#
# number of rings (size 3 to 8) (size 9 to 14) (size 15 to 20)
#    0.000    0.800    0.000    8.400    0.000    0.000 
#    0.000   24.000    0.000    0.000    0.000    0.000 
#    0.000    0.000    0.000    0.000    0.000    0.000 
#
# Total GULP energy -111734.541760 kJ/mol
# GULP energy per Si atom -5586.727088 kJ/mol
# Density = 2.201781 g / cm^3
# Si number density = 22.068041 Si / 1000 Ang^3
#
#
#
# Elastic Constant Matrix: (Units=GPa)
#
#
# Indices 1 2 3 4 5 6 
#
# 1 111.2410 61.1307 26.9361 0.0000 2.2223 0.0000
# 2 61.1307 142.6105 71.2655 0.0000 11.3051 0.0000
# 3 26.9361 71.2655 208.1345 0.0000 24.4701 0.0000
# 4 0.0000 0.0000 0.0000 77.2338 0.0000 17.9179
# 5 2.2223 11.3051 24.4701 0.0000 23.9738 0.0000
# 6 0.0000 0.0000 0.0000 17.9179 0.0000 152.4764
#
#
#
# Elastic Compliance Matrix: (Units=1/GPa)
#
#
# Indices 1 2 3 4 5 6 
#
# 1 0.011803 -0.005214 0.000111 0.000000 0.001252 0.000000
# 2 -0.005214 0.010792 -0.002817 0.000000 -0.001730 0.000000
# 3 0.000111 -0.002817 0.006363 0.000000 -0.005177 0.000000
# 4 0.000000 0.000000 0.000000 0.013311 0.000000 -0.001564
# 5 0.001252 -0.001730 -0.005177 0.000000 0.047696 0.000000
# 6 0.000000 0.000000 0.000000 -0.001564 0.000000 0.006742
#
#
# Mechanical properties :
#
#
# Convention : Reuss Voigt Hill
#
# Bulk Modulus (GPa) = 76.23216 86.73893 81.48555
# Shear Modulus (GPa) = 42.76408 70.91371 56.83890
#
# Velocity S-wave (km/s) = 4.40685 5.67485 5.08056
# Velocity P-wave (km/s) = 7.77901 9.07354 8.45109
#
# Compressibility (1/GPa) = 0.01311782
#
# Stress axis : x y z
#
# Youngs Moduli (GPa) = 84.72492 92.66187 157.14711
#
# Poissons Ratio (x) = 0.48313 -0.01738
# Poissons Ratio (y) = 0.44174 0.44268
# Poissons Ratio (z) = -0.00937 0.26102
#
# Static dielectric constant tensor:
#      x y z
#    x 1.987210 0.000000 -0.032030 
#    y 0.000000 1.795950 0.000000 
#    z -0.032030 0.000000 1.886880 
# 
# From -- ./inp_files/7637.got.cif
#   From: 2010.05.17/outbox.cif.g08.bks.cpg/sg13_4_cif.got.tgz:7637.got - 2010.06.03 16:44:36.
