data_PCOD9233351
_publ_section_title
;
Structure prediction by ZEFSAII (Michael W. Deem and Ramdas Pophale) SiO2 
 PCOD9233351
Probable space group: P 2/C
;
_chemical_formula_sum "Si O2"
_cell_formula_units_Z 18
_cell_length_a 7.146137
_cell_length_b 14.034546
_cell_length_c 9.157303
_cell_angle_alpha 90.000000
_cell_angle_beta 90.841333
_cell_angle_gamma 90.000000
_cell_volume 918.312440
_symmetry_space_group_name_H-M "P 2/C"
_symmetry_group_IT_number 13
_symmetry_cell_setting 'monoclinic'
loop_
_space_group_symop_operation_xyz
x,y,z
-x,y,1/2-z
-x,-y,-z
x,-y,1/2+z
loop_
_atom_site_type_symbol
_atom_site_label
_atom_site_fract_x
_atom_site_fract_y
_atom_site_fract_z
Si Si1 0.505588 0.387631 0.024262
Si Si2 0.500000 0.257843 0.750000
Si Si3 0.203113 0.091145 0.176353
Si Si4 0.777023 0.693792 0.772025
Si Si5 0.796160 0.902005 0.174016
O O1 0.551612 0.326842 0.882662
O O2 0.500000 0.500000 0.000000
O O3 0.302997 0.354279 0.082547
O O4 0.662328 0.358238 0.143675
O O5 0.331989 0.188399 0.794638
O O6 0.281104 0.194785 0.218401
O O7 0.000000 0.092570 0.250000
O O8 0.287749 0.996490 0.249354
O O9 0.190126 0.083146 0.000728
O O10 0.000000 0.687269 0.750000
O O11 0.000000 0.887224 0.250000
#
# Coordination Sequence:
#
# PCOD9233351 Si02
#       5
#     4   2   4   4   4
#     4  11  25  46  66  94 133 164 216 281 321 374
#     4  12  26  38  66 100 124 172 218 258 330 392
#     4  10  21  40  66  95 130 173 212 259 317 378
#     4  10  23  44  71  93 126 176 213 257 329 386
#     4  11  24  40  63  97 136 170 211 265 313 386
#
# _framework density 19.601171999999998
#
# number of rings (size 3 to 8) (size 9 to 14) (size 15 to 20)
#    0.000    1.333    2.222    4.000    9.333    3.556 
#    0.000    2.222    0.000    0.000    0.000    0.000 
#    0.000    0.000    0.000    0.000    0.000    0.000 
#
# Total GULP energy -100490.520154 kJ/mol
# GULP energy per Si atom -5582.806675 kJ/mol
# Density = 1.955656 g / cm^3
# Si number density = 19.601172 Si / 1000 Ang^3
#
#
#
# Elastic Constant Matrix: (Units=GPa)
#
#
# Indices 1 2 3 4 5 6 
#
# 1 99.8226 38.7562 37.6762 0.0000 -6.5185 0.0000
# 2 38.7562 193.6675 71.8787 0.0000 5.3375 0.0000
# 3 37.6762 71.8787 166.2132 0.0000 -5.6717 0.0000
# 4 0.0000 0.0000 0.0000 67.6731 0.0000 -22.4114
# 5 -6.5185 5.3375 -5.6717 0.0000 25.5612 0.0000
# 6 0.0000 0.0000 0.0000 -22.4114 0.0000 47.7059
#
#
#
# Elastic Compliance Matrix: (Units=1/GPa)
#
#
# Indices 1 2 3 4 5 6 
#
# 1 0.011549 -0.001735 -0.001768 0.000000 0.002915 0.000000
# 2 -0.001735 0.006503 -0.002499 0.000000 -0.002355 0.000000
# 3 -0.001768 -0.002499 0.007558 0.000000 0.001748 0.000000
# 4 0.000000 0.000000 0.000000 0.017499 0.000000 0.008221
# 5 0.002915 -0.002355 0.001748 0.000000 0.040745 0.000000
# 6 0.000000 0.000000 0.000000 0.008221 0.000000 0.024824
#
#
# Mechanical properties :
#
#
# Convention : Reuss Voigt Hill
#
# Bulk Modulus (GPa) = 73.50382 84.03618 78.77000
# Shear Modulus (GPa) = 39.93021 48.94752 44.43887
#
# Velocity S-wave (km/s) = 4.51836 5.00259 4.76663
# Velocity P-wave (km/s) = 8.04996 8.73693 8.40047
#
# Compressibility (1/GPa) = 0.01360474
#
# Stress axis : x y z
#
# Youngs Moduli (GPa) = 86.58622 153.76837 132.31705
#
# Poissons Ratio (x) = 0.26684 0.23393
# Poissons Ratio (y) = 0.15026 0.33071
# Poissons Ratio (z) = 0.15308 0.38432
#
# Static dielectric constant tensor:
#      x y z
#    x 1.704510 0.000000 -0.002690 
#    y 0.000000 1.701040 0.000000 
#    z -0.002690 0.000000 1.697090 
# 
# From -- ./inp_files/11242.got.cif
#   From: 2010.05.17/outbox.cif.g08.bks.cpg/sg13_6_cif.got.tgz:11242.got - 2010.06.03 16:44:36.
