data_PCOD9233070
_publ_section_title
;
Structure prediction by ZEFSAII (Michael W. Deem and Ramdas Pophale) SiO2 
 PCOD9233070
Probable space group: P 2/C
;
_chemical_formula_sum "Si O2"
_cell_formula_units_Z 28
_cell_length_a 10.240053
_cell_length_b 9.691226
_cell_length_c 10.869214
_cell_angle_alpha 90.000000
_cell_angle_beta 85.014842
_cell_angle_gamma 90.000000
_cell_volume 1074.566060
_symmetry_space_group_name_H-M "P 2/C"
_symmetry_group_IT_number 13
_symmetry_cell_setting 'monoclinic'
loop_
_space_group_symop_operation_xyz
x,y,z
-x,y,1/2-z
-x,-y,-z
x,-y,1/2+z
loop_
_atom_site_type_symbol
_atom_site_label
_atom_site_fract_x
_atom_site_fract_y
_atom_site_fract_z
Si Si1 0.000000 0.131423 0.250000
Si Si2 0.587377 0.153253 0.339429
Si Si3 0.182643 0.018676 0.036897
Si Si4 0.821192 0.280020 0.634112
Si Si5 0.752814 0.375647 0.871401
Si Si6 0.000000 0.465335 0.750000
Si Si7 0.532379 0.355428 0.560455
Si Si8 0.228037 0.254403 0.375163
O O1 0.935689 0.033772 0.357493
O O2 0.904133 0.238577 0.190354
O O3 0.500000 0.069333 0.250000
O O4 0.692732 0.056110 0.390921
O O5 0.522584 0.235994 0.456657
O O6 0.658439 0.257420 0.237007
O O7 0.157609 0.146495 0.947217
O O8 0.221524 0.888701 0.952586
O O9 0.810921 0.251759 0.782149
O O10 0.681467 0.341621 0.597429
O O11 0.944319 0.384092 0.631965
O O12 0.849754 0.498235 0.814572
O O13 0.599820 0.355930 0.848203
O O14 0.764075 0.363203 0.016300
O O15 0.500000 0.500000 0.500000
#
# Coordination Sequence:
#
# PCOD9233070 Si02
#       8
#     2   4   4   4   4   2   4   4
#     4  10  22  35  60  91 128 174 228 245 302 385
#     4  10  22  41  57  91 124 160 215 262 318 385
#     4  10  22  36  60  90 131 173 215 259 309 374
#     4   9  21  40  62  97 123 168 213 258 318 387
#     4  10  21  39  64  92 125 166 209 261 317 383
#     4   8  20  35  64  83 134 152 200 263 308 365
#     4  11  23  44  71  92 121 164 216 276 328 393
#     4  11  22  37  59  93 128 173 208 262 315 365
#
# _framework density 26.057030000000001
#
# number of rings (size 3 to 8) (size 9 to 14) (size 15 to 20)
#    0.857    1.143    1.429    1.714    4.000    2.857 
#    0.000    0.714    0.000    8.571    0.000    0.000 
#    0.000    0.000    0.000    0.000    0.000    0.000 
#
# Total GULP energy -155910.717140 kJ/mol
# GULP energy per Si atom -5568.239898 kJ/mol
# Density = 2.599772 g / cm^3
# Si number density = 26.057030 Si / 1000 Ang^3
#
#
#
# Elastic Constant Matrix: (Units=GPa)
#
#
# Indices 1 2 3 4 5 6 
#
# 1 154.5478 13.1098 36.9272 0.0000 16.5188 0.0000
# 2 13.1098 50.2449 31.5282 0.0000 -11.1955 0.0000
# 3 36.9272 31.5282 114.1402 0.0000 -9.3439 0.0000
# 4 0.0000 0.0000 0.0000 -21.1241 0.0000 -5.8754
# 5 16.5188 -11.1955 -9.3439 0.0000 68.0596 0.0000
# 6 0.0000 0.0000 0.0000 -5.8754 0.0000 19.0417
#
#
#
# Elastic Compliance Matrix: (Units=1/GPa)
#
#
# Indices 1 2 3 4 5 6 
#
# 1 0.007342 -0.000983 -0.002289 0.000000 -0.002258 0.000000
# 2 -0.000983 0.024864 -0.006266 0.000000 0.003468 0.000000
# 3 -0.002289 -0.006266 0.011321 0.000000 0.001079 0.000000
# 4 0.000000 0.000000 0.000000 -0.043598 0.000000 -0.013452
# 5 -0.002258 0.003468 0.001079 0.000000 0.015960 0.000000
# 6 0.000000 0.000000 0.000000 -0.013452 0.000000 0.048365
#
#
# Mechanical properties :
#
#
# Convention : Reuss Voigt Hill
#
# Bulk Modulus (GPa) = 40.89722 53.56258 47.22990
# Shear Modulus (GPa) = 54.65732 29.01998 41.83865
#
# Velocity S-wave (km/s) = 4.58493 3.34085 4.01141
# Velocity P-wave (km/s) = 6.61499 5.95670 6.29446
#
# Compressibility (1/GPa) = 0.02445154
#
# Stress axis : x y z
#
# Youngs Moduli (GPa) = 136.20203 40.21951 88.33308
#
# Poissons Ratio (x) = 0.03952 0.20217
# Poissons Ratio (y) = 0.13383 0.55350
# Poissons Ratio (z) = 0.31173 0.25202
#
# Static dielectric constant tensor:
#      x y z
#    x 2.017160 0.000000 0.115450 
#    y 0.000000 2.095250 0.000000 
#    z 0.115450 0.000000 1.947060 
# 
# From -- ./inp_files/33237.got.cif
#   From: 2010.05.17/outbox.cif.g08.bks.cpg/sg13_17_cif.got.tgz:33237.got - 2010.06.03 16:44:36.
