data_PCOD9233943
_publ_section_title
;
Structure prediction by ZEFSAII (Michael W. Deem and Ramdas Pophale) SiO2 
 PCOD9233943
Probable space group: P 2/C
;
_chemical_formula_sum "Si O2"
_cell_formula_units_Z 20
_cell_length_a 9.386679
_cell_length_b 5.182078
_cell_length_c 25.130502
_cell_angle_alpha 90.000000
_cell_angle_beta 134.659269
_cell_angle_gamma 90.000000
_cell_volume 869.499779
_symmetry_space_group_name_H-M "P 2/C"
_symmetry_group_IT_number 13
_symmetry_cell_setting 'monoclinic'
loop_
_space_group_symop_operation_xyz
x,y,z
-x,y,1/2-z
-x,-y,-z
x,-y,1/2+z
loop_
_atom_site_type_symbol
_atom_site_label
_atom_site_fract_x
_atom_site_fract_y
_atom_site_fract_z
Si Si1 0.790927 0.936788 0.668997
Si Si2 0.168025 0.744766 0.153866
Si Si3 0.502377 0.677964 0.051892
Si Si4 0.461733 0.246693 0.825739
Si Si5 0.091119 0.255596 0.402654
O O1 0.848617 0.705074 0.644419
O O2 0.000000 0.021468 0.750000
O O3 0.688198 0.127286 0.598814
O O4 0.627027 0.978852 0.672504
O O5 0.329241 0.775448 0.149164
O O6 0.297209 0.666558 0.239970
O O7 0.011018 0.516552 0.103550
O O8 0.062076 0.018204 0.135429
O O9 0.519132 0.576239 0.116652
O O10 0.500000 0.500000 0.000000
O O11 0.284010 0.806521 0.989477
#
# Coordination Sequence:
#
# PCOD9233943 Si02
#       5
#     4   4   4   4   4
#     4  10  21  45  68 101 136 187 237 282 343 416
#     4  11  25  49  71 103 142 182 237 287 354 417
#     4  10  23  41  70 105 144 177 237 287 352 411
#     4   9  24  46  69 104 140 188 232 291 348 421
#     4  12  24  44  73 103 139 182 230 291 350 417
#
# _framework density 23.001729000000001
#
# number of rings (size 3 to 8) (size 9 to 14) (size 15 to 20)
#    1.200    0.400    2.000    1.800    0.000    6.400 
#    3.600    0.000    0.000    0.000    0.000    0.000 
#    0.000    0.000    0.000    0.000    0.000    0.000 
#
# Total GULP energy -111434.557269 kJ/mol
# GULP energy per Si atom -5571.727863 kJ/mol
# Density = 2.294938 g / cm^3
# Si number density = 23.001729 Si / 1000 Ang^3
#
#
#
# Elastic Constant Matrix: (Units=GPa)
#
#
# Indices 1 2 3 4 5 6 
#
# 1 139.0973 28.0484 37.3232 0.0000 -5.5342 0.0000
# 2 28.0484 68.1434 24.0796 0.0000 8.2367 0.0000
# 3 37.3232 24.0796 111.1134 0.0000 6.9906 0.0000
# 4 0.0000 0.0000 0.0000 22.0524 0.0000 -9.2732
# 5 -5.5342 8.2367 6.9906 0.0000 32.8757 0.0000
# 6 0.0000 0.0000 0.0000 -9.2732 0.0000 6.0508
#
#
#
# Elastic Compliance Matrix: (Units=1/GPa)
#
#
# Indices 1 2 3 4 5 6 
#
# 1 0.008542 -0.002998 -0.002389 0.000000 0.002697 0.000000
# 2 -0.002998 0.017304 -0.002472 0.000000 -0.004314 0.000000
# 3 -0.002389 -0.002472 0.010464 0.000000 -0.002008 0.000000
# 4 0.000000 0.000000 0.000000 0.127539 0.000000 0.195460
# 5 0.002697 -0.004314 -0.002008 0.000000 0.032380 0.000000
# 6 0.000000 0.000000 0.000000 0.195460 0.000000 0.464820
#
#
# Mechanical properties :
#
#
# Convention : Reuss Voigt Hill
#
# Bulk Modulus (GPa) = 48.56035 55.25073 51.90554
# Shear Modulus (GPa) = 7.31390 27.45598 17.38494
#
# Velocity S-wave (km/s) = 1.78511 3.45867 2.75218
# Velocity P-wave (km/s) = 5.04046 6.32632 5.71964
#
# Compressibility (1/GPa) = 0.02059293
#
# Stress axis : x y z
#
# Youngs Moduli (GPa) = 117.06708 57.79128 95.56243
#
# Poissons Ratio (x) = 0.17324 0.22833
# Poissons Ratio (y) = 0.35093 0.23619
# Poissons Ratio (z) = 0.27972 0.14283
#
# Static dielectric constant tensor:
#      x y z
#    x 1.947880 0.000000 0.011730 
#    y 0.000000 1.934650 0.000000 
#    z 0.011730 0.000000 1.866310 
# 
# From -- ./inp_files/90900.got.cif
#   From: 2010.05.17/outbox.cif.g08.bks.cpg/sg13_46_cif.got.tgz:90900.got - 2010.06.03 16:44:36.
