data_PCOD9233155
_publ_section_title
;
Structure prediction by ZEFSAII (Michael W. Deem and Ramdas Pophale) SiO2 
 PCOD9233155
Probable space group: P 2/C
;
_chemical_formula_sum "Si O2"
_cell_formula_units_Z 26
_cell_length_a 12.343514
_cell_length_b 12.214465
_cell_length_c 8.758730
_cell_angle_alpha 90.000000
_cell_angle_beta 90.253967
_cell_angle_gamma 90.000000
_cell_volume 1320.535667
_symmetry_space_group_name_H-M "P 2/C"
_symmetry_group_IT_number 13
_symmetry_cell_setting 'monoclinic'
loop_
_space_group_symop_operation_xyz
x,y,z
-x,y,1/2-z
-x,-y,-z
x,-y,1/2+z
loop_
_atom_site_type_symbol
_atom_site_label
_atom_site_fract_x
_atom_site_fract_y
_atom_site_fract_z
Si Si1 0.886645 0.146745 0.983830
Si Si2 0.237881 0.463762 0.229603
Si Si3 0.500000 0.062881 0.250000
Si Si4 0.368219 0.889577 0.044167
Si Si5 0.394623 0.424381 0.974009
Si Si6 0.907419 0.597136 0.502992
Si Si7 0.500000 0.737808 0.250000
Si Si8 0.000000 0.013405 0.250000
O O1 0.757622 0.130148 0.985555
O O2 0.926779 0.273788 0.968256
O O3 0.934827 0.092144 0.136199
O O4 0.926713 0.068993 0.847552
O O5 0.314490 0.518436 0.354711
O O6 0.178187 0.552910 0.123058
O O7 0.146896 0.403011 0.328628
O O8 0.321262 0.399519 0.120803
O O9 0.429057 0.119984 0.381296
O O10 0.414376 0.995361 0.139869
O O11 0.405596 0.800082 0.164335
O O12 0.442231 0.323205 0.886627
O O13 0.500000 0.500000 0.000000
O O14 0.000000 0.500000 0.500000
#
# Coordination Sequence:
#
# PCOD9233155 Si02
#       8
#     4   4   2   4   4   4   2   2
#     4  11  24  45  68  93 133 167 223 271 333 390
#     4  10  23  39  62  93 122 180 210 258 333 380
#     4   9  20  40  65 100 130 166 213 272 325 406
#     4  10  21  39  67  93 131 166 213 265 334 385
#     4  11  20  39  58  84 134 165 211 254 304 389
#     4  11  25  42  67  96 132 170 220 275 330 398
#     4  11  22  36  57  98 124 170 211 258 315 396
#     4  10  26  46  68  96 118 174 220 280 324 378
#
# _framework density 19.688980000000001
#
# number of rings (size 3 to 8) (size 9 to 14) (size 15 to 20)
#    0.000    1.538    1.538    2.308    6.462    1.231 
#    0.000    1.538    0.000    0.000    0.000    0.000 
#    0.000    0.000    0.000    0.000    0.000    0.000 
#
# Total GULP energy -144758.479149 kJ/mol
# GULP energy per Si atom -5567.633813 kJ/mol
# Density = 1.964417 g / cm^3
# Si number density = 19.688980 Si / 1000 Ang^3
#
#
#
# Elastic Constant Matrix: (Units=GPa)
#
#
# Indices 1 2 3 4 5 6 
#
# 1 -64.5604 -56.4845 -161.5526 0.0000 -191.7713 0.0000
# 2 -56.4845 32.4831 -86.2946 0.0000 -98.0636 0.0000
# 3 -161.5526 -86.2946 -108.9532 0.0000 -201.2327 0.0000
# 4 0.0000 0.0000 0.0000 26.5211 0.0000 -5.7749
# 5 -191.7713 -98.0636 -201.2327 0.0000 -157.2587 0.0000
# 6 0.0000 0.0000 0.0000 -5.7749 0.0000 4.6420
#
#
#
# Elastic Compliance Matrix: (Units=1/GPa)
#
#
# Indices 1 2 3 4 5 6 
#
# 1 0.009822 -0.004832 -0.004269 0.000000 -0.003502 0.000000
# 2 -0.004832 0.014383 -0.001067 0.000000 -0.001711 0.000000
# 3 -0.004269 -0.001067 0.009423 0.000000 -0.006186 0.000000
# 4 0.000000 0.000000 0.000000 0.051715 0.000000 0.064336
# 5 -0.003502 -0.001711 -0.006186 0.000000 0.006894 0.000000
# 6 0.000000 0.000000 0.000000 0.064336 0.000000 0.295461
#
#
# Mechanical properties :
#
#
# Convention : Reuss Voigt Hill
#
# Bulk Modulus (GPa) = 75.23769 -83.29932 -4.03082
# Shear Modulus (GPa) = 12.12226 -14.33236 -1.10505
#
# Velocity S-wave (km/s) = 2.48400 -2.70096 -0.74998
# Velocity P-wave (km/s) = 6.82078 7.21986 1.67381
#
# Compressibility (1/GPa) = 0.01329121
#
# Stress axis : x y z
#
# Youngs Moduli (GPa) = 101.81276 69.52592 106.12789
#
# Poissons Ratio (x) = 0.33598 0.45303
# Poissons Ratio (y) = 0.49200 0.11325
# Poissons Ratio (z) = 0.43461 0.07419
#
# Static dielectric constant tensor:
#      x y z
#    x 1.683000 0.000000 -0.047460 
#    y 0.000000 1.747540 0.000000 
#    z -0.047460 0.000000 1.676080 
# 
# From -- ./inp_files/15942.got.cif
#   From: 2010.05.17/outbox.cif.g08.bks.cpg/sg13_8_cif.got.tgz:15942.got - 2010.06.03 16:44:36.
