data_PCOD9233858
_publ_section_title
;
Structure prediction by ZEFSAII (Michael W. Deem and Ramdas Pophale) SiO2 
 PCOD9233858
Probable space group: P 2/C
;
_chemical_formula_sum "Si O2"
_cell_formula_units_Z 22
_cell_length_a 16.083807
_cell_length_b 10.008075
_cell_length_c 8.081536
_cell_angle_alpha 90.000000
_cell_angle_beta 52.030482
_cell_angle_gamma 90.000000
_cell_volume 1025.524115
_symmetry_space_group_name_H-M "P 2/C"
_symmetry_group_IT_number 13
_symmetry_cell_setting 'monoclinic'
loop_
_space_group_symop_operation_xyz
x,y,z
-x,y,1/2-z
-x,-y,-z
x,-y,1/2+z
loop_
_atom_site_type_symbol
_atom_site_label
_atom_site_fract_x
_atom_site_fract_y
_atom_site_fract_z
Si Si1 0.220351 0.438077 0.261340
Si Si2 0.500000 0.722895 0.250000
Si Si3 0.710444 0.156761 0.362222
Si Si4 0.261758 0.138977 0.563387
Si Si5 0.108362 0.642780 0.214613
Si Si6 0.584545 0.638306 0.496608
O O1 0.225081 0.292187 0.171688
O O2 0.121149 0.529313 0.334831
O O3 0.200305 0.406411 0.476762
O O4 0.328692 0.519473 0.106038
O O5 0.403474 0.814630 0.423775
O O6 0.533171 0.643620 0.376434
O O7 0.706811 0.148192 0.167998
O O8 0.749467 0.014847 0.376597
O O9 0.151136 0.215942 0.724854
O O10 0.349149 0.223664 0.557562
O O11 0.000000 0.653323 0.250000
O O12 0.500000 0.630622 0.750000
#
# Coordination Sequence:
#
# PCOD9233858 Si02
#       6
#     4   2   4   4   4   4
#     4  10  23  41  63  98 131 163 217 277 324 390
#     4  12  24  36  68  94 130 188 220 254 326 396
#     4  11  23  39  60  92 131 176 219 263 323 382
#     4  10  23  42  61  92 134 169 222 277 316 388
#     4  10  21  43  69  93 124 169 216 277 338 391
#     4  11  23  42  65  97 137 177 221 267 324 386
#
# _framework density 21.452445999999998
#
# number of rings (size 3 to 8) (size 9 to 14) (size 15 to 20)
#    0.000    1.455    1.818    2.727    2.545    3.636 
#    0.000    4.545    0.000    0.000    0.000    0.000 
#    0.000    0.000    0.000    0.000    0.000    0.000 
#
# Total GULP energy -122899.025885 kJ/mol
# GULP energy per Si atom -5586.319358 kJ/mol
# Density = 2.140362 g / cm^3
# Si number density = 21.452446 Si / 1000 Ang^3
#
#
#
# Elastic Constant Matrix: (Units=GPa)
#
#
# Indices 1 2 3 4 5 6 
#
# 1 139.0167 73.8382 28.1735 0.0000 1.4611 0.0000
# 2 73.8382 185.8281 23.7850 0.0000 1.0679 0.0000
# 3 28.1735 23.7850 56.8799 0.0000 10.2914 0.0000
# 4 0.0000 0.0000 0.0000 22.0817 0.0000 9.7391
# 5 1.4611 1.0679 10.2914 0.0000 27.3333 0.0000
# 6 0.0000 0.0000 0.0000 9.7391 0.0000 24.3788
#
#
#
# Elastic Compliance Matrix: (Units=1/GPa)
#
#
# Indices 1 2 3 4 5 6 
#
# 1 0.009716 -0.003411 -0.003559 0.000000 0.000954 0.000000
# 2 -0.003411 0.006896 -0.001265 0.000000 0.000389 0.000000
# 3 -0.003559 -0.001265 0.021279 0.000000 -0.007772 0.000000
# 4 0.000000 0.000000 0.000000 0.054972 0.000000 -0.021961
# 5 0.000954 0.000389 -0.007772 0.000000 0.039446 0.000000
# 6 0.000000 0.000000 0.000000 -0.021961 0.000000 0.049793
#
#
# Mechanical properties :
#
#
# Convention : Reuss Voigt Hill
#
# Bulk Modulus (GPa) = 46.68009 70.36866 58.52438
# Shear Modulus (GPa) = 24.30592 31.82061 28.06326
#
# Velocity S-wave (km/s) = 3.36968 3.85555 3.62078
# Velocity P-wave (km/s) = 6.07838 7.25905 6.69479
#
# Compressibility (1/GPa) = 0.02142241
#
# Stress axis : x y z
#
# Youngs Moduli (GPa) = 102.92121 145.00791 46.99515
#
# Poissons Ratio (x) = 0.49457 0.16725
# Poissons Ratio (y) = 0.35103 0.05944
# Poissons Ratio (z) = 0.36629 0.18340
#
# Static dielectric constant tensor:
#      x y z
#    x 1.787680 0.000000 0.020730 
#    y 0.000000 1.876040 0.000000 
#    z 0.020730 0.000000 1.798000 
# 
# From -- ./inp_files/21055.got.cif
#   From: 2010.05.17/outbox.cif.g08.bks.cpg/sg13_11_cif.got.tgz:21055.got - 2010.06.03 16:44:36.
