data_PCOD9233693
_publ_section_title
;
Structure prediction by ZEFSAII (Michael W. Deem and Ramdas Pophale) SiO2 
 PCOD9233693
Probable space group: P 2/C
;
_chemical_formula_sum "Si O2"
_cell_formula_units_Z 16
_cell_length_a 10.242867
_cell_length_b 12.003159
_cell_length_c 13.284362
_cell_angle_alpha 90.000000
_cell_angle_beta 25.322412
_cell_angle_gamma 90.000000
_cell_volume 698.568013
_symmetry_space_group_name_H-M "P 2/C"
_symmetry_group_IT_number 13
_symmetry_cell_setting 'monoclinic'
loop_
_space_group_symop_operation_xyz
x,y,z
-x,y,1/2-z
-x,-y,-z
x,-y,1/2+z
loop_
_atom_site_type_symbol
_atom_site_label
_atom_site_fract_x
_atom_site_fract_y
_atom_site_fract_z
Si Si1 0.435845 0.583660 0.636972
Si Si2 0.189522 0.405054 0.015738
Si Si3 0.332291 0.171328 0.564972
Si Si4 0.343007 0.044207 0.754653
O O1 0.500000 0.500000 0.500000
O O2 0.675450 0.526657 0.547251
O O3 0.521396 0.711011 0.561171
O O4 0.066482 0.590173 0.892391
O O5 0.500000 0.351129 0.750000
O O6 0.000000 0.363487 0.250000
O O7 0.347067 0.144846 0.672912
O O8 0.000000 0.176024 0.750000
O O9 0.481457 0.063331 0.410256
O O10 0.500000 0.074372 0.750000
O O11 0.000000 0.000000 0.000000
#
# Coordination Sequence:
#
# PCOD9233693 Si02
#       4
#     4   4   4   4
#     4  10  22  44  67 102 144 189 236 295 363 443
#     4  10  21  42  66  97 148 188 238 292 352 435
#     4  11  23  44  76 101 143 189 240 302 370 443
#     4  11  24  48  71 106 137 182 245 306 372 435
#
# _framework density 22.903998000000001
#
# number of rings (size 3 to 8) (size 9 to 14) (size 15 to 20)
#    0.000    1.500    2.500    3.000    0.000    1.000 
#   31.500    0.000    0.000    0.000    0.000    0.000 
#    0.000    0.000    0.000    0.000    0.000    0.000 
#
# Total GULP energy -89157.046331 kJ/mol
# GULP energy per Si atom -5572.315396 kJ/mol
# Density = 2.285187 g / cm^3
# Si number density = 22.903998 Si / 1000 Ang^3
#
#
#
# Elastic Constant Matrix: (Units=GPa)
#
#
# Indices 1 2 3 4 5 6 
#
# 1 170.8524 67.2445 67.6267 0.0000 -35.0910 0.0000
# 2 67.2445 102.7833 18.9672 0.0000 -14.8745 0.0000
# 3 67.6267 18.9672 149.1474 0.0000 -35.3712 0.0000
# 4 0.0000 0.0000 0.0000 14.1305 0.0000 -1.7801
# 5 -35.0910 -14.8745 -35.3712 0.0000 59.7445 0.0000
# 6 0.0000 0.0000 0.0000 -1.7801 0.0000 19.2056
#
#
#
# Elastic Compliance Matrix: (Units=1/GPa)
#
#
# Indices 1 2 3 4 5 6 
#
# 1 0.009750 -0.005436 -0.003132 0.000000 0.002519 0.000000
# 2 -0.005436 0.013207 0.000940 0.000000 0.000652 0.000000
# 3 -0.003132 0.000940 0.008870 0.000000 0.003646 0.000000
# 4 0.000000 0.000000 0.000000 0.071605 0.000000 0.006637
# 5 0.002519 0.000652 0.003646 0.000000 0.020538 0.000000
# 6 0.000000 0.000000 0.000000 0.006637 0.000000 0.052683
#
#
# Mechanical properties :
#
#
# Convention : Reuss Voigt Hill
#
# Bulk Modulus (GPa) = 60.35121 81.16219 70.75670
# Shear Modulus (GPa) = 25.32518 36.54577 30.93548
#
# Velocity S-wave (km/s) = 3.32883 3.99884 3.67912
# Velocity P-wave (km/s) = 6.41729 7.53881 7.00055
#
# Compressibility (1/GPa) = 0.01656968
#
# Stress axis : x y z
#
# Youngs Moduli (GPa) = 102.56873 75.72024 112.73943
#
# Poissons Ratio (x) = 0.41162 0.35310
# Poissons Ratio (y) = 0.55757 -0.10596
# Poissons Ratio (z) = 0.32125 -0.07117
#
# Static dielectric constant tensor:
#      x y z
#    x 2.050990 0.000000 0.087360 
#    y 0.000000 1.929880 0.000000 
#    z 0.087360 0.000000 1.942670 
# 
# From -- ./inp_files/51032.got.cif
#   From: 2010.05.17/outbox.cif.g08.bks.cpg/sg13_26_cif.got.tgz:51032.got - 2010.06.03 16:44:36.
