data_PCOD9233295
_publ_section_title
;
Structure prediction by ZEFSAII (Michael W. Deem and Ramdas Pophale) SiO2 
 PCOD9233295
Probable space group: P 2/C
;
_chemical_formula_sum "Si O2"
_cell_formula_units_Z 26
_cell_length_a 7.933238
_cell_length_b 21.728966
_cell_length_c 8.951200
_cell_angle_alpha 90.000000
_cell_angle_beta 130.328438
_cell_angle_gamma 90.000000
_cell_volume 1176.314959
_symmetry_space_group_name_H-M "P 2/C"
_symmetry_group_IT_number 13
_symmetry_cell_setting 'monoclinic'
loop_
_space_group_symop_operation_xyz
x,y,z
-x,y,1/2-z
-x,-y,-z
x,-y,1/2+z
loop_
_atom_site_type_symbol
_atom_site_label
_atom_site_fract_x
_atom_site_fract_y
_atom_site_fract_z
Si Si1 0.866508 0.288928 0.331719
Si Si2 0.182499 0.054138 0.730299
Si Si3 0.559322 0.799130 0.533567
Si Si4 0.239973 0.577899 0.635060
Si Si5 0.166835 0.816991 0.111430
Si Si6 0.623376 0.070060 0.167379
Si Si7 0.000000 0.495329 0.250000
O O1 0.623817 0.263781 0.149320
O O2 0.854692 0.353055 0.408819
O O3 0.000000 0.295674 0.250000
O O4 0.976138 0.233352 0.488255
O O5 0.138498 0.108844 0.588029
O O6 0.000000 0.068113 0.750000
O O7 0.181793 0.980020 0.714356
O O8 0.440022 0.061420 0.930829
O O9 0.304897 0.807317 0.343614
O O10 0.686821 0.801423 0.449405
O O11 0.661267 0.857223 0.680714
O O12 0.500000 0.579172 0.750000
O O13 0.171756 0.546085 0.753401
O O14 0.125458 0.538066 0.440344
O O15 0.500000 0.057132 0.250000
#
# Coordination Sequence:
#
# PCOD9233295 Si02
#       7
#     4   4   4   4   4   4   2
#     4  10  21  40  64  93 127 170 213 260 317 385
#     4  10  23  38  56  80 110 154 203 260 323 383
#     4   9  20  39  60  86 119 163 206 264 324 381
#     4  11  23  44  72 105 142 182 223 271 324 383
#     4   9  20  39  61  83 121 161 209 259 318 387
#     4  10  23  38  56  81 113 147 204 268 322 382
#     4  10  24  46  72 104 146 180 224 270 318 386
#
# _framework density 22.102923000000001
#
# number of rings (size 3 to 8) (size 9 to 14) (size 15 to 20)
#    0.000    2.154    0.769    0.462    8.615    4.308 
#    4.154    0.000    0.000    0.000    0.000    0.000 
#    0.000    0.000    0.000    0.000    0.000    0.000 
#
# Total GULP energy -145039.447133 kJ/mol
# GULP energy per Si atom -5578.440274 kJ/mol
# Density = 2.205262 g / cm^3
# Si number density = 22.102923 Si / 1000 Ang^3
#
#
#
# Elastic Constant Matrix: (Units=GPa)
#
#
# Indices 1 2 3 4 5 6 
#
# 1 73.4898 38.2464 27.5663 0.0000 -0.7578 0.0000
# 2 38.2464 159.0998 63.4129 0.0000 11.9522 0.0000
# 3 27.5663 63.4129 69.6023 0.0000 7.6540 0.0000
# 4 0.0000 0.0000 0.0000 22.1822 0.0000 5.6413
# 5 -0.7578 11.9522 7.6540 0.0000 27.2121 0.0000
# 6 0.0000 0.0000 0.0000 5.6413 0.0000 26.7504
#
#
#
# Elastic Compliance Matrix: (Units=1/GPa)
#
#
# Indices 1 2 3 4 5 6 
#
# 1 0.016634 -0.002294 -0.004808 0.000000 0.002823 0.000000
# 2 -0.002294 0.010278 -0.008206 0.000000 -0.002270 0.000000
# 3 -0.004808 -0.008206 0.024112 0.000000 -0.003312 0.000000
# 4 0.000000 0.000000 0.000000 0.047636 0.000000 -0.010046
# 5 0.002823 -0.002270 -0.003312 0.000000 0.038756 0.000000
# 6 0.000000 0.000000 0.000000 -0.010046 0.000000 0.039501
#
#
# Mechanical properties :
#
#
# Convention : Reuss Voigt Hill
#
# Bulk Modulus (GPa) = 49.00162 62.29368 55.64765
# Shear Modulus (GPa) = 23.32789 26.76001 25.04395
#
# Velocity S-wave (km/s) = 3.25225 3.48329 3.36975
# Velocity P-wave (km/s) = 6.02667 6.66501 6.35386
#
# Compressibility (1/GPa) = 0.02040749
#
# Stress axis : x y z
#
# Youngs Moduli (GPa) = 60.11752 97.29461 41.47342
#
# Poissons Ratio (x) = 0.22324 0.19941
# Poissons Ratio (y) = 0.13794 0.34032
# Poissons Ratio (z) = 0.28905 0.79837
#
# Static dielectric constant tensor:
#      x y z
#    x 1.821710 0.000000 0.017060 
#    y 0.000000 1.818890 0.000000 
#    z 0.017060 0.000000 1.883830 
# 
# From -- ./inp_files/13662.got.cif
#   From: 2010.05.17/outbox.cif.g08.bks.cpg/sg13_7_cif.got.tgz:13662.got - 2010.06.03 16:44:36.
