data_PCOD9233679
_publ_section_title
;
Structure prediction by ZEFSAII (Michael W. Deem and Ramdas Pophale) SiO2 
 PCOD9233679
Probable space group: P 2/C
;
_chemical_formula_sum "Si O2"
_cell_formula_units_Z 24
_cell_length_a 9.930738
_cell_length_b 10.961950
_cell_length_c 10.832146
_cell_angle_alpha 90.000000
_cell_angle_beta 101.547228
_cell_angle_gamma 90.000000
_cell_volume 1155.323392
_symmetry_space_group_name_H-M "P 2/C"
_symmetry_group_IT_number 13
_symmetry_cell_setting 'monoclinic'
loop_
_space_group_symop_operation_xyz
x,y,z
-x,y,1/2-z
-x,-y,-z
x,-y,1/2+z
loop_
_atom_site_type_symbol
_atom_site_label
_atom_site_fract_x
_atom_site_fract_y
_atom_site_fract_z
Si Si1 0.021182 0.693916 0.565288
Si Si2 0.777973 0.857881 0.549965
Si Si3 0.119025 0.454010 0.673448
Si Si4 0.491423 0.093209 0.383580
Si Si5 0.335476 0.743080 0.225604
Si Si6 0.763649 0.145817 0.538277
O O1 0.113297 0.600055 0.660296
O O2 0.114159 0.772817 0.490448
O O3 0.915442 0.786310 0.609861
O O4 0.925329 0.605718 0.464588
O O5 0.654007 0.842110 0.624430
O O6 0.720873 0.806012 0.409460
O O7 0.802263 0.002809 0.540198
O O8 0.262415 0.388845 0.729707
O O9 0.000000 0.420952 0.750000
O O10 0.500000 0.034940 0.250000
O O11 0.628909 0.170064 0.429431
O O12 0.500000 0.000000 0.500000
O O13 0.500000 0.735104 0.250000
O O14 0.281667 0.821130 0.331710
#
# Coordination Sequence:
#
# PCOD9233679 Si02
#       6
#     4   4   4   4   4   4
#     4  10  22  42  60  96 124 173 222 276 329 393
#     4  10  23  36  65  97 136 171 216 265 342 403
#     4  10  21  42  66  84 125 174 226 275 330 386
#     4  10  23  38  61  94 138 177 213 261 326 393
#     4  11  22  41  66  97 127 181 220 277 331 406
#     4  11  22  37  67  94 139 167 219 270 343 398
#
# _framework density 20.773405
#
# number of rings (size 3 to 8) (size 9 to 14) (size 15 to 20)
#    0.000    1.667    3.333    0.500    9.333    1.333 
#    0.000    3.333    0.000    0.000    0.000    0.000 
#    0.000    0.000    0.000    0.000    0.000    0.000 
#
# Total GULP energy -133964.908519 kJ/mol
# GULP energy per Si atom -5581.871188 kJ/mol
# Density = 2.072612 g / cm^3
# Si number density = 20.773405 Si / 1000 Ang^3
#
#
#
# Elastic Constant Matrix: (Units=GPa)
#
#
# Indices 1 2 3 4 5 6 
#
# 1 129.5348 83.4403 38.0027 0.0000 -13.0733 0.0000
# 2 83.4403 137.8700 32.2957 0.0000 -5.2623 0.0000
# 3 38.0027 32.2957 102.1937 0.0000 -12.1861 0.0000
# 4 0.0000 0.0000 0.0000 18.9547 0.0000 3.8125
# 5 -13.0733 -5.2623 -12.1861 0.0000 21.3284 0.0000
# 6 0.0000 0.0000 0.0000 3.8125 0.0000 22.1015
#
#
#
# Elastic Compliance Matrix: (Units=1/GPa)
#
#
# Indices 1 2 3 4 5 6 
#
# 1 0.013810 -0.007668 -0.002070 0.000000 0.005391 0.000000
# 2 -0.007668 0.012096 -0.001262 0.000000 -0.002436 0.000000
# 3 -0.002070 -0.001262 0.011552 0.000000 0.005021 0.000000
# 4 0.000000 0.000000 0.000000 0.054653 0.000000 -0.009428
# 5 0.005391 -0.002436 0.005021 0.000000 0.052457 0.000000
# 6 0.000000 0.000000 0.000000 -0.009428 0.000000 0.046872
#
#
# Mechanical properties :
#
#
# Convention : Reuss Voigt Hill
#
# Bulk Modulus (GPa) = 64.67989 75.23067 69.95528
# Shear Modulus (GPa) = 22.87348 26.86759 24.87054
#
# Velocity S-wave (km/s) = 3.32187 3.60024 3.46385
# Velocity P-wave (km/s) = 6.77618 7.31955 7.05310
#
# Compressibility (1/GPa) = 0.01546075
#
# Stress axis : x y z
#
# Youngs Moduli (GPa) = 72.41004 82.67008 86.56162
#
# Poissons Ratio (x) = 0.63387 0.17915
# Poissons Ratio (y) = 0.55521 0.10923
# Poissons Ratio (z) = 0.14986 0.10432
#
# Static dielectric constant tensor:
#      x y z
#    x 1.770650 0.000000 0.023840 
#    y 0.000000 1.774020 0.000000 
#    z 0.023840 0.000000 1.778970 
# 
# From -- ./inp_files/29440.got.cif
#   From: 2010.05.17/outbox.cif.g08.bks.cpg/sg13_15_cif.got.tgz:29440.got - 2010.06.03 16:44:36.
