data_PCOD9233972
_publ_section_title
;
Structure prediction by ZEFSAII (Michael W. Deem and Ramdas Pophale) SiO2 
 PCOD9233972
Probable space group: P 2/C
;
_chemical_formula_sum "Si O2"
_cell_formula_units_Z 26
_cell_length_a 20.180112
_cell_length_b 5.109778
_cell_length_c 21.323194
_cell_angle_alpha 90.000000
_cell_angle_beta 27.515012
_cell_angle_gamma 90.000000
_cell_volume 1015.785430
_symmetry_space_group_name_H-M "P 2/C"
_symmetry_group_IT_number 13
_symmetry_cell_setting 'monoclinic'
loop_
_space_group_symop_operation_xyz
x,y,z
-x,y,1/2-z
-x,-y,-z
x,-y,1/2+z
loop_
_atom_site_type_symbol
_atom_site_label
_atom_site_fract_x
_atom_site_fract_y
_atom_site_fract_z
Si Si1 0.222711 0.462319 0.795235
Si Si2 0.445428 0.997606 0.732403
Si Si3 0.173890 0.349693 0.975631
Si Si4 0.720164 0.644586 0.988239
Si Si5 0.394560 0.045552 0.144772
Si Si6 0.896139 0.577405 0.235091
Si Si7 0.000000 0.021453 0.750000
O O1 0.163609 0.480763 0.915392
O O2 0.345287 0.247199 0.700832
O O3 0.137903 0.343085 0.807241
O O4 0.272450 0.746525 0.730596
O O5 0.500000 0.865801 0.750000
O O6 0.282563 0.104208 0.877178
O O7 0.564380 0.227142 0.622937
O O8 0.453880 0.840830 0.660639
O O9 0.249186 0.498061 0.971002
O O10 0.007281 0.335184 0.134894
O O11 0.756529 0.492750 0.893795
O O12 0.850602 0.859428 0.879805
O O13 0.500000 0.000000 0.000000
O O14 0.976981 0.789323 0.209504
#
# Coordination Sequence:
#
# PCOD9233972 Si02
#       7
#     4   4   4   4   4   4   2
#     4  11  27  43  72 106 145 193 241 303 371 434
#     4   9  22  42  72  99 137 190 231 299 368 421
#     4  10  21  47  65 101 143 179 237 295 361 427
#     4  11  22  46  68  99 142 182 243 298 359 435
#     4  11  24  48  68 105 148 191 245 299 360 445
#     4  12  24  44  70 105 134 195 238 298 364 430
#     4  12  24  40  74 102 138 176 254 302 354 438
#
# _framework density 25.595956000000001
#
# number of rings (size 3 to 8) (size 9 to 14) (size 15 to 20)
#    0.000    1.231    3.077    1.846    4.308    4.923 
#    0.000    7.692    0.000    0.000    0.000    0.000 
#    0.000    0.000    0.000    0.000    0.000    0.000 
#
# Total GULP energy -145087.433023 kJ/mol
# GULP energy per Si atom -5580.285885 kJ/mol
# Density = 2.553770 g / cm^3
# Si number density = 25.595956 Si / 1000 Ang^3
#
#
#
# Elastic Constant Matrix: (Units=GPa)
#
#
# Indices 1 2 3 4 5 6 
#
# 1 174.5645 16.1277 36.7828 0.0000 26.7215 0.0000
# 2 16.1277 67.6374 30.9819 0.0000 3.8569 0.0000
# 3 36.7828 30.9819 124.1034 0.0000 34.0323 0.0000
# 4 0.0000 0.0000 0.0000 645.1313 0.0000 -174.7615
# 5 26.7215 3.8569 34.0323 0.0000 32.2680 0.0000
# 6 0.0000 0.0000 0.0000 -174.7615 0.0000 76.8611
#
#
#
# Elastic Compliance Matrix: (Units=1/GPa)
#
#
# Indices 1 2 3 4 5 6 
#
# 1 0.006676 -0.001167 -0.000295 0.000000 -0.005078 0.000000
# 2 -0.001167 0.017163 -0.005123 0.000000 0.004318 0.000000
# 3 -0.000295 -0.005123 0.012928 0.000000 -0.012779 0.000000
# 4 0.000000 0.000000 0.000000 0.004036 0.000000 0.009177
# 5 -0.005078 0.004318 -0.012779 0.000000 0.048157 0.000000
# 6 0.000000 0.000000 0.000000 0.009177 0.000000 0.033876
#
#
# Mechanical properties :
#
#
# Convention : Reuss Voigt Hill
#
# Bulk Modulus (GPa) = 42.37701 59.34334 50.86018
# Shear Modulus (GPa) = 34.75304 169.67960 102.21632
#
# Velocity S-wave (km/s) = 3.68877 8.15080 6.32624
# Velocity P-wave (km/s) = 5.89362 10.57429 8.56009
#
# Compressibility (1/GPa) = 0.02359770
#
# Stress axis : x y z
#
# Youngs Moduli (GPa) = 149.79508 58.26346 77.34934
#
# Poissons Ratio (x) = 0.06801 0.02280
# Poissons Ratio (y) = 0.17484 0.39626
# Poissons Ratio (z) = 0.04415 0.29848
#
# Static dielectric constant tensor:
#      x y z
#    x 2.135540 0.000000 0.068750 
#    y 0.000000 2.062460 0.000000 
#    z 0.068750 0.000000 2.049490 
# 
# From -- ./inp_files/81362.got.cif
#   From: 2010.05.17/outbox.cif.g08.bks.cpg/sg13_41_cif.got.tgz:81362.got - 2010.06.03 16:44:36.
