data_PCOD9233776
_publ_section_title
;
Structure prediction by ZEFSAII (Michael W. Deem and Ramdas Pophale) SiO2 
 PCOD9233776
Probable space group: P 2/C
;
_chemical_formula_sum "Si O2"
_cell_formula_units_Z 20
_cell_length_a 5.188020
_cell_length_b 9.439674
_cell_length_c 16.996509
_cell_angle_alpha 90.000000
_cell_angle_beta 104.728448
_cell_angle_gamma 90.000000
_cell_volume 805.023296
_symmetry_space_group_name_H-M "P 2/C"
_symmetry_group_IT_number 13
_symmetry_cell_setting 'monoclinic'
loop_
_space_group_symop_operation_xyz
x,y,z
-x,y,1/2-z
-x,-y,-z
x,-y,1/2+z
loop_
_atom_site_type_symbol
_atom_site_label
_atom_site_fract_x
_atom_site_fract_y
_atom_site_fract_z
Si Si1 0.909460 0.860327 0.033317
Si Si2 0.665130 0.564421 0.139709
Si Si3 0.000000 0.665398 0.750000
Si Si4 0.751224 0.405444 0.462495
Si Si5 0.514207 0.141631 0.865054
Si Si6 0.500000 0.872657 0.750000
O O1 0.663492 0.888149 0.071694
O O2 0.180133 0.807528 0.097907
O O3 0.833731 0.754592 0.957577
O O4 0.000000 0.000000 0.000000
O O5 0.405363 0.466520 0.122999
O O6 0.640464 0.716390 0.180158
O O7 0.891484 0.451118 0.177800
O O8 0.636396 0.603404 0.043959
O O9 0.756668 0.771059 0.754973
O O10 0.000000 0.500000 0.500000
O O11 0.524193 0.991910 0.821190
#
# Coordination Sequence:
#
# PCOD9233776 Si02
#       6
#     4   4   2   4   4   2
#     4  11  24  41  73 110 142 189 234 304 371 433
#     4  10  25  46  73 107 142 195 246 305 370 444
#     4  12  30  48  76 108 146 200 254 316 370 436
#     4  10  21  42  73 106 145 180 248 308 368 438
#     4  11  25  48  72 101 146 197 242 290 371 442
#     4  12  30  50  70 108 154 200 248 308 370 448
#
# _framework density 24.844002
#
# number of rings (size 3 to 8) (size 9 to 14) (size 15 to 20)
#    0.000    1.200    2.000    1.800    5.600    6.400 
#    0.000    0.000    0.000    0.000    0.000    0.000 
#    0.000    0.000    0.000    0.000    0.000    0.000 
#
# Total GULP energy -111420.354063 kJ/mol
# GULP energy per Si atom -5571.017703 kJ/mol
# Density = 2.478746 g / cm^3
# Si number density = 24.844002 Si / 1000 Ang^3
#
#
#
# Elastic Constant Matrix: (Units=GPa)
#
#
# Indices 1 2 3 4 5 6 
#
# 1 116.1946 27.9041 21.3920 0.0000 6.6611 0.0000
# 2 27.9041 220.1570 45.7468 0.0000 4.6089 0.0000
# 3 21.3920 45.7468 36.0519 0.0000 6.2870 0.0000
# 4 0.0000 0.0000 0.0000 46.2498 0.0000 5.4780
# 5 6.6611 4.6089 6.2870 0.0000 30.1380 0.0000
# 6 0.0000 0.0000 0.0000 5.4780 0.0000 39.0885
#
#
#
# Elastic Compliance Matrix: (Units=1/GPa)
#
#
# Indices 1 2 3 4 5 6 
#
# 1 0.009690 -0.000066 -0.005494 0.000000 -0.000985 0.000000
# 2 -0.000066 0.006184 -0.007934 0.000000 0.000724 0.000000
# 3 -0.005494 -0.007934 0.042177 0.000000 -0.006371 0.000000
# 4 0.000000 0.000000 0.000000 0.021987 0.000000 -0.003081
# 5 -0.000985 0.000724 -0.006371 0.000000 0.034617 0.000000
# 6 0.000000 0.000000 0.000000 -0.003081 0.000000 0.026015
#
#
# Mechanical properties :
#
#
# Convention : Reuss Voigt Hill
#
# Bulk Modulus (GPa) = 32.19361 62.49883 47.34622
# Shear Modulus (GPa) = 28.08797 41.58597 34.83697
#
# Velocity S-wave (km/s) = 3.36605 4.09575 3.74870
# Velocity P-wave (km/s) = 5.30033 6.89768 6.15108
#
# Compressibility (1/GPa) = 0.03106207
#
# Stress axis : x y z
#
# Youngs Moduli (GPa) = 103.19810 161.70560 23.70971
#
# Poissons Ratio (x) = 0.01065 0.13027
# Poissons Ratio (y) = 0.00680 0.18812
# Poissons Ratio (z) = 0.56701 1.28301
#
# Static dielectric constant tensor:
#      x y z
#    x 2.424810 0.000000 0.023580 
#    y 0.000000 2.358600 0.000000 
#    z 0.023580 0.000000 2.142470 
# 
# From -- ./inp_files/72871.got.cif
#   From: 2010.05.17/outbox.cif.g08.bks.cpg/sg13_37_cif.got.tgz:72871.got - 2010.06.03 16:44:36.
