data_PCOD9233487
_publ_section_title
;
Structure prediction by ZEFSAII (Michael W. Deem and Ramdas Pophale) SiO2 
 PCOD9233487
Probable space group: P 2/C
;
_chemical_formula_sum "Si O2"
_cell_formula_units_Z 24
_cell_length_a 14.429286
_cell_length_b 7.967178
_cell_length_c 14.745613
_cell_angle_alpha 90.000000
_cell_angle_beta 139.571967
_cell_angle_gamma 90.000000
_cell_volume 1099.302201
_symmetry_space_group_name_H-M "P 2/C"
_symmetry_group_IT_number 13
_symmetry_cell_setting 'monoclinic'
loop_
_space_group_symop_operation_xyz
x,y,z
-x,y,1/2-z
-x,-y,-z
x,-y,1/2+z
loop_
_atom_site_type_symbol
_atom_site_label
_atom_site_fract_x
_atom_site_fract_y
_atom_site_fract_z
Si Si1 0.338256 0.941255 0.146922
Si Si2 0.346529 0.669455 0.597305
Si Si3 0.160525 0.443380 0.109200
Si Si4 0.664023 0.477820 0.597518
Si Si5 0.849928 0.053673 0.342037
Si Si6 0.837803 0.790444 0.645902
O O1 0.500000 0.878250 0.250000
O O2 0.338059 0.136653 0.117782
O O3 0.275429 0.947704 0.202203
O O4 0.229037 0.852093 0.997825
O O5 0.500000 0.608510 0.750000
O O6 0.226380 0.559867 0.558344
O O7 0.330549 0.655977 0.478376
O O8 0.252444 0.552654 0.247395
O O9 0.170503 0.249168 0.146784
O O10 0.000000 0.500000 0.000000
O O11 0.500000 0.500000 0.500000
O O12 0.735859 0.644454 0.608165
O O13 0.847334 0.063290 0.230699
O O14 0.000000 0.000000 0.500000
O O15 0.000000 0.730687 0.750000
#
# Coordination Sequence:
#
# PCOD9233487 Si02
#       6
#     4   4   4   4   4   4
#     4  10  23  43  64  94 126 168 214 260 319 377
#     4  10  21  41  65  86 127 167 205 260 314 375
#     4  10  23  39  61  91 121 161 207 257 313 369
#     4  11  24  43  62  91 127 166 210 260 315 374
#     4  10  21  41  64  86 130 165 204 261 317 373
#     4  11  24  42  66  96 130 166 209 265 319 376
#
# _framework density 21.832032000000002
#
# number of rings (size 3 to 8) (size 9 to 14) (size 15 to 20)
#    0.000    1.667    3.333    0.000    7.000    2.667 
#    3.000    0.000    0.000    0.000    0.000    0.000 
#    0.000    0.000    0.000    0.000    0.000    0.000 
#
# Total GULP energy -134060.868723 kJ/mol
# GULP energy per Si atom -5585.869530 kJ/mol
# Density = 2.178234 g / cm^3
# Si number density = 21.832032 Si / 1000 Ang^3
#
#
#
# Elastic Constant Matrix: (Units=GPa)
#
#
# Indices 1 2 3 4 5 6 
#
# 1 107.7147 19.9440 14.5131 0.0000 28.4528 0.0000
# 2 19.9440 41.2808 15.6542 0.0000 2.8628 0.0000
# 3 14.5131 15.6542 75.9643 0.0000 29.7425 0.0000
# 4 0.0000 0.0000 0.0000 20.2988 0.0000 0.3156
# 5 28.4528 2.8628 29.7425 0.0000 48.5207 0.0000
# 6 0.0000 0.0000 0.0000 0.3156 0.0000 26.2200
#
#
#
# Elastic Compliance Matrix: (Units=1/GPa)
#
#
# Indices 1 2 3 4 5 6 
#
# 1 0.012292 -0.006175 0.002110 0.000000 -0.008137 0.000000
# 2 -0.006175 0.029581 -0.007435 0.000000 0.006433 0.000000
# 3 0.002110 -0.007435 0.019218 0.000000 -0.012579 0.000000
# 4 0.000000 0.000000 0.000000 0.049273 0.000000 -0.000593
# 5 -0.008137 0.006433 -0.012579 0.000000 0.032713 0.000000
# 6 0.000000 0.000000 0.000000 -0.000593 0.000000 0.038146
#
#
# Mechanical properties :
#
#
# Convention : Reuss Voigt Hill
#
# Bulk Modulus (GPa) = 26.25197 36.13135 31.19166
# Shear Modulus (GPa) = 23.05009 30.66449 26.85729
#
# Velocity S-wave (km/s) = 3.25282 3.75182 3.51119
# Velocity P-wave (km/s) = 5.11453 5.94591 5.54582
#
# Compressibility (1/GPa) = 0.03809238
#
# Stress axis : x y z
#
# Youngs Moduli (GPa) = 81.35242 33.80592 52.03406
#
# Poissons Ratio (x) = 0.20873 -0.10979
# Poissons Ratio (y) = 0.50231 0.38686
# Poissons Ratio (z) = -0.17165 0.25134
#
# Static dielectric constant tensor:
#      x y z
#    x 1.870260 0.000000 -0.009430 
#    y 0.000000 1.795700 0.000000 
#    z -0.009430 0.000000 1.774090 
# 
# From -- ./inp_files/52864.got.cif
#   From: 2010.05.17/outbox.cif.g08.bks.cpg/sg13_27_cif.got.tgz:52864.got - 2010.06.03 16:44:36.
