data_PCOD9233453
_publ_section_title
;
Structure prediction by ZEFSAII (Michael W. Deem and Ramdas Pophale) SiO2 
 PCOD9233453
Probable space group: P 2/C
;
_chemical_formula_sum "Si O2"
_cell_formula_units_Z 28
_cell_length_a 14.862424
_cell_length_b 8.612288
_cell_length_c 14.549611
_cell_angle_alpha 90.000000
_cell_angle_beta 131.158341
_cell_angle_gamma 90.000000
_cell_volume 1402.145875
_symmetry_space_group_name_H-M "P 2/C"
_symmetry_group_IT_number 13
_symmetry_cell_setting 'monoclinic'
loop_
_space_group_symop_operation_xyz
x,y,z
-x,y,1/2-z
-x,-y,-z
x,-y,1/2+z
loop_
_atom_site_type_symbol
_atom_site_label
_atom_site_fract_x
_atom_site_fract_y
_atom_site_fract_z
Si Si1 0.409968 0.127532 0.976599
Si Si2 0.083260 0.597964 0.989093
Si Si3 0.993303 0.067883 0.393967
Si Si4 0.490033 0.426862 0.135344
Si Si5 0.719714 0.376814 0.727917
Si Si6 0.231538 0.435154 0.415375
Si Si7 0.805184 0.063472 0.116100
O O1 0.335486 0.218536 0.848452
O O2 0.313513 0.036093 0.972139
O O3 0.477714 0.262812 0.076342
O O4 0.500000 0.000000 0.000000
O O5 0.195709 0.648246 0.128009
O O6 0.140184 0.520423 0.936225
O O7 0.000000 0.500000 0.000000
O O8 0.006842 0.746484 0.907792
O O9 0.874931 0.026678 0.257697
O O10 0.105545 0.021091 0.406335
O O11 0.000000 0.000000 0.500000
O O12 0.500000 0.403807 0.250000
O O13 0.606046 0.517449 0.178066
O O14 0.367716 0.520724 0.033108
O O15 0.788725 0.468687 0.692227
O O16 0.220020 0.248704 0.399410
#
# Coordination Sequence:
#
# PCOD9233453 Si02
#       7
#     4   4   4   4   4   4   4
#     4  11  23  41  62  93 123 162 204 244 312 369
#     4  11  23  38  62  94 119 158 212 247 300 360
#     4  10  22  40  61  87 125 162 201 249 301 358
#     4  11  22  42  64  92 124 158 204 260 309 361
#     4  11  22  40  66  90 125 160 198 258 305 359
#     4  10  21  41  64  88 124 163 202 253 308 362
#     4  10  21  41  62  88 124 163 201 248 303 364
#
# _framework density 19.969393
#
# number of rings (size 3 to 8) (size 9 to 14) (size 15 to 20)
#    0.000    1.429    1.429    5.143    0.000    4.000 
#   10.286    0.000    0.000    0.000    0.000    0.000 
#    0.000    0.000    0.000    0.000    0.000    0.000 
#
# Total GULP energy -156474.318635 kJ/mol
# GULP energy per Si atom -5588.368523 kJ/mol
# Density = 1.992394 g / cm^3
# Si number density = 19.969393 Si / 1000 Ang^3
#
#
#
# Elastic Constant Matrix: (Units=GPa)
#
#
# Indices 1 2 3 4 5 6 
#
# 1 111.9359 45.6463 19.7486 0.0000 -12.1940 0.0000
# 2 45.6463 77.3038 14.0354 0.0000 5.5571 0.0000
# 3 19.7486 14.0354 64.8530 0.0000 -12.6843 0.0000
# 4 0.0000 0.0000 0.0000 23.9068 0.0000 2.8747
# 5 -12.1940 5.5571 -12.6843 0.0000 30.4310 0.0000
# 6 0.0000 0.0000 0.0000 2.8747 0.0000 39.9357
#
#
#
# Elastic Compliance Matrix: (Units=1/GPa)
#
#
# Indices 1 2 3 4 5 6 
#
# 1 0.013044 -0.007966 -0.001025 0.000000 0.006254 0.000000
# 2 -0.007966 0.018792 -0.003197 0.000000 -0.007956 0.000000
# 3 -0.001025 -0.003197 0.017918 0.000000 0.007642 0.000000
# 4 0.000000 0.000000 0.000000 0.042194 0.000000 -0.003037
# 5 0.006254 -0.007956 0.007642 0.000000 0.040006 0.000000
# 6 0.000000 0.000000 0.000000 -0.003037 0.000000 0.025259
#
#
# Mechanical properties :
#
#
# Convention : Reuss Voigt Hill
#
# Bulk Modulus (GPa) = 39.40393 45.88371 42.64382
# Shear Modulus (GPa) = 26.30898 30.49887 28.40393
#
# Velocity S-wave (km/s) = 3.63363 3.91228 3.77553
# Velocity P-wave (km/s) = 6.11386 6.59051 6.35666
#
# Compressibility (1/GPa) = 0.02537818
#
# Stress axis : x y z
#
# Youngs Moduli (GPa) = 76.66215 53.21376 55.80922
#
# Poissons Ratio (x) = 0.42389 0.05720
# Poissons Ratio (y) = 0.61068 0.17844
# Poissons Ratio (z) = 0.07857 0.17015
#
# Static dielectric constant tensor:
#      x y z
#    x 1.704450 0.000000 -0.015080 
#    y 0.000000 1.637650 0.000000 
#    z -0.015080 0.000000 1.704110 
# 
# From -- ./inp_files/49890.got.cif
#   From: 2010.05.17/outbox.cif.g08.bks.cpg/sg13_25_cif.got.tgz:49890.got - 2010.06.03 16:44:36.
