data_PCOD9233544
_publ_section_title
;
Structure prediction by ZEFSAII (Michael W. Deem and Ramdas Pophale) SiO2 
 PCOD9233544
Probable space group: P 2/C
;
_chemical_formula_sum "Si O2"
_cell_formula_units_Z 20
_cell_length_a 9.271126
_cell_length_b 7.634292
_cell_length_c 14.402731
_cell_angle_alpha 90.000000
_cell_angle_beta 69.392486
_cell_angle_gamma 90.000000
_cell_volume 954.175277
_symmetry_space_group_name_H-M "P 2/C"
_symmetry_group_IT_number 13
_symmetry_cell_setting 'monoclinic'
loop_
_space_group_symop_operation_xyz
x,y,z
-x,y,1/2-z
-x,-y,-z
x,-y,1/2+z
loop_
_atom_site_type_symbol
_atom_site_label
_atom_site_fract_x
_atom_site_fract_y
_atom_site_fract_z
Si Si1 0.240990 0.006811 0.911532
Si Si2 0.985490 0.457952 0.612386
Si Si3 0.957772 0.836378 0.886684
Si Si4 0.229689 0.843734 0.099994
Si Si5 0.656586 0.303933 0.740054
O O1 0.132454 0.892124 0.869443
O O2 0.343073 0.133423 0.827204
O O3 0.306153 0.891981 0.982746
O O4 0.125941 0.136472 0.994337
O O5 0.812662 0.410279 0.682629
O O6 0.000000 0.500000 0.500000
O O7 0.047817 0.637833 0.642844
O O8 0.095695 0.296963 0.611838
O O9 0.860896 0.978186 0.849971
O O10 0.334029 0.765442 0.156730
O O11 0.500000 0.403727 0.750000
#
# Coordination Sequence:
#
# PCOD9233544 Si02
#       5
#     4   4   4   4   4
#     4   9  17  39  64  90 122 163 204 280 308 379
#     4  12  18  39  71  88 122 167 219 272 311 379
#     4   9  17  36  68  91 113 157 224 258 312 368
#     4  10  21  41  66  96 118 168 224 264 319 373
#     4  12  25  40  61  98 139 170 210 270 331 386
#
# _framework density 20.960508999999998
#
# number of rings (size 3 to 8) (size 9 to 14) (size 15 to 20)
#    1.200    0.400    6.000    0.600    0.000    0.800 
#    7.200    2.000    0.000    0.000    0.000    0.000 
#    0.000    0.000    0.000    0.000    0.000    0.000 
#
# Total GULP energy -111448.153612 kJ/mol
# GULP energy per Si atom -5572.407681 kJ/mol
# Density = 2.091280 g / cm^3
# Si number density = 20.960509 Si / 1000 Ang^3
#
#
#
# Elastic Constant Matrix: (Units=GPa)
#
#
# Indices 1 2 3 4 5 6 
#
# 1 76.6283 10.2939 10.8787 0.0000 17.8990 0.0000
# 2 10.2939 102.4329 -4.2780 0.0000 0.6754 0.0000
# 3 10.8787 -4.2780 51.9430 0.0000 21.8861 0.0000
# 4 0.0000 0.0000 0.0000 13.5069 0.0000 -9.0801
# 5 17.8990 0.6754 21.8861 0.0000 29.3608 0.0000
# 6 0.0000 0.0000 0.0000 -9.0801 0.0000 1.2406
#
#
#
# Elastic Compliance Matrix: (Units=1/GPa)
#
#
# Indices 1 2 3 4 5 6 
#
# 1 0.015468 -0.001452 0.000875 0.000000 -0.010048 0.000000
# 2 -0.001452 0.009962 0.001237 0.000000 -0.000266 0.000000
# 3 0.000875 0.001237 0.028294 0.000000 -0.021652 0.000000
# 4 0.000000 0.000000 0.000000 -0.018886 0.000000 -0.138223
# 5 -0.010048 -0.000266 -0.021652 0.000000 0.056331 0.000000
# 6 0.000000 0.000000 0.000000 -0.138223 0.000000 -0.205610
#
#
# Mechanical properties :
#
#
# Convention : Reuss Voigt Hill
#
# Bulk Modulus (GPa) = 18.16775 29.42148 23.79461
# Shear Modulus (GPa) = -51.32811 23.09562 -14.11624
#
# Velocity S-wave (km/s) = -4.95390 3.32303 -2.59794
# Velocity P-wave (km/s) = 4.90256 5.36568 1.54197
#
# Compressibility (1/GPa) = 0.05504260
#
# Stress axis : x y z
#
# Youngs Moduli (GPa) = 64.64991 100.38378 35.34355
#
# Poissons Ratio (x) = 0.14572 -0.03092
# Poissons Ratio (y) = 0.09385 -0.04370
# Poissons Ratio (z) = -0.05655 -0.12413
#
# Static dielectric constant tensor:
#      x y z
#    x 1.732190 0.000000 0.093220 
#    y 0.000000 1.773210 0.000000 
#    z 0.093220 0.000000 1.717620 
# 
# From -- ./inp_files/63211.got.cif
#   From: 2010.05.17/outbox.cif.g08.bks.cpg/sg13_32_cif.got.tgz:63211.got - 2010.06.03 16:44:36.
