data_PCOD9233405
_publ_section_title
;
Structure prediction by ZEFSAII (Michael W. Deem and Ramdas Pophale) SiO2 
 PCOD9233405
Probable space group: P 2/C
;
_chemical_formula_sum "Si O2"
_cell_formula_units_Z 26
_cell_length_a 23.226733
_cell_length_b 5.491419
_cell_length_c 17.223155
_cell_angle_alpha 90.000000
_cell_angle_beta 28.703898
_cell_angle_gamma 90.000000
_cell_volume 1055.073680
_symmetry_space_group_name_H-M "P 2/C"
_symmetry_group_IT_number 13
_symmetry_cell_setting 'monoclinic'
loop_
_space_group_symop_operation_xyz
x,y,z
-x,y,1/2-z
-x,-y,-z
x,-y,1/2+z
loop_
_atom_site_type_symbol
_atom_site_label
_atom_site_fract_x
_atom_site_fract_y
_atom_site_fract_z
Si Si1 0.643720 0.732608 0.360826
Si Si2 0.500000 0.648859 0.250000
Si Si3 0.158580 0.505421 0.475977
Si Si4 0.765454 0.492844 0.449438
Si Si5 0.977309 0.295338 0.592520
Si Si6 0.424934 0.774490 0.500896
Si Si7 0.949389 0.895436 0.731512
O O1 0.745961 0.675599 0.178329
O O2 0.520944 0.756566 0.457033
O O3 0.638102 0.489333 0.419752
O O4 0.656078 0.988017 0.390211
O O5 0.375846 0.500937 0.394975
O O6 0.491045 0.797984 0.340454
O O7 0.208372 0.400776 0.496482
O O8 0.107534 0.301083 0.480739
O O9 0.040560 0.669033 0.625627
O O10 0.855455 0.611726 0.281044
O O11 0.815982 0.214367 0.398353
O O12 0.954852 0.008669 0.638065
O O13 0.000000 0.500000 0.500000
O O14 0.000000 0.035209 0.750000
#
# Coordination Sequence:
#
# PCOD9233405 Si02
#       7
#     4   2   4   4   4   4   4
#     4  10  22  44  67 100 134 187 230 285 347 425
#     4  12  24  44  68  98 140 186 228 300 342 420
#     4  10  21  40  69  91 130 172 224 281 344 412
#     4  10  23  44  61  95 130 172 231 276 346 414
#     4  11  24  39  65  99 131 169 219 285 348 415
#     4  10  24  43  66  97 143 179 238 280 348 417
#     4   9  20  41  65  90 122 168 220 276 340 411
#
# _framework density 24.642828999999999
#
# number of rings (size 3 to 8) (size 9 to 14) (size 15 to 20)
#    0.000    1.846    1.538    2.308    4.308    4.308 
#    2.769    0.000    0.000    0.000    0.000    0.000 
#    0.000    0.000    0.000    0.000    0.000    0.000 
#
# Total GULP energy -144813.805291 kJ/mol
# GULP energy per Si atom -5569.761742 kJ/mol
# Density = 2.458674 g / cm^3
# Si number density = 24.642829 Si / 1000 Ang^3
#
#
#
# Elastic Constant Matrix: (Units=GPa)
#
#
# Indices 1 2 3 4 5 6 
#
# 1 43.7015 0.4846 -13.2249 0.0000 -6.9117 0.0000
# 2 0.4846 90.5371 21.4925 0.0000 -3.3624 0.0000
# 3 -13.2249 21.4925 91.4911 0.0000 -11.7742 0.0000
# 4 0.0000 0.0000 0.0000 -11.9888 0.0000 -50.9671
# 5 -6.9117 -3.3624 -11.7742 0.0000 49.3425 0.0000
# 6 0.0000 0.0000 0.0000 -50.9671 0.0000 -71.6417
#
#
#
# Elastic Compliance Matrix: (Units=1/GPa)
#
#
# Indices 1 2 3 4 5 6 
#
# 1 0.024940 -0.001016 0.004420 0.000000 0.004479 0.000000
# 2 -0.001016 0.011740 -0.002910 0.000000 -0.000037 0.000000
# 3 0.004420 -0.002910 0.012697 0.000000 0.003451 0.000000
# 4 0.000000 0.000000 0.000000 0.041203 0.000000 -0.029313
# 5 0.004479 -0.000037 0.003451 0.000000 0.021715 0.000000
# 6 0.000000 0.000000 0.000000 -0.029313 0.000000 0.006895
#
#
# Mechanical properties :
#
#
# Convention : Reuss Voigt Hill
#
# Bulk Modulus (GPa) = 19.85517 27.02599 23.44058
# Shear Modulus (GPa) = 37.04009 7.60760 22.32385
#
# Velocity S-wave (km/s) = 3.88116 1.75893 3.01308
# Velocity P-wave (km/s) = 5.30653 3.88793 4.65163
#
# Compressibility (1/GPa) = 0.05036472
#
# Stress axis : x y z
#
# Youngs Moduli (GPa) = 40.09658 85.17921 78.76182
#
# Poissons Ratio (x) = 0.08658 -0.34814
# Poissons Ratio (y) = 0.04076 0.22916
# Poissons Ratio (z) = -0.17724 0.24783
#
# Static dielectric constant tensor:
#      x y z
#    x 2.165430 0.000000 0.131110 
#    y 0.000000 2.109900 0.000000 
#    z 0.131110 0.000000 1.979290 
# 
# From -- ./inp_files/70894.got.cif
#   From: 2010.05.17/outbox.cif.g08.bks.cpg/sg13_36_cif.got.tgz:70894.got - 2010.06.03 16:44:36.
