data_PCOD9233978
_publ_section_title
;
Structure prediction by ZEFSAII (Michael W. Deem and Ramdas Pophale) SiO2 
 PCOD9233978
Probable space group: P 2/C
;
_chemical_formula_sum "Si O2"
_cell_formula_units_Z 28
_cell_length_a 9.642184
_cell_length_b 11.641071
_cell_length_c 13.813427
_cell_angle_alpha 90.000000
_cell_angle_beta 62.135249
_cell_angle_gamma 90.000000
_cell_volume 1370.718449
_symmetry_space_group_name_H-M "P 2/C"
_symmetry_group_IT_number 13
_symmetry_cell_setting 'monoclinic'
loop_
_space_group_symop_operation_xyz
x,y,z
-x,y,1/2-z
-x,-y,-z
x,-y,1/2+z
loop_
_atom_site_type_symbol
_atom_site_label
_atom_site_fract_x
_atom_site_fract_y
_atom_site_fract_z
Si Si1 0.850413 0.764955 0.359549
Si Si2 0.975667 0.370644 0.541053
Si Si3 0.650214 0.886630 0.937456
Si Si4 0.208820 0.016485 0.301236
Si Si5 0.683891 0.242521 0.719985
Si Si6 0.035881 0.796296 0.626795
Si Si7 0.641307 0.099409 0.065391
O O1 0.716038 0.738675 0.324639
O O2 0.789320 0.854583 0.458291
O O3 0.000000 0.810714 0.250000
O O4 0.918044 0.659776 0.400138
O O5 0.798480 0.333098 0.629176
O O6 0.023684 0.289770 0.435044
O O7 0.000000 0.500000 0.500000
O O8 0.738427 0.960979 0.825709
O O9 0.777124 0.802187 0.939286
O O10 0.506287 0.830829 0.927343
O O11 0.601101 0.971288 0.039808
O O12 0.320752 0.090591 0.335384
O O13 0.040314 0.077622 0.366949
O O14 0.239618 0.885133 0.319895
O O15 0.500000 0.244613 0.750000
O O16 0.000000 0.764499 0.750000
#
# Coordination Sequence:
#
# PCOD9233978 Si02
#       7
#     4   4   4   4   4   4   4
#     4  10  23  40  63  93 121 168 215 261 318 385
#     4  11  25  46  68  87 120 174 229 271 322 375
#     4  10  22  32  54  93 128 169 200 250 317 392
#     4  11  21  36  60  95 136 170 202 250 325 402
#     4  11  24  41  69 101 132 164 211 269 326 391
#     4  10  23  37  60  92 127 164 212 262 317 384
#     4  11  20  34  56  85 137 164 203 247 319 381
#
# _framework density 20.427244000000002
#
# number of rings (size 3 to 8) (size 9 to 14) (size 15 to 20)
#    0.000    1.429    2.857    2.143    8.000    2.857 
#    0.000    0.714    6.286    0.000    0.000    0.000 
#    0.000    0.000    0.000    0.000    0.000    0.000 
#
# Total GULP energy -156211.351207 kJ/mol
# GULP energy per Si atom -5578.976829 kJ/mol
# Density = 2.038075 g / cm^3
# Si number density = 20.427244 Si / 1000 Ang^3
#
#
#
# Elastic Constant Matrix: (Units=GPa)
#
#
# Indices 1 2 3 4 5 6 
#
# 1 153.3680 42.5426 36.4040 0.0000 23.7857 0.0000
# 2 42.5426 93.8335 36.8288 0.0000 -3.4602 0.0000
# 3 36.4040 36.8288 60.3253 0.0000 17.9371 0.0000
# 4 0.0000 0.0000 0.0000 27.3406 0.0000 6.1701
# 5 23.7857 -3.4602 17.9371 0.0000 34.2289 0.0000
# 6 0.0000 0.0000 0.0000 6.1701 0.0000 11.2981
#
#
#
# Elastic Compliance Matrix: (Units=1/GPa)
#
#
# Indices 1 2 3 4 5 6 
#
# 1 0.008741 -0.003648 -0.001340 0.000000 -0.005740 0.000000
# 2 -0.003648 0.017108 -0.011267 0.000000 0.010169 0.000000
# 3 -0.001340 -0.011267 0.028816 0.000000 -0.015308 0.000000
# 4 0.000000 0.000000 0.000000 0.041717 0.000000 -0.022783
# 5 -0.005740 0.010169 -0.015308 0.000000 0.042254 0.000000
# 6 0.000000 0.000000 0.000000 -0.022783 0.000000 0.100953
#
#
# Mechanical properties :
#
#
# Convention : Reuss Voigt Hill
#
# Bulk Modulus (GPa) = 45.13935 59.89752 52.51844
# Shear Modulus (GPa) = 17.89009 27.35692 22.62351
#
# Velocity S-wave (km/s) = 2.96259 3.66353 3.33155
# Velocity P-wave (km/s) = 5.81792 6.87614 6.36905
#
# Compressibility (1/GPa) = 0.02215362
#
# Stress axis : x y z
#
# Youngs Moduli (GPa) = 114.40657 58.45083 34.70329
#
# Poissons Ratio (x) = 0.21326 0.04652
# Poissons Ratio (y) = 0.41741 0.39099
# Poissons Ratio (z) = 0.15336 0.65855
#
# Static dielectric constant tensor:
#      x y z
#    x 1.827930 0.000000 -0.024450 
#    y 0.000000 1.689880 0.000000 
#    z -0.024450 0.000000 1.764990 
# 
# From -- ./inp_files/46879.got.cif
#   From: 2010.05.17/outbox.cif.g08.bks.cpg/sg13_24_cif.got.tgz:46879.got - 2010.06.03 16:44:36.
