data_PCOD9233676
_publ_section_title
;
Structure prediction by ZEFSAII (Michael W. Deem and Ramdas Pophale) SiO2 
 PCOD9233676
Probable space group: P 2/C
;
_chemical_formula_sum "Si O2"
_cell_formula_units_Z 22
_cell_length_a 14.647550
_cell_length_b 9.165646
_cell_length_c 22.997704
_cell_angle_alpha 90.000000
_cell_angle_beta 20.815722
_cell_angle_gamma 90.000000
_cell_volume 1097.198804
_symmetry_space_group_name_H-M "P 2/C"
_symmetry_group_IT_number 13
_symmetry_cell_setting 'monoclinic'
loop_
_space_group_symop_operation_xyz
x,y,z
-x,y,1/2-z
-x,-y,-z
x,-y,1/2+z
loop_
_atom_site_type_symbol
_atom_site_label
_atom_site_fract_x
_atom_site_fract_y
_atom_site_fract_z
Si Si1 0.500000 0.331685 0.250000
Si Si2 0.256566 0.913333 0.836162
Si Si3 0.554400 0.188246 0.623911
Si Si4 0.281782 0.897631 0.601281
Si Si5 0.875932 0.720332 0.694137
Si Si6 0.251941 0.524361 0.310442
O O1 0.722718 0.213259 0.127647
O O2 0.482754 0.435812 0.204994
O O3 0.247434 0.827698 0.780500
O O4 0.477935 0.035226 0.698696
O O5 0.000000 0.000000 0.000000
O O6 0.601859 0.162187 0.527581
O O7 0.334545 0.309070 0.760759
O O8 0.819052 0.251840 0.491668
O O9 0.214967 0.772849 0.688481
O O10 0.000000 0.963435 0.750000
O O11 0.500000 0.000000 0.500000
O O12 0.803272 0.557328 0.717329
O O13 0.000000 0.500000 0.500000
#
# Coordination Sequence:
#
# PCOD9233676 Si02
#       6
#     2   4   4   4   4   4
#     4  10  22  36  52  80 120 152 194 246 292 360
#     4  11  21  35  58  88 117 157 205 250 312 367
#     4  11  22  38  64  87 121 163 209 258 316 371
#     4  10  21  42  65  94 125 163 213 267 315 371
#     4  10  22  39  60  86 125 161 203 260 313 370
#     4  11  23  39  57  87 126 163 201 247 312 375
#
# _framework density 20.051061000000001
#
# number of rings (size 3 to 8) (size 9 to 14) (size 15 to 20)
#    0.000    1.455    1.818    4.364    0.000    2.909 
#    0.000    1.818    0.000    0.000    0.000    0.000 
#    0.000    0.000    0.000    0.000    0.000    0.000 
#
# Total GULP energy -122713.060740 kJ/mol
# GULP energy per Si atom -5577.866397 kJ/mol
# Density = 2.000542 g / cm^3
# Si number density = 20.051061 Si / 1000 Ang^3
#
#
#
# Elastic Constant Matrix: (Units=GPa)
#
#
# Indices 1 2 3 4 5 6 
#
# 1 93.8291 29.7868 28.4277 0.0000 -9.5288 0.0000
# 2 29.7868 99.9445 33.2067 0.0000 -9.6942 0.0000
# 3 28.4277 33.2067 80.4021 0.0000 -1.6553 0.0000
# 4 0.0000 0.0000 0.0000 29.9078 0.0000 -6.4965
# 5 -9.5288 -9.6942 -1.6553 0.0000 33.7298 0.0000
# 6 0.0000 0.0000 0.0000 -6.4965 0.0000 27.6395
#
#
#
# Elastic Compliance Matrix: (Units=1/GPa)
#
#
# Indices 1 2 3 4 5 6 
#
# 1 0.012742 -0.002380 -0.003466 0.000000 0.002746 0.000000
# 2 -0.002380 0.012375 -0.004214 0.000000 0.002678 0.000000
# 3 -0.003466 -0.004214 0.015374 0.000000 -0.001436 0.000000
# 4 0.000000 0.000000 0.000000 0.035235 0.000000 0.008282
# 5 0.002746 0.002678 -0.001436 0.000000 0.031122 0.000000
# 6 0.000000 0.000000 0.000000 0.008282 0.000000 0.038127
#
#
# Mechanical properties :
#
#
# Convention : Reuss Voigt Hill
#
# Bulk Modulus (GPa) = 49.08968 50.77979 49.93473
# Shear Modulus (GPa) = 29.08932 30.43906 29.76419
#
# Velocity S-wave (km/s) = 3.81302 3.90048 3.85700
# Velocity P-wave (km/s) = 6.62729 6.75760 6.69276
#
# Compressibility (1/GPa) = 0.02037088
#
# Stress axis : x y z
#
# Youngs Moduli (GPa) = 78.48057 80.80994 65.04541
#
# Poissons Ratio (x) = 0.19230 0.22543
# Poissons Ratio (y) = 0.18676 0.27412
# Poissons Ratio (z) = 0.27200 0.34056
#
# Static dielectric constant tensor:
#      x y z
#    x 1.762230 0.000000 -0.064530 
#    y 0.000000 1.708460 0.000000 
#    z -0.064530 0.000000 1.727560 
# 
# From -- ./inp_files/38691.got.cif
#   From: 2010.05.17/outbox.cif.g08.bks.cpg/sg13_20_cif.got.tgz:38691.got - 2010.06.03 16:44:36.
