data_PCOD9233195
_publ_section_title
;
Structure prediction by ZEFSAII (Michael W. Deem and Ramdas Pophale) SiO2 
 PCOD9233195
Probable space group: P 2/C
;
_chemical_formula_sum "Si O2"
_cell_formula_units_Z 26
_cell_length_a 6.300398
_cell_length_b 8.771473
_cell_length_c 28.493988
_cell_angle_alpha 90.000000
_cell_angle_beta 124.229487
_cell_angle_gamma 90.000000
_cell_volume 1301.935874
_symmetry_space_group_name_H-M "P 2/C"
_symmetry_group_IT_number 13
_symmetry_cell_setting 'monoclinic'
loop_
_space_group_symop_operation_xyz
x,y,z
-x,y,1/2-z
-x,-y,-z
x,-y,1/2+z
loop_
_atom_site_type_symbol
_atom_site_label
_atom_site_fract_x
_atom_site_fract_y
_atom_site_fract_z
Si Si1 0.314005 0.920434 0.412409
Si Si2 0.599691 0.183204 0.402387
Si Si3 0.000000 0.546840 0.250000
Si Si4 0.169145 0.857505 0.977762
Si Si5 0.526826 0.399630 0.309048
Si Si6 0.956465 0.356234 0.846063
Si Si7 0.344881 0.585684 0.940761
O O1 0.590373 0.839606 0.456880
O O2 0.075350 0.808096 0.373618
O O3 0.388765 0.048888 0.383019
O O4 0.241503 0.008222 0.451011
O O5 0.613714 0.258284 0.352425
O O6 0.522405 0.317125 0.428411
O O7 0.873976 0.122299 0.455261
O O8 0.244524 0.443484 0.291498
O O9 0.072703 0.642298 0.213501
O O10 0.168154 0.704326 0.946558
O O11 0.500000 0.362544 0.250000
O O12 0.705562 0.552897 0.334650
O O13 0.180205 0.469633 0.890301
O O14 0.500000 0.500000 0.000000
#
# Coordination Sequence:
#
# PCOD9233195 Si02
#       7
#     4   4   2   4   4   4   4
#     4  10  23  38  60  88 135 161 197 252 312 374
#     4  11  22  40  62  93 123 168 205 251 313 375
#     4  10  22  42  64  92 118 154 214 262 314 352
#     4  10  21  40  57  90 130 170 197 246 311 380
#     4  10  22  39  67  91 118 159 214 266 308 366
#     4  11  21  41  63  91 121 163 206 262 309 368
#     4  11  21  37  62  93 125 156 210 256 301 372
#
# _framework density 19.970261000000001
#
# number of rings (size 3 to 8) (size 9 to 14) (size 15 to 20)
#    0.000    1.538    4.615    0.462    0.000    1.846 
#    2.769    2.308    0.000    0.000    0.000    0.000 
#    0.000    0.000    0.000    0.000    0.000    0.000 
#
# Total GULP energy -144854.186732 kJ/mol
# GULP energy per Si atom -5571.314874 kJ/mol
# Density = 1.992481 g / cm^3
# Si number density = 19.970261 Si / 1000 Ang^3
#
#
#
# Elastic Constant Matrix: (Units=GPa)
#
#
# Indices 1 2 3 4 5 6 
#
# 1 75.6854 23.7829 16.8449 0.0000 19.7255 0.0000
# 2 23.7829 79.8352 37.5257 0.0000 3.5093 0.0000
# 3 16.8449 37.5257 85.4854 0.0000 6.9346 0.0000
# 4 0.0000 0.0000 0.0000 31.8956 0.0000 11.6446
# 5 19.7255 3.5093 6.9346 0.0000 34.3076 0.0000
# 6 0.0000 0.0000 0.0000 11.6446 0.0000 13.2208
#
#
#
# Elastic Compliance Matrix: (Units=1/GPa)
#
#
# Indices 1 2 3 4 5 6 
#
# 1 0.017162 -0.004371 -0.000711 0.000000 -0.009277 0.000000
# 2 -0.004371 0.016897 -0.006730 0.000000 0.002145 0.000000
# 3 -0.000711 -0.006730 0.014948 0.000000 -0.001925 0.000000
# 4 0.000000 0.000000 0.000000 0.046212 0.000000 -0.040703
# 5 -0.009277 0.002145 -0.001925 0.000000 0.034651 0.000000
# 6 0.000000 0.000000 0.000000 -0.040703 0.000000 0.111489
#
#
# Mechanical properties :
#
#
# Convention : Reuss Voigt Hill
#
# Bulk Modulus (GPa) = 39.39416 44.14587 41.77002
# Shear Modulus (GPa) = 18.28525 26.74162 22.51343
#
# Velocity S-wave (km/s) = 3.02921 3.66330 3.36124
# Velocity P-wave (km/s) = 5.65721 6.32826 6.00212
#
# Compressibility (1/GPa) = 0.02538447
#
# Stress axis : x y z
#
# Youngs Moduli (GPa) = 58.26853 59.18233 66.89702
#
# Poissons Ratio (x) = 0.25867 0.04754
# Poissons Ratio (y) = 0.25468 0.45022
# Poissons Ratio (z) = 0.04140 0.39830
#
# Static dielectric constant tensor:
#      x y z
#    x 1.714830 0.000000 -0.038840 
#    y 0.000000 1.744090 0.000000 
#    z -0.038840 0.000000 1.673550 
# 
# From -- ./inp_files/94934.got.cif
#   From: 2010.05.17/outbox.cif.g08.bks.cpg/sg13_48_cif.got.tgz:94934.got - 2010.06.03 16:44:36.
