data_PCOD9233398
_publ_section_title
;
Structure prediction by ZEFSAII (Michael W. Deem and Ramdas Pophale) SiO2 
 PCOD9233398
Probable space group: P 2/C
;
_chemical_formula_sum "Si O2"
_cell_formula_units_Z 16
_cell_length_a 13.433922
_cell_length_b 7.535799
_cell_length_c 22.807757
_cell_angle_alpha 90.000000
_cell_angle_beta 159.064268
_cell_angle_gamma 90.000000
_cell_volume 825.035593
_symmetry_space_group_name_H-M "P 2/C"
_symmetry_group_IT_number 13
_symmetry_cell_setting 'monoclinic'
loop_
_space_group_symop_operation_xyz
x,y,z
-x,y,1/2-z
-x,-y,-z
x,-y,1/2+z
loop_
_atom_site_type_symbol
_atom_site_label
_atom_site_fract_x
_atom_site_fract_y
_atom_site_fract_z
Si Si1 0.058611 0.827788 0.392890
Si Si2 0.820286 0.673766 0.914020
Si Si3 0.711332 0.835578 0.731220
Si Si4 0.195287 0.479419 0.305638
O O1 0.071097 0.766348 0.467547
O O2 0.377351 0.861484 0.548586
O O3 0.929148 0.666445 0.284646
O O4 0.868594 0.001767 0.287342
O O5 0.500000 0.620340 0.750000
O O6 0.812908 0.803495 0.853866
O O7 0.000000 0.500000 0.000000
O O8 0.784690 0.656425 0.736890
O O9 0.500000 0.500000 0.500000
O O10 0.000000 0.408340 0.250000
#
# Coordination Sequence:
#
# PCOD9233398 Si02
#       4
#     4   4   4   4
#     4  11  25  43  68 100 131 169 217 266 328 386
#     4  10  21  40  68  99 130 166 210 264 331 388
#     4  11  25  43  68  99 132 170 214 270 325 386
#     4  12  26  45  66  94 131 174 225 268 317 378
#
# _framework density 19.393103
#
# number of rings (size 3 to 8) (size 9 to 14) (size 15 to 20)
#    0.000    1.000    5.000    0.750    3.500    4.000 
#    0.000    0.000    0.000    0.000    0.000    0.000 
#    0.000    0.000    0.000    0.000    0.000    0.000 
#
# Total GULP energy -89461.376952 kJ/mol
# GULP energy per Si atom -5591.336060 kJ/mol
# Density = 1.934896 g / cm^3
# Si number density = 19.393103 Si / 1000 Ang^3
#
#
#
# Elastic Constant Matrix: (Units=GPa)
#
#
# Indices 1 2 3 4 5 6 
#
# 1 85.9142 17.7637 23.7513 0.0000 9.0730 0.0000
# 2 17.7637 99.8837 35.2561 0.0000 18.5375 0.0000
# 3 23.7513 35.2561 92.9032 0.0000 2.6112 0.0000
# 4 0.0000 0.0000 0.0000 21.8266 0.0000 17.3513
# 5 9.0730 18.5375 2.6112 0.0000 34.2466 0.0000
# 6 0.0000 0.0000 0.0000 17.3513 0.0000 22.2465
#
#
#
# Elastic Compliance Matrix: (Units=1/GPa)
#
#
# Indices 1 2 3 4 5 6 
#
# 1 0.012900 -0.000738 -0.002939 0.000000 -0.002794 0.000000
# 2 -0.000738 0.012946 -0.004543 0.000000 -0.006466 0.000000
# 3 -0.002939 -0.004543 0.013176 0.000000 0.002233 0.000000
# 4 0.000000 0.000000 0.000000 0.120579 0.000000 -0.094047
# 5 -0.002794 -0.006466 0.002233 0.000000 0.033270 0.000000
# 6 0.000000 0.000000 0.000000 -0.094047 0.000000 0.118304
#
#
# Mechanical properties :
#
#
# Convention : Reuss Voigt Hill
#
# Bulk Modulus (GPa) = 44.28197 48.02703 46.15450
# Shear Modulus (GPa) = 14.91901 29.12594 22.02248
#
# Velocity S-wave (km/s) = 2.77663 3.87960 3.37350
# Velocity P-wave (km/s) = 5.75873 6.69979 6.24701
#
# Compressibility (1/GPa) = 0.02258255
#
# Stress axis : x y z
#
# Youngs Moduli (GPa) = 77.52086 77.24195 75.89302
#
# Poissons Ratio (x) = 0.05702 0.22307
# Poissons Ratio (y) = 0.05722 0.34475
# Poissons Ratio (z) = 0.22785 0.35088
#
# Static dielectric constant tensor:
#      x y z
#    x 1.692660 0.000000 -0.009210 
#    y 0.000000 1.642470 0.000000 
#    z -0.009210 0.000000 1.661510 
# 
# From -- ./inp_files/14433.got.cif
#   From: 2010.05.17/outbox.cif.g08.bks.cpg/sg13_8_cif.got.tgz:14433.got - 2010.06.03 16:44:36.
