data_PCOD9233750
_publ_section_title
;
Structure prediction by ZEFSAII (Michael W. Deem and Ramdas Pophale) SiO2 
 PCOD9233750
Probable space group: P 2/C
;
_chemical_formula_sum "Si O2"
_cell_formula_units_Z 24
_cell_length_a 9.983865
_cell_length_b 5.166333
_cell_length_c 18.080650
_cell_angle_alpha 90.000000
_cell_angle_beta 85.640841
_cell_angle_gamma 90.000000
_cell_volume 929.901569
_symmetry_space_group_name_H-M "P 2/C"
_symmetry_group_IT_number 13
_symmetry_cell_setting 'monoclinic'
loop_
_space_group_symop_operation_xyz
x,y,z
-x,y,1/2-z
-x,-y,-z
x,-y,1/2+z
loop_
_atom_site_type_symbol
_atom_site_label
_atom_site_fract_x
_atom_site_fract_y
_atom_site_fract_z
Si Si1 0.945224 0.307628 0.893306
Si Si2 0.668209 0.745544 0.645784
Si Si3 0.248289 0.461099 0.206690
Si Si4 0.189578 0.430383 0.964606
Si Si5 0.286594 0.923409 0.570052
Si Si6 0.483569 0.240192 0.643065
O O1 0.889307 0.415396 0.818262
O O2 0.102217 0.291869 0.904289
O O3 0.860186 0.052734 0.914928
O O4 0.894249 0.508478 0.957984
O O5 0.751850 0.688835 0.716596
O O6 0.763522 0.702136 0.571295
O O7 0.580071 0.000131 0.656402
O O8 0.570307 0.499215 0.637663
O O9 0.298470 0.266553 0.140131
O O10 0.361470 0.686271 0.204291
O O11 0.299740 0.239313 0.994644
O O12 0.396277 0.148900 0.575582
#
# Coordination Sequence:
#
# PCOD9233750 Si02
#       6
#     4   4   4   4   4   4
#     4   9  21  44  71  92 137 179 230 273 353 401
#     4  12  27  40  70 102 137 174 230 281 340 403
#     4  10  23  42  68  98 131 184 226 276 342 411
#     4  10  23  43  66 101 135 177 226 290 334 410
#     4  10  21  42  69  98 131 185 223 273 345 409
#     4  11  25  42  65  97 138 176 220 274 341 409
#
# _framework density 25.809183000000001
#
# number of rings (size 3 to 8) (size 9 to 14) (size 15 to 20)
#    0.000    1.667    1.667    1.000    9.333    2.000 
#    0.000    0.000    0.000    0.000    0.000    0.000 
#    0.000    0.000    0.000    0.000    0.000    0.000 
#
# Total GULP energy -134229.713028 kJ/mol
# GULP energy per Si atom -5592.904709 kJ/mol
# Density = 2.575044 g / cm^3
# Si number density = 25.809183 Si / 1000 Ang^3
#
#
#
# Elastic Constant Matrix: (Units=GPa)
#
#
# Indices 1 2 3 4 5 6 
#
# 1 38.1438 21.0430 29.6003 0.0000 5.3124 0.0000
# 2 21.0430 137.9546 17.8598 0.0000 11.8000 0.0000
# 3 29.6003 17.8598 80.5581 0.0000 15.7191 0.0000
# 4 0.0000 0.0000 0.0000 31.0701 0.0000 4.8415
# 5 5.3124 11.8000 15.7191 0.0000 15.2728 0.0000
# 6 0.0000 0.0000 0.0000 4.8415 0.0000 29.3193
#
#
#
# Elastic Compliance Matrix: (Units=1/GPa)
#
#
# Indices 1 2 3 4 5 6 
#
# 1 0.039148 -0.004514 -0.014274 0.000000 0.004561 0.000000
# 2 -0.004514 0.008313 0.000954 0.000000 -0.005834 0.000000
# 3 -0.014274 0.000954 0.020799 0.000000 -0.017179 0.000000
# 4 0.000000 0.000000 0.000000 0.033035 0.000000 -0.005455
# 5 0.004561 -0.005834 -0.017179 0.000000 0.086078 0.000000
# 6 0.000000 0.000000 0.000000 -0.005455 0.000000 0.035008
#
#
# Mechanical properties :
#
#
# Convention : Reuss Voigt Hill
#
# Bulk Modulus (GPa) = 30.68195 43.74033 37.21114
# Shear Modulus (GPa) = 18.59342 27.67602 23.13472
#
# Velocity S-wave (km/s) = 2.68697 3.27820 2.99720
# Velocity P-wave (km/s) = 4.64115 5.59582 5.14069
#
# Compressibility (1/GPa) = 0.03259246
#
# Stress axis : x y z
#
# Youngs Moduli (GPa) = 25.54391 120.29637 48.07978
#
# Poissons Ratio (x) = 0.54299 0.68629
# Poissons Ratio (y) = 0.11530 -0.04587
# Poissons Ratio (z) = 0.36461 -0.11477
#
# Static dielectric constant tensor:
#      x y z
#    x 2.165930 0.000000 -0.014760 
#    y 0.000000 2.045730 0.000000 
#    z -0.014760 0.000000 2.043620 
# 
# From -- ./inp_files/65355.got.cif
#   From: 2010.05.17/outbox.cif.g08.bks.cpg/sg13_33_cif.got.tgz:65355.got - 2010.06.03 16:44:36.
