data_PCOD9233018
_publ_section_title
;
Structure prediction by ZEFSAII (Michael W. Deem and Ramdas Pophale) SiO2 
 PCOD9233018
Probable space group: P 2/C
;
_chemical_formula_sum "Si O2"
_cell_formula_units_Z 24
_cell_length_a 15.363667
_cell_length_b 7.755566
_cell_length_c 19.507854
_cell_angle_alpha 90.000000
_cell_angle_beta 156.884500
_cell_angle_gamma 90.000000
_cell_volume 912.541490
_symmetry_space_group_name_H-M "P 2/C"
_symmetry_group_IT_number 13
_symmetry_cell_setting 'monoclinic'
loop_
_space_group_symop_operation_xyz
x,y,z
-x,y,1/2-z
-x,-y,-z
x,-y,1/2+z
loop_
_atom_site_type_symbol
_atom_site_label
_atom_site_fract_x
_atom_site_fract_y
_atom_site_fract_z
Si Si1 0.587583 0.698723 0.565686
Si Si2 0.470108 0.187841 0.329705
Si Si3 0.472798 0.785461 0.327002
Si Si4 0.985348 0.195856 0.963198
Si Si5 0.940605 0.269356 0.632372
Si Si6 0.943696 0.324999 0.133077
O O1 0.500000 0.500000 0.500000
O O2 0.478236 0.786177 0.552284
O O3 0.534881 0.766678 0.452148
O O4 0.853139 0.734823 0.766915
O O5 0.675051 0.259545 0.436365
O O6 0.457383 0.987855 0.301120
O O7 0.230698 0.274788 0.146663
O O8 0.681768 0.712142 0.435578
O O9 0.219094 0.716116 0.144839
O O10 0.947833 0.190324 0.853848
O O11 0.000000 0.000000 0.000000
O O12 0.990347 0.471366 0.668773
O O13 0.000000 0.193068 0.750000
O O14 0.000000 0.255555 0.250000
#
# Coordination Sequence:
#
# PCOD9233018 Si02
#       6
#     4   4   4   4   4   4
#     4  11  21  40  64  92 129 171 220 271 321 392
#     4  11  23  38  63  93 128 171 216 272 333 390
#     4  10  21  39  62  92 127 168 217 271 331 396
#     4  10  23  42  62  93 135 173 215 275 337 400
#     4  11  22  41  68  95 125 172 222 272 335 403
#     4   9  20  38  63  95 129 165 217 279 325 383
#
# _framework density 26.300173000000001
#
# number of rings (size 3 to 8) (size 9 to 14) (size 15 to 20)
#    0.000    1.667    0.000    6.000    0.000    6.000 
#    0.000   11.667    0.000    0.000    0.000    0.000 
#    0.000    0.000    0.000    0.000    0.000    0.000 
#
# Total GULP energy -134184.664220 kJ/mol
# GULP energy per Si atom -5591.027676 kJ/mol
# Density = 2.624031 g / cm^3
# Si number density = 26.300173 Si / 1000 Ang^3
#
#
#
# Elastic Constant Matrix: (Units=GPa)
#
#
# Indices 1 2 3 4 5 6 
#
# 1 191.5313 17.4766 50.2130 0.0000 39.0153 0.0000
# 2 17.4766 59.6445 -13.3162 0.0000 6.4515 0.0000
# 3 50.2130 -13.3162 169.4526 0.0000 42.5421 0.0000
# 4 0.0000 0.0000 0.0000 62.6575 0.0000 330.5569
# 5 39.0153 6.4515 42.5421 0.0000 61.1392 0.0000
# 6 0.0000 0.0000 0.0000 330.5569 0.0000 1126.7761
#
#
#
# Elastic Compliance Matrix: (Units=1/GPa)
#
#
# Indices 1 2 3 4 5 6 
#
# 1 0.006323 -0.001817 -0.001274 0.000000 -0.002957 0.000000
# 2 -0.001817 0.018160 0.002612 0.000000 -0.002574 0.000000
# 3 -0.001274 0.002612 0.007693 0.000000 -0.004816 0.000000
# 4 0.000000 0.000000 0.000000 -0.029141 0.000000 0.008549
# 5 -0.002957 -0.002574 -0.004816 0.000000 0.021865 0.000000
# 6 0.000000 0.000000 0.000000 0.008549 0.000000 -0.001620
#
#
# Mechanical properties :
#
#
# Convention : Reuss Voigt Hill
#
# Bulk Modulus (GPa) = 32.03417 58.81946 45.42682
# Shear Modulus (GPa) = 144.31634 274.53157 209.42395
#
# Velocity S-wave (km/s) = 7.41565 10.22793 8.93315
# Velocity P-wave (km/s) = 9.24820 12.72376 11.12257
#
# Compressibility (1/GPa) = 0.03121666
#
# Stress axis : x y z
#
# Youngs Moduli (GPa) = 158.14600 55.06589 129.98541
#
# Poissons Ratio (x) = 0.10008 0.16564
# Poissons Ratio (y) = 0.28743 -0.33950
# Poissons Ratio (z) = 0.20152 -0.14382
#
# Static dielectric constant tensor:
#      x y z
#    x 2.177340 0.000000 0.094430 
#    y 0.000000 1.994080 0.000000 
#    z 0.094430 0.000000 2.348610 
# 
# From -- ./inp_files/87937.got.cif
#   From: 2010.05.17/outbox.cif.g08.bks.cpg/sg13_44_cif.got.tgz:87937.got - 2010.06.03 16:44:36.
