data_PCOD9233617
_publ_section_title
;
Structure prediction by ZEFSAII (Michael W. Deem and Ramdas Pophale) SiO2 
 PCOD9233617
Probable space group: P 2/C
;
_chemical_formula_sum "Si O2"
_cell_formula_units_Z 26
_cell_length_a 13.572030
_cell_length_b 8.669436
_cell_length_c 14.489697
_cell_angle_alpha 90.000000
_cell_angle_beta 41.250968
_cell_angle_gamma 90.000000
_cell_volume 1124.130109
_symmetry_space_group_name_H-M "P 2/C"
_symmetry_group_IT_number 13
_symmetry_cell_setting 'monoclinic'
loop_
_space_group_symop_operation_xyz
x,y,z
-x,y,1/2-z
-x,-y,-z
x,-y,1/2+z
loop_
_atom_site_type_symbol
_atom_site_label
_atom_site_fract_x
_atom_site_fract_y
_atom_site_fract_z
Si Si1 0.165062 0.778472 0.586206
Si Si2 0.913692 0.590226 0.486106
Si Si3 0.360926 0.621142 0.703443
Si Si4 0.671718 0.951003 0.871332
Si Si5 0.889473 0.860078 0.092101
Si Si6 0.000000 0.612518 0.250000
Si Si7 0.693967 0.456371 0.945056
O O1 0.254261 0.913328 0.580947
O O2 0.155132 0.801405 0.480603
O O3 0.261936 0.623291 0.542600
O O4 0.000000 0.786648 0.750000
O O5 0.742710 0.597950 0.634224
O O6 0.979384 0.505205 0.351738
O O7 0.000000 0.500000 0.500000
O O8 0.002716 0.749843 0.422700
O O9 0.320566 0.787891 0.689725
O O10 0.322206 0.492188 0.652815
O O11 0.537290 0.604638 0.592539
O O12 0.755249 0.079057 0.750272
O O13 0.500000 0.000000 0.000000
O O14 0.000000 0.000000 0.000000
O O15 0.828479 0.666921 0.368516
#
# Coordination Sequence:
#
# PCOD9233617 Si02
#       7
#     4   4   4   4   4   2   4
#     4  11  21  43  79 102 138 190 248 296 361 443
#     4  12  25  43  70 106 145 184 240 303 360 438
#     4  10  22  45  68 100 151 183 230 312 365 421
#     4  11  26  45  71 106 147 190 240 308 362 434
#     4  12  24  46  73 105 142 195 242 292 364 436
#     4  12  24  38  68 106 134 184 238 288 360 436
#     4  10  21  41  72 103 137 186 237 294 368 432
#
# _framework density 23.128996999999998
#
# number of rings (size 3 to 8) (size 9 to 14) (size 15 to 20)
#    0.000    0.923    5.385    1.846    2.154    3.692 
#    0.000    4.615    0.000    0.000    0.000    0.000 
#    0.000    0.000    0.000    0.000    0.000    0.000 
#
# Total GULP energy -144799.248594 kJ/mol
# GULP energy per Si atom -5569.201869 kJ/mol
# Density = 2.307635 g / cm^3
# Si number density = 23.128997 Si / 1000 Ang^3
#
#
#
# Elastic Constant Matrix: (Units=GPa)
#
#
# Indices 1 2 3 4 5 6 
#
# 1 126.5779 8.8504 68.0168 0.0000 -14.8946 0.0000
# 2 8.8504 55.7193 21.0546 0.0000 -10.2441 0.0000
# 3 68.0168 21.0546 214.0476 0.0000 -24.7483 0.0000
# 4 0.0000 0.0000 0.0000 39.1078 0.0000 -8.2380
# 5 -14.8946 -10.2441 -24.7483 0.0000 59.3408 0.0000
# 6 0.0000 0.0000 0.0000 -8.2380 0.0000 34.0364
#
#
#
# Elastic Compliance Matrix: (Units=1/GPa)
#
#
# Indices 1 2 3 4 5 6 
#
# 1 0.009610 -0.000217 -0.002897 0.000000 0.001166 0.000000
# 2 -0.000217 0.019028 -0.001502 0.000000 0.002604 0.000000
# 3 -0.002897 -0.001502 0.005911 0.000000 0.001479 0.000000
# 4 0.000000 0.000000 0.000000 0.026944 0.000000 0.006521
# 5 0.001166 0.002604 0.001479 0.000000 0.018211 0.000000
# 6 0.000000 0.000000 0.000000 0.006521 0.000000 0.030959
#
#
# Mechanical properties :
#
#
# Convention : Reuss Voigt Hill
#
# Bulk Modulus (GPa) = 39.50014 65.79874 52.64944
# Shear Modulus (GPa) = 38.96110 46.39189 42.67649
#
# Velocity S-wave (km/s) = 4.10873 4.48346 4.30018
# Velocity P-wave (km/s) = 6.29478 7.43722 6.88972
#
# Compressibility (1/GPa) = 0.02531637
#
# Stress axis : x y z
#
# Youngs Moduli (GPa) = 104.06259 52.55481 169.16939
#
# Poissons Ratio (x) = 0.01141 0.49015
# Poissons Ratio (y) = 0.02260 0.25402
# Poissons Ratio (z) = 0.30151 0.07891
#
# Static dielectric constant tensor:
#      x y z
#    x 1.855790 0.000000 -0.224460 
#    y 0.000000 1.902570 0.000000 
#    z -0.224460 0.000000 1.394320 
# 
# From -- ./inp_files/53306.got.cif
#   From: 2010.05.17/outbox.cif.g08.bks.cpg/sg13_27_cif.got.tgz:53306.got - 2010.06.03 16:44:36.
