data_PCOD9233566
_publ_section_title
;
Structure prediction by ZEFSAII (Michael W. Deem and Ramdas Pophale) SiO2 
 PCOD9233566
Probable space group: P 2/C
;
_chemical_formula_sum "Si O2"
_cell_formula_units_Z 22
_cell_length_a 24.112436
_cell_length_b 8.948024
_cell_length_c 14.174026
_cell_angle_alpha 90.000000
_cell_angle_beta 159.412898
_cell_angle_gamma 90.000000
_cell_volume 1075.346711
_symmetry_space_group_name_H-M "P 2/C"
_symmetry_group_IT_number 13
_symmetry_cell_setting 'monoclinic'
loop_
_space_group_symop_operation_xyz
x,y,z
-x,y,1/2-z
-x,-y,-z
x,-y,1/2+z
loop_
_atom_site_type_symbol
_atom_site_label
_atom_site_fract_x
_atom_site_fract_y
_atom_site_fract_z
Si Si1 0.000000 0.860112 0.750000
Si Si2 0.874803 0.394646 0.751321
Si Si3 0.726787 0.679117 0.208351
Si Si4 0.563149 0.867940 0.666421
Si Si5 0.329270 0.569544 0.744431
Si Si6 0.107255 0.067190 0.753341
O O1 0.874534 0.761263 0.492767
O O2 0.081737 0.967655 0.804566
O O3 0.754425 0.341061 0.641467
O O4 0.785511 0.475659 0.524084
O O5 0.944536 0.240458 0.821246
O O6 0.000000 0.500000 0.000000
O O7 0.724311 0.510843 0.246266
O O8 0.574082 0.776833 0.996766
O O9 0.647493 0.746242 0.731501
O O10 0.500000 0.000000 0.500000
O O11 0.702513 0.929756 0.955476
O O12 0.500000 0.500000 0.000000
O O13 0.000000 0.000000 0.500000
#
# Coordination Sequence:
#
# PCOD9233566 Si02
#       6
#     2   4   4   4   4   4
#     4  12  22  40  70  94 136 178 228 284 356 408
#     4  11  24  42  66  95 135 175 229 278 336 419
#     4  11  22  42  69  93 131 188 221 280 358 403
#     4  10  21  41  67  93 136 173 222 283 343 412
#     4   9  22  38  63  95 130 170 223 280 333 410
#     4  11  24  41  64 102 131 172 229 284 335 418
#
# _framework density 20.458518000000002
#
# number of rings (size 3 to 8) (size 9 to 14) (size 15 to 20)
#    0.000    1.455    3.636    1.091    0.000    9.455 
#    0.000    0.000    0.000    8.727    0.000    0.000 
#    0.000    0.000    0.000    0.000    0.000    0.000 
#
# Total GULP energy -122745.711586 kJ/mol
# GULP energy per Si atom -5579.350527 kJ/mol
# Density = 2.041195 g / cm^3
# Si number density = 20.458518 Si / 1000 Ang^3
#
#
#
# Elastic Constant Matrix: (Units=GPa)
#
#
# Indices 1 2 3 4 5 6 
#
# 1 54.0283 -2.5975 -12.6906 0.0000 7.2694 0.0000
# 2 -2.5975 68.6585 19.0349 0.0000 5.3463 0.0000
# 3 -12.6906 19.0349 116.6214 0.0000 -11.5582 0.0000
# 4 0.0000 0.0000 0.0000 46.7358 0.0000 -8.2554
# 5 7.2694 5.3463 -11.5582 0.0000 29.3151 0.0000
# 6 0.0000 0.0000 0.0000 -8.2554 0.0000 39.2659
#
#
#
# Elastic Compliance Matrix: (Units=1/GPa)
#
#
# Indices 1 2 3 4 5 6 
#
# 1 0.019494 0.000633 0.001590 0.000000 -0.004323 0.000000
# 2 0.000633 0.015721 -0.002910 0.000000 -0.004172 0.000000
# 3 0.001590 -0.002910 0.009612 0.000000 0.003926 0.000000
# 4 0.000000 0.000000 0.000000 0.022222 0.000000 0.004672
# 5 -0.004323 -0.004172 0.003926 0.000000 0.037493 0.000000
# 6 0.000000 0.000000 0.000000 0.004672 0.000000 0.026450
#
#
# Mechanical properties :
#
#
# Convention : Reuss Voigt Hill
#
# Bulk Modulus (GPa) = 23.01401 27.42242 25.21821
# Shear Modulus (GPa) = 34.04830 38.76746 36.40788
#
# Velocity S-wave (km/s) = 4.08396 4.35780 4.22310
# Velocity P-wave (km/s) = 5.78894 6.22524 6.01105
#
# Compressibility (1/GPa) = 0.04345180
#
# Stress axis : x y z
#
# Youngs Moduli (GPa) = 51.29713 63.61112 104.03783
#
# Poissons Ratio (x) = -0.04029 -0.16537
# Poissons Ratio (y) = -0.03249 0.30279
# Poissons Ratio (z) = -0.08154 0.18513
#
# Static dielectric constant tensor:
#      x y z
#    x 1.739200 0.000000 0.037010 
#    y 0.000000 1.744250 0.000000 
#    z 0.037010 0.000000 1.762070 
# 
# From -- ./inp_files/58757.got.cif
#   From: 2010.05.17/outbox.cif.g08.bks.cpg/sg13_30_cif.got.tgz:58757.got - 2010.06.03 16:44:36.
