data_PCOD9233627
_publ_section_title
;
Structure prediction by ZEFSAII (Michael W. Deem and Ramdas Pophale) SiO2 
 PCOD9233627
Probable space group: P 2/C
;
_chemical_formula_sum "Si O2"
_cell_formula_units_Z 26
_cell_length_a 9.152358
_cell_length_b 14.494781
_cell_length_c 15.847627
_cell_angle_alpha 90.000000
_cell_angle_beta 35.929885
_cell_angle_gamma 90.000000
_cell_volume 1233.659041
_symmetry_space_group_name_H-M "P 2/C"
_symmetry_group_IT_number 13
_symmetry_cell_setting 'monoclinic'
loop_
_space_group_symop_operation_xyz
x,y,z
-x,y,1/2-z
-x,-y,-z
x,-y,1/2+z
loop_
_atom_site_type_symbol
_atom_site_label
_atom_site_fract_x
_atom_site_fract_y
_atom_site_fract_z
Si Si1 0.680484 0.760097 0.776705
Si Si2 0.250397 0.576479 0.689989
Si Si3 0.361050 0.025032 0.977115
Si Si4 0.358276 0.199243 0.731699
Si Si5 0.284803 0.626257 0.149124
Si Si6 0.000000 0.869763 0.750000
Si Si7 0.202646 0.842409 0.956370
O O1 0.770534 0.655213 0.729515
O O2 0.787544 0.804999 0.811345
O O3 0.383734 0.767445 0.914538
O O4 0.771104 0.820878 0.654993
O O5 0.498200 0.605546 0.521233
O O6 0.278057 0.470446 0.704259
O O7 0.000000 0.581337 0.750000
O O8 0.098599 0.065650 0.130039
O O9 0.507864 0.108044 0.865624
O O10 0.500000 0.000000 0.000000
O O11 0.312641 0.939615 0.937679
O O12 0.500000 0.228350 0.750000
O O13 0.358205 0.283322 0.666469
O O14 0.077140 0.170758 0.884384
O O15 0.000000 0.638725 0.250000
#
# Coordination Sequence:
#
# PCOD9233627 Si02
#       7
#     4   4   4   4   4   2   4
#     4  11  23  43  68  97 137 178 227 285 340 410
#     4  10  21  41  76 104 134 180 237 283 341 416
#     4  12  26  43  69  97 127 182 227 285 333 411
#     4  12  28  45  68 100 142 181 221 290 349 406
#     4  10  23  44  72 105 138 181 231 289 344 411
#     4  12  22  40  68  94 126 174 232 274 332 410
#     4  11  27  45  64 100 139 181 229 281 350 407
#
# _framework density 21.075516
#
# number of rings (size 3 to 8) (size 9 to 14) (size 15 to 20)
#    0.000    0.923    2.308    3.692    6.462    1.231 
#    2.769    0.769    0.000    0.000    0.000    0.000 
#    0.000    0.000    0.000    0.000    0.000    0.000 
#
# Total GULP energy -145307.021488 kJ/mol
# GULP energy per Si atom -5588.731596 kJ/mol
# Density = 2.102755 g / cm^3
# Si number density = 21.075516 Si / 1000 Ang^3
#
#
#
# Elastic Constant Matrix: (Units=GPa)
#
#
# Indices 1 2 3 4 5 6 
#
# 1 91.7778 48.5065 16.3178 0.0000 -2.4304 0.0000
# 2 48.5065 157.7086 28.0380 0.0000 12.5948 0.0000
# 3 16.3178 28.0380 92.0268 0.0000 -13.0157 0.0000
# 4 0.0000 0.0000 0.0000 25.0844 0.0000 -2.2376
# 5 -2.4304 12.5948 -13.0157 0.0000 28.8710 0.0000
# 6 0.0000 0.0000 0.0000 -2.2376 0.0000 29.2711
#
#
#
# Elastic Compliance Matrix: (Units=1/GPa)
#
#
# Indices 1 2 3 4 5 6 
#
# 1 0.013297 -0.004171 -0.000717 0.000000 0.002616 0.000000
# 2 -0.004171 0.008502 -0.002590 0.000000 -0.005228 0.000000
# 3 -0.000717 -0.002590 0.012747 0.000000 0.006816 0.000000
# 4 0.000000 0.000000 0.000000 0.040139 0.000000 0.003068
# 5 0.002616 -0.005228 0.006816 0.000000 0.040210 0.000000
# 6 0.000000 0.000000 0.000000 0.003068 0.000000 0.034398
#
#
# Mechanical properties :
#
#
# Convention : Reuss Voigt Hill
#
# Bulk Modulus (GPa) = 51.04862 58.58198 54.81530
# Shear Modulus (GPa) = 29.27758 33.22202 31.24980
#
# Velocity S-wave (km/s) = 3.73121 3.97461 3.85483
# Velocity P-wave (km/s) = 6.54499 6.99428 6.77336
#
# Compressibility (1/GPa) = 0.01958917
#
# Stress axis : x y z
#
# Youngs Moduli (GPa) = 75.20360 117.62353 78.45213
#
# Poissons Ratio (x) = 0.49064 0.05625
# Poissons Ratio (y) = 0.31370 0.20319
# Poissons Ratio (z) = 0.05392 0.30464
#
# Static dielectric constant tensor:
#      x y z
#    x 1.754040 0.000000 -0.011070 
#    y 0.000000 1.800870 0.000000 
#    z -0.011070 0.000000 1.780700 
# 
# From -- ./inp_files/47895.got.cif
#   From: 2010.05.17/outbox.cif.g08.bks.cpg/sg13_24_cif.got.tgz:47895.got - 2010.06.03 16:44:36.
