data_PCOD9233867
_publ_section_title
;
Structure prediction by ZEFSAII (Michael W. Deem and Ramdas Pophale) SiO2 
 PCOD9233867
Probable space group: P 2/C
;
_chemical_formula_sum "Si O2"
_cell_formula_units_Z 22
_cell_length_a 13.956696
_cell_length_b 8.854240
_cell_length_c 8.299587
_cell_angle_alpha 90.000000
_cell_angle_beta 122.843862
_cell_angle_gamma 90.000000
_cell_volume 861.684102
_symmetry_space_group_name_H-M "P 2/C"
_symmetry_group_IT_number 13
_symmetry_cell_setting 'monoclinic'
loop_
_space_group_symop_operation_xyz
x,y,z
-x,y,1/2-z
-x,-y,-z
x,-y,1/2+z
loop_
_atom_site_type_symbol
_atom_site_label
_atom_site_fract_x
_atom_site_fract_y
_atom_site_fract_z
Si Si1 0.710050 0.529416 0.358689
Si Si2 0.741431 0.053776 0.396118
Si Si3 0.626297 0.725475 0.578784
Si Si4 0.054154 0.850133 0.971168
Si Si5 0.500000 0.078446 0.750000
Si Si6 0.162282 0.323058 0.812421
O O1 0.659529 0.634641 0.449417
O O2 0.625731 0.394809 0.223488
O O3 0.823197 0.448990 0.536529
O O4 0.744743 0.619535 0.231956
O O5 0.722690 0.153192 0.217760
O O6 0.804292 0.165056 0.575855
O O7 0.816402 0.905715 0.441204
O O8 0.614273 0.016310 0.336413
O O9 0.515924 0.818823 0.424487
O O10 0.000000 0.811981 0.750000
O O11 0.053495 0.717203 0.103015
O O12 0.000000 0.000000 0.000000
#
# Coordination Sequence:
#
# PCOD9233867 Si02
#       6
#     4   4   4   4   2   4
#     4   9  21  42  69  93 138 183 225 277 327 408
#     4  11  24  43  69 102 136 174 224 284 341 403
#     4  10  22  40  65  96 136 177 227 273 337 403
#     4  12  25  44  72 103 135 178 224 282 343 396
#     4  12  24  40  68 106 138 176 220 286 346 394
#     4  10  21  43  69  99 136 177 228 276 335 406
#
# _framework density 25.531399
#
# number of rings (size 3 to 8) (size 9 to 14) (size 15 to 20)
#    0.000    1.455    1.818    2.727    2.545    2.182 
#    0.000    7.273    0.000    0.000    0.000    0.000 
#    0.000    0.000    0.000    0.000    0.000    0.000 
#
# Total GULP energy -123130.438327 kJ/mol
# GULP energy per Si atom -5596.838106 kJ/mol
# Density = 2.547329 g / cm^3
# Si number density = 25.531399 Si / 1000 Ang^3
#
#
#
# Elastic Constant Matrix: (Units=GPa)
#
#
# Indices 1 2 3 4 5 6 
#
# 1 63.5318 2.2485 -4.3005 0.0000 1.7706 0.0000
# 2 2.2485 57.2974 17.6037 0.0000 -5.1063 0.0000
# 3 -4.3005 17.6037 153.1957 0.0000 -15.1448 0.0000
# 4 0.0000 0.0000 0.0000 51.3990 0.0000 -10.9697
# 5 1.7706 -5.1063 -15.1448 0.0000 29.7067 0.0000
# 6 0.0000 0.0000 0.0000 -10.9697 0.0000 25.7127
#
#
#
# Elastic Compliance Matrix: (Units=1/GPa)
#
#
# Indices 1 2 3 4 5 6 
#
# 1 0.015824 -0.000837 0.000456 0.000000 -0.000855 0.000000
# 2 -0.000837 0.018268 -0.001903 0.000000 0.002220 0.000000
# 3 0.000456 -0.001903 0.007081 0.000000 0.003256 0.000000
# 4 0.000000 0.000000 0.000000 0.021405 0.000000 0.009132
# 5 -0.000855 0.002220 0.003256 0.000000 0.035755 0.000000
# 6 0.000000 0.000000 0.000000 0.009132 0.000000 0.042787
#
#
# Mechanical properties :
#
#
# Convention : Reuss Voigt Hill
#
# Bulk Modulus (GPa) = 27.31903 33.90314 30.61108
# Shear Modulus (GPa) = 31.66751 38.59522 35.13136
#
# Velocity S-wave (km/s) = 3.52566 3.89225 3.71348
# Velocity P-wave (km/s) = 5.22466 5.78855 5.51382
#
# Compressibility (1/GPa) = 0.03660452
#
# Stress axis : x y z
#
# Youngs Moduli (GPa) = 63.19329 54.73986 141.22397
#
# Poissons Ratio (x) = 0.04583 -0.06439
# Poissons Ratio (y) = 0.05291 0.26879
# Poissons Ratio (z) = -0.02881 0.10418
#
# Static dielectric constant tensor:
#      x y z
#    x 2.028310 0.000000 -0.003170 
#    y 0.000000 2.032500 0.000000 
#    z -0.003170 0.000000 2.056470 
# 
# From -- ./inp_files/21265.got.cif
#   From: 2010.05.17/outbox.cif.g08.bks.cpg/sg13_11_cif.got.tgz:21265.got - 2010.06.03 16:44:36.
