data_PCOD9233888
_publ_section_title
;
Structure prediction by ZEFSAII (Michael W. Deem and Ramdas Pophale) SiO2 
 PCOD9233888
Probable space group: P 2/C
;
_chemical_formula_sum "Si O2"
_cell_formula_units_Z 24
_cell_length_a 16.546603
_cell_length_b 9.747688
_cell_length_c 22.453948
_cell_angle_alpha 90.000000
_cell_angle_beta 163.388867
_cell_angle_gamma 90.000000
_cell_volume 1035.329780
_symmetry_space_group_name_H-M "P 2/C"
_symmetry_group_IT_number 13
_symmetry_cell_setting 'monoclinic'
loop_
_space_group_symop_operation_xyz
x,y,z
-x,y,1/2-z
-x,-y,-z
x,-y,1/2+z
loop_
_atom_site_type_symbol
_atom_site_label
_atom_site_fract_x
_atom_site_fract_y
_atom_site_fract_z
Si Si1 0.879750 0.940307 0.320802
Si Si2 0.010987 0.833479 0.828535
Si Si3 0.044881 0.638462 0.437220
Si Si4 0.458276 0.994797 0.300457
Si Si5 0.420720 0.296648 0.102605
Si Si6 0.322039 0.602852 0.833437
O O1 0.860686 0.776591 0.301265
O O2 0.187197 0.981489 0.566777
O O3 0.337888 0.018682 0.781671
O O4 0.853110 0.031397 0.243087
O O5 0.000000 0.816689 0.750000
O O6 0.864767 0.710119 0.761023
O O7 0.343490 0.866228 0.074464
O O8 0.292204 0.673876 0.658123
O O9 0.182815 0.617956 0.469142
O O10 0.887842 0.503460 0.346931
O O11 0.636790 0.135923 0.426527
O O12 0.480332 0.326659 0.076254
O O13 0.500000 0.500000 0.000000
#
# Coordination Sequence:
#
# PCOD9233888 Si02
#       6
#     4   4   4   4   4   4
#     4  10  21  44  73 105 129 174 223 301 344 397
#     4  12  27  43  64 101 141 186 231 275 340 414
#     4  10  23  43  74  98 131 173 224 286 350 405
#     4  10  21  43  75 101 135 165 235 295 345 396
#     4  10  21  46  71 100 130 172 229 287 349 400
#     4  12  29  46  63  97 147 190 225 276 339 420
#
# _framework density 23.18102
#
# number of rings (size 3 to 8) (size 9 to 14) (size 15 to 20)
#    0.000    1.333    3.333    1.000    4.667    2.000 
#    6.000    0.000    0.000    0.000    0.000    0.000 
#    0.000    0.000    0.000    0.000    0.000    0.000 
#
# Total GULP energy -134185.968496 kJ/mol
# GULP energy per Si atom -5591.082021 kJ/mol
# Density = 2.312826 g / cm^3
# Si number density = 23.181020 Si / 1000 Ang^3
#
#
#
# Elastic Constant Matrix: (Units=GPa)
#
#
# Indices 1 2 3 4 5 6 
#
# 1 131.2004 30.1724 12.4690 0.0000 -12.8248 0.0000
# 2 30.1724 97.5534 24.2845 0.0000 -1.8207 0.0000
# 3 12.4690 24.2845 52.1576 0.0000 -1.0740 0.0000
# 4 0.0000 0.0000 0.0000 31.3231 0.0000 12.4081
# 5 -12.8248 -1.8207 -1.0740 0.0000 23.1198 0.0000
# 6 0.0000 0.0000 0.0000 12.4081 0.0000 38.1902
#
#
#
# Elastic Compliance Matrix: (Units=1/GPa)
#
#
# Indices 1 2 3 4 5 6 
#
# 1 0.008704 -0.002389 -0.000874 0.000000 0.004599 0.000000
# 2 -0.002389 0.012260 -0.005150 0.000000 -0.000599 0.000000
# 3 -0.000874 -0.005150 0.021782 0.000000 0.000122 0.000000
# 4 0.000000 0.000000 0.000000 0.036641 0.000000 -0.011905
# 5 0.004599 -0.000599 0.000122 0.000000 0.045763 0.000000
# 6 0.000000 0.000000 0.000000 -0.011905 0.000000 0.030053
#
#
# Mechanical properties :
#
#
# Convention : Reuss Voigt Hill
#
# Bulk Modulus (GPa) = 38.57804 46.08481 42.33142
# Shear Modulus (GPa) = 27.67511 32.79231 30.23371
#
# Velocity S-wave (km/s) = 3.45899 3.76522 3.61535
# Velocity P-wave (km/s) = 5.71236 6.23106 5.97734
#
# Compressibility (1/GPa) = 0.02592149
#
# Stress axis : x y z
#
# Youngs Moduli (GPa) = 114.89102 81.56382 45.91000
#
# Poissons Ratio (x) = 0.19483 0.04012
# Poissons Ratio (y) = 0.27443 0.23642
# Poissons Ratio (z) = 0.10041 0.42003
#
# Static dielectric constant tensor:
#      x y z
#    x 1.861560 0.000000 -0.000770 
#    y 0.000000 1.834350 0.000000 
#    z -0.000770 0.000000 1.967630 
# 
# From -- ./inp_files/88050.got.cif
#   From: 2010.05.17/outbox.cif.g08.bks.cpg/sg13_45_cif.got.tgz:88050.got - 2010.06.03 16:44:36.
