data_PCOD9233705
_publ_section_title
;
Structure prediction by ZEFSAII (Michael W. Deem and Ramdas Pophale) SiO2 
 PCOD9233705
Probable space group: P 2/C
;
_chemical_formula_sum "Si O2"
_cell_formula_units_Z 24
_cell_length_a 20.650521
_cell_length_b 7.769810
_cell_length_c 20.466390
_cell_angle_alpha 90.000000
_cell_angle_beta 21.020819
_cell_angle_gamma 90.000000
_cell_volume 1177.938708
_symmetry_space_group_name_H-M "P 2/C"
_symmetry_group_IT_number 13
_symmetry_cell_setting 'monoclinic'
loop_
_space_group_symop_operation_xyz
x,y,z
-x,y,1/2-z
-x,-y,-z
x,-y,1/2+z
loop_
_atom_site_type_symbol
_atom_site_label
_atom_site_fract_x
_atom_site_fract_y
_atom_site_fract_z
Si Si1 0.361701 0.440968 0.321493
Si Si2 0.552114 0.355614 0.400475
Si Si3 0.800588 0.155944 0.746944
Si Si4 0.068029 0.146037 0.612080
Si Si5 0.927016 0.261658 0.392959
Si Si6 0.088056 0.760252 0.875566
O O1 0.500000 0.438690 0.250000
O O2 0.234191 0.273042 0.445229
O O3 0.241191 0.612347 0.439511
O O4 0.464064 0.426330 0.156892
O O5 0.500000 0.500000 0.500000
O O6 0.408117 0.202736 0.547583
O O7 0.759994 0.319104 0.221479
O O8 0.912552 0.198202 0.707174
O O9 0.898197 0.246547 0.593162
O O10 0.841297 0.955560 0.697727
O O11 0.000000 0.165087 0.750000
O O12 0.113727 0.942806 0.559386
O O13 0.000000 0.283222 0.250000
O O14 0.062322 0.306754 0.325793
#
# Coordination Sequence:
#
# PCOD9233705 Si02
#       6
#     4   4   4   4   4   4
#     4  12  26  42  63  98 135 172 217 273 327 386
#     4  12  26  39  64 102 131 171 218 263 328 391
#     4  10  21  42  67  94 131 169 219 267 323 386
#     4  10  21  43  68  93 127 177 219 268 331 383
#     4  10  24  43  68  93 128 176 218 268 330 386
#     4  10  22  43  68  95 128 173 214 272 324 378
#
# _framework density 20.374573999999999
#
# number of rings (size 3 to 8) (size 9 to 14) (size 15 to 20)
#    0.000    1.333    1.667    3.000    4.667    2.000 
#    3.000    0.000    0.000    0.000    0.000    0.000 
#    0.000    0.000    0.000    0.000    0.000    0.000 
#
# Total GULP energy -134068.608804 kJ/mol
# GULP energy per Si atom -5586.192033 kJ/mol
# Density = 2.032820 g / cm^3
# Si number density = 20.374574 Si / 1000 Ang^3
#
#
#
# Elastic Constant Matrix: (Units=GPa)
#
#
# Indices 1 2 3 4 5 6 
#
# 1 158.4607 18.7554 17.3090 0.0000 13.5520 0.0000
# 2 18.7554 46.1771 16.5758 0.0000 8.4959 0.0000
# 3 17.3090 16.5758 38.5597 0.0000 17.4664 0.0000
# 4 0.0000 0.0000 0.0000 2.6578 0.0000 -50.6122
# 5 13.5520 8.4959 17.4664 0.0000 39.7579 0.0000
# 6 0.0000 0.0000 0.0000 -50.6122 0.0000 -83.1879
#
#
#
# Elastic Compliance Matrix: (Units=1/GPa)
#
#
# Indices 1 2 3 4 5 6 
#
# 1 0.006827 -0.001948 -0.001700 0.000000 -0.001164 0.000000
# 2 -0.001948 0.026183 -0.010171 0.000000 -0.000463 0.000000
# 3 -0.001700 -0.010171 0.037231 0.000000 -0.013603 0.000000
# 4 0.000000 0.000000 0.000000 0.029895 0.000000 -0.018188
# 5 -0.001164 -0.000463 -0.013603 0.000000 0.031624 0.000000
# 6 0.000000 0.000000 0.000000 -0.018188 0.000000 -0.000955
#
#
# Mechanical properties :
#
#
# Convention : Reuss Voigt Hill
#
# Bulk Modulus (GPa) = 23.47300 38.71980 31.09640
# Shear Modulus (GPa) = 28.96130 4.54938 16.75534
#
# Velocity S-wave (km/s) = 3.77429 1.49590 2.87080
# Velocity P-wave (km/s) = 5.52625 4.69349 5.12681
#
# Compressibility (1/GPa) = 0.04260214
#
# Stress axis : x y z
#
# Youngs Moduli (GPa) = 146.48759 38.19220 26.85929
#
# Poissons Ratio (x) = 0.07442 0.04565
# Poissons Ratio (y) = 0.28543 0.27320
# Poissons Ratio (z) = 0.24896 0.38847
#
# Static dielectric constant tensor:
#      x y z
#    x 1.718500 0.000000 -0.007380 
#    y 0.000000 1.548580 0.000000 
#    z -0.007380 0.000000 1.668820 
# 
# From -- ./inp_files/81621.got.cif
#   From: 2010.05.17/outbox.cif.g08.bks.cpg/sg13_41_cif.got.tgz:81621.got - 2010.06.03 16:44:36.
