data_PCOD9233859
_publ_section_title
;
Structure prediction by ZEFSAII (Michael W. Deem and Ramdas Pophale) SiO2 
 PCOD9233859
Probable space group: P 2/C
;
_chemical_formula_sum "Si O2"
_cell_formula_units_Z 20
_cell_length_a 5.094710
_cell_length_b 10.706631
_cell_length_c 17.046624
_cell_angle_alpha 90.000000
_cell_angle_beta 77.341542
_cell_angle_gamma 90.000000
_cell_volume 907.244157
_symmetry_space_group_name_H-M "P 2/C"
_symmetry_group_IT_number 13
_symmetry_cell_setting 'monoclinic'
loop_
_space_group_symop_operation_xyz
x,y,z
-x,y,1/2-z
-x,-y,-z
x,-y,1/2+z
loop_
_atom_site_type_symbol
_atom_site_label
_atom_site_fract_x
_atom_site_fract_y
_atom_site_fract_z
Si Si1 0.000000 0.525168 0.750000
Si Si2 0.414180 0.831559 0.594821
Si Si3 0.500000 0.706090 0.750000
Si Si4 0.843019 0.931870 0.440767
Si Si5 0.324266 0.621268 0.486941
Si Si6 0.117928 0.329892 0.606137
O O1 0.751633 0.615671 0.748068
O O2 0.955582 0.430173 0.824264
O O3 0.535400 0.789871 0.669539
O O4 0.614271 0.869767 0.511133
O O5 0.276110 0.708975 0.565857
O O6 0.240536 0.957386 0.612206
O O7 0.973823 0.815210 0.387095
O O8 0.000000 0.000000 0.500000
O O9 0.500000 0.500000 0.500000
O O10 0.556372 0.677484 0.414985
O O11 0.042537 0.618704 0.459961
#
# Coordination Sequence:
#
# PCOD9233859 Si02
#       6
#     2   4   2   4   4   4
#     4  12  26  46  62 100 144 178 226 276 346 410
#     4  10  23  42  65 101 130 179 223 281 341 400
#     4  12  28  46  68  98 146 178 218 284 346 410
#     4  10  21  43  69  94 132 170 237 280 328 408
#     4  11  21  37  66  93 124 171 229 268 325 395
#     4  11  23  40  64  93 128 176 215 279 329 388
#
# _framework density 22.044782000000001
#
# number of rings (size 3 to 8) (size 9 to 14) (size 15 to 20)
#    0.000    1.200    2.000    4.200    2.800    1.600 
#    3.600    0.000    0.000    0.000    0.000    0.000 
#    0.000    0.000    0.000    0.000    0.000    0.000 
#
# Total GULP energy -111400.043555 kJ/mol
# GULP energy per Si atom -5570.002178 kJ/mol
# Density = 2.199461 g / cm^3
# Si number density = 22.044782 Si / 1000 Ang^3
#
#
#
# Elastic Constant Matrix: (Units=GPa)
#
#
# Indices 1 2 3 4 5 6 
#
# 1 88.5590 30.5814 13.8327 0.0000 21.5717 0.0000
# 2 30.5814 188.6306 64.1802 0.0000 18.4458 0.0000
# 3 13.8327 64.1802 104.7438 0.0000 27.9854 0.0000
# 4 0.0000 0.0000 0.0000 57.8019 0.0000 5.6603
# 5 21.5717 18.4458 27.9854 0.0000 25.2633 0.0000
# 6 0.0000 0.0000 0.0000 5.6603 0.0000 15.8248
#
#
#
# Elastic Compliance Matrix: (Units=1/GPa)
#
#
# Indices 1 2 3 4 5 6 
#
# 1 0.015182 -0.002117 0.003327 0.000000 -0.015104 0.000000
# 2 -0.002117 0.006997 -0.004440 0.000000 0.001616 0.000000
# 3 0.003327 -0.004440 0.016648 0.000000 -0.018042 0.000000
# 4 0.000000 0.000000 0.000000 0.017928 0.000000 -0.006413
# 5 -0.015104 0.001616 -0.018042 0.000000 0.071286 0.000000
# 6 0.000000 0.000000 0.000000 -0.006413 0.000000 0.065486
#
#
# Mechanical properties :
#
#
# Convention : Reuss Voigt Hill
#
# Bulk Modulus (GPa) = 30.89267 66.56914 48.73091
# Shear Modulus (GPa) = 23.72192 38.00059 30.86125
#
# Velocity S-wave (km/s) = 3.28392 4.15636 3.74563
# Velocity P-wave (km/s) = 5.33131 7.30045 6.39216
#
# Compressibility (1/GPa) = 0.03237013
#
# Stress axis : x y z
#
# Youngs Moduli (GPa) = 65.86644 142.91837 60.06562
#
# Poissons Ratio (x) = 0.30249 -0.19986
# Poissons Ratio (y) = 0.13941 0.26667
# Poissons Ratio (z) = -0.21916 0.63451
#
# Static dielectric constant tensor:
#      x y z
#    x 2.017530 0.000000 -0.077570 
#    y 0.000000 2.120000 0.000000 
#    z -0.077570 0.000000 1.849280 
# 
# From -- ./inp_files/43766.got.cif
#   From: 2010.05.17/outbox.cif.g08.bks.cpg/sg13_22_cif.got.tgz:43766.got - 2010.06.03 16:44:36.
