data_PCOD9233742
_publ_section_title
;
Structure prediction by ZEFSAII (Michael W. Deem and Ramdas Pophale) SiO2 
 PCOD9233742
Probable space group: P 2/C
;
_chemical_formula_sum "Si O2"
_cell_formula_units_Z 26
_cell_length_a 8.283639
_cell_length_b 14.795917
_cell_length_c 11.824166
_cell_angle_alpha 90.000000
_cell_angle_beta 59.998414
_cell_angle_gamma 90.000000
_cell_volume 1255.039109
_symmetry_space_group_name_H-M "P 2/C"
_symmetry_group_IT_number 13
_symmetry_cell_setting 'monoclinic'
loop_
_space_group_symop_operation_xyz
x,y,z
-x,y,1/2-z
-x,-y,-z
x,-y,1/2+z
loop_
_atom_site_type_symbol
_atom_site_label
_atom_site_fract_x
_atom_site_fract_y
_atom_site_fract_z
Si Si1 0.936665 0.645012 0.653067
Si Si2 0.568954 0.422366 0.340535
Si Si3 0.425836 0.129437 0.562259
Si Si4 0.500000 0.250214 0.750000
Si Si5 0.663796 0.395244 0.544852
Si Si6 0.291532 0.190191 0.368762
Si Si7 0.222619 0.058693 0.192008
O O1 0.787125 0.568217 0.738563
O O2 0.843856 0.724781 0.611807
O O3 0.000000 0.689842 0.750000
O O4 0.116794 0.594885 0.544002
O O5 0.500000 0.378916 0.250000
O O6 0.571380 0.366704 0.456122
O O7 0.447222 0.512441 0.393936
O O8 0.427307 0.192443 0.671231
O O9 0.311408 0.166593 0.494073
O O10 0.641070 0.116624 0.441149
O O11 0.326667 0.037376 0.640064
O O12 0.644898 0.319481 0.644799
O O13 0.500000 0.204957 0.250000
O O14 0.233898 0.103860 0.312362
O O15 0.000000 0.052922 0.250000
#
# Coordination Sequence:
#
# PCOD9233742 Si02
#       7
#     4   4   4   2   4   4   4
#     4  10  22  38  70 101 127 172 226 272 326 394
#     4  10  21  42  69  93 128 167 224 273 319 396
#     4  10  26  42  66  97 137 176 215 279 335 395
#     4  12  26  44  64  92 142 174 210 278 346 392
#     4  10  24  43  65  96 132 175 215 270 345 386
#     4  10  22  40  67 101 130 169 228 273 322 392
#     4  10  23  43  70  98 130 179 226 270 329 390
#
# _framework density 20.716484999999999
#
# number of rings (size 3 to 8) (size 9 to 14) (size 15 to 20)
#    0.000    1.846    0.769    0.923   18.308    2.462 
#    0.000    0.000    0.000    0.000    0.000    0.000 
#    0.000    0.000    0.000    0.000    0.000    0.000 
#
# Total GULP energy -144741.935286 kJ/mol
# GULP energy per Si atom -5566.997511 kJ/mol
# Density = 2.066933 g / cm^3
# Si number density = 20.716485 Si / 1000 Ang^3
#
#
#
# Elastic Constant Matrix: (Units=GPa)
#
#
# Indices 1 2 3 4 5 6 
#
# 1 114.0551 52.9170 70.2845 0.0000 -18.0758 0.0000
# 2 52.9170 95.9836 56.3810 0.0000 -5.1810 0.0000
# 3 70.2845 56.3810 122.1425 0.0000 5.8893 0.0000
# 4 0.0000 0.0000 0.0000 20.6527 0.0000 -1.6367
# 5 -18.0758 -5.1810 5.8893 0.0000 34.5435 0.0000
# 6 0.0000 0.0000 0.0000 -1.6367 0.0000 45.1084
#
#
#
# Elastic Compliance Matrix: (Units=1/GPa)
#
#
# Indices 1 2 3 4 5 6 
#
# 1 0.017660 -0.004024 -0.008793 0.000000 0.010137 0.000000
# 2 -0.004024 0.015593 -0.004934 0.000000 0.001074 0.000000
# 3 -0.008793 -0.004934 0.015913 0.000000 -0.008054 0.000000
# 4 0.000000 0.000000 0.000000 0.048559 0.000000 0.001762
# 5 0.010137 0.001074 -0.008054 0.000000 0.035788 0.000000
# 6 0.000000 0.000000 0.000000 0.001762 0.000000 0.022233
#
#
# Mechanical properties :
#
#
# Convention : Reuss Voigt Hill
#
# Bulk Modulus (GPa) = 73.18805 76.81622 75.00214
# Shear Modulus (GPa) = 25.53590 30.23418 27.88504
#
# Velocity S-wave (km/s) = 3.51470 3.82439 3.67281
# Velocity P-wave (km/s) = 7.20250 7.52738 7.36673
#
# Compressibility (1/GPa) = 0.01366343
#
# Stress axis : x y z
#
# Youngs Moduli (GPa) = 56.62592 64.13082 62.84110
#
# Poissons Ratio (x) = 0.25804 0.55259
# Poissons Ratio (y) = 0.22784 0.31007
# Poissons Ratio (z) = 0.49793 0.31644
#
# Static dielectric constant tensor:
#      x y z
#    x 1.734890 0.000000 0.035160 
#    y 0.000000 1.786490 0.000000 
#    z 0.035160 0.000000 1.811930 
# 
# From -- ./inp_files/30002.got.cif
#   From: 2010.05.17/outbox.cif.g08.bks.cpg/sg13_16_cif.got.tgz:30002.got - 2010.06.03 16:44:36.
