data_PCOD9233361
_publ_section_title
;
Structure prediction by ZEFSAII (Michael W. Deem and Ramdas Pophale) SiO2 
 PCOD9233361
Probable space group: P 2/C
;
_chemical_formula_sum "Si O2"
_cell_formula_units_Z 26
_cell_length_a 10.120871
_cell_length_b 20.633526
_cell_length_c 8.969500
_cell_angle_alpha 90.000000
_cell_angle_beta 44.583223
_cell_angle_gamma 90.000000
_cell_volume 1314.808092
_symmetry_space_group_name_H-M "P 2/C"
_symmetry_group_IT_number 13
_symmetry_cell_setting 'monoclinic'
loop_
_space_group_symop_operation_xyz
x,y,z
-x,y,1/2-z
-x,-y,-z
x,-y,1/2+z
loop_
_atom_site_type_symbol
_atom_site_label
_atom_site_fract_x
_atom_site_fract_y
_atom_site_fract_z
Si Si1 0.500000 0.146206 0.250000
Si Si2 0.605970 0.809277 0.328498
Si Si3 0.098717 0.905435 0.526552
Si Si4 0.978858 0.430640 0.094533
Si Si5 0.340260 0.341846 0.749822
Si Si6 0.551491 0.566852 0.876076
Si Si7 0.168956 0.044389 0.498304
O O1 0.491090 0.180491 0.426412
O O2 0.324677 0.097719 0.398517
O O3 0.500000 0.821135 0.250000
O O4 0.670290 0.734737 0.264423
O O5 0.784694 0.856647 0.168211
O O6 0.000000 0.873970 0.750000
O O7 0.922201 0.937863 0.585996
O O8 0.227207 0.968791 0.458622
O O9 0.766129 0.411147 0.227345
O O10 0.000000 0.444885 0.250000
O O11 0.000000 0.500000 0.000000
O O12 0.140506 0.377332 0.935548
O O13 0.500000 0.354753 0.750000
O O14 0.422118 0.376101 0.539286
O O15 0.500000 0.553196 0.750000
O O16 0.500000 0.500000 0.000000
O O17 0.000000 0.051418 0.750000
#
# Coordination Sequence:
#
# PCOD9233361 Si02
#       7
#     2   4   4   4   4   4   4
#     4  12  24  44  72 100 136 186 232 292 354 416
#     4  11  26  45  68 101 141 186 238 285 354 426
#     4  10  21  41  65  98 136 178 226 291 347 417
#     4  12  24  41  71 101 130 178 224 277 353 408
#     4  11  25  47  65  97 139 181 227 284 341 416
#     4  12  24  42  70 101 137 172 219 289 340 402
#     4  10  21  40  66  99 135 171 230 291 350 408
#
# _framework density 19.774747999999999
#
# number of rings (size 3 to 8) (size 9 to 14) (size 15 to 20)
#    0.000    0.923    4.615    2.308    2.154    1.231 
#    2.769    1.538    0.000    0.000    0.000    0.000 
#    0.000    0.000    0.000    0.000    0.000    0.000 
#
# Total GULP energy -144803.731481 kJ/mol
# GULP energy per Si atom -5569.374288 kJ/mol
# Density = 1.972974 g / cm^3
# Si number density = 19.774748 Si / 1000 Ang^3
#
#
#
# Elastic Constant Matrix: (Units=GPa)
#
#
# Indices 1 2 3 4 5 6 
#
# 1 104.1793 37.7740 53.4509 0.0000 9.0554 0.0000
# 2 37.7740 128.5240 63.6699 0.0000 -4.3907 0.0000
# 3 53.4509 63.6699 133.6553 0.0000 12.3333 0.0000
# 4 0.0000 0.0000 0.0000 36.6097 0.0000 1.3817
# 5 9.0554 -4.3907 12.3333 0.0000 41.5482 0.0000
# 6 0.0000 0.0000 0.0000 1.3817 0.0000 27.2762
#
#
#
# Elastic Compliance Matrix: (Units=1/GPa)
#
#
# Indices 1 2 3 4 5 6 
#
# 1 0.012420 -0.001736 -0.003982 0.000000 -0.001708 0.000000
# 2 -0.001736 0.010704 -0.004672 0.000000 0.002897 0.000000
# 3 -0.003982 -0.004672 0.011583 0.000000 -0.003064 0.000000
# 4 0.000000 0.000000 0.000000 0.027367 0.000000 -0.001386
# 5 -0.001708 0.002897 -0.003064 0.000000 0.025656 0.000000
# 6 0.000000 0.000000 0.000000 -0.001386 0.000000 0.036732
#
#
# Mechanical properties :
#
#
# Convention : Reuss Voigt Hill
#
# Bulk Modulus (GPa) = 71.80682 75.12755 73.46719
# Shear Modulus (GPa) = 33.35846 35.18441 34.27143
#
# Velocity S-wave (km/s) = 4.11167 4.22270 4.16756
# Velocity P-wave (km/s) = 7.67674 7.86442 7.77115
#
# Compressibility (1/GPa) = 0.01392625
#
# Stress axis : x y z
#
# Youngs Moduli (GPa) = 80.51570 93.41907 86.33236
#
# Poissons Ratio (x) = 0.16216 0.34381
# Poissons Ratio (y) = 0.13976 0.40338
# Poissons Ratio (z) = 0.32065 0.43649
#
# Static dielectric constant tensor:
#      x y z
#    x 1.777010 0.000000 0.029480 
#    y 0.000000 1.703750 0.000000 
#    z 0.029480 0.000000 1.768670 
# 
# From -- ./inp_files/13626.got.cif
#   From: 2010.05.17/outbox.cif.g08.bks.cpg/sg13_7_cif.got.tgz:13626.got - 2010.06.03 16:44:36.
