data_PCOD9233800
_publ_section_title
;
Structure prediction by ZEFSAII (Michael W. Deem and Ramdas Pophale) SiO2 
 PCOD9233800
Probable space group: P 2/C
;
_chemical_formula_sum "Si O2"
_cell_formula_units_Z 20
_cell_length_a 6.870178
_cell_length_b 15.679729
_cell_length_c 9.871607
_cell_angle_alpha 90.000000
_cell_angle_beta 70.923143
_cell_angle_gamma 90.000000
_cell_volume 1004.993918
_symmetry_space_group_name_H-M "P 2/C"
_symmetry_group_IT_number 13
_symmetry_cell_setting 'monoclinic'
loop_
_space_group_symop_operation_xyz
x,y,z
-x,y,1/2-z
-x,-y,-z
x,-y,1/2+z
loop_
_atom_site_type_symbol
_atom_site_label
_atom_site_fract_x
_atom_site_fract_y
_atom_site_fract_z
Si Si1 0.534352 0.291311 0.090154
Si Si2 0.482559 0.871286 0.091700
Si Si3 0.182511 0.424806 0.103114
Si Si4 0.148949 0.008715 0.093365
Si Si5 0.077112 0.383690 0.591733
O O1 0.500000 0.257874 0.250000
O O2 0.380158 0.370563 0.099281
O O3 0.506283 0.219538 0.983615
O O4 0.764844 0.325094 0.022676
O O5 0.500000 0.865996 0.250000
O O6 0.272307 0.922093 0.103132
O O7 0.672233 0.925167 0.986836
O O8 0.193203 0.527646 0.104026
O O9 0.000000 0.402638 0.250000
O O10 0.109123 0.404067 0.967466
O O11 0.000000 0.035110 0.250000
O O12 0.000000 0.000000 0.000000
O O13 0.000000 0.345098 0.750000
#
# Coordination Sequence:
#
# PCOD9233800 Si02
#       5
#     4   4   4   4   4
#     4  12  26  41  63  95 135 170 207 265 324 373
#     4  11  27  44  65 103 132 160 217 260 310 393
#     4  10  21  43  64  88 127 171 223 266 312 375
#     4  11  24  47  74  93 126 173 209 258 318 378
#     4  10  23  41  65  91 122 172 224 268 313 372
#
# _framework density 19.900618999999999
#
# number of rings (size 3 to 8) (size 9 to 14) (size 15 to 20)
#    0.000    1.200    4.000    0.600    5.600    3.200 
#    0.000    0.000    0.000    0.000    0.000    0.000 
#    0.000    0.000    0.000    0.000    0.000    0.000 
#
# Total GULP energy -111742.556653 kJ/mol
# GULP energy per Si atom -5587.127833 kJ/mol
# Density = 1.985532 g / cm^3
# Si number density = 19.900619 Si / 1000 Ang^3
#
#
#
# Elastic Constant Matrix: (Units=GPa)
#
#
# Indices 1 2 3 4 5 6 
#
# 1 68.0042 11.1793 30.5724 0.0000 1.5139 0.0000
# 2 11.1793 33.7003 14.7489 0.0000 0.3280 0.0000
# 3 30.5724 14.7489 165.1926 0.0000 -2.8466 0.0000
# 4 0.0000 0.0000 0.0000 26.8065 0.0000 7.2705
# 5 1.5139 0.3280 -2.8466 0.0000 39.5234 0.0000
# 6 0.0000 0.0000 0.0000 7.2705 0.0000 9.8790
#
#
#
# Elastic Compliance Matrix: (Units=1/GPa)
#
#
# Indices 1 2 3 4 5 6 
#
# 1 0.016653 -0.004331 -0.002709 0.000000 -0.000797 0.000000
# 2 -0.004331 0.032014 -0.002061 0.000000 -0.000248 0.000000
# 3 -0.002709 -0.002061 0.006749 0.000000 0.000607 0.000000
# 4 0.000000 0.000000 0.000000 0.046608 0.000000 -0.034302
# 5 -0.000797 -0.000248 0.000607 0.000000 0.025378 0.000000
# 6 0.000000 0.000000 0.000000 -0.034302 0.000000 0.126470
#
#
# Mechanical properties :
#
#
# Convention : Reuss Voigt Hill
#
# Bulk Modulus (GPa) = 26.87117 42.21095 34.54106
# Shear Modulus (GPa) = 17.57603 29.26820 23.42212
#
# Velocity S-wave (km/s) = 2.97508 3.83915 3.43440
# Velocity P-wave (km/s) = 5.03323 6.39602 5.75511
#
# Compressibility (1/GPa) = 0.03721460
#
# Stress axis : x y z
#
# Youngs Moduli (GPa) = 60.05097 31.23587 148.16186
#
# Poissons Ratio (x) = 0.13528 0.40137
# Poissons Ratio (y) = 0.26007 0.30538
# Poissons Ratio (z) = 0.16268 0.06438
#
# Static dielectric constant tensor:
#      x y z
#    x 1.689230 0.000000 0.038690 
#    y 0.000000 1.700020 0.000000 
#    z 0.038690 0.000000 1.632700 
# 
# From -- ./inp_files/9440.got.cif
#   From: 2010.05.17/outbox.cif.g08.bks.cpg/sg13_5_cif.got.tgz:9440.got - 2010.06.03 16:44:36.
