data_PCOD9233317
_publ_section_title
;
Structure prediction by ZEFSAII (Michael W. Deem and Ramdas Pophale) SiO2 
 PCOD9233317
Probable space group: P 2/C
;
_chemical_formula_sum "Si O2"
_cell_formula_units_Z 20
_cell_length_a 9.662777
_cell_length_b 14.501753
_cell_length_c 7.221001
_cell_angle_alpha 90.000000
_cell_angle_beta 119.409327
_cell_angle_gamma 90.000000
_cell_volume 881.464394
_symmetry_space_group_name_H-M "P 2/C"
_symmetry_group_IT_number 13
_symmetry_cell_setting 'monoclinic'
loop_
_space_group_symop_operation_xyz
x,y,z
-x,y,1/2-z
-x,-y,-z
x,-y,1/2+z
loop_
_atom_site_type_symbol
_atom_site_label
_atom_site_fract_x
_atom_site_fract_y
_atom_site_fract_z
Si Si1 0.658122 0.112601 0.225969
Si Si2 0.377186 0.440336 0.297128
Si Si3 0.170939 0.062775 0.812471
Si Si4 0.836984 0.794304 0.526588
Si Si5 0.163390 0.405147 0.458128
O O1 0.500000 0.118804 0.250000
O O2 0.788388 0.118093 0.474481
O O3 0.695138 0.181009 0.079294
O O4 0.697386 0.013506 0.155066
O O5 0.500000 0.386866 0.250000
O O6 0.500000 0.500000 0.500000
O O7 0.274757 0.378360 0.359734
O O8 0.253421 0.511422 0.119262
O O9 0.164555 0.131205 0.636200
O O10 0.000000 0.018286 0.750000
O O11 0.841816 0.691241 0.439268
O O12 0.000000 0.798336 0.750000
O O13 0.000000 0.433567 0.250000
#
# Coordination Sequence:
#
# PCOD9233317 Si02
#       5
#     4   4   4   4   4
#     4  12  25  41  63  97 128 170 221 273 323 380
#     4   9  19  40  63  91 123 160 204 250 326 391
#     4  12  23  42  68  88 126 181 219 263 327 379
#     4  11  24  43  63  96 131 167 223 266 317 386
#     4  10  21  40  65  92 124 163 211 267 313 385
#
# _framework density 22.689513999999999
#
# number of rings (size 3 to 8) (size 9 to 14) (size 15 to 20)
#    0.000    1.200    4.000    2.400    0.000    0.800 
#   18.000    1.000    0.000    0.000    0.000    0.000 
#    0.000    0.000    0.000    0.000    0.000    0.000 
#
# Total GULP energy -111427.808282 kJ/mol
# GULP energy per Si atom -5571.390414 kJ/mol
# Density = 2.263787 g / cm^3
# Si number density = 22.689514 Si / 1000 Ang^3
#
#
#
# Elastic Constant Matrix: (Units=GPa)
#
#
# Indices 1 2 3 4 5 6 
#
# 1 125.3679 -7.9314 1.6928 0.0000 2.4468 0.0000
# 2 -7.9314 86.8073 12.2482 0.0000 1.4927 0.0000
# 3 1.6928 12.2482 67.2485 0.0000 1.5407 0.0000
# 4 0.0000 0.0000 0.0000 -5.0607 0.0000 -14.2966
# 5 2.4468 1.4927 1.5407 0.0000 39.7506 0.0000
# 6 0.0000 0.0000 0.0000 -14.2966 0.0000 -4.8790
#
#
#
# Elastic Compliance Matrix: (Units=1/GPa)
#
#
# Indices 1 2 3 4 5 6 
#
# 1 0.008041 0.000791 -0.000335 0.000000 -0.000512 0.000000
# 2 0.000791 0.011907 -0.002179 0.000000 -0.000411 0.000000
# 3 -0.000335 -0.002179 0.015287 0.000000 -0.000490 0.000000
# 4 0.000000 0.000000 0.000000 0.027151 0.000000 -0.079558
# 5 -0.000512 -0.000411 -0.000490 0.000000 0.025223 0.000000
# 6 0.000000 0.000000 0.000000 -0.079558 0.000000 0.028162
#
#
# Mechanical properties :
#
#
# Convention : Reuss Voigt Hill
#
# Bulk Modulus (GPa) = 31.45815 32.38254 31.92035
# Shear Modulus (GPa) = 38.51716 24.18977 31.35346
#
# Velocity S-wave (km/s) = 4.12463 3.26869 3.72135
# Velocity P-wave (km/s) = 6.04799 5.34311 5.70644
#
# Compressibility (1/GPa) = 0.03178826
#
# Stress axis : x y z
#
# Youngs Moduli (GPa) = 124.36177 83.98742 65.41615
#
# Poissons Ratio (x) = -0.06641 0.02189
# Poissons Ratio (y) = -0.09834 0.14255
# Poissons Ratio (z) = 0.04162 0.18301
#
# Static dielectric constant tensor:
#      x y z
#    x 1.988160 0.000000 -0.002150 
#    y 0.000000 1.806880 0.000000 
#    z -0.002150 0.000000 1.878830 
# 
# From -- ./inp_files/12884.got.cif
#   From: 2010.05.17/outbox.cif.g08.bks.cpg/sg13_7_cif.got.tgz:12884.got - 2010.06.03 16:44:36.
