data_PCOD9233014
_publ_section_title
;
Structure prediction by ZEFSAII (Michael W. Deem and Ramdas Pophale) SiO2 
 PCOD9233014
Probable space group: P 2/C
;
_chemical_formula_sum "Si O2"
_cell_formula_units_Z 18
_cell_length_a 12.857234
_cell_length_b 4.850040
_cell_length_c 25.865290
_cell_angle_alpha 90.000000
_cell_angle_beta 26.492385
_cell_angle_gamma 90.000000
_cell_volume 719.485207
_symmetry_space_group_name_H-M "P 2/C"
_symmetry_group_IT_number 13
_symmetry_cell_setting 'monoclinic'
loop_
_space_group_symop_operation_xyz
x,y,z
-x,y,1/2-z
-x,-y,-z
x,-y,1/2+z
loop_
_atom_site_type_symbol
_atom_site_label
_atom_site_fract_x
_atom_site_fract_y
_atom_site_fract_z
Si Si1 0.245820 0.450692 0.955152
Si Si2 0.661411 0.393906 0.473921
Si Si3 0.500000 0.251576 0.250000
Si Si4 0.077952 0.951144 0.384297
Si Si5 0.944933 0.107900 0.833359
O O1 0.391528 0.555092 0.842429
O O2 0.017742 0.647490 0.061363
O O3 0.395459 0.469456 0.941674
O O4 0.137297 0.146893 0.002479
O O5 0.500000 0.500000 0.500000
O O6 0.898484 0.566833 0.358477
O O7 0.712084 0.070211 0.448571
O O8 0.303244 0.057856 0.312710
O O9 0.108712 0.972642 0.308367
O O10 0.000000 0.041255 0.750000
#
# Coordination Sequence:
#
# PCOD9233014 Si02
#       5
#     4   4   2   4   4
#     4  10  24  43  62  96 131 163 213 271 312 374
#     4  10  21  39  62  91 127 161 203 264 317 372
#     4  12  24  42  72  90 126 182 216 252 326 394
#     4  10  24  43  62  95 132 163 214 269 315 370
#     4  10  21  39  62  91 127 161 203 265 315 373
#
# _framework density 25.017887999999999
#
# number of rings (size 3 to 8) (size 9 to 14) (size 15 to 20)
#    0.000    1.778    0.000    2.667    3.111    3.556 
#    0.000    0.000    0.000    0.000    0.000    0.000 
#    0.000    0.000    0.000    0.000    0.000    0.000 
#
# Total GULP energy -100775.908624 kJ/mol
# GULP energy per Si atom -5598.661590 kJ/mol
# Density = 2.496095 g / cm^3
# Si number density = 25.017888 Si / 1000 Ang^3
#
#
#
# Elastic Constant Matrix: (Units=GPa)
#
#
# Indices 1 2 3 4 5 6 
#
# 1 170.6092 6.2080 69.3933 0.0000 33.7770 0.0000
# 2 6.2080 88.0641 2.0214 0.0000 7.0417 0.0000
# 3 69.3933 2.0214 106.1585 0.0000 46.1391 0.0000
# 4 0.0000 0.0000 0.0000 20.9572 0.0000 4.0802
# 5 33.7770 7.0417 46.1391 0.0000 39.6743 0.0000
# 6 0.0000 0.0000 0.0000 4.0802 0.0000 26.3438
#
#
#
# Elastic Compliance Matrix: (Units=1/GPa)
#
#
# Indices 1 2 3 4 5 6 
#
# 1 0.008037 -0.000350 -0.004651 0.000000 -0.001372 0.000000
# 2 -0.000350 0.011631 0.001567 0.000000 -0.003589 0.000000
# 3 -0.004651 0.001567 0.021899 0.000000 -0.021786 0.000000
# 4 0.000000 0.000000 0.000000 0.049200 0.000000 -0.007620
# 5 -0.001372 -0.003589 -0.021786 0.000000 0.052346 0.000000
# 6 0.000000 0.000000 0.000000 -0.007620 0.000000 0.039140
#
#
# Mechanical properties :
#
#
# Convention : Reuss Voigt Hill
#
# Bulk Modulus (GPa) = 28.81893 57.78635 43.30264
# Shear Modulus (GPa) = 24.91440 36.54233 30.72836
#
# Velocity S-wave (km/s) = 3.15915 3.82599 3.50845
# Velocity P-wave (km/s) = 4.98511 6.53190 5.81021
#
# Compressibility (1/GPa) = 0.03469941
#
# Stress axis : x y z
#
# Youngs Moduli (GPa) = 124.41834 85.97681 45.66434
#
# Poissons Ratio (x) = 0.03010 0.21239
# Poissons Ratio (y) = 0.04356 -0.07157
# Poissons Ratio (z) = 0.57867 -0.13474
#
# Static dielectric constant tensor:
#      x y z
#    x 2.007520 0.000000 0.000510 
#    y 0.000000 1.912460 0.000000 
#    z 0.000510 0.000000 1.985120 
# 
# From -- ./inp_files/76895.got.cif
#   From: 2010.05.17/outbox.cif.g08.bks.cpg/sg13_39_cif.got.tgz:76895.got - 2010.06.03 16:44:36.
