data_PCOD9233764
_publ_section_title
;
Structure prediction by ZEFSAII (Michael W. Deem and Ramdas Pophale) SiO2 
 PCOD9233764
Probable space group: P 2/C
;
_chemical_formula_sum "Si O2"
_cell_formula_units_Z 18
_cell_length_a 5.133534
_cell_length_b 12.135206
_cell_length_c 14.787729
_cell_angle_alpha 90.000000
_cell_angle_beta 55.397543
_cell_angle_gamma 90.000000
_cell_volume 758.270257
_symmetry_space_group_name_H-M "P 2/C"
_symmetry_group_IT_number 13
_symmetry_cell_setting 'monoclinic'
loop_
_space_group_symop_operation_xyz
x,y,z
-x,y,1/2-z
-x,-y,-z
x,-y,1/2+z
loop_
_atom_site_type_symbol
_atom_site_label
_atom_site_fract_x
_atom_site_fract_y
_atom_site_fract_z
Si Si1 0.532639 0.833515 0.906911
Si Si2 0.626296 0.591208 0.827927
Si Si3 0.500000 0.027116 0.250000
Si Si4 0.381322 0.646659 0.171554
Si Si5 0.220067 0.138381 0.953006
O O1 0.571805 0.701867 0.894361
O O2 0.658631 0.889010 0.789850
O O3 0.153131 0.846722 0.983223
O O4 0.695597 0.891197 0.960382
O O5 0.500000 0.607139 0.750000
O O6 0.519763 0.472560 0.888141
O O7 0.000000 0.577951 0.750000
O O8 0.679106 0.945564 0.145599
O O9 0.500000 0.636950 0.250000
O O10 0.571364 0.750918 0.097803
O O11 0.000000 0.664544 0.250000
#
# Coordination Sequence:
#
# PCOD9233764 Si02
#       5
#     4   4   2   4   4
#     4  12  27  45  72 104 135 182 235 277 345 406
#     4  10  21  42  71 101 138 180 219 277 349 405
#     4  12  28  50  70  96 146 184 222 304 322 410
#     4  10  21  42  71 101 138 180 219 277 349 405
#     4  12  27  45  72 104 135 182 235 277 345 406
#
# _framework density 23.738239
#
# number of rings (size 3 to 8) (size 9 to 14) (size 15 to 20)
#    0.000    0.889    2.222    4.000    0.000    3.556 
#    0.000    0.000    0.000    0.000    0.000    0.000 
#    0.000    0.000    0.000    0.000    0.000    0.000 
#
# Total GULP energy -100605.391666 kJ/mol
# GULP energy per Si atom -5589.188426 kJ/mol
# Density = 2.368421 g / cm^3
# Si number density = 23.738239 Si / 1000 Ang^3
#
#
#
# Elastic Constant Matrix: (Units=GPa)
#
#
# Indices 1 2 3 4 5 6 
#
# 1 139.5736 13.5362 35.1651 0.0000 -0.7936 0.0000
# 2 13.5362 179.7940 55.1882 0.0000 -4.3288 0.0000
# 3 35.1651 55.1882 91.1729 0.0000 23.6377 0.0000
# 4 0.0000 0.0000 0.0000 -36.5932 0.0000 -44.8237
# 5 -0.7936 -4.3288 23.6377 0.0000 36.6879 0.0000
# 6 0.0000 0.0000 0.0000 -44.8237 0.0000 -34.0217
#
#
#
# Elastic Compliance Matrix: (Units=1/GPa)
#
#
# Indices 1 2 3 4 5 6 
#
# 1 0.008238 0.000842 -0.004513 0.000000 0.003185 0.000000
# 2 0.000842 0.007492 -0.006115 0.000000 0.004842 0.000000
# 3 -0.004513 -0.006115 0.019956 0.000000 -0.013677 0.000000
# 4 0.000000 0.000000 0.000000 0.044519 0.000000 -0.058654
# 5 0.003185 0.004842 -0.013677 0.000000 0.036709 0.000000
# 6 0.000000 0.000000 0.000000 -0.058654 0.000000 0.047884
#
#
# Mechanical properties :
#
#
# Convention : Reuss Voigt Hill
#
# Bulk Modulus (GPa) = 62.05710 68.70216 65.37963
# Shear Modulus (GPa) = 26.35156 13.65800 20.00478
#
# Velocity S-wave (km/s) = 3.33541 2.40127 2.90612
# Velocity P-wave (km/s) = 6.40565 6.05743 6.23397
#
# Compressibility (1/GPa) = 0.01611419
#
# Stress axis : x y z
#
# Youngs Moduli (GPa) = 121.38735 133.47242 50.11012
#
# Poissons Ratio (x) = -0.11233 0.22613
# Poissons Ratio (y) = -0.10216 0.30643
# Poissons Ratio (z) = 0.54777 0.81620
#
# Static dielectric constant tensor:
#      x y z
#    x 1.847740 0.000000 0.011240 
#    y 0.000000 2.031210 0.000000 
#    z 0.011240 0.000000 1.856940 
# 
# From -- ./inp_files/60901.got.cif
#   From: 2010.05.17/outbox.cif.g08.bks.cpg/sg13_31_cif.got.tgz:60901.got - 2010.06.03 16:44:36.
