data_PCOD9233125
_publ_section_title
;
Structure prediction by ZEFSAII (Michael W. Deem and Ramdas Pophale) SiO2 
 PCOD9233125
Probable space group: P 2/C
;
_chemical_formula_sum "Si O2"
_cell_formula_units_Z 32
_cell_length_a 14.402229
_cell_length_b 9.067148
_cell_length_c 23.391065
_cell_angle_alpha 90.000000
_cell_angle_beta 150.907865
_cell_angle_gamma 90.000000
_cell_volume 1485.180205
_symmetry_space_group_name_H-M "P 2/C"
_symmetry_group_IT_number 13
_symmetry_cell_setting 'monoclinic'
loop_
_space_group_symop_operation_xyz
x,y,z
-x,y,1/2-z
-x,-y,-z
x,-y,1/2+z
loop_
_atom_site_type_symbol
_atom_site_label
_atom_site_fract_x
_atom_site_fract_y
_atom_site_fract_z
Si Si1 0.671194 0.731680 0.744762
Si Si2 0.022510 0.699782 0.111720
Si Si3 0.678088 0.428639 0.811203
Si Si4 0.197350 0.925743 0.584313
Si Si5 0.978515 0.045684 0.803486
Si Si6 0.327101 0.115705 0.551174
Si Si7 0.424315 0.948711 0.896157
Si Si8 0.904156 0.391038 0.045730
O O1 0.609802 0.581251 0.744449
O O2 0.685892 0.861292 0.799792
O O3 0.544149 0.795382 0.623607
O O4 0.893088 0.693680 0.848607
O O5 0.212501 0.664566 0.177637
O O6 0.067024 0.811114 0.185350
O O7 0.869826 0.785335 0.989578
O O8 0.941896 0.548226 0.094126
O O9 0.500000 0.362823 0.750000
O O10 0.836871 0.440023 0.946248
O O11 0.304324 0.043488 0.601734
O O12 0.000000 0.000000 0.500000
O O13 0.000000 0.084209 0.750000
O O14 0.801096 0.939143 0.716312
O O15 0.167500 0.971417 0.928818
O O16 0.256416 0.283808 0.515563
O O17 0.513849 0.074838 0.615918
O O18 0.500000 0.000000 0.000000
#
# Coordination Sequence:
#
# PCOD9233125 Si02
#       8
#     4   4   4   4   4   4   4   4
#     4  11  21  40  64  93 134 181 220 271 346 409
#     4  10  21  39  66  92 131 176 225 273 341 421
#     4  11  23  36  61 101 146 173 214 272 345 424
#     4  11  18  37  65  97 128 172 220 271 339 418
#     4  11  23  46  68  92 128 181 232 288 347 394
#     4  11  24  39  71  97 131 175 225 291 346 410
#     4  12  26  43  66 100 132 176 241 294 332 401
#     4  11  20  43  63  94 136 181 213 271 354 421
#
# _framework density 21.546208
#
# number of rings (size 3 to 8) (size 9 to 14) (size 15 to 20)
#    0.000    1.000    6.250    1.500    3.500    0.000 
#    0.000    3.125    0.000    3.750    0.000    0.000 
#    0.000    0.000    0.000    0.000    0.000    0.000 
#
# Total GULP energy -178621.761251 kJ/mol
# GULP energy per Si atom -5581.930039 kJ/mol
# Density = 2.149717 g / cm^3
# Si number density = 21.546208 Si / 1000 Ang^3
#
#
#
# Elastic Constant Matrix: (Units=GPa)
#
#
# Indices 1 2 3 4 5 6 
#
# 1 87.5459 28.9360 19.3996 0.0000 -12.7185 0.0000
# 2 28.9360 99.9566 29.2156 0.0000 -22.7058 0.0000
# 3 19.3996 29.2156 63.8198 0.0000 -10.4458 0.0000
# 4 0.0000 0.0000 0.0000 23.6043 0.0000 5.7323
# 5 -12.7185 -22.7058 -10.4458 0.0000 33.0411 0.0000
# 6 0.0000 0.0000 0.0000 5.7323 0.0000 15.5657
#
#
#
# Elastic Compliance Matrix: (Units=1/GPa)
#
#
# Indices 1 2 3 4 5 6 
#
# 1 0.013166 -0.002518 -0.002429 0.000000 0.002570 0.000000
# 2 -0.002518 0.013583 -0.004306 0.000000 0.007003 0.000000
# 3 -0.002429 -0.004306 0.018710 0.000000 0.002021 0.000000
# 4 0.000000 0.000000 0.000000 0.046526 0.000000 -0.017134
# 5 0.002570 0.007003 0.002021 0.000000 0.036706 0.000000
# 6 0.000000 0.000000 0.000000 -0.017134 0.000000 0.070554
#
#
# Mechanical properties :
#
#
# Convention : Reuss Voigt Hill
#
# Bulk Modulus (GPa) = 37.10223 45.15831 41.13027
# Shear Modulus (GPa) = 22.05216 26.02695 24.03956
#
# Velocity S-wave (km/s) = 3.20266 3.47934 3.34386
# Velocity P-wave (km/s) = 5.56177 6.09470 5.83433
#
# Compressibility (1/GPa) = 0.02695255
#
# Stress axis : x y z
#
# Youngs Moduli (GPa) = 75.95104 73.62284 53.44860
#
# Poissons Ratio (x) = 0.18536 0.12983
# Poissons Ratio (y) = 0.19122 0.23017
# Poissons Ratio (z) = 0.18449 0.31704
#
# Static dielectric constant tensor:
#      x y z
#    x 1.797810 0.000000 0.014650 
#    y 0.000000 1.807790 0.000000 
#    z 0.014650 0.000000 1.831060 
# 
# From -- ./inp_files/87457.got.cif
#   From: 2010.05.17/outbox.cif.g08.bks.cpg/sg13_44_cif.got.tgz:87457.got - 2010.06.03 16:44:36.
