data_PCOD9233182
_publ_section_title
;
Structure prediction by ZEFSAII (Michael W. Deem and Ramdas Pophale) SiO2 
 PCOD9233182
Probable space group: P 2/C
;
_chemical_formula_sum "Si O2"
_cell_formula_units_Z 28
_cell_length_a 8.084646
_cell_length_b 15.334393
_cell_length_c 18.485121
_cell_angle_alpha 90.000000
_cell_angle_beta 37.756174
_cell_angle_gamma 90.000000
_cell_volume 1403.188165
_symmetry_space_group_name_H-M "P 2/C"
_symmetry_group_IT_number 13
_symmetry_cell_setting 'monoclinic'
loop_
_space_group_symop_operation_xyz
x,y,z
-x,y,1/2-z
-x,-y,-z
x,-y,1/2+z
loop_
_atom_site_type_symbol
_atom_site_label
_atom_site_fract_x
_atom_site_fract_y
_atom_site_fract_z
Si Si1 0.914299 0.952554 0.363317
Si Si2 0.229490 0.445476 0.585492
Si Si3 0.000000 0.251273 0.250000
Si Si4 0.000000 0.697175 0.250000
Si Si5 0.353144 0.182915 0.727646
Si Si6 0.649063 0.867530 0.980344
Si Si7 0.803985 0.418268 0.061026
Si Si8 0.192136 0.600778 0.784897
O O1 0.640378 0.894493 0.455262
O O2 0.000000 0.967643 0.250000
O O3 0.172673 0.903373 0.307204
O O4 0.825798 0.044468 0.427068
O O5 0.500000 0.500000 0.500000
O O6 0.176048 0.393010 0.529256
O O7 0.226731 0.370131 0.645347
O O8 0.006397 0.521835 0.665856
O O9 0.813779 0.195366 0.369117
O O10 0.824465 0.317700 0.262370
O O11 0.130494 0.754249 0.267861
O O12 0.500000 0.213035 0.750000
O O13 0.566233 0.167429 0.588395
O O14 0.863784 0.365574 0.113708
O O15 0.488716 0.439919 0.177516
O O16 0.000000 0.500000 0.000000
#
# Coordination Sequence:
#
# PCOD9233182 Si02
#       8
#     4   4   2   2   4   4   4   4
#     4   9  18  42  71  95 129 172 221 263 326 408
#     4  11  23  40  65  85 120 174 222 269 329 394
#     4  12  23  35  66  98 134 166 220 269 343 392
#     4  12  25  43  62  96 132 174 226 275 343 382
#     4  11  25  44  68 103 137 173 225 277 336 405
#     4  10  21  39  69  99 128 177 214 267 338 399
#     4   9  20  40  60  80 117 164 211 270 322 370
#     4  10  22  38  57  91 122 162 217 268 316 396
#
# _framework density 19.954557999999999
#
# number of rings (size 3 to 8) (size 9 to 14) (size 15 to 20)
#    0.000    1.714    2.857    2.143    4.000    1.714 
#   10.286    1.429    3.143    0.000    0.000    0.000 
#    0.000    0.000    0.000    0.000    0.000    0.000 
#
# Total GULP energy -155966.586143 kJ/mol
# GULP energy per Si atom -5570.235219 kJ/mol
# Density = 1.990914 g / cm^3
# Si number density = 19.954558 Si / 1000 Ang^3
#
#
#
# Elastic Constant Matrix: (Units=GPa)
#
#
# Indices 1 2 3 4 5 6 
#
# 1 103.0959 46.5336 32.5147 0.0000 5.1246 0.0000
# 2 46.5336 85.0902 58.0159 0.0000 -0.5915 0.0000
# 3 32.5147 58.0159 112.3023 0.0000 -4.3737 0.0000
# 4 0.0000 0.0000 0.0000 28.2847 0.0000 8.4677
# 5 5.1246 -0.5915 -4.3737 0.0000 32.8933 0.0000
# 6 0.0000 0.0000 0.0000 8.4677 0.0000 4.4633
#
#
#
# Elastic Compliance Matrix: (Units=1/GPa)
#
#
# Indices 1 2 3 4 5 6 
#
# 1 0.013035 -0.006966 -0.000261 0.000000 -0.002191 0.000000
# 2 -0.006966 0.021893 -0.009284 0.000000 0.000245 0.000000
# 3 -0.000261 -0.009284 0.013843 0.000000 0.001714 0.000000
# 4 0.000000 0.000000 0.000000 0.081832 0.000000 -0.155249
# 5 -0.002191 0.000245 0.001714 0.000000 0.030975 0.000000
# 6 0.000000 0.000000 0.000000 -0.155249 0.000000 0.518583
#
#
# Mechanical properties :
#
#
# Convention : Reuss Voigt Hill
#
# Bulk Modulus (GPa) = 63.49121 63.84628 63.66875
# Shear Modulus (GPa) = 6.95960 24.02322 15.49141
#
# Velocity S-wave (km/s) = 1.86957 3.47348 2.78930
# Velocity P-wave (km/s) = 6.04544 6.93917 6.50767
#
# Compressibility (1/GPa) = 0.01575021
#
# Stress axis : x y z
#
# Youngs Moduli (GPa) = 76.71652 45.67606 72.23966
#
# Poissons Ratio (x) = 0.31818 0.01883
# Poissons Ratio (y) = 0.53441 0.67066
# Poissons Ratio (z) = 0.02000 0.42405
#
# Static dielectric constant tensor:
#      x y z
#    x 1.744160 0.000000 0.061330 
#    y 0.000000 1.686580 0.000000 
#    z 0.061330 0.000000 1.771710 
# 
# From -- ./inp_files/76734.got.cif
#   From: 2010.05.17/outbox.cif.g08.bks.cpg/sg13_39_cif.got.tgz:76734.got - 2010.06.03 16:44:36.
