data_PCOD9233436
_publ_section_title
;
Structure prediction by ZEFSAII (Michael W. Deem and Ramdas Pophale) SiO2 
 PCOD9233436
Probable space group: P 2/C
;
_chemical_formula_sum "Si O2"
_cell_formula_units_Z 28
_cell_length_a 18.979872
_cell_length_b 5.542714
_cell_length_c 17.327739
_cell_angle_alpha 90.000000
_cell_angle_beta 130.853925
_cell_angle_gamma 90.000000
_cell_volume 1378.788128
_symmetry_space_group_name_H-M "P 2/C"
_symmetry_group_IT_number 13
_symmetry_cell_setting 'monoclinic'
loop_
_space_group_symop_operation_xyz
x,y,z
-x,y,1/2-z
-x,-y,-z
x,-y,1/2+z
loop_
_atom_site_type_symbol
_atom_site_label
_atom_site_fract_x
_atom_site_fract_y
_atom_site_fract_z
Si Si1 0.876893 0.560244 0.566273
Si Si2 0.111448 0.748089 0.274658
Si Si3 0.030685 0.895108 0.604266
Si Si4 0.702708 0.404698 0.348655
Si Si5 0.610086 0.092895 0.839227
Si Si6 0.260160 0.116061 0.435047
Si Si7 0.213666 0.375502 0.251482
O O1 0.908932 0.413334 0.664686
O O2 0.805111 0.409560 0.462409
O O3 0.812328 0.770643 0.555523
O O4 0.960996 0.679095 0.578961
O O5 0.035749 0.929362 0.183388
O O6 0.206021 0.884232 0.366775
O O7 0.144506 0.586878 0.226997
O O8 0.139015 0.825811 0.672863
O O9 0.000000 0.000000 0.500000
O O10 0.655105 0.146894 0.332464
O O11 0.719195 0.432811 0.269778
O O12 0.647822 0.644705 0.337621
O O13 0.500000 0.085017 0.750000
O O14 0.644442 0.074532 0.952490
O O15 0.266086 0.291865 0.366208
#
# Coordination Sequence:
#
# PCOD9233436 Si02
#       7
#     4   4   4   4   4   4   4
#     4  10  22  39  61  93 126 186 232 276 330 392
#     4  10  21  41  60  84 133 175 232 273 326 400
#     4  11  25  38  60  94 136 176 234 286 327 388
#     4  11  24  43  71  99 135 175 220 275 352 404
#     4  11  24  46  74 104 130 167 225 282 341 423
#     4   9  21  40  66  92 127 178 217 272 335 402
#     4  10  24  40  62  94 132 182 219 275 335 399
#
# _framework density 20.307689
#
# number of rings (size 3 to 8) (size 9 to 14) (size 15 to 20)
#    0.000    1.714    1.429    1.286    8.000    9.714 
#    0.000    4.286    0.000    0.000    0.000    0.000 
#    0.000    0.000    0.000    0.000    0.000    0.000 
#
# Total GULP energy -156287.385241 kJ/mol
# GULP energy per Si atom -5581.692330 kJ/mol
# Density = 2.026147 g / cm^3
# Si number density = 20.307689 Si / 1000 Ang^3
#
#
#
# Elastic Constant Matrix: (Units=GPa)
#
#
# Indices 1 2 3 4 5 6 
#
# 1 62.1793 22.9894 45.1361 0.0000 8.4896 0.0000
# 2 22.9894 73.2992 13.3519 0.0000 10.2199 0.0000
# 3 45.1361 13.3519 99.8958 0.0000 24.2689 0.0000
# 4 0.0000 0.0000 0.0000 24.0636 0.0000 4.1342
# 5 8.4896 10.2199 24.2689 0.0000 34.8317 0.0000
# 6 0.0000 0.0000 0.0000 4.1342 0.0000 25.5205
#
#
#
# Elastic Compliance Matrix: (Units=1/GPa)
#
#
# Indices 1 2 3 4 5 6 
#
# 1 0.026910 -0.006764 -0.012210 0.000000 0.003933 0.000000
# 2 -0.006764 0.016020 0.001994 0.000000 -0.004441 0.000000
# 3 -0.012210 0.001994 0.017671 0.000000 -0.009921 0.000000
# 4 0.000000 0.000000 0.000000 0.042746 0.000000 -0.006925
# 5 0.003933 -0.004441 -0.009921 0.000000 0.035967 0.000000
# 6 0.000000 0.000000 0.000000 -0.006925 0.000000 0.040306
#
#
# Mechanical properties :
#
#
# Convention : Reuss Voigt Hill
#
# Bulk Modulus (GPa) = 37.53693 44.25879 40.89786
# Shear Modulus (GPa) = 22.47586 27.14295 24.80941
#
# Velocity S-wave (km/s) = 3.33042 3.65990 3.49904
# Velocity P-wave (km/s) = 5.77175 6.30089 6.04212
#
# Compressibility (1/GPa) = 0.02664043
#
# Stress axis : x y z
#
# Youngs Moduli (GPa) = 37.16117 62.42106 56.58928
#
# Poissons Ratio (x) = 0.42223 0.69097
# Poissons Ratio (y) = 0.25137 -0.11284
# Poissons Ratio (z) = 0.45374 -0.12447
#
# Static dielectric constant tensor:
#      x y z
#    x 1.706200 0.000000 -0.000670 
#    y 0.000000 1.743910 0.000000 
#    z -0.000670 0.000000 1.748510 
# 
# From -- ./inp_files/54713.got.cif
#   From: 2010.05.17/outbox.cif.g08.bks.cpg/sg13_28_cif.got.tgz:54713.got - 2010.06.03 16:44:36.
