data_PCOD9233833
_publ_section_title
;
Structure prediction by ZEFSAII (Michael W. Deem and Ramdas Pophale) SiO2 
 PCOD9233833
Probable space group: P 2/C
;
_chemical_formula_sum "Si O2"
_cell_formula_units_Z 16
_cell_length_a 5.314235
_cell_length_b 7.791304
_cell_length_c 16.688864
_cell_angle_alpha 90.000000
_cell_angle_beta 60.026418
_cell_angle_gamma 90.000000
_cell_volume 598.582289
_symmetry_space_group_name_H-M "P 2/C"
_symmetry_group_IT_number 13
_symmetry_cell_setting 'monoclinic'
loop_
_space_group_symop_operation_xyz
x,y,z
-x,y,1/2-z
-x,-y,-z
x,-y,1/2+z
loop_
_atom_site_type_symbol
_atom_site_label
_atom_site_fract_x
_atom_site_fract_y
_atom_site_fract_z
Si Si1 0.975600 0.225871 0.466924
Si Si2 0.559473 0.217984 0.828882
Si Si3 0.772212 0.509147 0.894165
Si Si4 0.371895 0.857081 0.627817
O O1 0.744793 0.228712 0.574573
O O2 0.012146 0.409188 0.414734
O O3 0.819943 0.116611 0.421145
O O4 0.285762 0.159141 0.442953
O O5 0.500000 0.284044 0.750000
O O6 0.777634 0.331004 0.847999
O O7 0.660738 0.019476 0.810197
O O8 0.714101 0.660908 0.838437
O O9 0.500000 0.500000 0.000000
#
# Coordination Sequence:
#
# PCOD9233833 Si02
#       4
#     4   4   4   4
#     4   9  21  43  68  85 125 170 213 251 308 381
#     4  11  22  39  65  98 130 160 211 270 320 363
#     4   8  20  38  66  89 121 163 214 249 312 376
#     4  10  21  43  67  89 122 169 217 251 308 384
#
# _framework density 26.729827
#
# number of rings (size 3 to 8) (size 9 to 14) (size 15 to 20)
#    1.500    1.000    0.000    1.500    0.000    5.000 
#    4.500    5.000    0.000    0.000    0.000    0.000 
#    0.000    0.000    0.000    0.000    0.000    0.000 
#
# Total GULP energy -89400.174221 kJ/mol
# GULP energy per Si atom -5587.510889 kJ/mol
# Density = 2.666899 g / cm^3
# Si number density = 26.729827 Si / 1000 Ang^3
#
#
#
# Elastic Constant Matrix: (Units=GPa)
#
#
# Indices 1 2 3 4 5 6 
#
# 1 92.6761 18.9951 22.7329 0.0000 -10.3004 0.0000
# 2 18.9951 161.9783 10.3467 0.0000 21.0437 0.0000
# 3 22.7329 10.3467 101.4633 0.0000 3.1806 0.0000
# 4 0.0000 0.0000 0.0000 1.5135 0.0000 20.3406
# 5 -10.3004 21.0437 3.1806 0.0000 42.3407 0.0000
# 6 0.0000 0.0000 0.0000 20.3406 0.0000 16.0051
#
#
#
# Elastic Compliance Matrix: (Units=1/GPa)
#
#
# Indices 1 2 3 4 5 6 
#
# 1 0.012273 -0.001797 -0.002694 0.000000 0.004082 0.000000
# 2 -0.001797 0.006896 -0.000180 0.000000 -0.003851 0.000000
# 3 -0.002694 -0.000180 0.010520 0.000000 -0.001356 0.000000
# 4 0.000000 0.000000 0.000000 -0.041089 0.000000 0.052220
# 5 0.004082 -0.003851 -0.001356 0.000000 0.026627 0.000000
# 6 0.000000 0.000000 0.000000 0.052220 0.000000 -0.003886
#
#
# Mechanical properties :
#
#
# Convention : Reuss Voigt Hill
#
# Bulk Modulus (GPa) = 49.14861 51.14079 50.14470
# Shear Modulus (GPa) = 182.03425 32.24138 107.13782
#
# Velocity S-wave (km/s) = 8.26132 3.47680 6.33788
# Velocity P-wave (km/s) = 10.46070 5.94067 8.50640
#
# Compressibility (1/GPa) = 0.02034645
#
# Stress axis : x y z
#
# Youngs Moduli (GPa) = 81.47801 145.00569 95.05396
#
# Poissons Ratio (x) = 0.26064 0.25612
# Poissons Ratio (y) = 0.14645 0.01709
# Poissons Ratio (z) = 0.21954 0.02607
#
# Static dielectric constant tensor:
#      x y z
#    x 1.951700 0.000000 -0.293920 
#    y 0.000000 2.206590 0.000000 
#    z -0.293920 0.000000 1.661900 
# 
# From -- ./inp_files/43202.got.cif
#   From: 2010.05.17/outbox.cif.g08.bks.cpg/sg13_22_cif.got.tgz:43202.got - 2010.06.03 16:44:36.
