data_PCOD9233649
_publ_section_title
;
Structure prediction by ZEFSAII (Michael W. Deem and Ramdas Pophale) SiO2 
 PCOD9233649
Probable space group: P 2/C
;
_chemical_formula_sum "Si O2"
_cell_formula_units_Z 28
_cell_length_a 8.692762
_cell_length_b 12.359959
_cell_length_c 12.760382
_cell_angle_alpha 90.000000
_cell_angle_beta 74.236393
_cell_angle_gamma 90.000000
_cell_volume 1319.440873
_symmetry_space_group_name_H-M "P 2/C"
_symmetry_group_IT_number 13
_symmetry_cell_setting 'monoclinic'
loop_
_space_group_symop_operation_xyz
x,y,z
-x,y,1/2-z
-x,-y,-z
x,-y,1/2+z
loop_
_atom_site_type_symbol
_atom_site_label
_atom_site_fract_x
_atom_site_fract_y
_atom_site_fract_z
Si Si1 0.188946 0.345007 0.860092
Si Si2 0.180226 0.131072 0.751153
Si Si3 0.606065 0.147098 0.974644
Si Si4 0.172397 0.585162 0.769132
Si Si5 0.382146 0.958292 0.370973
Si Si6 0.173772 0.657300 0.003078
Si Si7 0.331397 0.559873 0.535122
O O1 0.244140 0.249654 0.773523
O O2 0.187584 0.458772 0.798934
O O3 0.007595 0.315333 0.929666
O O4 0.297074 0.363388 0.942816
O O5 0.275334 0.091611 0.631945
O O6 0.211420 0.061425 0.849210
O O7 0.000000 0.139601 0.750000
O O8 0.437051 0.130400 0.947032
O O9 0.688858 0.261801 0.981630
O O10 0.603630 0.074140 0.078001
O O11 0.300486 0.610364 0.654657
O O12 0.000000 0.604507 0.750000
O O13 0.186995 0.648987 0.875090
O O14 0.500000 0.947875 0.250000
O O15 0.203334 0.537259 0.043048
O O16 0.500000 0.500000 0.500000
#
# Coordination Sequence:
#
# PCOD9233649 Si02
#       7
#     4   4   4   4   4   4   4
#     4  11  21  37  61  90 121 164 206 251 310 371
#     4  11  21  37  65  95 117 150 208 257 310 374
#     4  10  21  42  63  86 120 157 206 249 317 377
#     4  11  19  38  61  82 127 172 202 247 312 367
#     4   9  22  43  64  87 120 164 198 260 325 379
#     4  11  21  37  63  87 116 166 208 249 307 378
#     4  11  24  38  57  90 130 164 210 258 301 363
#
# _framework density 21.221111000000001
#
# number of rings (size 3 to 8) (size 9 to 14) (size 15 to 20)
#    0.000    1.429    4.286    2.143    2.000    2.857 
#    5.143    2.143    0.000    0.000    0.000    0.000 
#    0.000    0.000    0.000    0.000    0.000    0.000 
#
# Total GULP energy -156320.472016 kJ/mol
# GULP energy per Si atom -5582.874001 kJ/mol
# Density = 2.117281 g / cm^3
# Si number density = 21.221111 Si / 1000 Ang^3
#
#
#
# Elastic Constant Matrix: (Units=GPa)
#
#
# Indices 1 2 3 4 5 6 
#
# 1 56.4335 7.9539 37.2742 0.0000 14.3102 0.0000
# 2 7.9539 50.9918 6.5687 0.0000 17.2155 0.0000
# 3 37.2742 6.5687 102.8423 0.0000 29.3083 0.0000
# 4 0.0000 0.0000 0.0000 28.2245 0.0000 5.8970
# 5 14.3102 17.2155 29.3083 0.0000 33.7458 0.0000
# 6 0.0000 0.0000 0.0000 5.8970 0.0000 27.3176
#
#
#
# Elastic Compliance Matrix: (Units=1/GPa)
#
#
# Indices 1 2 3 4 5 6 
#
# 1 0.023743 -0.001923 -0.007831 0.000000 -0.002286 0.000000
# 2 -0.001923 0.024368 0.003257 0.000000 -0.014445 0.000000
# 3 -0.007831 0.003257 0.015789 0.000000 -0.012053 0.000000
# 4 0.000000 0.000000 0.000000 0.037104 0.000000 -0.008009
# 5 -0.002286 -0.014445 -0.012053 0.000000 0.048440 0.000000
# 6 0.000000 0.000000 0.000000 -0.008009 0.000000 0.038335
#
#
# Mechanical properties :
#
#
# Convention : Reuss Voigt Hill
#
# Bulk Modulus (GPa) = 19.64401 34.87345 27.25873
# Shear Modulus (GPa) = 22.96295 28.42232 25.69263
#
# Velocity S-wave (km/s) = 3.29307 3.66367 3.48330
# Velocity P-wave (km/s) = 4.87196 5.86223 5.38988
#
# Compressibility (1/GPa) = 0.05090609
#
# Stress axis : x y z
#
# Youngs Moduli (GPa) = 42.11740 41.03729 63.33550
#
# Poissons Ratio (x) = 0.07891 0.49599
# Poissons Ratio (y) = 0.08099 -0.20629
# Poissons Ratio (z) = 0.32983 -0.13366
#
# Static dielectric constant tensor:
#      x y z
#    x 1.819420 0.000000 0.008800 
#    y 0.000000 1.762550 0.000000 
#    z 0.008800 0.000000 1.779540 
# 
# From -- ./inp_files/30060.got.cif
#   From: 2010.05.17/outbox.cif.g08.bks.cpg/sg13_16_cif.got.tgz:30060.got - 2010.06.03 16:44:36.
