data_PCOD9233760
_publ_section_title
;
Structure prediction by ZEFSAII (Michael W. Deem and Ramdas Pophale) SiO2 
 PCOD9233760
Probable space group: P 2/C
;
_chemical_formula_sum "Si O2"
_cell_formula_units_Z 24
_cell_length_a 10.299370
_cell_length_b 12.865472
_cell_length_c 11.360327
_cell_angle_alpha 90.000000
_cell_angle_beta 53.090481
_cell_angle_gamma 90.000000
_cell_volume 1203.626658
_symmetry_space_group_name_H-M "P 2/C"
_symmetry_group_IT_number 13
_symmetry_cell_setting 'monoclinic'
loop_
_space_group_symop_operation_xyz
x,y,z
-x,y,1/2-z
-x,-y,-z
x,-y,1/2+z
loop_
_atom_site_type_symbol
_atom_site_label
_atom_site_fract_x
_atom_site_fract_y
_atom_site_fract_z
Si Si1 0.663088 0.644902 0.466030
Si Si2 0.905908 0.077722 0.633135
Si Si3 0.393960 0.579695 0.421038
Si Si4 0.649686 0.929315 0.876044
Si Si5 0.675512 0.792292 0.091643
Si Si6 0.500000 0.205263 0.250000
Si Si7 0.000000 0.755662 0.250000
O O1 0.518990 0.631161 0.447820
O O2 0.687783 0.525500 0.491351
O O3 0.599440 0.719494 0.606191
O O4 0.833272 0.691589 0.327914
O O5 0.783363 0.141395 0.619284
O O6 0.016689 0.164238 0.633148
O O7 0.801431 0.006621 0.778658
O O8 0.000000 0.000000 0.500000
O O9 0.500000 0.550022 0.250000
O O10 0.274405 0.672448 0.450468
O O11 0.605930 0.869880 0.778053
O O12 0.675304 0.846328 0.965123
O O13 0.500000 0.000000 0.000000
O O14 0.500000 0.790341 0.250000
#
# Coordination Sequence:
#
# PCOD9233760 Si02
#       7
#     4   4   4   4   4   2   2
#     4  11  23  42  68  98 127 168 215 271 331 383
#     4  12  25  42  60  93 133 174 213 265 327 389
#     4  10  21  42  70  96 125 166 221 271 321 389
#     4  12  22  39  63  95 125 171 218 264 315 385
#     4  11  21  40  65  95 123 169 215 268 321 383
#     4  12  22  40  64 102 126 164 226 270 314 384
#     4  12  24  44  62  94 136 174 206 270 336 386
#
# _framework density 19.939737000000001
#
# number of rings (size 3 to 8) (size 9 to 14) (size 15 to 20)
#    0.000    0.667    4.167    6.000    0.000    0.000 
#    0.000    5.000    0.000    0.000    0.000    0.000 
#    0.000    0.000    0.000    0.000    0.000    0.000 
#
# Total GULP energy -134068.519214 kJ/mol
# GULP energy per Si atom -5586.188301 kJ/mol
# Density = 1.989435 g / cm^3
# Si number density = 19.939737 Si / 1000 Ang^3
#
#
#
# Elastic Constant Matrix: (Units=GPa)
#
#
# Indices 1 2 3 4 5 6 
#
# 1 37.1798 32.8776 10.8755 0.0000 9.7315 0.0000
# 2 32.8776 146.1097 36.3303 0.0000 -5.8693 0.0000
# 3 10.8755 36.3303 75.1201 0.0000 0.6232 0.0000
# 4 0.0000 0.0000 0.0000 41.4471 0.0000 5.7752
# 5 9.7315 -5.8693 0.6232 0.0000 35.9080 0.0000
# 6 0.0000 0.0000 0.0000 5.7752 0.0000 14.0744
#
#
#
# Elastic Compliance Matrix: (Units=1/GPa)
#
#
# Indices 1 2 3 4 5 6 
#
# 1 0.038032 -0.008734 -0.001185 0.000000 -0.011714 0.000000
# 2 -0.008734 0.009850 -0.003533 0.000000 0.004038 0.000000
# 3 -0.001185 -0.003533 0.015196 0.000000 -0.000520 0.000000
# 4 0.000000 0.000000 0.000000 0.025590 0.000000 -0.010501
# 5 -0.011714 0.004038 -0.000520 0.000000 0.031693 0.000000
# 6 0.000000 0.000000 0.000000 -0.010501 0.000000 0.075360
#
#
# Mechanical properties :
#
#
# Convention : Reuss Voigt Hill
#
# Bulk Modulus (GPa) = 27.64309 46.50850 37.07580
# Shear Modulus (GPa) = 21.30526 30.17429 25.73977
#
# Velocity S-wave (km/s) = 3.27231 3.89430 3.59678
# Velocity P-wave (km/s) = 5.30761 6.60272 5.99027
#
# Compressibility (1/GPa) = 0.03617541
#
# Stress axis : x y z
#
# Youngs Moduli (GPa) = 26.29342 101.52108 65.80471
#
# Poissons Ratio (x) = 0.88668 0.07797
# Poissons Ratio (y) = 0.22965 0.23248
# Poissons Ratio (z) = 0.03116 0.35866
#
# Static dielectric constant tensor:
#      x y z
#    x 1.716930 0.000000 -0.010290 
#    y 0.000000 1.681490 0.000000 
#    z -0.010290 0.000000 1.590250 
# 
# From -- ./inp_files/33757.got.cif
#   From: 2010.05.17/outbox.cif.g08.bks.cpg/sg13_17_cif.got.tgz:33757.got - 2010.06.03 16:44:36.
