data_PCOD9233144
_publ_section_title
;
Structure prediction by ZEFSAII (Michael W. Deem and Ramdas Pophale) SiO2 
 PCOD9233144
Probable space group: P 2/C
;
_chemical_formula_sum "Si O2"
_cell_formula_units_Z 20
_cell_length_a 8.017340
_cell_length_b 18.757397
_cell_length_c 5.520790
_cell_angle_alpha 90.000000
_cell_angle_beta 90.721030
_cell_angle_gamma 90.000000
_cell_volume 830.175113
_symmetry_space_group_name_H-M "P 2/C"
_symmetry_group_IT_number 13
_symmetry_cell_setting 'monoclinic'
loop_
_space_group_symop_operation_xyz
x,y,z
-x,y,1/2-z
-x,-y,-z
x,-y,1/2+z
loop_
_atom_site_type_symbol
_atom_site_label
_atom_site_fract_x
_atom_site_fract_y
_atom_site_fract_z
Si Si1 0.829814 0.664658 0.116111
Si Si2 0.694376 0.527330 0.962094
Si Si3 0.500000 0.205732 0.250000
Si Si4 0.810950 0.973028 0.057617
Si Si5 0.500000 0.709989 0.250000
Si Si6 0.841096 0.824370 0.907864
O O1 0.747956 0.609673 0.922471
O O2 0.671563 0.668288 0.293693
O O3 0.000000 0.643103 0.250000
O O4 0.861608 0.744270 0.011756
O O5 0.765302 0.511264 0.228895
O O6 0.500000 0.500000 0.000000
O O7 0.520085 0.247191 0.503203
O O8 0.321914 0.169309 0.262960
O O9 0.818663 0.887838 0.098684
O O10 0.732225 0.991553 0.793908
O O11 0.000000 0.000000 0.000000
O O12 0.000000 0.840895 0.750000
#
# Coordination Sequence:
#
# PCOD9233144 Si02
#       6
#     4   4   2   4   2   4
#     4  11  25  41  72 109 136 183 238 292 347 413
#     4  10  23  44  69  95 134 184 223 276 351 418
#     4  10  24  40  62 100 132 186 226 288 346 410
#     4  10  21  39  66  96 134 191 230 269 350 423
#     4  10  22  44  62  94 148 170 222 288 358 400
#     4  11  23  42  71 103 146 182 236 295 345 409
#
# _framework density 24.091303
#
# number of rings (size 3 to 8) (size 9 to 14) (size 15 to 20)
#    0.000    1.600    2.000    2.400    2.800   15.200 
#    0.000    1.000    0.000    0.000    0.000    0.000 
#    0.000    0.000    0.000    0.000    0.000    0.000 
#
# Total GULP energy -111395.634698 kJ/mol
# GULP energy per Si atom -5569.781735 kJ/mol
# Density = 2.403647 g / cm^3
# Si number density = 24.091303 Si / 1000 Ang^3
#
#
#
# Elastic Constant Matrix: (Units=GPa)
#
#
# Indices 1 2 3 4 5 6 
#
# 1 151.1041 1.9403 14.2551 0.0000 27.4685 0.0000
# 2 1.9403 154.9856 32.0164 0.0000 8.2446 0.0000
# 3 14.2551 32.0164 139.9920 0.0000 -12.0149 0.0000
# 4 0.0000 0.0000 0.0000 28.5082 0.0000 14.4821
# 5 27.4685 8.2446 -12.0149 0.0000 24.6710 0.0000
# 6 0.0000 0.0000 0.0000 14.4821 0.0000 -65.8114
#
#
#
# Elastic Compliance Matrix: (Units=1/GPa)
#
#
# Indices 1 2 3 4 5 6 
#
# 1 0.008825 0.000908 -0.002062 0.000000 -0.011132 0.000000
# 2 0.000908 0.007108 -0.002096 0.000000 -0.004407 0.000000
# 3 -0.002062 -0.002096 0.008443 0.000000 0.007108 0.000000
# 4 0.000000 0.000000 0.000000 0.031551 0.000000 0.006943
# 5 -0.011132 -0.004407 0.007108 0.000000 0.057862 0.000000
# 6 0.000000 0.000000 0.000000 0.006943 0.000000 -0.013667
#
#
# Mechanical properties :
#
#
# Convention : Reuss Voigt Hill
#
# Bulk Modulus (GPa) = 55.94462 60.27836 58.11149
# Shear Modulus (GPa) = 44.41271 23.99823 34.20547
#
# Velocity S-wave (km/s) = 4.29828 3.15959 3.77215
# Velocity P-wave (km/s) = 6.92141 6.19563 6.56855
#
# Compressibility (1/GPa) = 0.01787482
#
# Stress axis : x y z
#
# Youngs Moduli (GPa) = 113.32063 140.67991 118.44629
#
# Poissons Ratio (x) = -0.12768 0.24419
# Poissons Ratio (y) = -0.10285 0.24830
# Poissons Ratio (z) = 0.23362 0.29491
#
# Static dielectric constant tensor:
#      x y z
#    x 2.191200 0.000000 0.148210 
#    y 0.000000 2.136170 0.000000 
#    z 0.148210 0.000000 1.845510 
# 
# From -- ./inp_files/1660.got.cif
#   From: 2010.05.17/outbox.cif.g08.bks.cpg/sg13_1_cif.got.tgz:1660.got - 2010.06.03 16:44:36.
