data_PCOD9233159
_publ_section_title
;
Structure prediction by ZEFSAII (Michael W. Deem and Ramdas Pophale) SiO2 
 PCOD9233159
Probable space group: P 2/C
;
_chemical_formula_sum "Si O2"
_cell_formula_units_Z 16
_cell_length_a 6.823721
_cell_length_b 16.761273
_cell_length_c 7.584710
_cell_angle_alpha 90.000000
_cell_angle_beta 123.015312
_cell_angle_gamma 90.000000
_cell_volume 727.416670
_symmetry_space_group_name_H-M "P 2/C"
_symmetry_group_IT_number 13
_symmetry_cell_setting 'monoclinic'
loop_
_space_group_symop_operation_xyz
x,y,z
-x,y,1/2-z
-x,-y,-z
x,-y,1/2+z
loop_
_atom_site_type_symbol
_atom_site_label
_atom_site_fract_x
_atom_site_fract_y
_atom_site_fract_z
Si Si1 0.503959 0.138851 0.548121
Si Si2 0.248159 0.593792 0.784922
Si Si3 0.500000 0.550896 0.250000
Si Si4 0.246659 0.004824 0.020193
Si Si5 0.500000 0.270653 0.250000
O O1 0.500000 0.164326 0.750000
O O2 0.719541 0.083034 0.585304
O O3 0.499370 0.212854 0.416717
O O4 0.282607 0.078146 0.431454
O O5 0.297379 0.511187 0.708219
O O6 0.288267 0.667510 0.673899
O O7 0.000000 0.595811 0.750000
O O8 0.427997 0.597611 0.039183
O O9 0.500000 0.005750 0.250000
O O10 0.000000 0.000000 0.000000
#
# Coordination Sequence:
#
# PCOD9233159 Si02
#       5
#     4   4   2   4   2
#     4  10  23  41  64  91 129 172 219 271 336 392
#     4  10  21  39  67  97 130 169 211 263 322 386
#     4   9  20  40  68  93 132 160 220 259 312 386
#     4  10  22  43  68  93 124 168 227 282 331 394
#     4  11  24  42  60  99 134 172 210 269 326 404
#
# _framework density 21.995647999999999
#
# number of rings (size 3 to 8) (size 9 to 14) (size 15 to 20)
#    0.000    2.000    1.250    0.750    3.500   11.000 
#    0.000    0.000    0.000    0.000    0.000    0.000 
#    0.000    0.000    0.000    0.000    0.000    0.000 
#
# Total GULP energy -89161.270756 kJ/mol
# GULP energy per Si atom -5572.579422 kJ/mol
# Density = 2.194558 g / cm^3
# Si number density = 21.995648 Si / 1000 Ang^3
#
#
#
# Elastic Constant Matrix: (Units=GPa)
#
#
# Indices 1 2 3 4 5 6 
#
# 1 229.5242 61.4875 27.3461 0.0000 -2.0103 0.0000
# 2 61.4875 107.3069 31.2100 0.0000 -10.2612 0.0000
# 3 27.3461 31.2100 90.8472 0.0000 -16.4230 0.0000
# 4 0.0000 0.0000 0.0000 19.6920 0.0000 -31.0752
# 5 -2.0103 -10.2612 -16.4230 0.0000 39.2459 0.0000
# 6 0.0000 0.0000 0.0000 -31.0752 0.0000 16.7997
#
#
#
# Elastic Compliance Matrix: (Units=1/GPa)
#
#
# Indices 1 2 3 4 5 6 
#
# 1 0.005198 -0.002841 -0.000730 0.000000 -0.000782 0.000000
# 2 -0.002841 0.011970 -0.002940 0.000000 0.001754 0.000000
# 3 -0.000730 -0.002940 0.013081 0.000000 0.004668 0.000000
# 4 0.000000 0.000000 0.000000 -0.026462 0.000000 -0.048949
# 5 -0.000782 0.001754 0.004668 0.000000 0.027852 0.000000
# 6 0.000000 0.000000 0.000000 -0.048949 0.000000 -0.031018
#
#
# Mechanical properties :
#
#
# Convention : Reuss Voigt Hill
#
# Bulk Modulus (GPa) = 58.04839 74.19614 66.12226
# Shear Modulus (GPa) = 257.93996 35.65651 146.79824
#
# Velocity S-wave (km/s) = 10.84081 4.03062 8.17830
# Velocity P-wave (km/s) = 13.53314 7.44759 10.92274
#
# Compressibility (1/GPa) = 0.01722701
#
# Stress axis : x y z
#
# Youngs Moduli (GPa) = 192.38034 83.54409 76.44630
#
# Poissons Ratio (x) = 0.23734 0.05581
# Poissons Ratio (y) = 0.54654 0.22475
# Poissons Ratio (z) = 0.14045 0.24561
#
# Static dielectric constant tensor:
#      x y z
#    x 1.825300 0.000000 -0.070360 
#    y 0.000000 1.818230 0.000000 
#    z -0.070360 0.000000 2.007580 
# 
# From -- ./inp_files/9253.got.cif
#   From: 2010.05.17/outbox.cif.g08.bks.cpg/sg13_5_cif.got.tgz:9253.got - 2010.06.03 16:44:36.
