data_PCOD9233663
_publ_section_title
;
Structure prediction by ZEFSAII (Michael W. Deem and Ramdas Pophale) SiO2 
 PCOD9233663
Probable space group: P 2/C
;
_chemical_formula_sum "Si O2"
_cell_formula_units_Z 16
_cell_length_a 19.820564
_cell_length_b 5.227293
_cell_length_c 12.241635
_cell_angle_alpha 90.000000
_cell_angle_beta 148.636761
_cell_angle_gamma 90.000000
_cell_volume 660.117444
_symmetry_space_group_name_H-M "P 2/C"
_symmetry_group_IT_number 13
_symmetry_cell_setting 'monoclinic'
loop_
_space_group_symop_operation_xyz
x,y,z
-x,y,1/2-z
-x,-y,-z
x,-y,1/2+z
loop_
_atom_site_type_symbol
_atom_site_label
_atom_site_fract_x
_atom_site_fract_y
_atom_site_fract_z
Si Si1 0.412737 0.532626 0.553515
Si Si2 0.862758 0.961012 0.002964
Si Si3 0.860698 0.458460 0.861194
Si Si4 0.603060 0.810846 0.194835
O O1 0.500000 0.720800 0.750000
O O2 0.265518 0.490256 0.389351
O O3 0.378939 0.619822 0.382991
O O4 0.528303 0.329892 0.688156
O O5 0.000000 0.995867 0.250000
O O6 0.858878 0.164476 0.898361
O O7 0.737869 0.043953 0.901912
O O8 0.853097 0.672641 0.946122
O O9 0.000000 0.500000 0.000000
O O10 0.500000 0.000000 0.000000
#
# Coordination Sequence:
#
# PCOD9233663 Si02
#       4
#     4   4   4   4
#     4  10  23  40  65  94 127 175 217 271 332 383
#     4  11  24  42  67  94 128 176 213 266 336 382
#     4  11  24  43  62  98 133 163 220 270 321 400
#     4  10  21  42  64  90 131 168 225 270 316 403
#
# _framework density 24.238109999999999
#
# number of rings (size 3 to 8) (size 9 to 14) (size 15 to 20)
#    0.000    1.500    2.500    1.500    3.500    3.000 
#    0.000    0.000    0.000    0.000    0.000    0.000 
#    0.000    0.000    0.000    0.000    0.000    0.000 
#
# Total GULP energy -89189.452433 kJ/mol
# GULP energy per Si atom -5574.340777 kJ/mol
# Density = 2.418294 g / cm^3
# Si number density = 24.238110 Si / 1000 Ang^3
#
#
#
# Elastic Constant Matrix: (Units=GPa)
#
#
# Indices 1 2 3 4 5 6 
#
# 1 62.6288 4.0678 40.5411 0.0000 27.1981 0.0000
# 2 4.0678 51.8946 10.7887 0.0000 18.9073 0.0000
# 3 40.5411 10.7887 265.3108 0.0000 45.3754 0.0000
# 4 0.0000 0.0000 0.0000 36.9515 0.0000 12.6720
# 5 27.1981 18.9073 45.3754 0.0000 42.2242 0.0000
# 6 0.0000 0.0000 0.0000 12.6720 0.0000 24.0396
#
#
#
# Elastic Compliance Matrix: (Units=1/GPa)
#
#
# Indices 1 2 3 4 5 6 
#
# 1 0.023164 0.004100 -0.001030 0.000000 -0.015650 0.000000
# 2 0.004100 0.023977 0.000841 0.000000 -0.014281 0.000000
# 3 -0.001030 0.000841 0.004709 0.000000 -0.004773 0.000000
# 4 0.000000 0.000000 0.000000 0.033034 0.000000 -0.017413
# 5 -0.015650 -0.014281 -0.004773 0.000000 0.045288 0.000000
# 6 0.000000 0.000000 0.000000 -0.017413 0.000000 0.050777
#
#
# Mechanical properties :
#
#
# Convention : Reuss Voigt Hill
#
# Bulk Modulus (GPa) = 16.75816 54.51437 35.63626
# Shear Modulus (GPa) = 25.90450 42.27217 34.08834
#
# Velocity S-wave (km/s) = 3.27272 4.18070 3.75426
# Velocity P-wave (km/s) = 4.60542 6.77084 5.79026
#
# Compressibility (1/GPa) = 0.05967241
#
# Stress axis : x y z
#
# Youngs Moduli (GPa) = 43.17089 41.70689 212.37304
#
# Poissons Ratio (x) = -0.17101 0.21868
# Poissons Ratio (y) = -0.17701 -0.17859
# Poissons Ratio (z) = 0.04445 -0.03507
#
# Static dielectric constant tensor:
#      x y z
#    x 2.401000 0.000000 0.314240 
#    y 0.000000 1.533440 0.000000 
#    z 0.314240 0.000000 1.562990 
# 
# From -- ./inp_files/31195.got.cif
#   From: 2010.05.17/outbox.cif.g08.bks.cpg/sg13_16_cif.got.tgz:31195.got - 2010.06.03 16:44:36.
