data_PCOD9233293
_publ_section_title
;
Structure prediction by ZEFSAII (Michael W. Deem and Ramdas Pophale) SiO2 
 PCOD9233293
Probable space group: P 2/C
;
_chemical_formula_sum "Si O2"
_cell_formula_units_Z 28
_cell_length_a 9.293611
_cell_length_b 5.483887
_cell_length_c 31.171152
_cell_angle_alpha 90.000000
_cell_angle_beta 126.510049
_cell_angle_gamma 90.000000
_cell_volume 1276.874429
_symmetry_space_group_name_H-M "P 2/C"
_symmetry_group_IT_number 13
_symmetry_cell_setting 'monoclinic'
loop_
_space_group_symop_operation_xyz
x,y,z
-x,y,1/2-z
-x,-y,-z
x,-y,1/2+z
loop_
_atom_site_type_symbol
_atom_site_label
_atom_site_fract_x
_atom_site_fract_y
_atom_site_fract_z
Si Si1 0.946991 0.380215 0.154244
Si Si2 0.423563 0.531596 0.865615
Si Si3 0.676063 0.145303 0.885937
Si Si4 0.905203 0.124889 0.779997
Si Si5 0.453016 0.161744 0.288628
Si Si6 0.790060 0.771488 0.964869
Si Si7 0.007450 0.484565 0.570586
O O1 0.749738 0.434752 0.137003
O O2 0.062134 0.613201 0.191766
O O3 0.947424 0.388869 0.103067
O O4 0.008668 0.114402 0.181604
O O5 0.489276 0.259538 0.867970
O O6 0.386586 0.648898 0.812473
O O7 0.596614 0.654348 0.919137
O O8 0.809736 0.336125 0.888781
O O9 0.631414 0.944366 0.842665
O O10 0.766349 0.047634 0.945449
O O11 0.000000 0.139764 0.750000
O O12 0.696632 0.048425 0.742014
O O13 0.500000 0.259593 0.250000
O O14 0.932543 0.668682 0.955851
O O15 0.860298 0.696254 0.023723
#
# Coordination Sequence:
#
# PCOD9233293 Si02
#       7
#     4   4   4   4   4   4   4
#     4  12  27  43  69  99 135 177 227 275 331 401
#     4  10  23  42  61  94 131 174 218 276 331 399
#     4  10  21  40  64  92 130 171 223 271 336 396
#     4  12  26  46  66  97 136 181 222 272 339 398
#     4  11  24  39  63  92 130 171 223 278 330 394
#     4   9  21  42  68  96 132 174 219 276 343 389
#     4  10  22  41  68  99 132 171 223 278 334 402
#
# _framework density 21.928547999999999
#
# number of rings (size 3 to 8) (size 9 to 14) (size 15 to 20)
#    0.000    1.429    1.429    2.571   12.000    1.143 
#    0.000    0.714    0.000    0.000    0.000    0.000 
#    0.000    0.000    0.000    0.000    0.000    0.000 
#
# Total GULP energy -156474.566004 kJ/mol
# GULP energy per Si atom -5588.377357 kJ/mol
# Density = 2.187864 g / cm^3
# Si number density = 21.928548 Si / 1000 Ang^3
#
#
#
# Elastic Constant Matrix: (Units=GPa)
#
#
# Indices 1 2 3 4 5 6 
#
# 1 73.4984 -5.7429 31.4702 0.0000 -1.4793 0.0000
# 2 -5.7429 53.8609 12.0156 0.0000 0.9658 0.0000
# 3 31.4702 12.0156 90.6731 0.0000 -5.9554 0.0000
# 4 0.0000 0.0000 0.0000 39.7151 0.0000 12.0676
# 5 -1.4793 0.9658 -5.9554 0.0000 35.2196 0.0000
# 6 0.0000 0.0000 0.0000 12.0676 0.0000 20.3827
#
#
#
# Elastic Compliance Matrix: (Units=1/GPa)
#
#
# Indices 1 2 3 4 5 6 
#
# 1 0.016482 0.003141 -0.006165 0.000000 -0.000436 0.000000
# 2 0.003141 0.019763 -0.003778 0.000000 -0.001049 0.000000
# 3 -0.006165 -0.003778 0.013812 0.000000 0.002180 0.000000
# 4 0.000000 0.000000 0.000000 0.030703 0.000000 -0.018177
# 5 -0.000436 -0.001049 0.002180 0.000000 0.028772 0.000000
# 6 0.000000 0.000000 0.000000 -0.018177 0.000000 0.059823
#
#
# Mechanical properties :
#
#
# Convention : Reuss Voigt Hill
#
# Bulk Modulus (GPa) = 27.43316 32.61313 30.02314
# Shear Modulus (GPa) = 25.62640 31.08277 28.35458
#
# Velocity S-wave (km/s) = 3.42223 3.76900 3.59979
# Velocity P-wave (km/s) = 5.30594 5.81766 5.56768
#
# Compressibility (1/GPa) = 0.03645223
#
# Stress axis : x y z
#
# Youngs Moduli (GPa) = 60.67144 50.60011 72.39931
#
# Poissons Ratio (x) = -0.15892 0.44637
# Poissons Ratio (y) = -0.19055 0.27351
# Poissons Ratio (z) = 0.37406 0.19116
#
# Static dielectric constant tensor:
#      x y z
#    x 1.760080 0.000000 0.039840 
#    y 0.000000 1.894250 0.000000 
#    z 0.039840 0.000000 1.843000 
# 
# From -- ./inp_files/95545.got.cif
#   From: 2010.05.17/outbox.cif.g08.bks.cpg/sg13_48_cif.got.tgz:95545.got - 2010.06.03 16:44:36.
