data_PCOD9233738
_publ_section_title
;
Structure prediction by ZEFSAII (Michael W. Deem and Ramdas Pophale) SiO2 
 PCOD9233738
Probable space group: P 2/C
;
_chemical_formula_sum "Si O2"
_cell_formula_units_Z 30
_cell_length_a 12.228479
_cell_length_b 11.583256
_cell_length_c 21.459785
_cell_angle_alpha 90.000000
_cell_angle_beta 27.864016
_cell_angle_gamma 90.000000
_cell_volume 1420.671429
_symmetry_space_group_name_H-M "P 2/C"
_symmetry_group_IT_number 13
_symmetry_cell_setting 'monoclinic'
loop_
_space_group_symop_operation_xyz
x,y,z
-x,y,1/2-z
-x,-y,-z
x,-y,1/2+z
loop_
_atom_site_type_symbol
_atom_site_label
_atom_site_fract_x
_atom_site_fract_y
_atom_site_fract_z
Si Si1 0.130785 0.683774 0.840851
Si Si2 0.386294 0.317434 0.948698
Si Si3 0.771303 0.766580 0.572112
Si Si4 0.247613 0.861525 0.285746
Si Si5 0.521374 0.528940 0.805900
Si Si6 0.500000 0.973453 0.750000
Si Si7 0.760531 0.995816 0.837213
Si Si8 0.243567 0.275456 0.153019
O O1 0.173598 0.758522 0.881104
O O2 0.202154 0.557133 0.828187
O O3 0.298515 0.686066 0.695125
O O4 0.877235 0.706625 0.941507
O O5 0.550682 0.230955 0.828644
O O6 0.438817 0.447686 0.902355
O O7 0.413038 0.296004 0.009304
O O8 0.630704 0.648898 0.625080
O O9 0.621258 0.884218 0.640705
O O10 0.010526 0.790468 0.416136
O O11 0.241884 0.942593 0.227970
O O12 0.313623 0.944029 0.310230
O O13 0.500000 0.466358 0.750000
O O14 0.000000 0.041026 0.750000
O O15 0.797357 0.859291 0.814882
O O16 0.500000 0.000000 0.000000
O O17 0.000000 0.329181 0.250000
#
# Coordination Sequence:
#
# PCOD9233738 Si02
#       8
#     4   4   4   4   4   2   4   4
#     4  10  21  42  69  87 131 183 218 283 341 421
#     4  11  24  41  64 104 130 175 237 283 349 406
#     4  11  24  45  64 106 130 183 228 280 360 412
#     4  12  27  40  72 106 145 173 238 297 342 422
#     4  10  24  41  69  94 132 184 228 287 352 422
#     4  12  24  44  66 104 142 180 226 288 360 420
#     4  11  24  43  69 100 138 193 231 286 351 421
#     4   9  20  40  65  92 130 174 230 268 338 420
#
# _framework density 21.116776000000002
#
# number of rings (size 3 to 8) (size 9 to 14) (size 15 to 20)
#    0.000    1.333    3.333    2.000    6.533    1.600 
#    0.000    0.000    0.000    0.000    0.000    0.000 
#    0.000    0.000    0.000    0.000    0.000    0.000 
#
# Total GULP energy -167086.895841 kJ/mol
# GULP energy per Si atom -5569.563195 kJ/mol
# Density = 2.106871 g / cm^3
# Si number density = 21.116776 Si / 1000 Ang^3
#
#
#
# Elastic Constant Matrix: (Units=GPa)
#
#
# Indices 1 2 3 4 5 6 
#
# 1 92.2831 26.0472 36.1988 0.0000 4.9920 0.0000
# 2 26.0472 86.1515 37.2328 0.0000 8.6185 0.0000
# 3 36.1988 37.2328 97.5156 0.0000 1.5804 0.0000
# 4 0.0000 0.0000 0.0000 53.4287 0.0000 2.5568
# 5 4.9920 8.6185 1.5804 0.0000 28.6868 0.0000
# 6 0.0000 0.0000 0.0000 2.5568 0.0000 22.8016
#
#
#
# Elastic Compliance Matrix: (Units=1/GPa)
#
#
# Indices 1 2 3 4 5 6 
#
# 1 0.013083 -0.002064 -0.004045 0.000000 -0.001434 0.000000
# 2 -0.002064 0.014674 -0.004775 0.000000 -0.003786 0.000000
# 3 -0.004045 -0.004775 0.013557 0.000000 0.001392 0.000000
# 4 0.000000 0.000000 0.000000 0.018818 0.000000 -0.002110
# 5 -0.001434 -0.003786 0.001392 0.000000 0.036170 0.000000
# 6 0.000000 0.000000 0.000000 -0.002110 0.000000 0.044093
#
#
# Mechanical properties :
#
#
# Convention : Reuss Voigt Hill
#
# Bulk Modulus (GPa) = 51.16295 52.76753 51.96524
# Shear Modulus (GPa) = 29.64216 32.74817 31.19517
#
# Velocity S-wave (km/s) = 3.75070 3.94231 3.84770
# Velocity P-wave (km/s) = 6.56035 6.76499 6.66345
#
# Compressibility (1/GPa) = 0.01954539
#
# Stress axis : x y z
#
# Youngs Moduli (GPa) = 76.43435 68.14784 73.76179
#
# Poissons Ratio (x) = 0.14064 0.29839
# Poissons Ratio (y) = 0.15775 0.35223
# Poissons Ratio (z) = 0.30920 0.32542
#
# Static dielectric constant tensor:
#      x y z
#    x 1.875820 0.000000 -0.014380 
#    y 0.000000 1.817130 0.000000 
#    z -0.014380 0.000000 1.834980 
# 
# From -- ./inp_files/40876.got.cif
#   From: 2010.05.17/outbox.cif.g08.bks.cpg/sg13_21_cif.got.tgz:40876.got - 2010.06.03 16:44:36.
