data_PCOD9233021
_publ_section_title
;
Structure prediction by ZEFSAII (Michael W. Deem and Ramdas Pophale) SiO2 
 PCOD9233021
Probable space group: P 2/C
;
_chemical_formula_sum "Si O2"
_cell_formula_units_Z 20
_cell_length_a 21.637823
_cell_length_b 8.392332
_cell_length_c 13.711583
_cell_angle_alpha 90.000000
_cell_angle_beta 157.619332
_cell_angle_gamma 90.000000
_cell_volume 948.054529
_symmetry_space_group_name_H-M "P 2/C"
_symmetry_group_IT_number 13
_symmetry_cell_setting 'monoclinic'
loop_
_space_group_symop_operation_xyz
x,y,z
-x,y,1/2-z
-x,-y,-z
x,-y,1/2+z
loop_
_atom_site_type_symbol
_atom_site_label
_atom_site_fract_x
_atom_site_fract_y
_atom_site_fract_z
Si Si1 0.367223 0.342638 0.700917
Si Si2 0.271309 0.566215 0.730058
Si Si3 0.919740 0.864990 0.737373
Si Si4 0.675918 0.611975 0.006664
Si Si5 0.008300 0.220005 0.588446
O O1 0.275940 0.470495 0.636777
O O2 0.270171 0.178240 0.555301
O O3 0.349332 0.435370 0.573417
O O4 0.555439 0.341518 0.007374
O O5 0.272929 0.421052 0.809116
O O6 0.122588 0.678685 0.541713
O O7 0.000000 0.816848 0.750000
O O8 0.961887 0.784422 0.904620
O O9 0.972576 0.045639 0.837111
O O10 0.814191 0.702964 0.151751
O O11 0.500000 0.693510 0.750000
#
# Coordination Sequence:
#
# PCOD9233021 Si02
#       5
#     4   4   4   4   4
#     4  10  22  39  67  94 126 163 206 269 318 371
#     4  10  21  40  69  97 121 162 223 262 314 386
#     4  11  25  42  60  94 129 168 211 260 328 382
#     4  10  21  39  62  93 122 161 214 264 316 372
#     4  11  24  42  63  93 129 169 212 258 324 396
#
# _framework density 21.095832000000001
#
# number of rings (size 3 to 8) (size 9 to 14) (size 15 to 20)
#    0.000    1.600    2.000    1.800    5.600    0.000 
#    7.200    1.000    0.000    0.000    0.000    0.000 
#    0.000    0.000    0.000    0.000    0.000    0.000 
#
# Total GULP energy -111466.888228 kJ/mol
# GULP energy per Si atom -5573.344411 kJ/mol
# Density = 2.104782 g / cm^3
# Si number density = 21.095832 Si / 1000 Ang^3
#
#
#
# Elastic Constant Matrix: (Units=GPa)
#
#
# Indices 1 2 3 4 5 6 
#
# 1 119.2170 26.9758 40.9694 0.0000 16.1971 0.0000
# 2 26.9758 35.1827 51.5145 0.0000 21.6879 0.0000
# 3 40.9694 51.5145 101.7624 0.0000 36.4984 0.0000
# 4 0.0000 0.0000 0.0000 -8.7085 0.0000 21.0251
# 5 16.1971 21.6879 36.4984 0.0000 47.1543 0.0000
# 6 0.0000 0.0000 0.0000 21.0251 0.0000 -14.9960
#
#
#
# Elastic Compliance Matrix: (Units=1/GPa)
#
#
# Indices 1 2 3 4 5 6 
#
# 1 0.010159 -0.007034 -0.000606 0.000000 0.000215 0.000000
# 2 -0.007034 0.118480 -0.053250 0.000000 -0.010860 0.000000
# 3 -0.000606 -0.053250 0.038993 0.000000 -0.005482 0.000000
# 4 0.000000 0.000000 0.000000 0.048147 0.000000 0.067505
# 5 0.000215 -0.010860 -0.005482 0.000000 0.030371 0.000000
# 6 0.000000 0.000000 0.000000 0.067505 0.000000 0.027960
#
#
# Mechanical properties :
#
#
# Convention : Reuss Voigt Hill
#
# Bulk Modulus (GPa) = 21.80961 55.00903 38.40932
# Shear Modulus (GPa) = 12.16028 13.80345 12.98187
#
# Velocity S-wave (km/s) = 2.40350 2.56075 2.48337
# Velocity P-wave (km/s) = 4.25008 5.90556 5.14484
#
# Compressibility (1/GPa) = 0.04585136
#
# Stress axis : x y z
#
# Youngs Moduli (GPa) = 98.43678 8.44027 25.64530
#
# Poissons Ratio (x) = 0.05937 0.01555
# Poissons Ratio (y) = 0.69239 1.36562
# Poissons Ratio (z) = 0.05968 0.44945
#
# Static dielectric constant tensor:
#      x y z
#    x 1.810640 0.000000 -0.017550 
#    y 0.000000 1.717060 0.000000 
#    z -0.017550 0.000000 1.804380 
# 
# From -- ./inp_files/49136.got.cif
#   From: 2010.05.17/outbox.cif.g08.bks.cpg/sg13_25_cif.got.tgz:49136.got - 2010.06.03 16:44:36.
