data_PCOD9233297
_publ_section_title
;
Structure prediction by ZEFSAII (Michael W. Deem and Ramdas Pophale) SiO2 
 PCOD9233297
Probable space group: P 2/C
;
_chemical_formula_sum "Si O2"
_cell_formula_units_Z 20
_cell_length_a 15.272525
_cell_length_b 6.445507
_cell_length_c 10.334859
_cell_angle_alpha 90.000000
_cell_angle_beta 57.603791
_cell_angle_gamma 90.000000
_cell_volume 859.017226
_symmetry_space_group_name_H-M "P 2/C"
_symmetry_group_IT_number 13
_symmetry_cell_setting 'monoclinic'
loop_
_space_group_symop_operation_xyz
x,y,z
-x,y,1/2-z
-x,-y,-z
x,-y,1/2+z
loop_
_atom_site_type_symbol
_atom_site_label
_atom_site_fract_x
_atom_site_fract_y
_atom_site_fract_z
Si Si1 0.010759 0.687737 0.092966
Si Si2 0.705352 0.680666 0.245375
Si Si3 0.256919 0.635723 0.569683
Si Si4 0.514308 0.827358 0.095919
Si Si5 0.841383 0.954756 0.674827
O O1 0.000000 0.618011 0.250000
O O2 0.115873 0.811713 0.974173
O O3 0.923423 0.863341 0.137332
O O4 0.000000 0.500000 0.000000
O O5 0.749669 0.563530 0.334053
O O6 0.580980 0.666227 0.341704
O O7 0.736765 0.922309 0.223875
O O8 0.752647 0.595113 0.074561
O O9 0.372889 0.725850 0.497750
O O10 0.178145 0.807612 0.686611
O O11 0.500000 0.922465 0.250000
O O12 0.500000 0.000000 0.000000
#
# Coordination Sequence:
#
# PCOD9233297 Si02
#       5
#     4   4   4   4   4
#     4  11  26  46  69  97 127 165 211 267 328 390
#     4  11  24  41  65  97 132 172 217 263 316 376
#     4  11  24  41  65  97 132 172 217 263 316 376
#     4  10  21  40  64  93 131 175 217 259 311 372
#     4  11  24  43  70  94 128 167 216 267 318 382
#
# _framework density 23.282419999999998
#
# number of rings (size 3 to 8) (size 9 to 14) (size 15 to 20)
#    0.000    1.200    2.000    3.000    0.000   12.800 
#    0.000    0.000    0.000    0.000    0.000    0.000 
#    0.000    0.000    0.000    0.000    0.000    0.000 
#
# Total GULP energy -111966.527406 kJ/mol
# GULP energy per Si atom -5598.326370 kJ/mol
# Density = 2.322943 g / cm^3
# Si number density = 23.282420 Si / 1000 Ang^3
#
#
#
# Elastic Constant Matrix: (Units=GPa)
#
#
# Indices 1 2 3 4 5 6 
#
# 1 46.8190 28.4007 28.5376 0.0000 6.8361 0.0000
# 2 28.4007 97.6457 71.7276 0.0000 9.6973 0.0000
# 3 28.5376 71.7276 166.6042 0.0000 26.4223 0.0000
# 4 0.0000 0.0000 0.0000 26.8607 0.0000 5.7891
# 5 6.8361 9.6973 26.4223 0.0000 56.8213 0.0000
# 6 0.0000 0.0000 0.0000 5.7891 0.0000 38.4279
#
#
#
# Elastic Compliance Matrix: (Units=1/GPa)
#
#
# Indices 1 2 3 4 5 6 
#
# 1 0.026384 -0.006402 -0.001547 0.000000 -0.001362 0.000000
# 2 -0.006402 0.016544 -0.006154 0.000000 0.000809 0.000000
# 3 -0.001547 -0.006154 0.009415 0.000000 -0.003142 0.000000
# 4 0.000000 0.000000 0.000000 0.038478 0.000000 -0.005797
# 5 -0.001362 0.000809 -0.003142 0.000000 0.019086 0.000000
# 6 0.000000 0.000000 0.000000 -0.005797 0.000000 0.026896
#
#
# Mechanical properties :
#
#
# Convention : Reuss Voigt Hill
#
# Bulk Modulus (GPa) = 41.43158 63.15563 52.29360
# Shear Modulus (GPa) = 28.89252 36.58219 32.73735
#
# Velocity S-wave (km/s) = 3.52655 3.96818 3.75386
# Velocity P-wave (km/s) = 5.86651 6.94119 6.42635
#
# Compressibility (1/GPa) = 0.02413618
#
# Stress axis : x y z
#
# Youngs Moduli (GPa) = 37.90120 60.44661 106.21438
#
# Poissons Ratio (x) = 0.38700 0.16430
# Poissons Ratio (y) = 0.24266 0.65364
# Poissons Ratio (z) = 0.05863 0.37199
#
# Static dielectric constant tensor:
#      x y z
#    x 1.675280 0.000000 -0.162740 
#    y 0.000000 1.834740 0.000000 
#    z -0.162740 0.000000 1.839550 
# 
# From -- ./inp_files/38073.got.cif
#   From: 2010.05.17/outbox.cif.g08.bks.cpg/sg13_20_cif.got.tgz:38073.got - 2010.06.03 16:44:36.
