data_PCOD9233704
_publ_section_title
;
Structure prediction by ZEFSAII (Michael W. Deem and Ramdas Pophale) SiO2 
 PCOD9233704
Probable space group: P 2/C
;
_chemical_formula_sum "Si O2"
_cell_formula_units_Z 32
_cell_length_a 23.842109
_cell_length_b 13.006298
_cell_length_c 9.337474
_cell_angle_alpha 90.000000
_cell_angle_beta 32.097111
_cell_angle_gamma 90.000000
_cell_volume 1538.555806
_symmetry_space_group_name_H-M "P 2/C"
_symmetry_group_IT_number 13
_symmetry_cell_setting 'monoclinic'
loop_
_space_group_symop_operation_xyz
x,y,z
-x,y,1/2-z
-x,-y,-z
x,-y,1/2+z
loop_
_atom_site_type_symbol
_atom_site_label
_atom_site_fract_x
_atom_site_fract_y
_atom_site_fract_z
Si Si1 0.228935 0.214893 0.550141
Si Si2 0.068437 0.565885 0.739436
Si Si3 0.130082 0.127430 0.483865
Si Si4 0.192448 0.762438 0.583077
Si Si5 0.611406 0.493280 0.179968
Si Si6 0.879357 0.901481 0.989141
Si Si7 0.616728 0.261787 0.047579
Si Si8 0.737398 0.567677 0.667621
O O1 0.177683 0.142975 0.539956
O O2 0.151293 0.196884 0.850439
O O3 0.338540 0.204374 0.405387
O O4 0.232178 0.325197 0.469204
O O5 0.118699 0.666133 0.703840
O O6 0.163670 0.491988 0.481832
O O7 0.000000 0.594207 0.750000
O O8 0.000000 0.500000 0.000000
O O9 0.186070 0.213290 0.264191
O O10 0.167566 0.011220 0.365053
O O11 0.000000 0.138591 0.750000
O O12 0.144682 0.867150 0.618739
O O13 0.303297 0.750009 0.259685
O O14 0.500000 0.500000 0.500000
O O15 0.616295 0.381706 0.094137
O O16 0.695889 0.499087 0.123928
O O17 0.644326 0.573289 0.986195
O O18 0.000000 0.918872 0.750000
O O19 0.500000 0.231542 0.250000
#
# Coordination Sequence:
#
# PCOD9233704 Si02
#       8
#     4   4   4   4   4   4   4   4
#     4  10  24  38  65  93 130 169 214 276 322 387
#     4  12  28  40  60  91 137 187 214 253 312 404
#     4  11  24  40  67 102 133 167 219 278 327 387
#     4  11  24  41  68  93 132 177 219 265 332 399
#     4  11  22  39  66  90 125 170 221 276 316 365
#     4  10  21  42  67  94 129 174 223 270 331 389
#     4  10  22  44  65  91 127 177 222 268 332 390
#     4  11  24  40  57  94 133 169 218 255 317 384
#
# _framework density 20.798725999999998
#
# number of rings (size 3 to 8) (size 9 to 14) (size 15 to 20)
#    0.000    1.250    1.250    3.750   10.500    2.000 
#    0.000    1.875    0.000   12.000    0.000    1.750 
#    0.000    0.000    0.000    0.000    0.000    0.000 
#
# Total GULP energy -178460.280252 kJ/mol
# GULP energy per Si atom -5576.883758 kJ/mol
# Density = 2.075139 g / cm^3
# Si number density = 20.798726 Si / 1000 Ang^3
#
#
#
# Elastic Constant Matrix: (Units=GPa)
#
#
# Indices 1 2 3 4 5 6 
#
# 1 111.2776 17.8120 29.4584 0.0000 -8.0175 0.0000
# 2 17.8120 61.5958 26.2436 0.0000 -5.4759 0.0000
# 3 29.4584 26.2436 70.8604 0.0000 -1.5435 0.0000
# 4 0.0000 0.0000 0.0000 25.2840 0.0000 12.1138
# 5 -8.0175 -5.4759 -1.5435 0.0000 35.0116 0.0000
# 6 0.0000 0.0000 0.0000 12.1138 0.0000 37.6809
#
#
#
# Elastic Compliance Matrix: (Units=1/GPa)
#
#
# Indices 1 2 3 4 5 6 
#
# 1 0.010330 -0.001184 -0.003812 0.000000 0.002012 0.000000
# 2 -0.001184 0.019671 -0.006738 0.000000 0.002508 0.000000
# 3 -0.003812 -0.006738 0.018168 0.000000 -0.001126 0.000000
# 4 0.000000 0.000000 0.000000 0.046752 0.000000 -0.015030
# 5 0.002012 0.002508 -0.001126 0.000000 0.029365 0.000000
# 6 0.000000 0.000000 0.000000 -0.015030 0.000000 0.031371
#
#
# Mechanical properties :
#
#
# Convention : Reuss Voigt Hill
#
# Bulk Modulus (GPa) = 40.48555 43.41799 41.95177
# Shear Modulus (GPa) = 26.68656 30.94329 28.81493
#
# Velocity S-wave (km/s) = 3.58591 3.86132 3.72616
# Velocity P-wave (km/s) = 6.05414 6.38752 6.22306
#
# Compressibility (1/GPa) = 0.02470017
#
# Stress axis : x y z
#
# Youngs Moduli (GPa) = 96.80308 50.83542 55.04125
#
# Poissons Ratio (x) = 0.06020 0.20983
# Poissons Ratio (y) = 0.11463 0.37090
# Poissons Ratio (z) = 0.36903 0.34255
#
# Static dielectric constant tensor:
#      x y z
#    x 1.822690 0.000000 -0.028850 
#    y 0.000000 1.777610 0.000000 
#    z -0.028850 0.000000 1.759390 
# 
# From -- ./inp_files/24246.got.cif
#   From: 2010.05.17/outbox.cif.g08.bks.cpg/sg13_13_cif.got.tgz:24246.got - 2010.06.03 16:44:36.
