data_PCOD9233359
_publ_section_title
;
Structure prediction by ZEFSAII (Michael W. Deem and Ramdas Pophale) SiO2 
 PCOD9233359
Probable space group: P 2/C
;
_chemical_formula_sum "Si O2"
_cell_formula_units_Z 20
_cell_length_a 10.261483
_cell_length_b 5.172728
_cell_length_c 14.940964
_cell_angle_alpha 90.000000
_cell_angle_beta 86.079319
_cell_angle_gamma 90.000000
_cell_volume 791.208247
_symmetry_space_group_name_H-M "P 2/C"
_symmetry_group_IT_number 13
_symmetry_cell_setting 'monoclinic'
loop_
_space_group_symop_operation_xyz
x,y,z
-x,y,1/2-z
-x,-y,-z
x,-y,1/2+z
loop_
_atom_site_type_symbol
_atom_site_label
_atom_site_fract_x
_atom_site_fract_y
_atom_site_fract_z
Si Si1 0.352296 0.052844 0.399742
Si Si2 0.603615 0.301909 0.456212
Si Si3 0.096520 0.678733 0.326904
Si Si4 0.912785 0.186990 0.065698
Si Si5 0.648253 0.580183 0.759921
O O1 0.505092 0.090834 0.415906
O O2 0.348881 0.153033 0.297679
O O3 0.321522 0.797089 0.459823
O O4 0.239491 0.224910 0.454237
O O5 0.500000 0.500000 0.500000
O O6 0.677143 0.396341 0.364126
O O7 0.099064 0.980089 0.352276
O O8 0.240740 0.594195 0.289339
O O9 0.000000 0.644604 0.250000
O O10 0.045830 0.469950 0.403160
O O11 0.000000 0.000000 0.000000
O O12 0.500000 0.477846 0.750000
#
# Coordination Sequence:
#
# PCOD9233359 Si02
#       5
#     4   4   4   4   4
#     4   9  22  41  61  97 136 172 230 277 348 411
#     4  10  21  40  66  99 132 176 230 281 345 417
#     4  11  25  46  68 105 134 180 237 281 350 413
#     4  11  25  44  72  94 140 182 229 287 345 412
#     4   9  21  43  64  98 138 178 224 286 351 407
#
# _framework density 25.277797
#
# number of rings (size 3 to 8) (size 9 to 14) (size 15 to 20)
#    0.000    2.000    0.000    1.200   11.200    1.600 
#   25.200    0.000    0.000    0.000    0.000    0.000 
#    0.000    0.000    0.000    0.000    0.000    0.000 
#
# Total GULP energy -111340.223129 kJ/mol
# GULP energy per Si atom -5567.011156 kJ/mol
# Density = 2.522026 g / cm^3
# Si number density = 25.277797 Si / 1000 Ang^3
#
#
#
# Elastic Constant Matrix: (Units=GPa)
#
#
# Indices 1 2 3 4 5 6 
#
# 1 81.7116 -15.1362 9.6614 0.0000 -4.4687 0.0000
# 2 -15.1362 90.0229 14.8883 0.0000 18.6026 0.0000
# 3 9.6614 14.8883 153.4445 0.0000 -4.7608 0.0000
# 4 0.0000 0.0000 0.0000 37.6301 0.0000 4.3466
# 5 -4.4687 18.6026 -4.7608 0.0000 32.0759 0.0000
# 6 0.0000 0.0000 0.0000 4.3466 0.0000 20.7537
#
#
#
# Elastic Compliance Matrix: (Units=1/GPa)
#
#
# Indices 1 2 3 4 5 6 
#
# 1 0.012793 0.002251 -0.001014 0.000000 0.000326 0.000000
# 2 0.002251 0.013350 -0.001675 0.000000 -0.007678 0.000000
# 3 -0.001014 -0.001675 0.006800 0.000000 0.001840 0.000000
# 4 0.000000 0.000000 0.000000 0.027233 0.000000 -0.005704
# 5 0.000326 -0.007678 0.001840 0.000000 0.035947 0.000000
# 6 0.000000 0.000000 0.000000 -0.005704 0.000000 0.049379
#
#
# Mechanical properties :
#
#
# Convention : Reuss Voigt Hill
#
# Bulk Modulus (GPa) = 31.18374 38.22289 34.70332
# Shear Modulus (GPa) = 31.83334 39.14299 35.48816
#
# Velocity S-wave (km/s) = 3.55257 3.93938 3.75097
# Velocity P-wave (km/s) = 5.40286 5.98712 5.70248
#
# Compressibility (1/GPa) = 0.03206799
#
# Stress axis : x y z
#
# Youngs Moduli (GPa) = 78.16849 74.90412 147.04856
#
# Poissons Ratio (x) = -0.16863 0.14908
# Poissons Ratio (y) = -0.17597 0.24635
# Poissons Ratio (z) = 0.07925 0.12549
#
# Static dielectric constant tensor:
#      x y z
#    x 2.171040 0.000000 0.051130 
#    y 0.000000 2.142830 0.000000 
#    z 0.051130 0.000000 2.060230 
# 
# From -- ./inp_files/48602.got.cif
#   From: 2010.05.17/outbox.cif.g08.bks.cpg/sg13_25_cif.got.tgz:48602.got - 2010.06.03 16:44:36.
