data_PCOD9233698
_publ_section_title
;
Structure prediction by ZEFSAII (Michael W. Deem and Ramdas Pophale) SiO2 
 PCOD9233698
Probable space group: P 2/C
;
_chemical_formula_sum "Si O2"
_cell_formula_units_Z 20
_cell_length_a 18.451478
_cell_length_b 5.386917
_cell_length_c 30.118855
_cell_angle_alpha 90.000000
_cell_angle_beta 164.405400
_cell_angle_gamma 90.000000
_cell_volume 804.796517
_symmetry_space_group_name_H-M "P 2/C"
_symmetry_group_IT_number 13
_symmetry_cell_setting 'monoclinic'
loop_
_space_group_symop_operation_xyz
x,y,z
-x,y,1/2-z
-x,-y,-z
x,-y,1/2+z
loop_
_atom_site_type_symbol
_atom_site_label
_atom_site_fract_x
_atom_site_fract_y
_atom_site_fract_z
Si Si1 0.905896 0.173808 0.621277
Si Si2 0.669795 0.035516 0.804938
Si Si3 0.394749 0.197808 0.972808
Si Si4 0.072900 0.651653 0.677389
Si Si5 0.244369 0.463554 0.179344
O O1 0.129249 0.264293 0.789120
O O2 0.878842 0.431349 0.579064
O O3 0.673866 0.092273 0.518677
O O4 0.988147 0.933372 0.640730
O O5 0.500000 0.081783 0.750000
O O6 0.581596 0.768487 0.734899
O O7 0.617662 0.267486 0.741930
O O8 0.000000 0.000000 0.000000
O O9 0.633870 0.384531 0.125896
O O10 0.500000 0.000000 0.000000
O O11 0.122383 0.611287 0.654545
O O12 0.000000 0.500000 0.000000
#
# Coordination Sequence:
#
# PCOD9233698 Si02
#       5
#     4   4   4   4   4
#     4  10  22  39  65  95 127 168 207 269 328 387
#     4  10  21  42  67  91 124 171 224 271 334 388
#     4   9  21  41  65  93 130 165 211 265 328 398
#     4  11  22  41  62  94 129 166 221 257 325 390
#     4  10  22  42  63  92 129 170 218 275 322 389
#
# _framework density 24.851004
#
# number of rings (size 3 to 8) (size 9 to 14) (size 15 to 20)
#    0.000    2.000    0.000    2.400    0.000    9.600 
#   21.600    0.000    0.000    0.000    0.000    0.000 
#    0.000    0.000    0.000    0.000    0.000    0.000 
#
# Total GULP energy -111483.960603 kJ/mol
# GULP energy per Si atom -5574.198030 kJ/mol
# Density = 2.479444 g / cm^3
# Si number density = 24.851004 Si / 1000 Ang^3
#
#
#
# Elastic Constant Matrix: (Units=GPa)
#
#
# Indices 1 2 3 4 5 6 
#
# 1 221.9442 92.5801 30.1700 0.0018 14.0147 -0.0005
# 2 92.5801 202.2964 31.4440 0.0005 -4.6650 -0.0001
# 3 30.1700 31.4440 101.3239 0.0044 -13.5741 -0.0012
# 4 0.0018 0.0005 0.0044 -90.7183 0.0032 29.4350
# 5 14.0147 -4.6650 -13.5741 0.0032 35.5204 -0.0009
# 6 -0.0005 -0.0001 -0.0012 29.4350 -0.0009 35.0981
#
#
#
# Elastic Compliance Matrix: (Units=1/GPa)
#
#
# Indices 1 2 3 4 5 6 
#
# 1 0.005984 -0.002594 -0.001411 0.000000 -0.003241 0.000000
# 2 -0.002594 0.006318 -0.000991 0.000000 0.001475 0.000000
# 3 -0.001411 -0.000991 0.011229 0.000001 0.004718 0.000000
# 4 0.000000 0.000000 0.000001 -0.008665 0.000001 0.007267
# 5 -0.003241 0.001475 0.004718 0.000001 0.031428 0.000000
# 6 0.000000 0.000000 0.000000 0.007267 0.000000 0.022397
#
#
# Mechanical properties :
#
#
# Convention : Reuss Voigt Hill
#
# Bulk Modulus (GPa) = 73.85651 92.66142 83.25896
# Shear Modulus (GPa) = 60.09869 20.73807 40.41838
#
# Velocity S-wave (km/s) = 4.92302 2.89190 4.03728
# Velocity P-wave (km/s) = 7.88030 6.96552 7.43699
#
# Compressibility (1/GPa) = 0.01353977
#
# Stress axis : x y z
#
# Youngs Moduli (GPa) = 167.10812 158.26762 89.05525
#
# Poissons Ratio (x) = 0.41055 0.12566
# Poissons Ratio (y) = 0.43349 0.08824
# Poissons Ratio (z) = 0.23579 0.15682
#
# Static dielectric constant tensor:
#      x y z
#    x 1.898600 0.000000 0.102460 
#    y 0.000000 1.980530 0.000000 
#    z 0.102460 0.000000 1.950200 
# 
# From -- ./inp_files/97091.got.cif
#   From: 2010.05.17/outbox.cif.g08.bks.cpg/sg13_49_cif.got.tgz:97091.got - 2010.06.03 16:44:36.
