data_PCOD9233835
_publ_section_title
;
Structure prediction by ZEFSAII (Michael W. Deem and Ramdas Pophale) SiO2 
 PCOD9233835
Probable space group: P 2/C
;
_chemical_formula_sum "Si O2"
_cell_formula_units_Z 20
_cell_length_a 8.025398
_cell_length_b 7.787520
_cell_length_c 17.341780
_cell_angle_alpha 90.000000
_cell_angle_beta 124.486800
_cell_angle_gamma 90.000000
_cell_volume 893.350511
_symmetry_space_group_name_H-M "P 2/C"
_symmetry_group_IT_number 13
_symmetry_cell_setting 'monoclinic'
loop_
_space_group_symop_operation_xyz
x,y,z
-x,y,1/2-z
-x,-y,-z
x,-y,1/2+z
loop_
_atom_site_type_symbol
_atom_site_label
_atom_site_fract_x
_atom_site_fract_y
_atom_site_fract_z
Si Si1 0.668105 0.292955 0.686935
Si Si2 0.291771 0.978184 0.900406
Si Si3 0.219277 0.194883 0.613456
Si Si4 0.071810 0.179142 0.090661
Si Si5 0.226045 0.328317 0.276267
O O1 0.433178 0.245390 0.633764
O O2 0.774745 0.257370 0.797081
O O3 0.675705 0.494453 0.673060
O O4 0.761747 0.163452 0.649166
O O5 0.319768 0.842367 0.838048
O O6 0.114676 0.899350 0.907188
O O7 0.500000 0.000000 0.000000
O O8 0.031375 0.256810 0.512261
O O9 0.202326 0.988383 0.606085
O O10 0.201263 0.304833 0.178073
O O11 0.000000 0.337133 0.250000
#
# Coordination Sequence:
#
# PCOD9233835 Si02
#       5
#     4   4   4   4   4
#     4  11  23  42  64  95 129 167 212 263 320 382
#     4  11  22  43  69  91 126 172 219 263 310 380
#     4  10  22  41  65  93 131 164 210 261 324 381
#     4  10  21  43  67  94 127 170 213 262 322 379
#     4  10  24  41  66  95 127 168 220 265 312 378
#
# _framework density 22.387627999999999
#
# number of rings (size 3 to 8) (size 9 to 14) (size 15 to 20)
#    0.000    1.600    4.000    0.000    2.800    1.600 
#    7.200    0.000    0.000    0.000    0.000    0.000 
#    0.000    0.000    0.000    0.000    0.000    0.000 
#
# Total GULP energy -111857.078264 kJ/mol
# GULP energy per Si atom -5592.853913 kJ/mol
# Density = 2.233667 g / cm^3
# Si number density = 22.387628 Si / 1000 Ang^3
#
#
#
# Elastic Constant Matrix: (Units=GPa)
#
#
# Indices 1 2 3 4 5 6 
#
# 1 35.0790 12.0563 6.5028 0.0000 16.8908 0.0000
# 2 12.0563 107.8480 43.1862 0.0000 16.9594 0.0000
# 3 6.5028 43.1862 98.9508 0.0000 8.1514 0.0000
# 4 0.0000 0.0000 0.0000 5.3312 0.0000 8.1387
# 5 16.8908 16.9594 8.1514 0.0000 24.5316 0.0000
# 6 0.0000 0.0000 0.0000 8.1387 0.0000 21.5828
#
#
#
# Elastic Compliance Matrix: (Units=1/GPa)
#
#
# Indices 1 2 3 4 5 6 
#
# 1 0.042660 -0.000017 -0.000388 0.000000 -0.029233 0.000000
# 2 -0.000017 0.012274 -0.004789 0.000000 -0.006883 0.000000
# 3 -0.000388 -0.004789 0.012263 0.000000 -0.000497 0.000000
# 4 0.000000 0.000000 0.000000 0.442055 0.000000 -0.166695
# 5 -0.029233 -0.006883 -0.000497 0.000000 0.065815 0.000000
# 6 0.000000 0.000000 0.000000 -0.166695 0.000000 0.109192
#
#
# Mechanical properties :
#
#
# Convention : Reuss Voigt Hill
#
# Bulk Modulus (GPa) = 17.60262 40.59650 29.09956
# Shear Modulus (GPa) = 7.00690 22.29795 14.65242
#
# Velocity S-wave (km/s) = 1.77105 3.15936 2.56107
# Velocity P-wave (km/s) = 3.47302 5.61084 4.66602
#
# Compressibility (1/GPa) = 0.05680972
#
# Stress axis : x y z
#
# Youngs Moduli (GPa) = 23.44095 81.47217 81.54934
#
# Poissons Ratio (x) = 0.00136 0.03165
# Poissons Ratio (y) = 0.00039 0.39053
# Poissons Ratio (z) = 0.00910 0.39016
#
# Static dielectric constant tensor:
#      x y z
#    x 1.852590 0.000000 -0.038060 
#    y 0.000000 1.841410 0.000000 
#    z -0.038060 0.000000 1.857290 
# 
# From -- ./inp_files/63920.got.cif
#   From: 2010.05.17/outbox.cif.g08.bks.cpg/sg13_32_cif.got.tgz:63920.got - 2010.06.03 16:44:36.
