data_PCOD9233364
_publ_section_title
;
Structure prediction by ZEFSAII (Michael W. Deem and Ramdas Pophale) SiO2 
 PCOD9233364
Probable space group: P 2/C
;
_chemical_formula_sum "Si O2"
_cell_formula_units_Z 32
_cell_length_a 16.137216
_cell_length_b 5.546523
_cell_length_c 17.049583
_cell_angle_alpha 90.000000
_cell_angle_beta 119.545796
_cell_angle_gamma 90.000000
_cell_volume 1327.588217
_symmetry_space_group_name_H-M "P 2/C"
_symmetry_group_IT_number 13
_symmetry_cell_setting 'monoclinic'
loop_
_space_group_symop_operation_xyz
x,y,z
-x,y,1/2-z
-x,-y,-z
x,-y,1/2+z
loop_
_atom_site_type_symbol
_atom_site_label
_atom_site_fract_x
_atom_site_fract_y
_atom_site_fract_z
Si Si1 0.909868 0.715565 0.985015
Si Si2 0.046122 0.306702 0.696768
Si Si3 0.430190 0.204649 0.790049
Si Si4 0.342672 0.554746 0.443291
Si Si5 0.163305 0.705731 0.843127
Si Si6 0.895052 0.781259 0.514129
Si Si7 0.478081 0.288715 0.395381
Si Si8 0.245862 0.898419 0.267736
O O1 0.855066 0.463419 0.955572
O O2 0.966205 0.680382 0.093808
O O3 0.855479 0.965980 0.963671
O O4 0.992892 0.757131 0.959447
O O5 0.091910 0.542862 0.759168
O O6 0.139056 0.188428 0.702965
O O7 0.000000 0.172918 0.750000
O O8 0.500000 0.171397 0.750000
O O9 0.447783 0.482959 0.825935
O O10 0.318285 0.133847 0.729326
O O11 0.458781 0.983719 0.861156
O O12 0.245717 0.441602 0.427599
O O13 0.414031 0.352356 0.441560
O O14 0.410089 0.690454 0.534781
O O15 0.301318 0.727516 0.356125
O O16 0.111112 0.810191 0.894829
O O17 0.222550 0.860453 0.806810
#
# Coordination Sequence:
#
# PCOD9233364 Si02
#       8
#     4   4   4   4   4   4   4   4
#     4  10  22  42  59  87 118 168 210 257 314 380
#     4  11  22  38  62  93 124 172 214 261 315 381
#     4  11  23  43  65  91 131 172 206 254 325 387
#     4   9  21  37  61  93 122 153 208 266 318 364
#     4  11  21  37  61  94 125 164 209 274 311 370
#     4  10  22  40  64  82 124 162 210 262 319 364
#     4  10  21  40  67  90 119 166 206 256 317 386
#     4  10  23  38  61  92 132 159 212 274 309 376
#
# _framework density 24.103860000000001
#
# number of rings (size 3 to 8) (size 9 to 14) (size 15 to 20)
#    0.000    1.750    2.500    1.125    5.250    2.000 
#    2.250    0.000    0.000    0.000    0.000    0.000 
#    0.000    0.000    0.000    0.000    0.000    0.000 
#
# Total GULP energy -178326.320235 kJ/mol
# GULP energy per Si atom -5572.697507 kJ/mol
# Density = 2.404900 g / cm^3
# Si number density = 24.103860 Si / 1000 Ang^3
#
#
#
# Elastic Constant Matrix: (Units=GPa)
#
#
# Indices 1 2 3 4 5 6 
#
# 1 121.8541 8.4213 29.6798 0.0000 -10.3168 0.0000
# 2 8.4213 118.8497 7.3926 0.0000 1.6953 0.0000
# 3 29.6798 7.3926 51.4235 0.0000 11.6492 0.0000
# 4 0.0000 0.0000 0.0000 22.3979 0.0000 4.5962
# 5 -10.3168 1.6953 11.6492 0.0000 35.6769 0.0000
# 6 0.0000 0.0000 0.0000 4.5962 0.0000 10.1833
#
#
#
# Elastic Compliance Matrix: (Units=1/GPa)
#
#
# Indices 1 2 3 4 5 6 
#
# 1 0.010440 -0.000369 -0.007192 0.000000 0.005385 0.000000
# 2 -0.000369 0.008503 -0.000965 0.000000 -0.000196 0.000000
# 3 -0.007192 -0.000965 0.026130 0.000000 -0.010566 0.000000
# 4 0.000000 0.000000 0.000000 0.049204 0.000000 -0.022209
# 5 0.005385 -0.000196 -0.010566 0.000000 0.033046 0.000000
# 6 0.000000 0.000000 0.000000 -0.022209 0.000000 0.108224
#
#
# Mechanical properties :
#
#
# Convention : Reuss Voigt Hill
#
# Bulk Modulus (GPa) = 35.68924 42.56831 39.12877
# Shear Modulus (GPa) = 19.08839 30.09386 24.59112
#
# Velocity S-wave (km/s) = 2.81716 3.53726 3.19755
# Velocity P-wave (km/s) = 5.04187 5.86358 5.46818
#
# Compressibility (1/GPa) = 0.02801965
#
# Stress axis : x y z
#
# Youngs Moduli (GPa) = 95.78758 117.60609 38.27065
#
# Poissons Ratio (x) = 0.04342 0.27525
# Poissons Ratio (y) = 0.03536 0.03693
# Poissons Ratio (z) = 0.68893 0.11349
#
# Static dielectric constant tensor:
#      x y z
#    x 2.077380 0.000000 -0.060840 
#    y 0.000000 2.088180 0.000000 
#    z -0.060840 0.000000 1.922110 
# 
# From -- ./inp_files/79342.got.cif
#   From: 2010.05.17/outbox.cif.g08.bks.cpg/sg13_40_cif.got.tgz:79342.got - 2010.06.03 16:44:36.
