data_PCOD9233508
_publ_section_title
;
Structure prediction by ZEFSAII (Michael W. Deem and Ramdas Pophale) SiO2 
 PCOD9233508
Probable space group: P 2/C
;
_chemical_formula_sum "Si O2"
_cell_formula_units_Z 12
_cell_length_a 8.128231
_cell_length_b 5.105740
_cell_length_c 12.994570
_cell_angle_alpha 90.000000
_cell_angle_beta 55.847281
_cell_angle_gamma 90.000000
_cell_volume 446.280394
_symmetry_space_group_name_H-M "P 2/C"
_symmetry_group_IT_number 13
_symmetry_cell_setting 'monoclinic'
loop_
_space_group_symop_operation_xyz
x,y,z
-x,y,1/2-z
-x,-y,-z
x,-y,1/2+z
loop_
_atom_site_type_symbol
_atom_site_label
_atom_site_fract_x
_atom_site_fract_y
_atom_site_fract_z
Si Si1 0.001532 0.830042 0.373520
Si Si2 0.623063 0.474329 0.796634
Si Si3 0.755367 0.325876 0.458786
O O1 0.220388 0.715544 0.314272
O O2 0.000000 0.839811 0.250000
O O3 0.844261 0.606411 0.458331
O O4 0.912279 0.107159 0.437428
O O5 0.500000 0.615347 0.750000
O O6 0.729923 0.658894 0.842839
O O7 0.465595 0.305022 0.918379
#
# Coordination Sequence:
#
# PCOD9233508 Si02
#       3
#     4   4   4
#     4  10  21  41  65  91 131 173 208 261 329 383
#     4  10  23  42  69 100 128 169 223 269 317 385
#     4  10  23  43  65  92 133 173 209 264 329 383
#
# _framework density 26.888923999999999
#
# number of rings (size 3 to 8) (size 9 to 14) (size 15 to 20)
#    0.000    2.000    0.000    3.000    0.000   17.333 
#    0.000   23.333    0.000   16.000    0.000    0.000 
#    0.000    0.000    0.000    0.000    0.000    0.000 
#
# Total GULP energy -67235.204691 kJ/mol
# GULP energy per Si atom -5602.933724 kJ/mol
# Density = 2.682772 g / cm^3
# Si number density = 26.888924 Si / 1000 Ang^3
#
#
#
# Elastic Constant Matrix: (Units=GPa)
#
#
# Indices 1 2 3 4 5 6 
#
# 1 145.5874 43.4431 25.0776 0.0000 2.2207 0.0000
# 2 43.4431 131.4933 46.0770 0.0000 -17.2209 0.0000
# 3 25.0776 46.0770 159.4863 0.0000 -34.3919 0.0000
# 4 0.0000 0.0000 0.0000 26.3903 0.0000 6.8622
# 5 2.2207 -17.2209 -34.3919 0.0000 54.1839 0.0000
# 6 0.0000 0.0000 0.0000 6.8622 0.0000 33.2710
#
#
#
# Elastic Compliance Matrix: (Units=1/GPa)
#
#
# Indices 1 2 3 4 5 6 
#
# 1 0.007785 -0.002487 -0.000863 0.000000 -0.001657 0.000000
# 2 -0.002487 0.009338 -0.001906 0.000000 0.001860 0.000000
# 3 -0.000863 -0.001906 0.007917 0.000000 0.004455 0.000000
# 4 0.000000 0.000000 0.000000 0.040040 0.000000 -0.008258
# 5 -0.001657 0.001860 0.004455 0.000000 0.021942 0.000000
# 6 0.000000 0.000000 0.000000 -0.008258 0.000000 0.031760
#
#
# Mechanical properties :
#
#
# Convention : Reuss Voigt Hill
#
# Bulk Modulus (GPa) = 68.82747 73.97359 71.40053
# Shear Modulus (GPa) = 37.27588 44.23366 40.75477
#
# Velocity S-wave (km/s) = 3.72733 4.06032 3.89739
# Velocity P-wave (km/s) = 6.64654 7.03933 6.84575
#
# Compressibility (1/GPa) = 0.01452908
#
# Stress axis : x y z
#
# Youngs Moduli (GPa) = 128.45820 107.09120 126.30959
#
# Poissons Ratio (x) = 0.26628 0.10901
# Poissons Ratio (y) = 0.31941 0.24071
# Poissons Ratio (z) = 0.11086 0.20408
#
# Static dielectric constant tensor:
#      x y z
#    x 2.207790 0.000000 0.079760 
#    y 0.000000 2.010120 0.000000 
#    z 0.079760 0.000000 2.111640 
# 
# From -- ./inp_files/44670.got.cif
#   From: 2010.05.17/outbox.cif.g08.bks.cpg/sg13_23_cif.got.tgz:44670.got - 2010.06.03 16:44:36.
