data_PCOD9233684
_publ_section_title
;
Structure prediction by ZEFSAII (Michael W. Deem and Ramdas Pophale) SiO2 
 PCOD9233684
Probable space group: P 2/C
;
_chemical_formula_sum "Si O2"
_cell_formula_units_Z 18
_cell_length_a 5.105463
_cell_length_b 21.180659
_cell_length_c 8.702486
_cell_angle_alpha 90.000000
_cell_angle_beta 63.535489
_cell_angle_gamma 90.000000
_cell_volume 842.448058
_symmetry_space_group_name_H-M "P 2/C"
_symmetry_group_IT_number 13
_symmetry_cell_setting 'monoclinic'
loop_
_space_group_symop_operation_xyz
x,y,z
-x,y,1/2-z
-x,-y,-z
x,-y,1/2+z
loop_
_atom_site_type_symbol
_atom_site_label
_atom_site_fract_x
_atom_site_fract_y
_atom_site_fract_z
Si Si1 0.778151 0.586857 0.089874
Si Si2 0.168679 0.169605 0.366755
Si Si3 0.156394 0.306491 0.374993
Si Si4 0.000000 0.478031 0.250000
Si Si5 0.203133 0.958114 0.050997
O O1 0.500000 0.615876 0.250000
O O2 0.841310 0.524854 0.174186
O O3 0.036707 0.638242 0.014963
O O4 0.775182 0.562515 0.913169
O O5 0.500000 0.187953 0.250000
O O6 0.056231 0.236598 0.461494
O O7 0.214732 0.108988 0.462205
O O8 0.000000 0.154250 0.250000
O O9 0.500000 0.314860 0.250000
O O10 0.000000 0.309979 0.250000
O O11 0.000000 0.947303 0.250000
O O12 0.500000 0.000000 0.000000
O O13 0.000000 0.000000 0.000000
#
# Coordination Sequence:
#
# PCOD9233684 Si02
#       5
#     4   4   4   2   4
#     4  11  23  41  66  97 132 177 231 283 344 405
#     4  10  21  42  66  93 130 178 215 267 332 399
#     4  10  23  43  68  93 134 177 221 273 342 405
#     4  10  24  40  64  96 138 172 230 284 350 394
#     4  12  24  40  65  96 131 168 217 269 324 387
#
# _framework density 21.366302000000001
#
# number of rings (size 3 to 8) (size 9 to 14) (size 15 to 20)
#    0.000    1.333    1.111    4.667    3.111    3.556 
#    2.000    2.222    0.000    0.000    0.000    0.000 
#    0.000    0.000    0.000    0.000    0.000    0.000 
#
# Total GULP energy -100223.658053 kJ/mol
# GULP energy per Si atom -5567.981003 kJ/mol
# Density = 2.131767 g / cm^3
# Si number density = 21.366302 Si / 1000 Ang^3
#
#
#
# Elastic Constant Matrix: (Units=GPa)
#
#
# Indices 1 2 3 4 5 6 
#
# 1 133.5399 31.7483 38.2905 0.0000 -11.6434 0.0000
# 2 31.7483 165.9281 61.7753 0.0000 -10.1849 0.0000
# 3 38.2905 61.7753 124.0941 0.0000 -16.9711 0.0000
# 4 0.0000 0.0000 0.0000 -45.3355 0.0000 -14.0746
# 5 -11.6434 -10.1849 -16.9711 0.0000 32.3967 0.0000
# 6 0.0000 0.0000 0.0000 -14.0746 0.0000 26.7967
#
#
#
# Elastic Compliance Matrix: (Units=1/GPa)
#
#
# Indices 1 2 3 4 5 6 
#
# 1 0.008387 -0.000765 -0.001969 0.000000 0.001742 0.000000
# 2 -0.000765 0.007473 -0.003447 0.000000 0.000269 0.000000
# 3 -0.001969 -0.003447 0.010919 0.000000 0.003929 0.000000
# 4 0.000000 0.000000 0.000000 -0.018965 0.000000 -0.009961
# 5 0.001742 0.000269 0.003929 0.000000 0.033636 0.000000
# 6 0.000000 0.000000 0.000000 -0.009961 0.000000 0.032086
#
#
# Mechanical properties :
#
#
# Convention : Reuss Voigt Hill
#
# Bulk Modulus (GPa) = 69.36233 76.35447 72.85840
# Shear Modulus (GPa) = 55.12465 22.22144 38.67304
#
# Velocity S-wave (km/s) = 5.08486 3.22844 4.25903
# Velocity P-wave (km/s) = 8.18586 7.05057 7.63934
#
# Compressibility (1/GPa) = 0.01441705
#
# Stress axis : x y z
#
# Youngs Moduli (GPa) = 119.23705 133.81498 91.58043
#
# Poissons Ratio (x) = 0.10233 0.18030
# Poissons Ratio (y) = 0.09119 0.31572
# Poissons Ratio (z) = 0.23475 0.46132
#
# Static dielectric constant tensor:
#      x y z
#    x 1.804310 0.000000 -0.043740 
#    y 0.000000 1.857150 0.000000 
#    z -0.043740 0.000000 1.880630 
# 
# From -- ./inp_files/9357.got.cif
#   From: 2010.05.17/outbox.cif.g08.bks.cpg/sg13_5_cif.got.tgz:9357.got - 2010.06.03 16:44:36.
