data_PCOD9233101
_publ_section_title
;
Structure prediction by ZEFSAII (Michael W. Deem and Ramdas Pophale) SiO2 
 PCOD9233101
Probable space group: P 2/C
;
_chemical_formula_sum "Si O2"
_cell_formula_units_Z 24
_cell_length_a 14.772033
_cell_length_b 5.279843
_cell_length_c 28.949951
_cell_angle_alpha 90.000000
_cell_angle_beta 27.404736
_cell_angle_gamma 90.000000
_cell_volume 1039.261335
_symmetry_space_group_name_H-M "P 2/C"
_symmetry_group_IT_number 13
_symmetry_cell_setting 'monoclinic'
loop_
_space_group_symop_operation_xyz
x,y,z
-x,y,1/2-z
-x,-y,-z
x,-y,1/2+z
loop_
_atom_site_type_symbol
_atom_site_label
_atom_site_fract_x
_atom_site_fract_y
_atom_site_fract_z
Si Si1 0.615504 0.002546 0.830671
Si Si2 0.125351 0.008560 0.374990
Si Si3 0.354348 0.200294 0.090304
Si Si4 0.265910 0.485472 0.861083
Si Si5 0.242747 0.284807 0.470696
Si Si6 0.665451 0.596905 0.991453
O O1 0.759274 0.066054 0.724029
O O2 0.732948 0.919015 0.823656
O O3 0.459398 0.207503 0.920820
O O4 0.469471 0.791165 0.875380
O O5 0.190005 0.792439 0.382203
O O6 0.895954 0.958932 0.470351
O O7 0.181739 0.286405 0.367404
O O8 0.233180 0.294419 0.100865
O O9 0.497621 0.414023 0.046346
O O10 0.500000 0.000000 0.000000
O O11 0.500000 0.485295 0.750000
O O12 0.219675 0.557443 0.934622
O O13 0.192123 0.444535 0.539311
#
# Coordination Sequence:
#
# PCOD9233101 Si02
#       6
#     4   4   4   4   4   4
#     4  10  21  39  65  94 129 174 217 273 331 401
#     4  12  27  42  66  98 135 174 226 275 331 395
#     4   8  16  34  62  94 122 162 216 265 332 392
#     4  12  25  45  66  94 134 179 224 277 333 396
#     4  11  24  40  64  95 134 175 223 274 334 392
#     4   9  18  35  65  91 123 168 214 269 328 397
#
# _framework density 23.093328
#
# number of rings (size 3 to 8) (size 9 to 14) (size 15 to 20)
#    0.000    1.667    1.667    2.500    7.000    0.000 
#    0.000    0.000    0.000   46.000    0.000    0.000 
#    0.000    0.000    0.000    0.000    0.000    0.000 
#
# Total GULP energy -134036.973509 kJ/mol
# GULP energy per Si atom -5584.873896 kJ/mol
# Density = 2.304077 g / cm^3
# Si number density = 23.093328 Si / 1000 Ang^3
#
#
#
# Elastic Constant Matrix: (Units=GPa)
#
#
# Indices 1 2 3 4 5 6 
#
# 1 96.4440 14.5612 43.8723 0.0000 29.1897 0.0000
# 2 14.5612 65.0009 -3.8804 0.0000 3.8937 0.0000
# 3 43.8723 -3.8804 56.8294 0.0000 1.6751 0.0000
# 4 0.0000 0.0000 0.0000 23.7392 0.0000 7.4583
# 5 29.1897 3.8937 1.6751 0.0000 32.2188 0.0000
# 6 0.0000 0.0000 0.0000 7.4583 0.0000 44.5135
#
#
#
# Elastic Compliance Matrix: (Units=1/GPa)
#
#
# Indices 1 2 3 4 5 6 
#
# 1 0.028331 -0.006210 -0.021594 0.000000 -0.023794 0.000000
# 2 -0.006210 0.016929 0.005854 0.000000 0.003276 0.000000
# 3 -0.021594 0.005854 0.034164 0.000000 0.017080 0.000000
# 4 0.000000 0.000000 0.000000 0.044465 0.000000 -0.007450
# 5 -0.023794 0.003276 0.017080 0.000000 0.051311 0.000000
# 6 0.000000 0.000000 0.000000 -0.007450 0.000000 0.023713
#
#
# Mechanical properties :
#
#
# Convention : Reuss Voigt Hill
#
# Bulk Modulus (GPa) = 28.15185 36.37562 32.26373
# Shear Modulus (GPa) = 19.63437 31.00906 25.32171
#
# Velocity S-wave (km/s) = 2.91901 3.66836 3.31493
# Velocity P-wave (km/s) = 4.85570 5.80760 5.35285
#
# Compressibility (1/GPa) = 0.03552165
#
# Stress axis : x y z
#
# Youngs Moduli (GPa) = 35.29680 59.07083 29.27093
#
# Poissons Ratio (x) = 0.36685 0.63209
# Poissons Ratio (y) = 0.21921 -0.17135
# Poissons Ratio (z) = 0.76221 -0.34579
#
# Static dielectric constant tensor:
#      x y z
#    x 1.931530 0.000000 0.030820 
#    y 0.000000 1.956210 0.000000 
#    z 0.030820 0.000000 1.841320 
# 
# From -- ./inp_files/52326.got.cif
#   From: 2010.05.17/outbox.cif.g08.bks.cpg/sg13_27_cif.got.tgz:52326.got - 2010.06.03 16:44:36.
