data_PCOD9233925
_publ_section_title
;
Structure prediction by ZEFSAII (Michael W. Deem and Ramdas Pophale) SiO2 
 PCOD9233925
Probable space group: P 2/C
;
_chemical_formula_sum "Si O2"
_cell_formula_units_Z 18
_cell_length_a 5.322951
_cell_length_b 5.072056
_cell_length_c 23.852233
_cell_angle_alpha 90.000000
_cell_angle_beta 95.289254
_cell_angle_gamma 90.000000
_cell_volume 641.227854
_symmetry_space_group_name_H-M "P 2/C"
_symmetry_group_IT_number 13
_symmetry_cell_setting 'monoclinic'
loop_
_space_group_symop_operation_xyz
x,y,z
-x,y,1/2-z
-x,-y,-z
x,-y,1/2+z
loop_
_atom_site_type_symbol
_atom_site_label
_atom_site_fract_x
_atom_site_fract_y
_atom_site_fract_z
Si Si1 0.379625 0.255397 0.910836
Si Si2 0.000000 0.070018 0.750000
Si Si3 0.373920 0.456911 0.694109
Si Si4 0.099095 0.805919 0.049744
Si Si5 0.954242 0.177223 0.135753
O O1 0.423344 0.379607 0.850124
O O2 0.624583 0.303733 0.953087
O O3 0.294213 0.946149 0.902109
O O4 0.134104 0.380687 0.937155
O O5 0.223165 0.233077 0.725388
O O6 0.111680 0.904251 0.802712
O O7 0.500000 0.605346 0.750000
O O8 0.148289 0.588959 0.654077
O O9 0.144150 0.980371 0.106475
O O10 0.000000 0.000000 0.000000
#
# Coordination Sequence:
#
# PCOD9233925 Si02
#       5
#     4   2   4   4   4
#     4  10  22  45  65 100 144 181 245 302 368 441
#     4  12  22  46  62 102 148 184 240 302 366 446
#     4  12  23  43  72 103 147 197 241 305 379 451
#     4  10  21  44  72  96 142 190 238 312 374 429
#     4  10  25  39  69 104 137 192 241 296 373 444
#
# _framework density 28.071145000000001
#
# number of rings (size 3 to 8) (size 9 to 14) (size 15 to 20)
#    1.333    0.000    4.444    1.333    0.000    4.444 
#    0.000    2.222    0.000    0.000    0.000    0.000 
#    0.000    0.000    0.000    0.000    0.000    0.000 
#
# Total GULP energy -100286.515958 kJ/mol
# GULP energy per Si atom -5571.473109 kJ/mol
# Density = 2.800725 g / cm^3
# Si number density = 28.071145 Si / 1000 Ang^3
#
#
#
# Elastic Constant Matrix: (Units=GPa)
#
#
# Indices 1 2 3 4 5 6 
#
# 1 225.0793 38.7312 39.0095 0.0000 3.8217 0.0000
# 2 38.7312 50.8020 28.2463 0.0000 0.6778 0.0000
# 3 39.0095 28.2463 125.2047 0.0000 11.8512 0.0000
# 4 0.0000 0.0000 0.0000 11.1044 0.0000 -11.5413
# 5 3.8217 0.6778 11.8512 0.0000 46.3418 0.0000
# 6 0.0000 0.0000 0.0000 -11.5413 0.0000 39.0527
#
#
#
# Elastic Compliance Matrix: (Units=1/GPa)
#
#
# Indices 1 2 3 4 5 6 
#
# 1 0.005189 -0.003503 -0.000810 0.000000 -0.000169 0.000000
# 2 -0.003503 0.024917 -0.004635 0.000000 0.001110 0.000000
# 3 -0.000810 -0.004635 0.009502 0.000000 -0.002295 0.000000
# 4 0.000000 0.000000 0.000000 0.129978 0.000000 0.038413
# 5 -0.000169 0.001110 -0.002295 0.000000 0.022164 0.000000
# 6 0.000000 0.000000 0.000000 0.038413 0.000000 0.036959
#
#
# Mechanical properties :
#
#
# Convention : Reuss Voigt Hill
#
# Bulk Modulus (GPa) = 46.05827 68.11778 57.08802
# Shear Modulus (GPa) = 19.69719 38.97306 29.33512
#
# Velocity S-wave (km/s) = 2.65181 3.73012 3.23620
# Velocity P-wave (km/s) = 5.08129 6.54756 5.86046
#
# Compressibility (1/GPa) = 0.02171163
#
# Stress axis : x y z
#
# Youngs Moduli (GPa) = 192.71393 40.13260 105.23747
#
# Poissons Ratio (x) = 0.14060 0.08528
# Poissons Ratio (y) = 0.67513 0.48777
# Poissons Ratio (z) = 0.15616 0.18601
#
# Static dielectric constant tensor:
#      x y z
#    x 2.355080 0.000000 -0.105660 
#    y 0.000000 2.443260 0.000000 
#    z -0.105660 0.000000 1.848770 
# 
# From -- ./inp_files/83009.got.cif
#   From: 2010.05.17/outbox.cif.g08.bks.cpg/sg13_42_cif.got.tgz:83009.got - 2010.06.03 16:44:36.
