data_PCOD9233313
_publ_section_title
;
Structure prediction by ZEFSAII (Michael W. Deem and Ramdas Pophale) SiO2 
 PCOD9233313
Probable space group: P 2/C
;
_chemical_formula_sum "Si O2"
_cell_formula_units_Z 32
_cell_length_a 16.051103
_cell_length_b 14.094958
_cell_length_c 22.123842
_cell_angle_alpha 90.000000
_cell_angle_beta 161.684538
_cell_angle_gamma 90.000000
_cell_volume 1572.905566
_symmetry_space_group_name_H-M "P 2/C"
_symmetry_group_IT_number 13
_symmetry_cell_setting 'monoclinic'
loop_
_space_group_symop_operation_xyz
x,y,z
-x,y,1/2-z
-x,-y,-z
x,-y,1/2+z
loop_
_atom_site_type_symbol
_atom_site_label
_atom_site_fract_x
_atom_site_fract_y
_atom_site_fract_z
Si Si1 0.806315 0.435559 0.029705
Si Si2 0.230870 0.738171 0.231987
Si Si3 0.831298 0.739166 0.684653
Si Si4 0.900087 0.343963 0.614362
Si Si5 0.806859 0.414881 0.886833
Si Si6 0.129075 0.919466 0.226303
Si Si7 0.330841 0.881421 0.827005
Si Si8 0.578328 0.167553 0.373632
O O1 0.880907 0.543764 0.094101
O O2 0.011026 0.358557 0.196239
O O3 0.812161 0.414070 0.962422
O O4 0.502359 0.430239 0.842515
O O5 0.543504 0.727497 0.457155
O O6 0.125868 0.682854 0.101217
O O7 0.159663 0.848290 0.190201
O O8 0.099108 0.690588 0.199878
O O9 0.794247 0.793970 0.722054
O O10 0.000000 0.795170 0.750000
O O11 0.639859 0.279876 0.424601
O O12 0.000000 0.320812 0.750000
O O13 0.000000 0.500000 0.000000
O O14 0.379298 0.898512 0.442479
O O15 0.156457 0.026319 0.222223
O O16 0.856598 0.889817 0.071144
O O17 0.381522 0.863941 0.791174
O O18 0.500000 0.152480 0.250000
#
# Coordination Sequence:
#
# PCOD9233313 Si02
#       8
#     4   4   4   4   4   4   4   4
#     4  11  25  39  61  90 125 169 216 265 319 395
#     4  10  21  40  65  91 126 167 208 276 320 387
#     4  11  22  39  61  95 131 165 220 274 329 381
#     4  11  23  40  62  91 123 165 218 272 318 383
#     4  11  23  41  60  87 125 172 214 256 326 393
#     4   9  21  41  70  95 127 166 223 268 331 399
#     4  10  22  42  70  99 126 174 218 273 337 395
#     4  11  24  41  64  96 134 169 215 273 330 401
#
# _framework density 20.344515000000001
#
# number of rings (size 3 to 8) (size 9 to 14) (size 15 to 20)
#    0.000    1.500    2.500    3.000    1.750    8.000 
#    0.000    0.000    0.000    0.000    0.000    0.000 
#    0.000    0.000    0.000    0.000    0.000    0.000 
#
# Total GULP energy -178613.676996 kJ/mol
# GULP energy per Si atom -5581.677406 kJ/mol
# Density = 2.029821 g / cm^3
# Si number density = 20.344515 Si / 1000 Ang^3
#
#
#
# Elastic Constant Matrix: (Units=GPa)
#
#
# Indices 1 2 3 4 5 6 
#
# 1 121.6391 42.3022 16.7234 0.0000 2.2852 0.0000
# 2 42.3022 124.5484 28.5829 0.0000 3.4673 0.0000
# 3 16.7234 28.5829 39.9135 0.0000 8.7342 0.0000
# 4 0.0000 0.0000 0.0000 16.3932 0.0000 -2.8475
# 5 2.2852 3.4673 8.7342 0.0000 26.4732 0.0000
# 6 0.0000 0.0000 0.0000 -2.8475 0.0000 13.4251
#
#
#
# Elastic Compliance Matrix: (Units=1/GPa)
#
#
# Indices 1 2 3 4 5 6 
#
# 1 0.009453 -0.002749 -0.002040 0.000000 0.000217 0.000000
# 2 -0.002749 0.010437 -0.006548 0.000000 0.001031 0.000000
# 3 -0.002040 -0.006548 0.032735 0.000000 -0.009767 0.000000
# 4 0.000000 0.000000 0.000000 0.063334 0.000000 0.013433
# 5 0.000217 0.001031 -0.009767 0.000000 0.040843 0.000000
# 6 0.000000 0.000000 0.000000 0.013433 0.000000 0.077336
#
#
# Mechanical properties :
#
#
# Convention : Reuss Voigt Hill
#
# Bulk Modulus (GPa) = 33.38643 51.25755 42.32199
# Shear Modulus (GPa) = 18.74098 24.49114 21.61606
#
# Velocity S-wave (km/s) = 3.03839 3.47338 3.26314
# Velocity P-wave (km/s) = 5.36239 6.42925 5.91990
#
# Compressibility (1/GPa) = 0.02995229
#
# Stress axis : x y z
#
# Youngs Moduli (GPa) = 105.78295 95.81738 30.54827
#
# Poissons Ratio (x) = 0.26337 0.06232
# Poissons Ratio (y) = 0.29076 0.20002
# Poissons Ratio (z) = 0.21580 0.62738
#
# Static dielectric constant tensor:
#      x y z
#    x 1.732280 0.000000 0.013260 
#    y 0.000000 1.733800 0.000000 
#    z 0.013260 0.000000 1.794290 
# 
# From -- ./inp_files/80407.got.cif
#   From: 2010.05.17/outbox.cif.g08.bks.cpg/sg13_41_cif.got.tgz:80407.got - 2010.06.03 16:44:36.
