data_PCOD9233662
_publ_section_title
;
Structure prediction by ZEFSAII (Michael W. Deem and Ramdas Pophale) SiO2 
 PCOD9233662
Probable space group: P 2/C
;
_chemical_formula_sum "Si O2"
_cell_formula_units_Z 12
_cell_length_a 7.139761
_cell_length_b 4.993179
_cell_length_c 13.869180
_cell_angle_alpha 90.000000
_cell_angle_beta 64.627280
_cell_angle_gamma 90.000000
_cell_volume 446.743969
_symmetry_space_group_name_H-M "P 2/C"
_symmetry_group_IT_number 13
_symmetry_cell_setting 'monoclinic'
loop_
_space_group_symop_operation_xyz
x,y,z
-x,y,1/2-z
-x,-y,-z
x,-y,1/2+z
loop_
_atom_site_type_symbol
_atom_site_label
_atom_site_fract_x
_atom_site_fract_y
_atom_site_fract_z
Si Si1 0.300136 0.001275 0.917368
Si Si2 0.253948 0.501693 0.042375
Si Si3 0.783318 0.904129 0.283109
O O1 0.553459 0.989607 0.863527
O O2 0.242269 0.118602 0.826197
O O3 0.500000 0.500000 0.000000
O O4 0.210492 0.203046 0.017075
O O5 0.184674 0.643006 0.156242
O O6 0.217247 0.708981 0.962474
O O7 0.000000 0.061028 0.250000
#
# Coordination Sequence:
#
# PCOD9233662 Si02
#       3
#     4   4   4
#     4  10  23  42  62  87 123 161 197 245 302 355
#     4  10  21  42  64  86 123 162 196 245 303 354
#     4  10  22  39  63  92 120 157 204 248 295 355
#
# _framework density 26.861021000000001
#
# number of rings (size 3 to 8) (size 9 to 14) (size 15 to 20)
#    0.000    2.000    0.000    4.000    0.000   16.000 
#    0.000   23.333    0.000    0.000    0.000    0.000 
#    0.000    0.000    0.000    0.000    0.000    0.000 
#
# Total GULP energy -67050.890756 kJ/mol
# GULP energy per Si atom -5587.574230 kJ/mol
# Density = 2.679988 g / cm^3
# Si number density = 26.861021 Si / 1000 Ang^3
#
#
#
# Elastic Constant Matrix: (Units=GPa)
#
#
# Indices 1 2 3 4 5 6 
#
# 1 192.3075 -9.0980 34.7262 0.0000 -5.7823 0.0000
# 2 -9.0980 102.3504 33.8446 0.0000 -9.4485 0.0000
# 3 34.7262 33.8446 191.5727 0.0000 -0.5697 0.0000
# 4 0.0000 0.0000 0.0000 27.8811 0.0000 -18.6094
# 5 -5.7823 -9.4485 -0.5697 0.0000 46.5980 0.0000
# 6 0.0000 0.0000 0.0000 -18.6094 0.0000 6.0310
#
#
#
# Elastic Compliance Matrix: (Units=1/GPa)
#
#
# Indices 1 2 3 4 5 6 
#
# 1 0.005480 0.000949 -0.001159 0.000000 0.000858 0.000000
# 2 0.000949 0.010747 -0.002064 0.000000 0.002272 0.000000
# 3 -0.001159 -0.002064 0.005793 0.000000 -0.000491 0.000000
# 4 0.000000 0.000000 0.000000 -0.033851 0.000000 -0.104453
# 5 0.000858 0.002272 -0.000491 0.000000 0.022021 0.000000
# 6 0.000000 0.000000 0.000000 -0.104453 0.000000 -0.156494
#
#
# Mechanical properties :
#
#
# Convention : Reuss Voigt Hill
#
# Bulk Modulus (GPa) = 57.22816 67.24180 62.23498
# Shear Modulus (GPa) = -36.78278 44.55255 3.88488
#
# Velocity S-wave (km/s) = -3.70452 4.07705 1.20392
# Velocity P-wave (km/s) = 1.74745 6.87391 5.01519
#
# Compressibility (1/GPa) = 0.01747391
#
# Stress axis : x y z
#
# Youngs Moduli (GPa) = 182.48389 93.04948 172.61823
#
# Poissons Ratio (x) = -0.08835 0.19998
# Poissons Ratio (y) = -0.17326 0.35628
# Poissons Ratio (z) = 0.21141 0.19205
#
# Static dielectric constant tensor:
#      x y z
#    x 2.156090 0.000000 -0.001130 
#    y 0.000000 2.115730 0.000000 
#    z -0.001130 0.000000 2.107990 
# 
# From -- ./inp_files/10559.got.cif
#   From: 2010.05.17/outbox.cif.g08.bks.cpg/sg13_6_cif.got.tgz:10559.got - 2010.06.03 16:44:36.
