data_PCOD9233523
_publ_section_title
;
Structure prediction by ZEFSAII (Michael W. Deem and Ramdas Pophale) SiO2 
 PCOD9233523
Probable space group: P 2/C
;
_chemical_formula_sum "Si O2"
_cell_formula_units_Z 20
_cell_length_a 13.734067
_cell_length_b 5.523741
_cell_length_c 13.566081
_cell_angle_alpha 90.000000
_cell_angle_beta 47.976485
_cell_angle_gamma 90.000000
_cell_volume 764.539235
_symmetry_space_group_name_H-M "P 2/C"
_symmetry_group_IT_number 13
_symmetry_cell_setting 'monoclinic'
loop_
_space_group_symop_operation_xyz
x,y,z
-x,y,1/2-z
-x,-y,-z
x,-y,1/2+z
loop_
_atom_site_type_symbol
_atom_site_label
_atom_site_fract_x
_atom_site_fract_y
_atom_site_fract_z
Si Si1 0.452339 0.250000 0.668856
Si Si2 0.262430 0.750000 0.012884
Si Si3 0.433008 0.250000 0.127881
Si Si4 0.914693 0.250000 0.060052
Si Si5 0.847381 0.750000 0.826147
O O1 0.500000 0.250001 0.750000
O O2 0.376648 0.497363 0.703004
O O3 0.544832 0.250000 0.506170
O O4 0.376649 0.002636 0.703004
O O5 0.214586 0.498945 0.093257
O O6 0.214586 0.001056 0.093256
O O7 0.420467 0.749999 0.918649
O O8 0.186460 0.750000 0.961260
O O9 0.156615 0.249999 0.287590
O O10 0.000000 0.500000 0.000000
O O11 0.000000 0.000000 0.000000
O O12 0.000000 0.750000 0.750000
#
# Coordination Sequence:
#
# PCOD9233523 Si02
#       5
#     4   4   4   4   4
#     4  10  21  41  66  87 123 154 189 240 303 362
#     4  12  24  40  60  89 123 152 205 250 282 356
#     4  10  23  39  61  94 119 154 194 244 297 349
#     4  12  23  38  59  82 113 158 202 243 292 337
#     4  12  23  39  61  83 117 164 202 243 297 338
#
# _framework density 26.159548000000001
#
# number of rings (size 3 to 8) (size 9 to 14) (size 15 to 20)
#    0.000    0.800    4.000    3.600    0.000    3.200 
#    0.000    0.000    0.000    0.000    0.000    0.000 
#    0.000    0.000    0.000    0.000    0.000    0.000 
#
# Total GULP energy -112061.005122 kJ/mol
# GULP energy per Si atom -5603.050256 kJ/mol
# Density = 2.610001 g / cm^3
# Si number density = 26.159548 Si / 1000 Ang^3
#
#
#
# Elastic Constant Matrix: (Units=GPa)
#
#
# Indices 1 2 3 4 5 6 
#
# 1 278.3098 91.7670 67.0345 0.0000 19.4103 0.0000
# 2 91.7670 317.9989 85.7482 0.0000 14.3998 0.0000
# 3 67.0345 85.7482 69.1584 0.0000 -2.1384 0.0000
# 4 0.0000 0.0000 0.0000 21.3634 0.0000 9.6718
# 5 19.4103 14.3998 -2.1384 0.0000 69.2764 0.0000
# 6 0.0000 0.0000 0.0000 9.6718 0.0000 60.6103
#
#
#
# Elastic Compliance Matrix: (Units=1/GPa)
#
#
# Indices 1 2 3 4 5 6 
#
# 1 0.004840 -0.000078 -0.004640 0.000000 -0.001483 0.000000
# 2 -0.000078 0.004821 -0.005937 0.000000 -0.001163 0.000000
# 3 -0.004640 -0.005937 0.026422 0.000000 0.003350 0.000000
# 4 0.000000 0.000000 0.000000 0.050454 0.000000 -0.008051
# 5 -0.001483 -0.001163 0.003350 0.000000 0.015196 0.000000
# 6 0.000000 0.000000 0.000000 -0.008051 0.000000 0.017784
#
#
# Mechanical properties :
#
#
# Convention : Reuss Voigt Hill
#
# Bulk Modulus (GPa) = 67.69724 128.28516 97.99120
# Shear Modulus (GPa) = 34.30476 58.31118 46.30797
#
# Velocity S-wave (km/s) = 3.62521 4.72641 4.21195
# Velocity P-wave (km/s) = 6.59224 8.88433 7.82269
#
# Compressibility (1/GPa) = 0.01477165
#
# Stress axis : x y z
#
# Youngs Moduli (GPa) = 206.61139 207.42595 37.84665
#
# Poissons Ratio (x) = 0.01626 0.17561
# Poissons Ratio (y) = 0.01619 0.22471
# Poissons Ratio (z) = 0.95869 1.23159
#
# Static dielectric constant tensor:
#      x y z
#    x 0.484770 0.000000 0.502290 
#    y 0.000000 2.002920 0.000000 
#    z 0.502290 0.000000 1.972810 
# 
# From -- ./inp_files/79191.got.cif
#   From: 2010.05.17/outbox.cif.g08.bks.cpg/sg13_40_cif.got.tgz:79191.got - 2010.06.03 16:44:36.
