data_PCOD9233216
_publ_section_title
;
Structure prediction by ZEFSAII (Michael W. Deem and Ramdas Pophale) SiO2 
 PCOD9233216
Probable space group: P 2/C
;
_chemical_formula_sum "Si O2"
_cell_formula_units_Z 16
_cell_length_a 26.171246
_cell_length_b 7.077606
_cell_length_c 20.188281
_cell_angle_alpha 90.000000
_cell_angle_beta 11.695811
_cell_angle_gamma 90.000000
_cell_volume 758.049408
_symmetry_space_group_name_H-M "P 2/C"
_symmetry_group_IT_number 13
_symmetry_cell_setting 'monoclinic'
loop_
_space_group_symop_operation_xyz
x,y,z
-x,y,1/2-z
-x,-y,-z
x,-y,1/2+z
loop_
_atom_site_type_symbol
_atom_site_label
_atom_site_fract_x
_atom_site_fract_y
_atom_site_fract_z
Si Si1 0.907379 0.184520 0.968114
Si Si2 0.209763 0.036097 0.177752
Si Si3 0.384746 0.742325 0.786771
Si Si4 0.261992 0.396679 0.185096
O O1 0.141720 0.302349 0.640242
O O2 0.052136 0.998754 0.811222
O O3 0.716365 0.151988 0.150656
O O4 0.777627 0.291134 0.194276
O O5 0.313906 0.241336 0.062323
O O6 0.000000 0.000000 0.500000
O O7 0.420273 0.876995 0.922361
O O8 0.524975 0.554601 0.585431
O O9 0.000000 0.500000 0.500000
#
# Coordination Sequence:
#
# PCOD9233216 Si02
#       4
#     4   4   4   4
#     4  10  23  42  64  92 133 169 208 268 314 372
#     4  10  21  40  60  90 120 164 209 258 319 368
#     4  11  22  44  63  93 131 168 214 262 315 376
#     4  11  22  41  65  94 124 169 211 259 319 376
#
# _framework density 21.106802999999999
#
# number of rings (size 3 to 8) (size 9 to 14) (size 15 to 20)
#    0.000    1.500    5.000    1.500    0.000    4.000 
#   13.500    2.500    0.000    0.000    0.000    0.000 
#    0.000    0.000    0.000    0.000    0.000    0.000 
#
# Total GULP energy -89322.758571 kJ/mol
# GULP energy per Si atom -5582.672411 kJ/mol
# Density = 2.105876 g / cm^3
# Si number density = 21.106803 Si / 1000 Ang^3
#
#
#
# Elastic Constant Matrix: (Units=GPa)
#
#
# Indices 1 2 3 4 5 6 
#
# 1 118.5508 41.0976 28.8711 0.0000 -21.0104 0.0000
# 2 41.0976 80.7797 15.9031 0.0000 -12.3663 0.0000
# 3 28.8711 15.9031 66.2487 0.0000 -3.6993 0.0000
# 4 0.0000 0.0000 0.0000 15.9036 0.0000 -6.0535
# 5 -21.0104 -12.3663 -3.6993 0.0000 40.5215 0.0000
# 6 0.0000 0.0000 0.0000 -6.0535 0.0000 27.6106
#
#
#
# Elastic Compliance Matrix: (Units=1/GPa)
#
#
# Indices 1 2 3 4 5 6 
#
# 1 0.011696 -0.004546 -0.003764 0.000000 0.004333 0.000000
# 2 -0.004546 0.015337 -0.001579 0.000000 0.002179 0.000000
# 3 -0.003764 -0.001579 0.017065 0.000000 -0.000875 0.000000
# 4 0.000000 0.000000 0.000000 0.068604 0.000000 0.015041
# 5 0.004333 0.002179 -0.000875 0.000000 0.027510 0.000000
# 6 0.000000 0.000000 0.000000 0.015041 0.000000 0.039516
#
#
# Mechanical properties :
#
#
# Convention : Reuss Voigt Hill
#
# Bulk Modulus (GPa) = 41.11789 48.59142 44.85465
# Shear Modulus (GPa) = 24.08352 28.78764 26.43558
#
# Velocity S-wave (km/s) = 3.38158 3.69711 3.54286
# Velocity P-wave (km/s) = 5.89660 6.42624 6.16711
#
# Compressibility (1/GPa) = 0.02432031
#
# Stress axis : x y z
#
# Youngs Moduli (GPa) = 85.50132 65.20352 58.59957
#
# Poissons Ratio (x) = 0.29642 0.22055
# Poissons Ratio (y) = 0.38869 0.09251
# Poissons Ratio (z) = 0.32180 0.10294
#
# Static dielectric constant tensor:
#      x y z
#    x 1.800540 0.000000 0.025190 
#    y 0.000000 1.760990 0.000000 
#    z 0.025190 0.000000 1.752160 
# 
# From -- ./inp_files/89629.got.cif
#   From: 2010.05.17/outbox.cif.g08.bks.cpg/sg13_45_cif.got.tgz:89629.got - 2010.06.03 16:44:36.
