data_PCOD9233572
_publ_section_title
;
Structure prediction by ZEFSAII (Michael W. Deem and Ramdas Pophale) SiO2 
 PCOD9233572
Probable space group: P 2/C
;
_chemical_formula_sum "Si O2"
_cell_formula_units_Z 20
_cell_length_a 6.671728
_cell_length_b 17.270952
_cell_length_c 7.580741
_cell_angle_alpha 90.000000
_cell_angle_beta 91.253189
_cell_angle_gamma 90.000000
_cell_volume 873.297823
_symmetry_space_group_name_H-M "P 2/C"
_symmetry_group_IT_number 13
_symmetry_cell_setting 'monoclinic'
loop_
_space_group_symop_operation_xyz
x,y,z
-x,y,1/2-z
-x,-y,-z
x,-y,1/2+z
loop_
_atom_site_type_symbol
_atom_site_label
_atom_site_fract_x
_atom_site_fract_y
_atom_site_fract_z
Si Si1 0.301964 0.054630 0.037778
Si Si2 0.663660 0.222946 0.386927
Si Si3 0.500000 0.273328 0.750000
Si Si4 0.276007 0.402857 0.551837
Si Si5 0.000000 0.050737 0.750000
Si Si6 0.000000 0.335525 0.250000
Si Si7 0.500000 0.473099 0.250000
O O1 0.320485 0.131644 0.154331
O O2 0.146859 0.999458 0.132090
O O3 0.169888 0.089244 0.872828
O O4 0.500000 0.000000 0.000000
O O5 0.500000 0.255180 0.250000
O O6 0.582275 0.228288 0.583849
O O7 0.851907 0.276742 0.349620
O O8 0.324864 0.327562 0.667080
O O9 0.097719 0.386799 0.410037
O O10 0.456592 0.421820 0.419443
O O11 0.308368 0.473144 0.692472
#
# Coordination Sequence:
#
# PCOD9233572 Si02
#       7
#     4   4   2   4   2   2   2
#     4  11  24  43  70  98 140 186 239 304 372 428
#     4  12  26  46  70 102 142 193 239 296 370 429
#     4  11  24  44  72  98 145 192 228 294 355 436
#     4  10  21  41  68 105 140 189 232 290 357 415
#     4  10  23  42  64 102 135 174 232 316 342 449
#     4  12  25  44  72 104 149 188 242 302 354 443
#     4   9  20  42  72 100 151 186 232 298 353 426
#
# _framework density 22.901695
#
# number of rings (size 3 to 8) (size 9 to 14) (size 15 to 20)
#    0.000    1.200    2.000    3.600    2.800    4.800 
#    0.000    0.000    0.000    0.000    0.000    0.000 
#    0.000    0.000    0.000    0.000    0.000    0.000 
#
# Total GULP energy -111347.529384 kJ/mol
# GULP energy per Si atom -5567.376469 kJ/mol
# Density = 2.284957 g / cm^3
# Si number density = 22.901695 Si / 1000 Ang^3
#
#
#
# Elastic Constant Matrix: (Units=GPa)
#
#
# Indices 1 2 3 4 5 6 
#
# 1 112.7980 36.0768 33.8252 0.0000 10.3907 0.0000
# 2 36.0768 64.0907 -0.9687 0.0000 13.0203 0.0000
# 3 33.8252 -0.9687 95.9958 0.0000 23.5575 0.0000
# 4 0.0000 0.0000 0.0000 95.5681 0.0000 -53.7640
# 5 10.3907 13.0203 23.5575 0.0000 58.9365 0.0000
# 6 0.0000 0.0000 0.0000 -53.7640 0.0000 69.1833
#
#
#
# Elastic Compliance Matrix: (Units=1/GPa)
#
#
# Indices 1 2 3 4 5 6 
#
# 1 0.012564 -0.007421 -0.004835 0.000000 0.001357 0.000000
# 2 -0.007421 0.020838 0.004029 0.000000 -0.004906 0.000000
# 3 -0.004835 0.004029 0.013494 0.000000 -0.005431 0.000000
# 4 0.000000 0.000000 0.000000 0.018592 0.000000 0.014448
# 5 0.001357 -0.004906 -0.005431 0.000000 0.019983 0.000000
# 6 0.000000 0.000000 0.000000 0.014448 0.000000 0.025682
#
#
# Mechanical properties :
#
#
# Convention : Reuss Voigt Hill
#
# Bulk Modulus (GPa) = 32.84941 45.63904 39.24422
# Shear Modulus (GPa) = 36.29662 58.33432 47.31547
#
# Velocity S-wave (km/s) = 3.98538 5.05242 4.55029
# Velocity P-wave (km/s) = 5.96259 7.34897 6.69178
#
# Compressibility (1/GPa) = 0.03044195
#
# Stress axis : x y z
#
# Youngs Moduli (GPa) = 79.59423 47.99021 74.10550
#
# Poissons Ratio (x) = 0.35613 0.35829
# Poissons Ratio (y) = 0.59066 -0.29857
# Poissons Ratio (z) = 0.38483 -0.19335
#
# Static dielectric constant tensor:
#      x y z
#    x 1.846130 0.000000 0.103100 
#    y 0.000000 1.888280 0.000000 
#    z 0.103100 0.000000 2.060230 
# 
# From -- ./inp_files/9602.got.cif
#   From: 2010.05.17/outbox.cif.g08.bks.cpg/sg13_5_cif.got.tgz:9602.got - 2010.06.03 16:44:36.
