data_PCOD9233724
_publ_section_title
;
Structure prediction by ZEFSAII (Michael W. Deem and Ramdas Pophale) SiO2 
 PCOD9233724
Probable space group: P 2/C
;
_chemical_formula_sum "Si O2"
_cell_formula_units_Z 26
_cell_length_a 8.307915
_cell_length_b 13.915161
_cell_length_c 10.877742
_cell_angle_alpha 90.000000
_cell_angle_beta 114.046775
_cell_angle_gamma 90.000000
_cell_volume 1148.394670
_symmetry_space_group_name_H-M "P 2/C"
_symmetry_group_IT_number 13
_symmetry_cell_setting 'monoclinic'
loop_
_space_group_symop_operation_xyz
x,y,z
-x,y,1/2-z
-x,-y,-z
x,-y,1/2+z
loop_
_atom_site_type_symbol
_atom_site_label
_atom_site_fract_x
_atom_site_fract_y
_atom_site_fract_z
Si Si1 0.525601 0.214052 0.391706
Si Si2 0.080084 0.663345 0.975171
Si Si3 0.153144 0.863034 0.884816
Si Si4 0.215416 0.364250 0.940491
Si Si5 0.397844 0.468403 0.593335
Si Si6 0.611551 0.995536 0.907308
Si Si7 0.000000 0.506868 0.750000
O O1 0.500000 0.262131 0.250000
O O2 0.334024 0.176748 0.376525
O O3 0.634977 0.283144 0.517021
O O4 0.642883 0.118413 0.403319
O O5 0.067681 0.766810 0.911013
O O6 0.004844 0.578896 0.865097
O O7 0.971174 0.672493 0.066797
O O8 0.281611 0.627655 0.045498
O O9 0.000000 0.906797 0.750000
O O10 0.222672 0.937043 0.010386
O O11 0.275517 0.438366 0.064115
O O12 0.166501 0.435127 0.813249
O O13 0.500000 0.459942 0.750000
O O14 0.500000 0.500000 0.500000
O O15 0.500000 0.024651 0.750000
O O16 0.500000 0.000000 0.000000
#
# Coordination Sequence:
#
# PCOD9233724 Si02
#       7
#     4   4   4   4   4   4   2
#     4  10  21  42  68  94 132 177 223 277 347 413
#     4  11  24  40  64  90 135 180 226 288 347 406
#     4  11  22  42  70 101 135 179 230 283 348 421
#     4  11  24  41  64  89 131 182 227 283 343 407
#     4  11  25  39  63  92 126 175 231 280 339 406
#     4   9  21  44  70 101 140 179 221 287 344 415
#     4  10  22  40  60  86 136 168 230 280 342 382
#
# _framework density 22.6403
#
# number of rings (size 3 to 8) (size 9 to 14) (size 15 to 20)
#    0.000    1.538    0.769    4.154    8.615    0.615 
#    6.923   10.769    0.000    0.000    0.000    0.000 
#    0.000    0.000    0.000    0.000    0.000    0.000 
#
# Total GULP energy -144858.686108 kJ/mol
# GULP energy per Si atom -5571.487927 kJ/mol
# Density = 2.258877 g / cm^3
# Si number density = 22.640300 Si / 1000 Ang^3
#
#
#
# Elastic Constant Matrix: (Units=GPa)
#
#
# Indices 1 2 3 4 5 6 
#
# 1 82.4131 8.9916 29.5835 0.0000 3.4291 0.0000
# 2 8.9916 94.2068 53.0393 0.0000 23.2038 0.0000
# 3 29.5835 53.0393 159.0976 0.0000 29.8684 0.0000
# 4 0.0000 0.0000 0.0000 40.7260 0.0000 9.7797
# 5 3.4291 23.2038 29.8684 0.0000 33.6519 0.0000
# 6 0.0000 0.0000 0.0000 9.7797 0.0000 3.9127
#
#
#
# Elastic Compliance Matrix: (Units=1/GPa)
#
#
# Indices 1 2 3 4 5 6 
#
# 1 0.013029 -0.000025 -0.002602 0.000000 0.000999 0.000000
# 2 -0.000025 0.014231 -0.003477 0.000000 -0.006724 0.000000
# 3 -0.002602 -0.003477 0.008914 0.000000 -0.005249 0.000000
# 4 0.000000 0.000000 0.000000 0.061420 0.000000 -0.153519
# 5 0.000999 -0.006724 -0.005249 0.000000 0.038909 0.000000
# 6 0.000000 0.000000 0.000000 -0.153519 0.000000 0.639301
#
#
# Mechanical properties :
#
#
# Convention : Reuss Voigt Hill
#
# Bulk Modulus (GPa) = 41.72546 57.66071 49.69308
# Shear Modulus (GPa) = 6.28140 31.93165 19.10652
#
# Velocity S-wave (km/s) = 1.66747 3.75959 2.90818
# Velocity P-wave (km/s) = 4.70925 6.66104 5.76830
#
# Compressibility (1/GPa) = 0.02396618
#
# Stress axis : x y z
#
# Youngs Moduli (GPa) = 76.75099 70.26778 112.18315
#
# Poissons Ratio (x) = 0.00173 0.29190
# Poissons Ratio (y) = 0.00189 0.39012
# Poissons Ratio (z) = 0.19971 0.24436
#
# Static dielectric constant tensor:
#      x y z
#    x 2.121260 0.000000 0.002120 
#    y 0.000000 1.864180 0.000000 
#    z 0.002120 0.000000 1.912230 
# 
# From -- ./inp_files/30209.got.cif
#   From: 2010.05.17/outbox.cif.g08.bks.cpg/sg13_16_cif.got.tgz:30209.got - 2010.06.03 16:44:36.
