data_PCOD9233991
_publ_section_title
;
Structure prediction by ZEFSAII (Michael W. Deem and Ramdas Pophale) SiO2 
 PCOD9233991
Probable space group: P 2/C
;
_chemical_formula_sum "Si O2"
_cell_formula_units_Z 28
_cell_length_a 23.372249
_cell_length_b 5.012851
_cell_length_c 18.577711
_cell_angle_alpha 90.000000
_cell_angle_beta 36.334018
_cell_angle_gamma 90.000000
_cell_volume 1289.613831
_symmetry_space_group_name_H-M "P 2/C"
_symmetry_group_IT_number 13
_symmetry_cell_setting 'monoclinic'
loop_
_space_group_symop_operation_xyz
x,y,z
-x,y,1/2-z
-x,-y,-z
x,-y,1/2+z
loop_
_atom_site_type_symbol
_atom_site_label
_atom_site_fract_x
_atom_site_fract_y
_atom_site_fract_z
Si Si1 0.308329 0.596437 0.353969
Si Si2 0.400465 0.808397 0.395480
Si Si3 0.067649 0.791472 0.887381
Si Si4 0.393645 0.116347 0.191147
Si Si5 0.247235 0.975877 0.232572
Si Si6 0.878915 0.624805 0.040999
Si Si7 0.399504 0.307971 0.493402
O O1 0.319368 0.705108 0.423009
O O2 0.362745 0.319000 0.285510
O O3 0.198139 0.543078 0.440818
O O4 0.365044 0.819180 0.247174
O O5 0.500000 0.799445 0.250000
O O6 0.408793 0.602705 0.453192
O O7 0.386248 0.102883 0.440337
O O8 0.104313 0.574932 0.908687
O O9 0.168390 0.909076 0.757399
O O10 0.990002 0.684839 0.908376
O O11 0.000000 0.000000 0.000000
O O12 0.504248 0.193930 0.065499
O O13 0.325967 0.164845 0.190432
O O14 0.178607 0.873708 0.366222
O O15 0.307938 0.739485 0.136430
#
# Coordination Sequence:
#
# PCOD9233991 Si02
#       7
#     4   4   4   4   4   4   4
#     4  11  21  36  60  82 114 148 203 238 272 329
#     4  12  23  40  57  79 115 161 206 231 264 331
#     4   9  17  35  58  87 113 142 184 233 306 346
#     4  11  20  36  56  85 119 153 182 240 283 339
#     4  10  22  34  56  89 121 146 185 236 301 354
#     4   9  19  35  59  88 111 145 184 244 294 345
#     4  12  24  37  58  84 120 161 190 234 285 338
#
# _framework density 21.711925000000001
#
# number of rings (size 3 to 8) (size 9 to 14) (size 15 to 20)
#    0.000    1.429    4.286    1.714    2.000    0.000 
#    0.000    3.571    0.000    0.857    0.000    0.000 
#    0.000    0.000    0.000    0.000    0.000    0.000 
#
# Total GULP energy -156167.485502 kJ/mol
# GULP energy per Si atom -5577.410197 kJ/mol
# Density = 2.166251 g / cm^3
# Si number density = 21.711925 Si / 1000 Ang^3
#
#
#
# Elastic Constant Matrix: (Units=GPa)
#
#
# Indices 1 2 3 4 5 6 
#
# 1 79.9899 -7.6850 36.0774 0.0000 -35.3803 0.0000
# 2 -7.6850 52.2049 -3.1163 0.0000 0.0501 0.0000
# 3 36.0774 -3.1163 65.3496 0.0000 -30.8372 0.0000
# 4 0.0000 0.0000 0.0000 20.5935 0.0000 3.0766
# 5 -35.3803 0.0501 -30.8372 0.0000 41.5112 0.0000
# 6 0.0000 0.0000 0.0000 3.0766 0.0000 29.2600
#
#
#
# Elastic Compliance Matrix: (Units=1/GPa)
#
#
# Indices 1 2 3 4 5 6 
#
# 1 0.021436 0.002858 -0.004740 0.000000 0.014746 0.000000
# 2 0.002858 0.019619 0.000764 0.000000 0.002980 0.000000
# 3 -0.004740 0.000764 0.024711 0.000000 0.014316 0.000000
# 4 0.000000 0.000000 0.000000 0.049334 0.000000 -0.005187
# 5 0.014746 0.002980 0.014316 0.000000 0.047289 0.000000
# 6 0.000000 0.000000 0.000000 -0.005187 0.000000 0.034722
#
#
# Mechanical properties :
#
#
# Convention : Reuss Voigt Hill
#
# Bulk Modulus (GPa) = 15.74038 27.56631 21.65335
# Shear Modulus (GPa) = 22.67339 29.75749 26.21544
#
# Velocity S-wave (km/s) = 3.23504 3.70612 3.47857
# Velocity P-wave (km/s) = 4.60645 5.57115 5.11161
#
# Compressibility (1/GPa) = 0.06353085
#
# Stress axis : x y z
#
# Youngs Moduli (GPa) = 46.65036 50.97153 40.46793
#
# Poissons Ratio (x) = -0.14570 0.19180
# Poissons Ratio (y) = -0.13335 -0.03090
# Poissons Ratio (z) = 0.22110 -0.03892
#
# Static dielectric constant tensor:
#      x y z
#    x 1.885170 0.000000 -0.050170 
#    y 0.000000 1.867320 0.000000 
#    z -0.050170 0.000000 1.818000 
# 
# From -- ./inp_files/81921.got.cif
#   From: 2010.05.17/outbox.cif.g08.bks.cpg/sg13_41_cif.got.tgz:81921.got - 2010.06.03 16:44:36.
