data_PCOD9233830
_publ_section_title
;
Structure prediction by ZEFSAII (Michael W. Deem and Ramdas Pophale) SiO2 
 PCOD9233830
Probable space group: P 2/C
;
_chemical_formula_sum "Si O2"
_cell_formula_units_Z 20
_cell_length_a 9.909663
_cell_length_b 5.219424
_cell_length_c 18.171285
_cell_angle_alpha 90.000000
_cell_angle_beta 92.292878
_cell_angle_gamma 90.000000
_cell_volume 939.116039
_symmetry_space_group_name_H-M "P 2/C"
_symmetry_group_IT_number 13
_symmetry_cell_setting 'monoclinic'
loop_
_space_group_symop_operation_xyz
x,y,z
-x,y,1/2-z
-x,-y,-z
x,-y,1/2+z
loop_
_atom_site_type_symbol
_atom_site_label
_atom_site_fract_x
_atom_site_fract_y
_atom_site_fract_z
Si Si1 0.659371 0.735399 0.243032
Si Si2 0.644486 0.743445 0.072286
Si Si3 0.271204 0.783922 0.667876
Si Si4 0.854669 0.512158 0.961124
Si Si5 0.639087 0.125758 0.949750
O O1 0.500000 0.796066 0.250000
O O2 0.687704 0.722473 0.157019
O O3 0.685448 0.465616 0.284780
O O4 0.742597 0.972494 0.279190
O O5 0.484426 0.680804 0.065737
O O6 0.748768 0.601625 0.021554
O O7 0.640684 0.022933 0.032858
O O8 0.151518 0.691003 0.611108
O O9 0.377076 0.894307 0.609162
O O10 0.784273 0.247327 0.936066
O O11 0.000000 0.500000 0.000000
#
# Coordination Sequence:
#
# PCOD9233830 Si02
#       5
#     4   4   4   4   4
#     4  12  23  39  68 104 143 174 219 285 359 401
#     4  10  23  38  71 104 135 174 230 286 343 401
#     4  11  23  41  66  98 138 179 222 282 342 408
#     4  11  24  45  72  95 137 189 234 278 336 408
#     4  10  21  43  67 105 131 177 232 289 329 407
#
# _framework density 21.296621999999999
#
# number of rings (size 3 to 8) (size 9 to 14) (size 15 to 20)
#    0.000    1.200    4.000    1.200    2.800    4.800 
#    0.000    1.000    4.400    0.000    0.000    0.000 
#    0.000    0.000    0.000    0.000    0.000    0.000 
#
# Total GULP energy -111493.597109 kJ/mol
# GULP energy per Si atom -5574.679855 kJ/mol
# Density = 2.124815 g / cm^3
# Si number density = 21.296622 Si / 1000 Ang^3
#
#
#
# Elastic Constant Matrix: (Units=GPa)
#
#
# Indices 1 2 3 4 5 6 
#
# 1 83.1334 37.1950 36.5102 0.0000 32.3684 0.0000
# 2 37.1950 129.3198 75.8639 0.0000 17.6944 0.0000
# 3 36.5102 75.8639 191.4579 0.0000 14.8905 0.0000
# 4 0.0000 0.0000 0.0000 39.4962 0.0000 0.0910
# 5 32.3684 17.6944 14.8905 0.0000 28.6830 0.0000
# 6 0.0000 0.0000 0.0000 0.0910 0.0000 11.7722
#
#
#
# Elastic Compliance Matrix: (Units=1/GPa)
#
#
# Indices 1 2 3 4 5 6 
#
# 1 0.023034 -0.002463 -0.001577 0.000000 -0.023655 0.000000
# 2 -0.002463 0.010879 -0.003684 0.000000 -0.002019 0.000000
# 3 -0.001577 -0.003684 0.006949 0.000000 0.000444 0.000000
# 4 0.000000 0.000000 0.000000 0.025319 0.000000 -0.000196
# 5 -0.023655 -0.002019 0.000444 0.000000 0.062573 0.000000
# 6 0.000000 0.000000 0.000000 -0.000196 0.000000 0.084947
#
#
# Mechanical properties :
#
#
# Convention : Reuss Voigt Hill
#
# Bulk Modulus (GPa) = 39.34921 78.11659 58.73290
# Shear Modulus (GPa) = 21.04207 32.94643 26.99425
#
# Velocity S-wave (km/s) = 3.14673 3.93749 3.56411
# Velocity P-wave (km/s) = 5.63200 7.57837 6.67649
#
# Compressibility (1/GPa) = 0.02541347
#
# Stress axis : x y z
#
# Youngs Moduli (GPa) = 43.41483 91.92405 143.90870
#
# Poissons Ratio (x) = 0.22645 0.22688
# Poissons Ratio (y) = 0.10695 0.53013
# Poissons Ratio (z) = 0.06844 0.33863
#
# Static dielectric constant tensor:
#      x y z
#    x 1.771910 0.000000 -0.005260 
#    y 0.000000 1.898330 0.000000 
#    z -0.005260 0.000000 1.804190 
# 
# From -- ./inp_files/62490.got.cif
#   From: 2010.05.17/outbox.cif.g08.bks.cpg/sg13_32_cif.got.tgz:62490.got - 2010.06.03 16:44:36.
