data_PCOD9233365
_publ_section_title
;
Structure prediction by ZEFSAII (Michael W. Deem and Ramdas Pophale) SiO2 
 PCOD9233365
Probable space group: P 2/C
;
_chemical_formula_sum "Si O2"
_cell_formula_units_Z 30
_cell_length_a 11.826348
_cell_length_b 8.588691
_cell_length_c 16.420475
_cell_angle_alpha 90.000000
_cell_angle_beta 117.585470
_cell_angle_gamma 90.000000
_cell_volume 1478.272193
_symmetry_space_group_name_H-M "P 2/C"
_symmetry_group_IT_number 13
_symmetry_cell_setting 'monoclinic'
loop_
_space_group_symop_operation_xyz
x,y,z
-x,y,1/2-z
-x,-y,-z
x,-y,1/2+z
loop_
_atom_site_type_symbol
_atom_site_label
_atom_site_fract_x
_atom_site_fract_y
_atom_site_fract_z
Si Si1 0.722160 0.102895 0.766876
Si Si2 0.999222 0.317068 0.130486
Si Si3 0.971406 0.832278 0.452257
Si Si4 0.500000 0.123830 0.250000
Si Si5 0.911387 0.659799 0.148163
Si Si6 0.373776 0.650905 0.385838
Si Si7 0.468729 0.305455 0.404289
Si Si8 0.192149 0.829780 0.807645
O O1 0.832971 0.164808 0.862982
O O2 0.640102 0.236259 0.695763
O O3 0.624415 0.984035 0.777438
O O4 0.792957 0.005199 0.718758
O O5 0.972013 0.495255 0.141659
O O6 0.902456 0.207518 0.149943
O O7 0.136138 0.266729 0.211790
O O8 0.979585 0.285830 0.029826
O O9 0.075944 0.780293 0.421090
O O10 0.000000 0.000000 0.500000
O O11 0.516362 0.228567 0.336376
O O12 0.770887 0.622825 0.132864
O O13 0.000000 0.720384 0.250000
O O14 0.445500 0.490673 0.388534
O O15 0.444072 0.723001 0.487846
O O16 0.331071 0.231162 0.375690
#
# Coordination Sequence:
#
# PCOD9233365 Si02
#       8
#     4   4   4   2   4   4   4   4
#     4  11  25  43  66 100 137 175 223 277 345 403
#     4  11  22  41  67  95 135 176 226 274 339 402
#     4  12  27  40  65 103 139 172 224 284 346 400
#     4  10  26  46  66  96 136 178 218 282 336 396
#     4  12  23  43  68  99 133 179 223 282 335 411
#     4  11  24  43  70  98 128 178 232 273 335 412
#     4  10  23  45  68  95 130 178 229 279 332 404
#     4  10  21  40  67  91 131 179 218 269 342 405
#
# _framework density 20.293963000000002
#
# number of rings (size 3 to 8) (size 9 to 14) (size 15 to 20)
#    0.000    1.067    5.333    0.400    3.733    3.733 
#    2.400    0.000    0.000    0.000    0.000    0.000 
#    0.000    0.000    0.000    0.000    0.000    0.000 
#
# Total GULP energy -167701.463424 kJ/mol
# GULP energy per Si atom -5590.048781 kJ/mol
# Density = 2.024777 g / cm^3
# Si number density = 20.293963 Si / 1000 Ang^3
#
#
#
# Elastic Constant Matrix: (Units=GPa)
#
#
# Indices 1 2 3 4 5 6 
#
# 1 57.2068 12.1270 30.0431 0.0000 0.2579 0.0000
# 2 12.1270 57.4983 24.7845 0.0000 -4.1177 0.0000
# 3 30.0431 24.7845 136.3147 0.0000 9.0282 0.0000
# 4 0.0000 0.0000 0.0000 35.0483 0.0000 -1.0342
# 5 0.2579 -4.1177 9.0282 0.0000 41.2699 0.0000
# 6 0.0000 0.0000 0.0000 -1.0342 0.0000 24.7934
#
#
#
# Elastic Compliance Matrix: (Units=1/GPa)
#
#
# Indices 1 2 3 4 5 6 
#
# 1 0.020112 -0.002474 -0.004016 0.000000 0.000506 0.000000
# 2 -0.002474 0.019470 -0.003170 0.000000 0.002652 0.000000
# 3 -0.004016 -0.003170 0.008946 0.000000 -0.002248 0.000000
# 4 0.000000 0.000000 0.000000 0.028567 0.000000 0.001192
# 5 0.000506 0.002652 -0.002248 0.000000 0.024984 0.000000
# 6 0.000000 0.000000 0.000000 0.001192 0.000000 0.040383
#
#
# Mechanical properties :
#
#
# Convention : Reuss Voigt Hill
#
# Bulk Modulus (GPa) = 34.23877 42.76990 38.50433
# Shear Modulus (GPa) = 29.15113 32.49334 30.82224
#
# Velocity S-wave (km/s) = 3.79416 4.00576 3.90139
# Velocity P-wave (km/s) = 6.00851 6.52041 6.26969
#
# Compressibility (1/GPa) = 0.02920666
#
# Stress axis : x y z
#
# Youngs Moduli (GPa) = 49.72194 51.36072 111.77634
#
# Poissons Ratio (x) = 0.12709 0.44891
# Poissons Ratio (y) = 0.12303 0.35436
# Poissons Ratio (z) = 0.19969 0.16283
#
# Static dielectric constant tensor:
#      x y z
#    x 1.726960 0.000000 -0.004450 
#    y 0.000000 1.749880 0.000000 
#    z -0.004450 0.000000 1.707960 
# 
# From -- ./inp_files/50378.got.cif
#   From: 2010.05.17/outbox.cif.g08.bks.cpg/sg13_26_cif.got.tgz:50378.got - 2010.06.03 16:44:36.
