data_PCOD9233640
_publ_section_title
;
Structure prediction by ZEFSAII (Michael W. Deem and Ramdas Pophale) SiO2 
 PCOD9233640
Probable space group: P 2/C
;
_chemical_formula_sum "Si O2"
_cell_formula_units_Z 28
_cell_length_a 9.426622
_cell_length_b 11.363075
_cell_length_c 20.144203
_cell_angle_alpha 90.000000
_cell_angle_beta 41.393116
_cell_angle_gamma 90.000000
_cell_volume 1426.754255
_symmetry_space_group_name_H-M "P 2/C"
_symmetry_group_IT_number 13
_symmetry_cell_setting 'monoclinic'
loop_
_space_group_symop_operation_xyz
x,y,z
-x,y,1/2-z
-x,-y,-z
x,-y,1/2+z
loop_
_atom_site_type_symbol
_atom_site_label
_atom_site_fract_x
_atom_site_fract_y
_atom_site_fract_z
Si Si1 0.835708 0.189055 0.463349
Si Si2 0.032191 0.463673 0.065331
Si Si3 0.717955 0.921466 0.719167
Si Si4 0.637918 0.569639 0.267856
Si Si5 0.759059 0.777039 0.840797
Si Si6 0.420884 0.172598 0.702387
Si Si7 0.434566 0.431338 0.458219
O O1 0.880719 0.330208 0.456922
O O2 0.771310 0.163118 0.409214
O O3 0.632923 0.158897 0.581551
O O4 0.063224 0.121252 0.394867
O O5 0.820384 0.478620 0.182931
O O6 0.181190 0.566615 0.042973
O O7 0.000000 0.500000 0.000000
O O8 0.500000 0.906212 0.750000
O O9 0.717267 0.848886 0.788255
O O10 0.722904 0.056032 0.743499
O O11 0.500000 0.582059 0.250000
O O12 0.692433 0.702220 0.272316
O O13 0.500386 0.509099 0.372424
O O14 0.565752 0.686651 0.911841
O O15 0.000000 0.722546 0.750000
O O16 0.500000 0.180671 0.750000
O O17 0.500000 0.500000 0.500000
#
# Coordination Sequence:
#
# PCOD9233640 Si02
#       7
#     4   4   4   4   4   4   4
#     4  11  22  44  65  86 132 170 198 257 327 364
#     4  12  23  38  65  97 123 164 206 252 313 377
#     4  10  24  40  66  94 115 162 220 263 302 370
#     4  11  21  39  63  90 129 163 200 258 310 377
#     4  10  22  42  63  88 129 168 203 258 314 374
#     4  10  21  42  62  89 125 162 208 260 317 361
#     4  12  23  38  61  94 125 163 204 247 319 374
#
# _framework density 19.624963000000001
#
# number of rings (size 3 to 8) (size 9 to 14) (size 15 to 20)
#    0.000    1.143    4.286    2.571    2.000    4.000 
#    2.571    0.000    6.286    0.000    0.000    0.000 
#    0.000    0.000    0.000    0.000    0.000    0.000 
#
# Total GULP energy -155960.417749 kJ/mol
# GULP energy per Si atom -5570.014920 kJ/mol
# Density = 1.958030 g / cm^3
# Si number density = 19.624963 Si / 1000 Ang^3
#
#
#
# Elastic Constant Matrix: (Units=GPa)
#
#
# Indices 1 2 3 4 5 6 
#
# 1 81.1130 -4.1197 4.1193 0.0000 6.0183 0.0000
# 2 -4.1197 44.5944 5.3132 0.0000 -15.9645 0.0000
# 3 4.1193 5.3132 89.2087 0.0000 13.5770 0.0000
# 4 0.0000 0.0000 0.0000 28.1755 0.0000 -7.5693
# 5 6.0183 -15.9645 13.5770 0.0000 31.0810 0.0000
# 6 0.0000 0.0000 0.0000 -7.5693 0.0000 22.9343
#
#
#
# Elastic Compliance Matrix: (Units=1/GPa)
#
#
# Indices 1 2 3 4 5 6 
#
# 1 0.012519 0.000452 -0.000291 0.000000 -0.002065 0.000000
# 2 0.000452 0.028934 -0.004277 0.000000 0.016642 0.000000
# 3 -0.000291 -0.004277 0.012644 0.000000 -0.007664 0.000000
# 4 0.000000 0.000000 0.000000 0.038945 0.000000 0.012853
# 5 -0.002065 0.016642 -0.007664 0.000000 0.044470 0.000000
# 6 0.000000 0.000000 0.000000 0.012853 0.000000 0.047845
#
#
# Mechanical properties :
#
#
# Convention : Reuss Voigt Hill
#
# Bulk Modulus (GPa) = 21.80284 25.06019 23.43151
# Shear Modulus (GPa) = 23.93752 30.41170 27.17461
#
# Velocity S-wave (km/s) = 3.49628 3.94082 3.72519
# Velocity P-wave (km/s) = 5.23760 5.78827 5.51981
#
# Compressibility (1/GPa) = 0.04586559
#
# Stress axis : x y z
#
# Youngs Moduli (GPa) = 79.87595 34.56200 79.08750
#
# Poissons Ratio (x) = -0.01562 0.02299
# Poissons Ratio (y) = -0.03610 0.33826
# Poissons Ratio (z) = 0.02322 0.14782
#
# Static dielectric constant tensor:
#      x y z
#    x 1.739000 0.000000 0.125690 
#    y 0.000000 1.768240 0.000000 
#    z 0.125690 0.000000 1.633610 
# 
# From -- ./inp_files/76383.got.cif
#   From: 2010.05.17/outbox.cif.g08.bks.cpg/sg13_39_cif.got.tgz:76383.got - 2010.06.03 16:44:36.
