data_PCOD9233914
_publ_section_title
;
Structure prediction by ZEFSAII (Michael W. Deem and Ramdas Pophale) SiO2 
 PCOD9233914
Probable space group: P 2/C
;
_chemical_formula_sum "Si O2"
_cell_formula_units_Z 20
_cell_length_a 11.409244
_cell_length_b 11.837852
_cell_length_c 7.788599
_cell_angle_alpha 90.000000
_cell_angle_beta 121.790950
_cell_angle_gamma 90.000000
_cell_volume 894.119855
_symmetry_space_group_name_H-M "P 2/C"
_symmetry_group_IT_number 13
_symmetry_cell_setting 'monoclinic'
loop_
_space_group_symop_operation_xyz
x,y,z
-x,y,1/2-z
-x,-y,-z
x,-y,1/2+z
loop_
_atom_site_type_symbol
_atom_site_label
_atom_site_fract_x
_atom_site_fract_y
_atom_site_fract_z
Si Si1 0.117847 0.402680 0.081292
Si Si2 0.000000 0.219296 0.250000
Si Si3 0.270626 0.410380 0.851874
Si Si4 0.517707 0.133833 0.003595
Si Si5 0.500000 0.306310 0.250000
Si Si6 0.269400 0.795907 0.126741
O O1 0.071405 0.297904 0.160171
O O2 0.247896 0.462000 0.274837
O O3 0.160454 0.380689 0.917496
O O4 0.000000 0.500000 0.000000
O O5 0.123524 0.157918 0.447659
O O6 0.249554 0.335030 0.664152
O O7 0.414704 0.383218 0.053721
O O8 0.581804 0.212727 0.201242
O O9 0.618828 0.169225 0.928126
O O10 0.355275 0.166439 0.860508
O O11 0.500000 0.000000 0.000000
#
# Coordination Sequence:
#
# PCOD9233914 Si02
#       6
#     4   2   4   4   2   4
#     4  12  21  36  59  84 130 183 214 244 298 374
#     4  12  22  38  62  96 132 172 218 260 304 362
#     4  11  22  38  57  91 126 172 221 257 311 360
#     4  10  21  44  69  91 121 166 208 261 344 402
#     4  10  22  36  62  92 120 156 218 282 306 378
#     4  10  22  38  65  95 127 161 210 268 311 388
#
# _framework density 22.368366000000002
#
# number of rings (size 3 to 8) (size 9 to 14) (size 15 to 20)
#    0.000    1.200    4.000    2.400    0.000    0.800 
#    0.000    5.000    0.000    0.000    0.000    0.000 
#    0.000    0.000    0.000    0.000    0.000    0.000 
#
# Total GULP energy -111363.247112 kJ/mol
# GULP energy per Si atom -5568.162356 kJ/mol
# Density = 2.231745 g / cm^3
# Si number density = 22.368366 Si / 1000 Ang^3
#
#
#
# Elastic Constant Matrix: (Units=GPa)
#
#
# Indices 1 2 3 4 5 6 
#
# 1 94.6497 31.9097 24.4506 0.0000 -9.4808 0.0000
# 2 31.9097 58.0347 20.1805 0.0000 5.2155 0.0000
# 3 24.4506 20.1805 124.5089 0.0000 22.5616 0.0000
# 4 0.0000 0.0000 0.0000 32.2380 0.0000 -21.7201
# 5 -9.4808 5.2155 22.5616 0.0000 47.4170 0.0000
# 6 0.0000 0.0000 0.0000 -21.7201 0.0000 51.9245
#
#
#
# Elastic Compliance Matrix: (Units=1/GPa)
#
#
# Indices 1 2 3 4 5 6 
#
# 1 0.014166 -0.007366 -0.002460 0.000000 0.004813 0.000000
# 2 -0.007366 0.022109 -0.001564 0.000000 -0.003160 0.000000
# 3 -0.002460 -0.001564 0.009659 0.000000 -0.004916 0.000000
# 4 0.000000 0.000000 0.000000 0.043192 0.000000 0.018067
# 5 0.004813 -0.003160 -0.004916 0.000000 0.024738 0.000000
# 6 0.000000 0.000000 0.000000 0.018067 0.000000 0.026816
#
#
# Mechanical properties :
#
#
# Convention : Reuss Voigt Hill
#
# Bulk Modulus (GPa) = 43.19067 47.80833 45.49950
# Shear Modulus (GPa) = 29.20892 39.69273 34.45082
#
# Velocity S-wave (km/s) = 3.61752 4.21706 3.92874
# Velocity P-wave (km/s) = 6.06625 6.71796 6.40041
#
# Compressibility (1/GPa) = 0.02315315
#
# Stress axis : x y z
#
# Youngs Moduli (GPa) = 70.58962 45.22988 103.53075
#
# Poissons Ratio (x) = 0.33318 0.25471
# Poissons Ratio (y) = 0.51998 0.16195
# Poissons Ratio (z) = 0.17367 0.07075
#
# Static dielectric constant tensor:
#      x y z
#    x 1.831220 0.000000 0.077250 
#    y 0.000000 1.884000 0.000000 
#    z 0.077250 0.000000 1.942540 
# 
# From -- ./inp_files/16028.got.cif
#   From: 2010.05.17/outbox.cif.g08.bks.cpg/sg13_9_cif.got.tgz:16028.got - 2010.06.03 16:44:36.
