data_PCOD9233054
_publ_section_title
;
Structure prediction by ZEFSAII (Michael W. Deem and Ramdas Pophale) SiO2 
 PCOD9233054
Probable space group: P 2/C
;
_chemical_formula_sum "Si O2"
_cell_formula_units_Z 26
_cell_length_a 8.685533
_cell_length_b 15.296540
_cell_length_c 19.308976
_cell_angle_alpha 90.000000
_cell_angle_beta 146.197756
_cell_angle_gamma 90.000000
_cell_volume 1427.184000
_symmetry_space_group_name_H-M "P 2/C"
_symmetry_group_IT_number 13
_symmetry_cell_setting 'monoclinic'
loop_
_space_group_symop_operation_xyz
x,y,z
-x,y,1/2-z
-x,-y,-z
x,-y,1/2+z
loop_
_atom_site_type_symbol
_atom_site_label
_atom_site_fract_x
_atom_site_fract_y
_atom_site_fract_z
Si Si1 0.500000 0.488870 0.250000
Si Si2 0.000000 0.253104 0.750000
Si Si3 0.041112 0.633588 0.627603
Si Si4 0.581029 0.607705 0.144878
Si Si5 0.356100 0.135044 0.986863
Si Si6 0.103562 0.960866 0.864920
Si Si7 0.000000 0.520407 0.750000
Si Si8 0.339652 0.818027 0.761288
O O1 0.765078 0.423503 0.351845
O O2 0.552220 0.552160 0.204502
O O3 0.203585 0.312513 0.778881
O O4 0.185232 0.196833 0.871919
O O5 0.029040 0.579512 0.693953
O O6 0.177265 0.726735 0.694151
O O7 0.725386 0.640557 0.485826
O O8 0.726931 0.540593 0.145456
O O9 0.179245 0.047238 0.935813
O O10 0.624650 0.097719 0.046887
O O11 0.463419 0.180213 0.097239
O O12 0.000000 0.990492 0.750000
O O13 0.871104 0.898220 0.808252
O O14 0.500000 0.829534 0.750000
#
# Coordination Sequence:
#
# PCOD9233054 Si02
#       8
#     2   2   4   4   4   4   2   4
#     4  10  22  42  58  86 120 172 194 242 314 364
#     4  11  22  38  61  94 120 154 209 260 302 345
#     4  11  21  39  60  86 120 158 201 252 295 363
#     4  10  22  38  59  87 120 156 204 251 298 367
#     4  10  21  39  64  88 121 157 202 256 299 364
#     4   9  19  39  65  88 117 159 205 248 307 359
#     4   9  22  36  57  88 112 154 205 250 310 337
#     4  11  24  38  59  95 122 161 203 247 308 366
#
# _framework density 18.217694000000002
#
# number of rings (size 3 to 8) (size 9 to 14) (size 15 to 20)
#    0.000    1.846    1.538    1.846    5.385    1.846 
#    5.538    0.000    1.692    0.000    0.000    0.000 
#    0.000    0.000    0.000    0.000    0.000    0.000 
#
# Total GULP energy -144995.743082 kJ/mol
# GULP energy per Si atom -5576.759349 kJ/mol
# Density = 1.817623 g / cm^3
# Si number density = 18.217694 Si / 1000 Ang^3
#
#
#
# Elastic Constant Matrix: (Units=GPa)
#
#
# Indices 1 2 3 4 5 6 
#
# 1 91.9718 53.0271 43.0129 0.0000 12.9914 0.0000
# 2 53.0271 109.6537 64.2767 0.0000 4.2591 0.0000
# 3 43.0129 64.2767 123.3219 0.0000 15.9169 0.0000
# 4 0.0000 0.0000 0.0000 33.0053 0.0000 2.3839
# 5 12.9914 4.2591 15.9169 0.0000 19.1799 0.0000
# 6 0.0000 0.0000 0.0000 2.3839 0.0000 14.0941
#
#
#
# Elastic Compliance Matrix: (Units=1/GPa)
#
#
# Indices 1 2 3 4 5 6 
#
# 1 0.016719 -0.007195 -0.000925 0.000000 -0.008960 0.000000
# 2 -0.007195 0.016394 -0.006937 0.000000 0.006990 0.000000
# 3 -0.000925 -0.006937 0.013179 0.000000 -0.008770 0.000000
# 4 0.000000 0.000000 0.000000 0.030673 0.000000 -0.005188
# 5 -0.008960 0.006990 -0.008770 0.000000 0.063932 0.000000
# 6 0.000000 0.000000 0.000000 -0.005188 0.000000 0.071829
#
#
# Mechanical properties :
#
#
# Convention : Reuss Voigt Hill
#
# Bulk Modulus (GPa) = 61.81308 71.73121 66.77214
# Shear Modulus (GPa) = 20.14219 24.23123 22.18671
#
# Velocity S-wave (km/s) = 3.32872 3.65100 3.49358
# Velocity P-wave (km/s) = 6.98411 7.56525 7.28048
#
# Compressibility (1/GPa) = 0.01617781
#
# Stress axis : x y z
#
# Youngs Moduli (GPa) = 59.81057 60.99723 75.87658
#
# Poissons Ratio (x) = 0.43888 0.07018
# Poissons Ratio (y) = 0.43035 0.52639
# Poissons Ratio (z) = 0.05532 0.42317
#
# Static dielectric constant tensor:
#      x y z
#    x 1.602440 0.000000 0.016660 
#    y 0.000000 1.630470 0.000000 
#    z 0.016660 0.000000 1.634590 
# 
# From -- ./inp_files/29895.got.cif
#   From: 2010.05.17/outbox.cif.g08.bks.cpg/sg13_15_cif.got.tgz:29895.got - 2010.06.03 16:44:36.
