data_PCOD9233381
_publ_section_title
;
Structure prediction by ZEFSAII (Michael W. Deem and Ramdas Pophale) SiO2 
 PCOD9233381
Probable space group: P 2/C
;
_chemical_formula_sum "Si O2"
_cell_formula_units_Z 24
_cell_length_a 8.755857
_cell_length_b 15.664940
_cell_length_c 7.685585
_cell_angle_alpha 90.000000
_cell_angle_beta 90.194997
_cell_angle_gamma 90.000000
_cell_volume 1054.148538
_symmetry_space_group_name_H-M "P 2/C"
_symmetry_group_IT_number 13
_symmetry_cell_setting 'monoclinic'
loop_
_space_group_symop_operation_xyz
x,y,z
-x,y,1/2-z
-x,-y,-z
x,-y,1/2+z
loop_
_atom_site_type_symbol
_atom_site_label
_atom_site_fract_x
_atom_site_fract_y
_atom_site_fract_z
Si Si1 0.660666 0.804541 0.647703
Si Si2 0.117388 0.073597 0.951100
Si Si3 0.136836 0.742500 0.533468
Si Si4 0.062920 0.408751 0.558160
Si Si5 0.326013 0.986374 0.738342
Si Si6 0.331622 0.688389 0.189608
O O1 0.500000 0.797843 0.750000
O O2 0.776731 0.760722 0.785354
O O3 0.689934 0.906035 0.628953
O O4 0.658251 0.760736 0.459677
O O5 0.193949 0.055500 0.767176
O O6 0.057047 0.167729 0.983828
O O7 0.273861 0.062264 0.064124
O O8 0.000000 0.000000 0.000000
O O9 0.245363 0.720252 0.366365
O O10 0.018088 0.665945 0.549376
O O11 0.240707 0.388035 0.589783
O O12 0.000000 0.396558 0.750000
O O13 0.000000 0.500000 0.500000
O O14 0.500000 0.016333 0.750000
O O15 0.500000 0.662770 0.250000
#
# Coordination Sequence:
#
# PCOD9233381 Si02
#       6
#     4   4   4   4   4   4
#     4  10  21  40  67  99 134 174 227 278 331 400
#     4  11  24  40  62  92 135 174 230 286 335 404
#     4  10  24  44  66  98 134 180 227 280 344 408
#     4  10  25  46  69 102 136 172 226 276 346 416
#     4  10  23  39  59  93 128 178 229 272 340 397
#     4  11  23  42  73 100 133 179 222 278 342 401
#
# _framework density 22.767189999999999
#
# number of rings (size 3 to 8) (size 9 to 14) (size 15 to 20)
#    0.000    1.667    1.667    1.000    7.000    3.333 
#    0.000    4.167    0.000    0.000    0.000    0.000 
#    0.000    0.000    0.000    0.000    0.000    0.000 
#
# Total GULP energy -133986.808267 kJ/mol
# GULP energy per Si atom -5582.783678 kJ/mol
# Density = 2.271537 g / cm^3
# Si number density = 22.767190 Si / 1000 Ang^3
#
#
#
# Elastic Constant Matrix: (Units=GPa)
#
#
# Indices 1 2 3 4 5 6 
#
# 1 130.8576 74.4536 35.4841 0.0000 16.0611 0.0000
# 2 74.4536 151.4243 17.1299 0.0000 17.1030 0.0000
# 3 35.4841 17.1299 88.1708 0.0000 0.8209 0.0000
# 4 0.0000 0.0000 0.0000 31.6224 0.0000 6.3573
# 5 16.0611 17.1030 0.8209 0.0000 38.8618 0.0000
# 6 0.0000 0.0000 0.0000 6.3573 0.0000 22.8932
#
#
#
# Elastic Compliance Matrix: (Units=1/GPa)
#
#
# Indices 1 2 3 4 5 6 
#
# 1 0.011902 -0.005134 -0.003768 0.000000 -0.002580 0.000000
# 2 -0.005134 0.009322 0.000274 0.000000 -0.001986 0.000000
# 3 -0.003768 0.000274 0.012794 0.000000 0.001167 0.000000
# 4 0.000000 0.000000 0.000000 0.033493 0.000000 -0.009301
# 5 -0.002580 -0.001986 0.001167 0.000000 0.027648 0.000000
# 6 0.000000 0.000000 0.000000 -0.009301 0.000000 0.046264
#
#
# Mechanical properties :
#
#
# Convention : Reuss Voigt Hill
#
# Bulk Modulus (GPa) = 59.66618 69.39866 64.53242
# Shear Modulus (GPa) = 30.43841 34.90115 32.66978
#
# Velocity S-wave (km/s) = 3.66039 3.91955 3.79218
# Velocity P-wave (km/s) = 6.64293 7.14366 6.89784
#
# Compressibility (1/GPa) = 0.01675991
#
# Stress axis : x y z
#
# Youngs Moduli (GPa) = 84.02300 107.27564 78.16100
#
# Poissons Ratio (x) = 0.55077 0.29453
# Poissons Ratio (y) = 0.43139 -0.02139
# Poissons Ratio (z) = 0.31662 -0.02936
#
# Static dielectric constant tensor:
#      x y z
#    x 1.920260 0.000000 0.037220 
#    y 0.000000 1.737830 0.000000 
#    z 0.037220 0.000000 1.995950 
# 
# From -- ./inp_files/12507.got.cif
#   From: 2010.05.17/outbox.cif.g08.bks.cpg/sg13_7_cif.got.tgz:12507.got - 2010.06.03 16:44:36.
