data_PCOD9233357
_publ_section_title
;
Structure prediction by ZEFSAII (Michael W. Deem and Ramdas Pophale) SiO2 
 PCOD9233357
Probable space group: P 2/C
;
_chemical_formula_sum "Si O2"
_cell_formula_units_Z 26
_cell_length_a 11.296601
_cell_length_b 8.282719
_cell_length_c 21.885648
_cell_angle_alpha 90.000000
_cell_angle_beta 140.482069
_cell_angle_gamma 90.000000
_cell_volume 1303.033189
_symmetry_space_group_name_H-M "P 2/C"
_symmetry_group_IT_number 13
_symmetry_cell_setting 'monoclinic'
loop_
_space_group_symop_operation_xyz
x,y,z
-x,y,1/2-z
-x,-y,-z
x,-y,1/2+z
loop_
_atom_site_type_symbol
_atom_site_label
_atom_site_fract_x
_atom_site_fract_y
_atom_site_fract_z
Si Si1 0.161214 0.365384 0.558101
Si Si2 0.500000 0.440526 0.250000
Si Si3 0.915074 0.666434 0.610083
Si Si4 0.692233 0.149896 0.788345
Si Si5 0.681397 0.797231 0.725930
Si Si6 0.887412 0.637180 0.263148
Si Si7 0.626456 0.381555 0.091030
O O1 0.350666 0.457491 0.652106
O O2 0.154765 0.309332 0.486002
O O3 0.155185 0.210284 0.600675
O O4 0.000000 0.500000 0.500000
O O5 0.383724 0.330302 0.249405
O O6 0.757244 0.708817 0.595191
O O7 0.100217 0.765956 0.697908
O O8 0.969582 0.476276 0.641574
O O9 0.500000 0.171762 0.750000
O O10 0.759972 0.256765 0.757119
O O11 0.670112 0.972686 0.751170
O O12 0.567112 0.748788 0.618939
O O13 0.751192 0.507328 0.178492
O O14 0.000000 0.713676 0.250000
O O15 0.500000 0.500000 0.000000
#
# Coordination Sequence:
#
# PCOD9233357 Si02
#       7
#     4   2   4   4   4   4   4
#     4  12  22  40  70  96 127 175 238 281 343 416
#     4  12  22  40  64  92 130 180 222 286 330 422
#     4  10  21  40  66  98 123 173 237 282 334 415
#     4  12  25  40  65 101 139 179 219 293 362 416
#     4  11  23  41  60  95 139 174 220 282 356 409
#     4   9  20  40  63  90 126 169 228 277 332 408
#     4  10  21  40  69  95 124 175 234 282 334 413
#
# _framework density 19.953444000000001
#
# number of rings (size 3 to 8) (size 9 to 14) (size 15 to 20)
#    0.000    1.231    4.615    3.231    2.154    1.846 
#    0.000    0.769    0.000    0.000    0.000    0.000 
#    0.000    0.000    0.000    0.000    0.000    0.000 
#
# Total GULP energy -144763.117135 kJ/mol
# GULP energy per Si atom -5567.812197 kJ/mol
# Density = 1.990803 g / cm^3
# Si number density = 19.953444 Si / 1000 Ang^3
#
#
#
# Elastic Constant Matrix: (Units=GPa)
#
#
# Indices 1 2 3 4 5 6 
#
# 1 109.4605 31.2684 21.4860 0.0000 -22.5309 0.0000
# 2 31.2684 82.7688 32.7300 0.0000 -14.9823 0.0000
# 3 21.4860 32.7300 109.2480 0.0000 -26.5904 0.0000
# 4 0.0000 0.0000 0.0000 21.4343 0.0000 -19.9272
# 5 -22.5309 -14.9823 -26.5904 0.0000 41.3806 0.0000
# 6 0.0000 0.0000 0.0000 -19.9272 0.0000 15.5174
#
#
#
# Elastic Compliance Matrix: (Units=1/GPa)
#
#
# Indices 1 2 3 4 5 6 
#
# 1 0.011076 -0.003305 -0.000014 0.000000 0.004825 0.000000
# 2 -0.003305 0.014962 -0.003499 0.000000 0.001369 0.000000
# 3 -0.000014 -0.003499 0.011729 0.000000 0.006262 0.000000
# 4 0.000000 0.000000 0.000000 -0.240615 0.000000 -0.308996
# 5 0.004825 0.001369 0.006262 0.000000 0.031313 0.000000
# 6 0.000000 0.000000 0.000000 -0.308996 0.000000 -0.332365
#
#
# Mechanical properties :
#
#
# Convention : Reuss Voigt Hill
#
# Bulk Modulus (GPa) = 41.44226 52.49401 46.96814
# Shear Modulus (GPa) = -10.36870 30.06597 9.84864
#
# Velocity S-wave (km/s) = -2.28204 3.88597 2.22408
# Velocity P-wave (km/s) = 3.72437 6.81907 5.49412
#
# Compressibility (1/GPa) = 0.02412996
#
# Stress axis : x y z
#
# Youngs Moduli (GPa) = 90.28720 66.83552 85.26062
#
# Poissons Ratio (x) = 0.22092 0.00116
# Poissons Ratio (y) = 0.29844 0.29835
# Poissons Ratio (z) = 0.00123 0.23388
#
# Static dielectric constant tensor:
#      x y z
#    x 1.760960 0.000000 -0.009590 
#    y 0.000000 1.748730 0.000000 
#    z -0.009590 0.000000 1.743510 
# 
# From -- ./inp_files/78355.got.cif
#   From: 2010.05.17/outbox.cif.g08.bks.cpg/sg13_40_cif.got.tgz:78355.got - 2010.06.03 16:44:36.
