data_PCOD9233886
_publ_section_title
;
Structure prediction by ZEFSAII (Michael W. Deem and Ramdas Pophale) SiO2 
 PCOD9233886
Probable space group: P 2/C
;
_chemical_formula_sum "Si O2"
_cell_formula_units_Z 18
_cell_length_a 7.684746
_cell_length_b 11.555152
_cell_length_c 10.435256
_cell_angle_alpha 90.000000
_cell_angle_beta 44.740593
_cell_angle_gamma 90.000000
_cell_volume 652.256011
_symmetry_space_group_name_H-M "P 2/C"
_symmetry_group_IT_number 13
_symmetry_cell_setting 'monoclinic'
loop_
_space_group_symop_operation_xyz
x,y,z
-x,y,1/2-z
-x,-y,-z
x,-y,1/2+z
loop_
_atom_site_type_symbol
_atom_site_label
_atom_site_fract_x
_atom_site_fract_y
_atom_site_fract_z
Si Si1 0.474540 0.715380 0.436922
Si Si2 0.262478 0.952752 0.539340
Si Si3 0.737129 0.195225 0.042907
Si Si4 0.068341 0.410079 0.886980
Si Si5 0.000000 0.579620 0.750000
O O1 0.342033 0.827617 0.443747
O O2 0.662585 0.775378 0.437160
O O3 0.641807 0.618059 0.281766
O O4 0.255907 0.650081 0.625486
O O5 0.000000 0.937128 0.750000
O O6 0.500000 0.000000 0.500000
O O7 0.213362 0.059472 0.469563
O O8 0.500000 0.223346 0.250000
O O9 0.942604 0.286092 0.969605
O O10 0.968089 0.549130 0.931765
O O11 0.000000 0.432364 0.750000
#
# Coordination Sequence:
#
# PCOD9233886 Si02
#       5
#     4   4   4   4   2
#     4  11  23  46  68 101 138 186 239 297 363 433
#     4  10  21  43  73  98 137 191 237 298 365 427
#     4  11  23  43  69 102 140 187 238 297 362 428
#     4  12  26  43  71 101 143 190 235 292 366 438
#     4  12  24  42  70  96 144 178 236 296 360 434
#
# _framework density 27.596525
#
# number of rings (size 3 to 8) (size 9 to 14) (size 15 to 20)
#    0.000    0.889    3.333    4.667    3.111    0.000 
#    4.000    5.556    0.000    0.000    0.000    0.000 
#    0.000    0.000    0.000    0.000    0.000    0.000 
#
# Total GULP energy -100554.950013 kJ/mol
# GULP energy per Si atom -5586.386112 kJ/mol
# Density = 2.753371 g / cm^3
# Si number density = 27.596525 Si / 1000 Ang^3
#
#
#
# Elastic Constant Matrix: (Units=GPa)
#
#
# Indices 1 2 3 4 5 6 
#
# 1 123.7794 57.1293 22.0130 0.0000 1.0922 0.0000
# 2 57.1293 192.3070 65.8162 0.0000 -9.6288 0.0000
# 3 22.0130 65.8162 226.6290 0.0000 -21.6204 0.0000
# 4 0.0000 0.0000 0.0000 27.7370 0.0000 -6.9772
# 5 1.0922 -9.6288 -21.6204 0.0000 50.2439 0.0000
# 6 0.0000 0.0000 0.0000 -6.9772 0.0000 5.6686
#
#
#
# Elastic Compliance Matrix: (Units=1/GPa)
#
#
# Indices 1 2 3 4 5 6 
#
# 1 0.009397 -0.002769 -0.000186 0.000000 -0.000815 0.000000
# 2 -0.002769 0.006597 -0.001586 0.000000 0.000642 0.000000
# 3 -0.000186 -0.001586 0.005071 0.000000 0.001882 0.000000
# 4 0.000000 0.000000 0.000000 0.052222 0.000000 0.064277
# 5 -0.000815 0.000642 0.001882 0.000000 0.020854 0.000000
# 6 0.000000 0.000000 0.000000 0.064277 0.000000 0.255528
#
#
# Mechanical properties :
#
#
# Convention : Reuss Voigt Hill
#
# Bulk Modulus (GPa) = 83.44876 92.51470 87.98173
# Shear Modulus (GPa) = 13.78381 43.24702 28.51541
#
# Velocity S-wave (km/s) = 2.23732 3.96298 3.21798
# Velocity P-wave (km/s) = 6.08101 7.38492 6.76446
#
# Compressibility (1/GPa) = 0.01198340
#
# Stress axis : x y z
#
# Youngs Moduli (GPa) = 106.41610 151.57533 197.21142
#
# Poissons Ratio (x) = 0.41965 0.03678
# Poissons Ratio (y) = 0.29462 0.31274
# Poissons Ratio (z) = 0.01984 0.24037
#
# Static dielectric constant tensor:
#      x y z
#    x 2.619130 0.000000 0.403420 
#    y 0.000000 2.025490 0.000000 
#    z 0.403420 0.000000 2.322640 
# 
# From -- ./inp_files/28763.got.cif
#   From: 2010.05.17/outbox.cif.g08.bks.cpg/sg13_15_cif.got.tgz:28763.got - 2010.06.03 16:44:36.
