data_PCOD9233853
_publ_section_title
;
Structure prediction by ZEFSAII (Michael W. Deem and Ramdas Pophale) SiO2 
 PCOD9233853
Probable space group: P 2/C
;
_chemical_formula_sum "Si O2"
_cell_formula_units_Z 26
_cell_length_a 21.016932
_cell_length_b 7.703858
_cell_length_c 15.899450
_cell_angle_alpha 90.000000
_cell_angle_beta 24.365582
_cell_angle_gamma 90.000000
_cell_volume 1062.047563
_symmetry_space_group_name_H-M "P 2/C"
_symmetry_group_IT_number 13
_symmetry_cell_setting 'monoclinic'
loop_
_space_group_symop_operation_xyz
x,y,z
-x,y,1/2-z
-x,-y,-z
x,-y,1/2+z
loop_
_atom_site_type_symbol
_atom_site_label
_atom_site_fract_x
_atom_site_fract_y
_atom_site_fract_z
Si Si1 0.316043 0.668343 0.166516
Si Si2 0.712864 0.022662 0.373011
Si Si3 0.974156 0.735034 0.581573
Si Si4 0.382458 0.504140 0.269037
Si Si5 0.099763 0.553844 0.203069
Si Si6 0.500000 0.223631 0.750000
Si Si7 0.030003 0.070254 0.811205
O O1 0.343034 0.875426 0.123371
O O2 0.135809 0.652150 0.357267
O O3 0.332867 0.584678 0.238825
O O4 0.448290 0.578203 0.950152
O O5 0.803373 0.935786 0.342915
O O6 0.575211 0.116008 0.584965
O O7 0.838435 0.168343 0.191783
O O8 0.891066 0.593051 0.738070
O O9 0.036747 0.901243 0.560257
O O10 0.254582 0.383753 0.467980
O O11 0.388140 0.653755 0.331838
O O12 0.002952 0.722366 0.348636
O O13 0.000000 0.464830 0.250000
O O14 0.000000 0.031520 0.750000
#
# Coordination Sequence:
#
# PCOD9233853 Si02
#       7
#     4   4   4   4   4   2   4
#     4  11  25  45  69 102 152 183 226 312 379 416
#     4  10  25  42  67 103 139 190 236 297 360 426
#     4  10  21  43  69 102 139 185 235 301 353 426
#     4  11  26  45  69 103 142 193 245 294 366 434
#     4  11  20  42  74  98 133 189 251 285 346 435
#     4  12  26  42  68 102 130 194 246 284 346 440
#     4   9  22  38  70 103 125 181 241 289 335 424
#
# _framework density 24.481012
#
# number of rings (size 3 to 8) (size 9 to 14) (size 15 to 20)
#    0.923    0.615    3.077    0.923    6.462    0.615 
#    2.769    1.538    0.000    0.000    0.000    0.000 
#    0.000    0.000    0.000    0.000    0.000    0.000 
#
# Total GULP energy -144736.389882 kJ/mol
# GULP energy per Si atom -5566.784226 kJ/mol
# Density = 2.442529 g / cm^3
# Si number density = 24.481012 Si / 1000 Ang^3
#
#
#
# Elastic Constant Matrix: (Units=GPa)
#
#
# Indices 1 2 3 4 5 6 
#
# 1 46.6390 33.9133 17.1257 0.0000 9.7928 0.0000
# 2 33.9133 117.6416 65.5930 0.0000 19.7748 0.0000
# 3 17.1257 65.5930 184.1236 0.0000 21.9652 0.0000
# 4 0.0000 0.0000 0.0000 65.9316 0.0000 3.9134
# 5 9.7928 19.7748 21.9652 0.0000 27.3281 0.0000
# 6 0.0000 0.0000 0.0000 3.9134 0.0000 35.3623
#
#
#
# Elastic Compliance Matrix: (Units=1/GPa)
#
#
# Indices 1 2 3 4 5 6 
#
# 1 0.027723 -0.007539 0.000709 0.000000 -0.005049 0.000000
# 2 -0.007539 0.013350 -0.003567 0.000000 -0.004092 0.000000
# 3 0.000709 -0.003567 0.007032 0.000000 -0.003326 0.000000
# 4 0.000000 0.000000 0.000000 0.015268 0.000000 -0.001690
# 5 -0.005049 -0.004092 -0.003326 0.000000 0.044036 0.000000
# 6 0.000000 0.000000 0.000000 -0.001690 0.000000 0.028466
#
#
# Mechanical properties :
#
#
# Convention : Reuss Voigt Hill
#
# Bulk Modulus (GPa) = 36.61157 64.62979 50.62068
# Shear Modulus (GPa) = 30.16222 41.17588 35.66905
#
# Velocity S-wave (km/s) = 3.51389 4.10561 3.82122
# Velocity P-wave (km/s) = 5.60810 6.99514 6.33967
#
# Compressibility (1/GPa) = 0.02731377
#
# Stress axis : x y z
#
# Youngs Moduli (GPa) = 36.07162 74.90618 142.19779
#
# Poissons Ratio (x) = 0.56469 -0.10088
# Poissons Ratio (y) = 0.27193 0.50715
# Poissons Ratio (z) = -0.02559 0.26715
#
# Static dielectric constant tensor:
#      x y z
#    x 2.741070 0.000000 -0.311300 
#    y 0.000000 2.005160 0.000000 
#    z -0.311300 0.000000 2.183930 
# 
# From -- ./inp_files/71270.got.cif
#   From: 2010.05.17/outbox.cif.g08.bks.cpg/sg13_36_cif.got.tgz:71270.got - 2010.06.03 16:44:36.
