data_PCOD9233529
_publ_section_title
;
Structure prediction by ZEFSAII (Michael W. Deem and Ramdas Pophale) SiO2 
 PCOD9233529
Probable space group: P 2/C
;
_chemical_formula_sum "Si O2"
_cell_formula_units_Z 20
_cell_length_a 28.769471
_cell_length_b 5.575979
_cell_length_c 18.529292
_cell_angle_alpha 90.000000
_cell_angle_beta 18.372345
_cell_angle_gamma 90.000000
_cell_volume 936.883622
_symmetry_space_group_name_H-M "P 2/C"
_symmetry_group_IT_number 13
_symmetry_cell_setting 'monoclinic'
loop_
_space_group_symop_operation_xyz
x,y,z
-x,y,1/2-z
-x,-y,-z
x,-y,1/2+z
loop_
_atom_site_type_symbol
_atom_site_label
_atom_site_fract_x
_atom_site_fract_y
_atom_site_fract_z
Si Si1 0.375985 0.406509 0.094969
Si Si2 0.854615 0.256341 0.777325
Si Si3 0.167493 0.819549 0.025144
Si Si4 0.805365 0.759255 0.769542
Si Si5 0.374365 0.799209 0.190372
O O1 0.268148 0.311579 0.317650
O O2 0.321596 0.286469 0.102546
O O3 0.355907 0.689513 0.137678
O O4 0.545243 0.365368 0.868573
O O5 0.811124 0.260301 0.924806
O O6 0.809825 0.512038 0.808980
O O7 0.033108 0.233115 0.506816
O O8 0.792142 0.012841 0.831291
O O9 0.000000 0.791352 0.250000
O O10 0.221521 0.094461 0.941384
O O11 0.500000 0.000000 0.000000
#
# Coordination Sequence:
#
# PCOD9233529 Si02
#       5
#     4   4   4   4   4
#     4  10  21  41  66  91 124 179 216 267 333 396
#     4  10  23  39  60  98 132 165 215 272 325 388
#     4  11  22  38  65  99 124 162 220 276 324 380
#     4  10  22  40  64  90 135 174 209 261 338 392
#     4   9  22  39  65  90 126 161 224 265 322 391
#
# _framework density 21.347369
#
# number of rings (size 3 to 8) (size 9 to 14) (size 15 to 20)
#    0.000    2.000    2.000    0.000    8.400    2.400 
#    0.000    1.000    0.000    0.000    0.000    0.000 
#    0.000    0.000    0.000    0.000    0.000    0.000 
#
# Total GULP energy -111448.015287 kJ/mol
# GULP energy per Si atom -5572.400764 kJ/mol
# Density = 2.129878 g / cm^3
# Si number density = 21.347369 Si / 1000 Ang^3
#
#
#
# Elastic Constant Matrix: (Units=GPa)
#
#
# Indices 1 2 3 4 5 6 
#
# 1 91.0856 34.6512 0.8265 0.0000 -6.2468 0.0000
# 2 34.6512 98.8346 12.0981 0.0000 -2.5579 0.0000
# 3 0.8265 12.0981 23.5932 0.0000 -8.6635 0.0000
# 4 0.0000 0.0000 0.0000 27.9283 0.0000 5.3847
# 5 -6.2468 -2.5579 -8.6635 0.0000 30.7476 0.0000
# 6 0.0000 0.0000 0.0000 5.3847 0.0000 30.1571
#
#
#
# Elastic Compliance Matrix: (Units=1/GPa)
#
#
# Indices 1 2 3 4 5 6 
#
# 1 0.013019 -0.004875 0.003197 0.000000 0.003140 0.000000
# 2 -0.004875 0.012636 -0.007012 0.000000 -0.001915 0.000000
# 3 0.003197 -0.007012 0.051189 0.000000 0.014489 0.000000
# 4 0.000000 0.000000 0.000000 0.037083 0.000000 -0.006621
# 5 0.003140 -0.001915 0.014489 0.000000 0.037084 0.000000
# 6 0.000000 0.000000 0.000000 -0.006621 0.000000 0.034342
#
#
# Mechanical properties :
#
#
# Convention : Reuss Voigt Hill
#
# Bulk Modulus (GPa) = 16.81666 34.29613 25.55639
# Shear Modulus (GPa) = 22.46647 28.82908 25.64778
#
# Velocity S-wave (km/s) = 3.24763 3.67887 3.46995
# Velocity P-wave (km/s) = 4.68588 5.84346 5.29639
#
# Compressibility (1/GPa) = 0.05946483
#
# Stress axis : x y z
#
# Youngs Moduli (GPa) = 76.80804 79.14102 19.53543
#
# Poissons Ratio (x) = 0.38578 -0.06245
# Poissons Ratio (y) = 0.37441 0.13698
# Poissons Ratio (z) = -0.24553 0.55491
#
# Static dielectric constant tensor:
#      x y z
#    x 1.761860 0.000000 -0.000260 
#    y 0.000000 1.609630 0.000000 
#    z -0.000260 0.000000 1.747180 
# 
# From -- ./inp_files/65227.got.cif
#   From: 2010.05.17/outbox.cif.g08.bks.cpg/sg13_33_cif.got.tgz:65227.got - 2010.06.03 16:44:36.
