data_PCOD9233639
_publ_section_title
;
Structure prediction by ZEFSAII (Michael W. Deem and Ramdas Pophale) SiO2 
 PCOD9233639
Probable space group: P 2/C
;
_chemical_formula_sum "Si O2"
_cell_formula_units_Z 32
_cell_length_a 9.727361
_cell_length_b 11.421913
_cell_length_c 22.280654
_cell_angle_alpha 90.000000
_cell_angle_beta 138.289936
_cell_angle_gamma 90.000000
_cell_volume 1647.098144
_symmetry_space_group_name_H-M "P 2/C"
_symmetry_group_IT_number 13
_symmetry_cell_setting 'monoclinic'
loop_
_space_group_symop_operation_xyz
x,y,z
-x,y,1/2-z
-x,-y,-z
x,-y,1/2+z
loop_
_atom_site_type_symbol
_atom_site_label
_atom_site_fract_x
_atom_site_fract_y
_atom_site_fract_z
Si Si1 0.742752 0.132067 0.561427
Si Si2 0.557126 0.248459 0.838855
Si Si3 0.961805 0.496672 0.106690
Si Si4 0.338507 0.879956 0.011108
Si Si5 0.903112 0.281516 0.780204
Si Si6 0.139643 0.291752 0.348030
Si Si7 0.417825 0.365821 0.052969
Si Si8 0.322989 0.511976 0.641942
O O1 0.571583 0.122783 0.558679
O O2 0.678659 0.242658 0.499610
O O3 0.965493 0.167058 0.659976
O O4 0.738498 0.011985 0.523732
O O5 0.500000 0.217136 0.750000
O O6 0.671933 0.161913 0.922994
O O7 0.337351 0.261806 0.799842
O O8 0.664621 0.375756 0.874234
O O9 0.988270 0.396043 0.163639
O O10 0.063799 0.617321 0.160766
O O11 0.094413 0.461811 0.092136
O O12 0.720168 0.529750 0.021286
O O13 0.211327 0.795323 0.924382
O O14 0.000000 0.326058 0.750000
O O15 0.344946 0.352193 0.387806
O O16 0.000000 0.236257 0.250000
O O17 0.386388 0.397149 0.111631
O O18 0.500000 0.520556 0.750000
#
# Coordination Sequence:
#
# PCOD9233639 Si02
#       8
#     4   4   4   4   4   4   4   4
#     4   9  21  40  62  87 116 157 211 258 300 359
#     4  11  22  39  63  93 125 159 204 252 311 369
#     4  11  21  36  58  88 125 159 198 248 307 372
#     4  10  21  42  62  88 122 162 206 257 305 355
#     4  11  20  35  63  94 117 156 207 256 302 361
#     4  11  23  38  59  92 125 160 204 253 304 364
#     4  10  22  37  60  86 120 158 205 252 302 361
#     4  11  21  36  57  87 125 164 195 244 309 375
#
# _framework density 19.428107000000001
#
# number of rings (size 3 to 8) (size 9 to 14) (size 15 to 20)
#    0.000    1.500    3.750    2.625    1.750    0.500 
#    2.250    1.250    0.000    0.000    0.000    0.000 
#    0.000    0.000    0.000    0.000    0.000    0.000 
#
# Total GULP energy -178444.806643 kJ/mol
# GULP energy per Si atom -5576.400208 kJ/mol
# Density = 1.938389 g / cm^3
# Si number density = 19.428107 Si / 1000 Ang^3
#
#
#
# Elastic Constant Matrix: (Units=GPa)
#
#
# Indices 1 2 3 4 5 6 
#
# 1 76.5589 35.8590 25.8503 0.0000 -9.9804 0.0000
# 2 35.8590 48.8772 2.1087 0.0000 -10.3335 0.0000
# 3 25.8503 2.1087 55.8797 0.0000 -7.9603 0.0000
# 4 0.0000 0.0000 0.0000 7.7555 0.0000 -7.3397
# 5 -9.9804 -10.3335 -7.9603 0.0000 33.9023 0.0000
# 6 0.0000 0.0000 0.0000 -7.3397 0.0000 -18.6864
#
#
#
# Elastic Compliance Matrix: (Units=1/GPa)
#
#
# Indices 1 2 3 4 5 6 
#
# 1 0.025228 -0.018182 -0.011087 0.000000 -0.000718 0.000000
# 2 -0.018182 0.034974 0.008119 0.000000 0.007214 0.000000
# 3 -0.011087 0.008119 0.023388 0.000000 0.004702 0.000000
# 4 0.000000 0.000000 0.000000 0.093999 0.000000 -0.036921
# 5 -0.000718 0.007214 0.004702 0.000000 0.032588 0.000000
# 6 0.000000 0.000000 0.000000 -0.036921 0.000000 -0.039013
#
#
# Mechanical properties :
#
#
# Convention : Reuss Voigt Hill
#
# Bulk Modulus (GPa) = 24.21911 34.32797 29.27354
# Shear Modulus (GPa) = 22.00452 12.42749 17.21600
#
# Velocity S-wave (km/s) = 3.36908 2.53190 2.98004
# Velocity P-wave (km/s) = 5.25617 5.12396 5.19049
#
# Compressibility (1/GPa) = 0.04128971
#
# Stress axis : x y z
#
# Youngs Moduli (GPa) = 39.63877 28.59300 42.75714
#
# Poissons Ratio (x) = 0.51988 0.47404
# Poissons Ratio (y) = 0.72071 -0.34715
# Poissons Ratio (z) = 0.43947 -0.23215
#
# Static dielectric constant tensor:
#      x y z
#    x 1.690590 0.000000 -0.009500 
#    y 0.000000 1.633080 0.000000 
#    z -0.009500 0.000000 1.755050 
# 
# From -- ./inp_files/76457.got.cif
#   From: 2010.05.17/outbox.cif.g08.bks.cpg/sg13_39_cif.got.tgz:76457.got - 2010.06.03 16:44:36.
