data_PCOD9233723
_publ_section_title
;
Structure prediction by ZEFSAII (Michael W. Deem and Ramdas Pophale) SiO2 
 PCOD9233723
Probable space group: P 2/C
;
_chemical_formula_sum "Si O2"
_cell_formula_units_Z 18
_cell_length_a 5.271142
_cell_length_b 5.315865
_cell_length_c 24.325345
_cell_angle_alpha 90.000000
_cell_angle_beta 88.501415
_cell_angle_gamma 90.000000
_cell_volume 681.379559
_symmetry_space_group_name_H-M "P 2/C"
_symmetry_group_IT_number 13
_symmetry_cell_setting 'monoclinic'
loop_
_space_group_symop_operation_xyz
x,y,z
-x,y,1/2-z
-x,-y,-z
x,-y,1/2+z
loop_
_atom_site_type_symbol
_atom_site_label
_atom_site_fract_x
_atom_site_fract_y
_atom_site_fract_z
Si Si1 0.626721 0.831719 0.161772
Si Si2 0.575030 0.001791 0.935473
Si Si3 0.758128 0.498432 0.962144
Si Si4 0.622195 0.331606 0.309557
Si Si5 0.000000 0.666288 0.250000
O O1 0.546648 0.539822 0.157066
O O2 0.813530 0.834152 0.212916
O O3 0.672870 0.941551 0.100350
O O4 0.402262 0.037862 0.175366
O O5 0.727990 0.745290 0.925291
O O6 0.753654 0.242996 0.928148
O O7 0.500000 0.000000 0.000000
O O8 0.500000 0.500000 0.000000
O O9 0.000000 0.500000 0.000000
O O10 0.500000 0.344070 0.250000
O O11 0.882466 0.476609 0.296322
#
# Coordination Sequence:
#
# PCOD9233723 Si02
#       5
#     4   4   4   4   2
#     4  11  23  43  68 105 137 183 241 284 359 430
#     4  10  22  43  67 100 141 178 233 294 350 429
#     4  10  21  42  68  93 136 186 233 290 353 423
#     4  10  22  41  68  98 136 177 233 293 348 430
#     4  10  24  46  74  98 146 188 236 302 374 422
#
# _framework density 26.416989999999998
#
# number of rings (size 3 to 8) (size 9 to 14) (size 15 to 20)
#    0.000    1.778    0.000    4.000    0.000    8.000 
#   24.000    0.000    0.000    0.000    0.000    0.000 
#    0.000    0.000    0.000    0.000    0.000    0.000 
#
# Total GULP energy -100356.065706 kJ/mol
# GULP energy per Si atom -5575.336984 kJ/mol
# Density = 2.635686 g / cm^3
# Si number density = 26.416990 Si / 1000 Ang^3
#
#
#
# Elastic Constant Matrix: (Units=GPa)
#
#
# Indices 1 2 3 4 5 6 
#
# 1 110.7684 41.8150 31.2136 0.0000 31.6619 0.0000
# 2 41.8150 244.2801 45.0858 0.0000 42.7649 0.0000
# 3 31.2136 45.0858 120.1649 0.0000 38.7543 0.0000
# 4 0.0000 0.0000 0.0000 50.0784 0.0000 8.0367
# 5 31.6619 42.7649 38.7543 0.0000 38.4721 0.0000
# 6 0.0000 0.0000 0.0000 8.0367 0.0000 31.1565
#
#
#
# Elastic Compliance Matrix: (Units=1/GPa)
#
#
# Indices 1 2 3 4 5 6 
#
# 1 0.011837 -0.000399 0.000109 0.000000 -0.009408 0.000000
# 2 -0.000399 0.005098 -0.000129 0.000000 -0.005207 0.000000
# 3 0.000109 -0.000129 0.012331 0.000000 -0.012367 0.000000
# 4 0.000000 0.000000 0.000000 0.020831 0.000000 -0.005373
# 5 -0.009408 -0.005207 -0.012367 0.000000 0.051981 0.000000
# 6 0.000000 0.000000 0.000000 -0.005373 0.000000 0.033482
#
#
# Mechanical properties :
#
#
# Convention : Reuss Voigt Hill
#
# Bulk Modulus (GPa) = 35.17957 79.04914 57.11435
# Shear Modulus (GPa) = 34.27622 47.74799 41.01211
#
# Velocity S-wave (km/s) = 3.60600 4.25605 3.94444
# Velocity P-wave (km/s) = 5.53928 7.35802 6.51245
#
# Compressibility (1/GPa) = 0.02842559
#
# Stress axis : x y z
#
# Youngs Moduli (GPa) = 84.48148 196.17360 81.09931
#
# Poissons Ratio (x) = 0.07835 -0.00885
# Poissons Ratio (y) = 0.03374 0.01050
# Poissons Ratio (z) = -0.00922 0.02540
#
# Static dielectric constant tensor:
#      x y z
#    x 1.989100 0.000000 0.010150 
#    y 0.000000 2.120370 0.000000 
#    z 0.010150 0.000000 2.227110 
# 
# From -- ./inp_files/83047.got.cif
#   From: 2010.05.17/outbox.cif.g08.bks.cpg/sg13_42_cif.got.tgz:83047.got - 2010.06.03 16:44:36.
