data_PCOD9233424
_publ_section_title
;
Structure prediction by ZEFSAII (Michael W. Deem and Ramdas Pophale) SiO2 
 PCOD9233424
Probable space group: P 2/C
;
_chemical_formula_sum "Si O2"
_cell_formula_units_Z 26
_cell_length_a 8.768758
_cell_length_b 14.700600
_cell_length_c 14.636049
_cell_angle_alpha 90.000000
_cell_angle_beta 140.766750
_cell_angle_gamma 90.000000
_cell_volume 1193.281894
_symmetry_space_group_name_H-M "P 2/C"
_symmetry_group_IT_number 13
_symmetry_cell_setting 'monoclinic'
loop_
_space_group_symop_operation_xyz
x,y,z
-x,y,1/2-z
-x,-y,-z
x,-y,1/2+z
loop_
_atom_site_type_symbol
_atom_site_label
_atom_site_fract_x
_atom_site_fract_y
_atom_site_fract_z
Si Si1 0.000000 0.269101 0.750000
Si Si2 0.412205 0.381990 0.040235
Si Si3 0.815295 0.436093 0.083609
Si Si4 0.988224 0.831657 0.419868
Si Si5 0.312591 0.998643 0.494821
Si Si6 0.000000 0.852897 0.750000
Si Si7 0.500000 0.084636 0.750000
Si Si8 0.834014 0.716824 0.827510
O O1 0.884309 0.212185 0.778449
O O2 0.800445 0.323208 0.601331
O O3 0.589630 0.398984 0.036368
O O4 0.582851 0.334655 0.193225
O O5 0.288318 0.475821 0.015971
O O6 0.000000 0.466742 0.250000
O O7 0.953813 0.358885 0.090344
O O8 0.157402 0.912177 0.457521
O O9 0.128030 0.768037 0.558335
O O10 0.750388 0.862484 0.363331
O O11 0.500000 0.000000 0.500000
O O12 0.137148 0.080122 0.382970
O O13 0.488512 0.021402 0.658411
O O14 0.852976 0.787105 0.750490
#
# Coordination Sequence:
#
# PCOD9233424 Si02
#       8
#     2   4   4   4   4   2   2   4
#     4  12  27  43  70 104 142 194 248 305 375 440
#     4  10  21  40  73 103 145 191 238 308 376 452
#     4   9  18  40  72 105 141 192 243 299 381 445
#     4  12  29  48  69 112 148 196 259 307 385 444
#     4  12  28  47  73 102 149 199 246 317 381 449
#     4  12  23  45  70 110 146 196 250 295 389 444
#     4  12  26  46  72 100 144 198 244 314 366 454
#     4  11  24  43  76 109 147 198 259 306 374 465
#
# _framework density 21.788650000000001
#
# number of rings (size 3 to 8) (size 9 to 14) (size 15 to 20)
#    0.000    0.923    4.615    2.769    8.615    0.615 
#    0.000    0.769    6.769    0.000    0.000    0.000 
#    0.000    0.000    0.000    0.000    0.000    0.000 
#
# Total GULP energy -145065.618731 kJ/mol
# GULP energy per Si atom -5579.446874 kJ/mol
# Density = 2.173906 g / cm^3
# Si number density = 21.788650 Si / 1000 Ang^3
#
#
#
# Elastic Constant Matrix: (Units=GPa)
#
#
# Indices 1 2 3 4 5 6 
#
# 1 113.1100 56.3611 49.9643 0.0000 -11.6693 0.0000
# 2 56.3611 123.9834 57.1373 0.0000 -3.4349 0.0000
# 3 49.9643 57.1373 96.1871 0.0000 -12.7872 0.0000
# 4 0.0000 0.0000 0.0000 39.8461 0.0000 -6.2511
# 5 -11.6693 -3.4349 -12.7872 0.0000 50.8053 0.0000
# 6 0.0000 0.0000 0.0000 -6.2511 0.0000 10.2700
#
#
#
# Elastic Compliance Matrix: (Units=1/GPa)
#
#
# Indices 1 2 3 4 5 6 
#
# 1 0.012747 -0.003853 -0.004116 0.000000 0.001631 0.000000
# 2 -0.003853 0.012314 -0.005505 0.000000 -0.001438 0.000000
# 3 -0.004116 -0.005505 0.016170 0.000000 0.002752 0.000000
# 4 0.000000 0.000000 0.000000 0.027746 0.000000 0.016888
# 5 0.001631 -0.001438 0.002752 0.000000 0.020653 0.000000
# 6 0.000000 0.000000 0.000000 0.016888 0.000000 0.107650
#
#
# Mechanical properties :
#
#
# Convention : Reuss Voigt Hill
#
# Bulk Modulus (GPa) = 70.00510 73.35620 71.68065
# Shear Modulus (GPa) = 21.83511 31.50548 26.67030
#
# Velocity S-wave (km/s) = 3.16908 3.80670 3.50243
# Velocity P-wave (km/s) = 6.75201 7.28434 7.02322
#
# Compressibility (1/GPa) = 0.01428467
#
# Stress axis : x y z
#
# Youngs Moduli (GPa) = 78.44881 81.20903 61.84185
#
# Poissons Ratio (x) = 0.31287 0.25455
# Poissons Ratio (y) = 0.30223 0.34042
# Poissons Ratio (z) = 0.32290 0.44703
#
# Static dielectric constant tensor:
#      x y z
#    x 1.416630 0.000000 -0.098610 
#    y 0.000000 2.049350 0.000000 
#    z -0.098610 0.000000 1.741720 
# 
# From -- ./inp_files/47849.got.cif
#   From: 2010.05.17/outbox.cif.g08.bks.cpg/sg13_24_cif.got.tgz:47849.got - 2010.06.03 16:44:36.
