data_PCOD9233731
_publ_section_title
;
Structure prediction by ZEFSAII (Michael W. Deem and Ramdas Pophale) SiO2 
 PCOD9233731
Probable space group: P 2/C
;
_chemical_formula_sum "Si O2"
_cell_formula_units_Z 14
_cell_length_a 12.101704
_cell_length_b 7.360156
_cell_length_c 7.071773
_cell_angle_alpha 90.000000
_cell_angle_beta 128.134294
_cell_angle_gamma 90.000000
_cell_volume 495.446521
_symmetry_space_group_name_H-M "P 2/C"
_symmetry_group_IT_number 13
_symmetry_cell_setting 'monoclinic'
loop_
_space_group_symop_operation_xyz
x,y,z
-x,y,1/2-z
-x,-y,-z
x,-y,1/2+z
loop_
_atom_site_type_symbol
_atom_site_label
_atom_site_fract_x
_atom_site_fract_y
_atom_site_fract_z
Si Si1 0.000000 0.000000 0.500000
Si Si2 0.484223 0.215605 0.955449
Si Si3 0.787890 0.274654 0.348213
Si Si4 0.183997 0.679651 0.065225
O O1 0.936851 0.799463 0.470993
O O2 0.131068 0.907818 0.504057
O O3 0.500000 0.259111 0.750000
O O4 0.327682 0.283977 0.832173
O O5 0.620067 0.288368 0.208228
O O6 0.500000 0.000000 0.000000
O O7 0.848510 0.466967 0.473833
O O8 0.794107 0.257922 0.126571
#
# Coordination Sequence:
#
# PCOD9233731 Si02
#       4
#     2   4   4   4
#     4  12  24  42  66  92 136 174 220 260 320 390
#     4  10  21  42  68  97 129 169 219 269 327 384
#     4  11  25  43  68  99 132 173 219 271 328 389
#     4  11  25  43  68  99 132 173 219 271 328 389
#
# _framework density 28.257339000000002
#
# number of rings (size 3 to 8) (size 9 to 14) (size 15 to 20)
#    0.000    1.143    2.857    2.571    0.000    6.857 
#    0.000    0.000    0.000    0.000    0.000    0.000 
#    0.000    0.000    0.000    0.000    0.000    0.000 
#
# Total GULP energy -78109.896024 kJ/mol
# GULP energy per Si atom -5579.278287 kJ/mol
# Density = 2.819302 g / cm^3
# Si number density = 28.257339 Si / 1000 Ang^3
#
#
#
# Elastic Constant Matrix: (Units=GPa)
#
#
# Indices 1 2 3 4 5 6 
#
# 1 90.2345 6.7289 48.1203 0.0000 41.6100 0.0000
# 2 6.7289 201.5941 11.3786 0.0000 50.0108 0.0000
# 3 48.1203 11.3786 138.0180 0.0000 18.8196 0.0000
# 4 0.0000 0.0000 0.0000 -204.5318 0.0000 224.8493
# 5 41.6100 50.0108 18.8196 0.0000 72.7218 0.0000
# 6 0.0000 0.0000 0.0000 224.8493 0.0000 -132.8978
#
#
#
# Elastic Compliance Matrix: (Units=1/GPa)
#
#
# Indices 1 2 3 4 5 6 
#
# 1 0.018798 0.002412 -0.005245 0.000000 -0.011057 0.000000
# 2 0.002412 0.006291 -0.000603 0.000000 -0.005550 0.000000
# 3 -0.005245 -0.000603 0.008975 0.000000 0.001093 0.000000
# 4 0.000000 0.000000 0.000000 0.005685 0.000000 0.009619
# 5 -0.011057 -0.005550 0.001093 0.000000 0.023612 0.000000
# 6 0.000000 0.000000 0.000000 0.009619 0.000000 0.008750
#
#
# Mechanical properties :
#
#
# Convention : Reuss Voigt Hill
#
# Bulk Modulus (GPa) = 36.77616 62.47802 49.62709
# Shear Modulus (GPa) = 56.78766 -28.70031 14.04368
#
# Velocity S-wave (km/s) = 4.48779 -3.19042 2.23175
# Velocity P-wave (km/s) = 6.31638 2.93029 4.92358
#
# Compressibility (1/GPa) = 0.02719153
#
# Stress axis : x y z
#
# Youngs Moduli (GPa) = 53.19612 158.96123 111.42285
#
# Poissons Ratio (x) = -0.38335 0.58444
# Poissons Ratio (y) = -0.12829 0.06715
# Poissons Ratio (z) = 0.27902 0.09580
#
# Static dielectric constant tensor:
#      x y z
#    x 2.053070 0.000000 -0.003460 
#    y 0.000000 2.038950 0.000000 
#    z -0.003460 0.000000 2.497330 
# 
# From -- ./inp_files/10713.got.cif
#   From: 2010.05.17/outbox.cif.g08.bks.cpg/sg13_6_cif.got.tgz:10713.got - 2010.06.03 16:44:36.
