data_PCOD9233491
_publ_section_title
;
Structure prediction by ZEFSAII (Michael W. Deem and Ramdas Pophale) SiO2 
 PCOD9233491
Probable space group: P 2/C
;
_chemical_formula_sum "Si O2"
_cell_formula_units_Z 22
_cell_length_a 30.560019
_cell_length_b 7.054216
_cell_length_c 17.270002
_cell_angle_alpha 90.000000
_cell_angle_beta 162.222344
_cell_angle_gamma 90.000000
_cell_volume 1136.725670
_symmetry_space_group_name_H-M "P 2/C"
_symmetry_group_IT_number 13
_symmetry_cell_setting 'monoclinic'
loop_
_space_group_symop_operation_xyz
x,y,z
-x,y,1/2-z
-x,-y,-z
x,-y,1/2+z
loop_
_atom_site_type_symbol
_atom_site_label
_atom_site_fract_x
_atom_site_fract_y
_atom_site_fract_z
Si Si1 0.323023 0.331690 0.195830
Si Si2 0.778160 0.492350 0.639454
Si Si3 0.988067 0.198016 0.436745
Si Si4 0.500000 0.424444 0.250000
Si Si5 0.388602 0.301311 0.900967
Si Si6 0.861675 0.969719 0.568926
O O1 0.480853 0.255144 0.438167
O O2 0.339445 0.487804 0.291060
O O3 0.267633 0.436965 0.024956
O O4 0.215591 0.163018 0.035007
O O5 0.885974 0.665996 0.814831
O O6 0.637761 0.538236 0.452263
O O7 0.862671 0.312163 0.817193
O O8 0.917106 0.152416 0.235171
O O9 0.000000 0.000000 0.500000
O O10 0.549134 0.306473 0.407652
O O11 0.258276 0.157222 0.674876
O O12 0.000000 0.010696 0.750000
#
# Coordination Sequence:
#
# PCOD9233491 Si02
#       6
#     4   4   4   2   4   4
#     4  10  21  41  65  86 120 165 202 243 304 363
#     4  10  21  41  64  90 122 163 198 246 303 359
#     4  11  22  39  65  90 126 163 199 242 308 364
#     4  10  22  42  66  90 118 156 206 256 296 356
#     4  10  22  42  63  88 121 159 202 251 307 352
#     4  12  24  38  62  96 122 158 205 251 297 359
#
# _framework density 19.353835
#
# number of rings (size 3 to 8) (size 9 to 14) (size 15 to 20)
#    0.000    1.455    3.636    1.636    0.000    2.182 
#    0.000    1.818    0.000    0.000    0.000    0.000 
#    0.000    0.000    0.000    0.000    0.000    0.000 
#
# Total GULP energy -122871.431865 kJ/mol
# GULP energy per Si atom -5585.065085 kJ/mol
# Density = 1.930979 g / cm^3
# Si number density = 19.353835 Si / 1000 Ang^3
#
#
#
# Elastic Constant Matrix: (Units=GPa)
#
#
# Indices 1 2 3 4 5 6 
#
# 1 79.0512 38.5823 37.0498 0.0000 9.1332 0.0000
# 2 38.5823 84.3456 41.0359 0.0000 12.8618 0.0000
# 3 37.0498 41.0359 103.8821 0.0000 15.0160 0.0000
# 4 0.0000 0.0000 0.0000 14.1707 0.0000 0.8375
# 5 9.1332 12.8618 15.0160 0.0000 47.5332 0.0000
# 6 0.0000 0.0000 0.0000 0.8375 0.0000 9.1409
#
#
#
# Elastic Compliance Matrix: (Units=1/GPa)
#
#
# Indices 1 2 3 4 5 6 
#
# 1 0.017427 -0.006072 -0.003741 0.000000 -0.000524 0.000000
# 2 -0.006072 0.017024 -0.004256 0.000000 -0.002095 0.000000
# 3 -0.003741 -0.004256 0.012964 0.000000 -0.002225 0.000000
# 4 0.000000 0.000000 0.000000 0.070952 0.000000 -0.006501
# 5 -0.000524 -0.002095 -0.002225 0.000000 0.022408 0.000000
# 6 0.000000 0.000000 0.000000 -0.006501 0.000000 0.109994
#
#
# Mechanical properties :
#
#
# Convention : Reuss Voigt Hill
#
# Bulk Modulus (GPa) = 51.87869 55.62387 53.75128
# Shear Modulus (GPa) = 17.52337 24.20971 20.86654
#
# Velocity S-wave (km/s) = 3.01229 3.54064 3.28710
# Velocity P-wave (km/s) = 6.24196 6.74668 6.49922
#
# Compressibility (1/GPa) = 0.01927574
#
# Stress axis : x y z
#
# Youngs Moduli (GPa) = 57.38072 58.74165 77.13886
#
# Poissons Ratio (x) = 0.35666 0.28861
# Poissons Ratio (y) = 0.34840 0.32833
# Poissons Ratio (z) = 0.21468 0.25003
#
# Static dielectric constant tensor:
#      x y z
#    x 1.669480 0.000000 -0.005120 
#    y 0.000000 1.636640 0.000000 
#    z -0.005120 0.000000 1.713060 
# 
# From -- ./inp_files/72170.got.cif
#   From: 2010.05.17/outbox.cif.g08.bks.cpg/sg13_37_cif.got.tgz:72170.got - 2010.06.03 16:44:36.
