data_PCOD9233882
_publ_section_title
;
Structure prediction by ZEFSAII (Michael W. Deem and Ramdas Pophale) SiO2 
 PCOD9233882
Probable space group: P 2/C
;
_chemical_formula_sum "Si O2"
_cell_formula_units_Z 30
_cell_length_a 8.128628
_cell_length_b 14.226929
_cell_length_c 11.202823
_cell_angle_alpha 90.000000
_cell_angle_beta 77.191055
_cell_angle_gamma 90.000000
_cell_volume 1263.314890
_symmetry_space_group_name_H-M "P 2/C"
_symmetry_group_IT_number 13
_symmetry_cell_setting 'monoclinic'
loop_
_space_group_symop_operation_xyz
x,y,z
-x,y,1/2-z
-x,-y,-z
x,-y,1/2+z
loop_
_atom_site_type_symbol
_atom_site_label
_atom_site_fract_x
_atom_site_fract_y
_atom_site_fract_z
Si Si1 0.547548 0.786103 0.378941
Si Si2 0.205647 0.155927 0.072046
Si Si3 0.000000 0.447405 0.250000
Si Si4 0.689308 0.044822 0.975662
Si Si5 0.919334 0.667346 0.003549
Si Si6 0.304451 0.813691 0.817042
Si Si7 0.317534 0.536139 0.336334
Si Si8 0.727274 0.359827 0.998431
O O1 0.500000 0.788096 0.250000
O O2 0.388154 0.812082 0.488885
O O3 0.682860 0.869722 0.382635
O O4 0.625235 0.687960 0.409426
O O5 0.079220 0.221586 0.019385
O O6 0.202817 0.182929 0.211117
O O7 0.191809 0.044326 0.063238
O O8 0.941651 0.385047 0.373189
O O9 0.831317 0.500613 0.229475
O O10 0.725366 0.096479 0.094303
O O11 0.500000 0.000000 0.000000
O O12 0.074755 0.634765 0.059558
O O13 0.750795 0.631386 0.093574
O O14 0.500000 0.819512 0.750000
O O15 0.283778 0.717181 0.892715
O O16 0.500000 0.541008 0.250000
O O17 0.328899 0.458366 0.439947
#
# Coordination Sequence:
#
# PCOD9233882 Si02
#       8
#     4   4   2   4   4   4   4   4
#     4  10  22  38  64 102 136 176 234 291 359 419
#     4  11  22  37  63  97 135 179 231 289 345 426
#     4  10  22  46  76 104 144 190 236 312 356 426
#     4   9  19  32  60  98 133 176 221 299 341 416
#     4  11  25  46  66 104 141 185 241 288 365 431
#     4  11  18  35  65  98 128 172 238 282 354 409
#     4  11  25  46  76 104 146 191 243 294 366 440
#     4  10  21  43  72  99 138 184 233 304 356 427
#
# _framework density 23.747050000000002
#
# number of rings (size 3 to 8) (size 9 to 14) (size 15 to 20)
#    0.000    1.600    4.000    3.600    5.600    1.067 
#    7.200    2.667    0.000    0.000    0.000    0.000 
#    0.000    0.000    0.000    0.000    0.000    0.000 
#
# Total GULP energy -167969.951049 kJ/mol
# GULP energy per Si atom -5598.998368 kJ/mol
# Density = 2.369300 g / cm^3
# Si number density = 23.747050 Si / 1000 Ang^3
#
#
#
# Elastic Constant Matrix: (Units=GPa)
#
#
# Indices 1 2 3 4 5 6 
#
# 1 106.0173 39.4443 52.8066 0.0000 -4.5056 0.0000
# 2 39.4443 115.8374 35.2667 0.0000 11.0068 0.0000
# 3 52.8066 35.2667 89.7528 0.0000 12.2999 0.0000
# 4 0.0000 0.0000 0.0000 28.2553 0.0000 0.5608
# 5 -4.5056 11.0068 12.2999 0.0000 31.6510 0.0000
# 6 0.0000 0.0000 0.0000 0.5608 0.0000 36.3933
#
#
#
# Elastic Compliance Matrix: (Units=1/GPa)
#
#
# Indices 1 2 3 4 5 6 
#
# 1 0.015170 -0.003180 -0.008580 0.000000 0.006600 0.000000
# 2 -0.003180 0.010597 -0.001822 0.000000 -0.003430 0.000000
# 3 -0.008580 -0.001822 0.017942 0.000000 -0.007560 0.000000
# 4 0.000000 0.000000 0.000000 0.035402 0.000000 -0.000545
# 5 0.006600 -0.003430 -0.007560 0.000000 0.036665 0.000000
# 6 0.000000 0.000000 0.000000 -0.000545 0.000000 0.027486
#
#
# Mechanical properties :
#
#
# Convention : Reuss Voigt Hill
#
# Bulk Modulus (GPa) = 60.45063 62.96031 61.70547
# Shear Modulus (GPa) = 28.41854 31.53257 29.97555
#
# Velocity S-wave (km/s) = 3.46312 3.64792 3.55672
# Velocity P-wave (km/s) = 6.44222 6.65684 6.55041
#
# Compressibility (1/GPa) = 0.01654242
#
# Stress axis : x y z
#
# Youngs Moduli (GPa) = 65.92011 94.37064 55.73525
#
# Poissons Ratio (x) = 0.30014 0.47821
# Poissons Ratio (y) = 0.20966 0.10158
# Poissons Ratio (z) = 0.56560 0.17199
#
# Static dielectric constant tensor:
#      x y z
#    x 1.954180 0.000000 -0.012580 
#    y 0.000000 1.895020 0.000000 
#    z -0.012580 0.000000 1.869520 
# 
# From -- ./inp_files/30370.got.cif
#   From: 2010.05.17/outbox.cif.g08.bks.cpg/sg13_16_cif.got.tgz:30370.got - 2010.06.03 16:44:36.
