data_PCOD9233791
_publ_section_title
;
Structure prediction by ZEFSAII (Michael W. Deem and Ramdas Pophale) SiO2 
 PCOD9233791
Probable space group: P 2/C
;
_chemical_formula_sum "Si O2"
_cell_formula_units_Z 26
_cell_length_a 9.459770
_cell_length_b 21.560212
_cell_length_c 9.858965
_cell_angle_alpha 90.000000
_cell_angle_beta 137.133905
_cell_angle_gamma 90.000000
_cell_volume 1367.909198
_symmetry_space_group_name_H-M "P 2/C"
_symmetry_group_IT_number 13
_symmetry_cell_setting 'monoclinic'
loop_
_space_group_symop_operation_xyz
x,y,z
-x,y,1/2-z
-x,-y,-z
x,-y,1/2+z
loop_
_atom_site_type_symbol
_atom_site_label
_atom_site_fract_x
_atom_site_fract_y
_atom_site_fract_z
Si Si1 0.398868 0.043478 0.817348
Si Si2 0.048504 0.125357 0.506694
Si Si3 0.850870 0.494329 0.264938
Si Si4 0.528141 0.592382 0.932286
Si Si5 0.445405 0.737210 0.552764
Si Si6 0.318972 0.842061 0.942177
Si Si7 0.000000 0.799622 0.250000
O O1 0.500000 0.020533 0.750000
O O2 0.158253 0.059995 0.621419
O O3 0.487691 0.112161 0.908621
O O4 0.500000 0.000000 0.000000
O O5 0.202604 0.160932 0.506503
O O6 0.839226 0.123594 0.271534
O O7 0.994796 0.159526 0.609186
O O8 0.672429 0.443278 0.153912
O O9 0.000000 0.475215 0.250000
O O10 0.000000 0.500000 0.500000
O O11 0.729716 0.557138 0.134297
O O12 0.500000 0.586014 0.750000
O O13 0.534080 0.664970 0.968880
O O14 0.500000 0.745272 0.750000
O O15 0.596466 0.779085 0.565349
O O16 0.207455 0.759280 0.376806
#
# Coordination Sequence:
#
# PCOD9233791 Si02
#       7
#     4   4   4   4   4   4   2
#     4  10  22  39  62  89 122 162 208 256 310 368
#     4  10  22  39  62  89 121 168 202 252 315 374
#     4  11  22  42  66  90 129 174 211 266 319 374
#     4  10  23  40  63  96 130 165 216 265 319 380
#     4  11  23  39  63  98 128 164 207 265 315 381
#     4  10  21  43  62  85 132 162 199 261 317 370
#     4  12  22  36  64  96 118 166 212 244 324 376
#
# _framework density 19.007110999999998
#
# number of rings (size 3 to 8) (size 9 to 14) (size 15 to 20)
#    0.000    1.538    4.615    0.000    1.077    2.462 
#    2.769    3.077    0.000    0.000    0.000    0.000 
#    0.000    0.000    0.000    0.000    0.000    0.000 
#
# Total GULP energy -144943.061307 kJ/mol
# GULP energy per Si atom -5574.733127 kJ/mol
# Density = 1.896385 g / cm^3
# Si number density = 19.007111 Si / 1000 Ang^3
#
#
#
# Elastic Constant Matrix: (Units=GPa)
#
#
# Indices 1 2 3 4 5 6 
#
# 1 79.2584 41.6215 35.8272 0.0000 -7.5387 0.0000
# 2 41.6215 68.1291 48.8786 0.0000 -11.4813 0.0000
# 3 35.8272 48.8786 139.9909 0.0000 -2.6177 0.0000
# 4 0.0000 0.0000 0.0000 22.2239 0.0000 3.6546
# 5 -7.5387 -11.4813 -2.6177 0.0000 41.4130 0.0000
# 6 0.0000 0.0000 0.0000 3.6546 0.0000 -6.6665
#
#
#
# Elastic Compliance Matrix: (Units=1/GPa)
#
#
# Indices 1 2 3 4 5 6 
#
# 1 0.018701 -0.010578 -0.001085 0.000000 0.000403 0.000000
# 2 -0.010578 0.026661 -0.006507 0.000000 0.005054 0.000000
# 3 -0.001085 -0.006507 0.009667 0.000000 -0.001390 0.000000
# 4 0.000000 0.000000 0.000000 0.041275 0.000000 0.022628
# 5 0.000403 0.005054 -0.001390 0.000000 0.025534 0.000000
# 6 0.000000 0.000000 0.000000 0.022628 0.000000 -0.137600
#
#
# Mechanical properties :
#
#
# Convention : Reuss Voigt Hill
#
# Bulk Modulus (GPa) = 53.51081 60.00367 56.75724
# Shear Modulus (GPa) = 186.51097 22.13084 104.32090
#
# Velocity S-wave (km/s) = 9.91665 3.41595 7.41649
# Velocity P-wave (km/s) = 12.62276 6.86993 10.16194
#
# Compressibility (1/GPa) = 0.01868781
#
# Stress axis : x y z
#
# Youngs Moduli (GPa) = 53.47347 37.50833 103.44554
#
# Poissons Ratio (x) = 0.39678 0.11223
# Poissons Ratio (y) = 0.56567 0.67311
# Poissons Ratio (z) = 0.05802 0.24406
#
# Static dielectric constant tensor:
#      x y z
#    x 1.599650 0.000000 0.036370 
#    y 0.000000 1.653730 0.000000 
#    z 0.036370 0.000000 1.705310 
# 
# From -- ./inp_files/13677.got.cif
#   From: 2010.05.17/outbox.cif.g08.bks.cpg/sg13_7_cif.got.tgz:13677.got - 2010.06.03 16:44:36.
