data_PCOD9233172
_publ_section_title
;
Structure prediction by ZEFSAII (Michael W. Deem and Ramdas Pophale) SiO2 
 PCOD9233172
Probable space group: P 2/C
;
_chemical_formula_sum "Si O2"
_cell_formula_units_Z 18
_cell_length_a 7.559555
_cell_length_b 6.616393
_cell_length_c 16.271559
_cell_angle_alpha 90.000000
_cell_angle_beta 86.736315
_cell_angle_gamma 90.000000
_cell_volume 812.534362
_symmetry_space_group_name_H-M "P 2/C"
_symmetry_group_IT_number 13
_symmetry_cell_setting 'monoclinic'
loop_
_space_group_symop_operation_xyz
x,y,z
-x,y,1/2-z
-x,-y,-z
x,-y,1/2+z
loop_
_atom_site_type_symbol
_atom_site_label
_atom_site_fract_x
_atom_site_fract_y
_atom_site_fract_z
Si Si1 0.906015 0.397333 0.132619
Si Si2 0.578001 0.190650 0.542939
Si Si3 0.300237 0.246254 0.786765
Si Si4 0.240667 0.448380 0.541526
Si Si5 0.000000 0.957513 0.750000
O O1 0.780757 0.530754 0.195210
O O2 0.968992 0.194585 0.174826
O O3 0.073161 0.538970 0.104789
O O4 0.812016 0.361302 0.046948
O O5 0.686529 0.149682 0.622187
O O6 0.409875 0.331383 0.570380
O O7 0.698424 0.323207 0.479237
O O8 0.500000 0.000000 0.500000
O O9 0.500000 0.254770 0.750000
O O10 0.170232 0.103405 0.738507
#
# Coordination Sequence:
#
# PCOD9233172 Si02
#       5
#     4   4   4   4   2
#     4  10  23  44  67  95 135 175 222 275 330 398
#     4  10  21  39  68  97 131 167 223 277 324 393
#     4  11  27  43  64 102 136 174 222 275 337 395
#     4   9  21  41  68  96 125 176 224 269 331 388
#     4  12  26  42  66  98 134 180 220 268 342 398
#
# _framework density 22.152909999999999
#
# number of rings (size 3 to 8) (size 9 to 14) (size 15 to 20)
#    0.000    1.778    0.000    2.000    9.333    0.889 
#    0.000    6.667    0.000    0.000    0.000    0.000 
#    0.000    0.000    0.000    0.000    0.000    0.000 
#
# Total GULP energy -100675.714424 kJ/mol
# GULP energy per Si atom -5593.095246 kJ/mol
# Density = 2.210249 g / cm^3
# Si number density = 22.152910 Si / 1000 Ang^3
#
#
#
# Elastic Constant Matrix: (Units=GPa)
#
#
# Indices 1 2 3 4 5 6 
#
# 1 128.3863 55.9384 31.4137 0.0000 -8.8202 0.0000
# 2 55.9384 79.4397 56.0772 0.0000 4.6652 0.0000
# 3 31.4137 56.0772 53.5067 0.0000 12.4973 0.0000
# 4 0.0000 0.0000 0.0000 26.0045 0.0000 20.0880
# 5 -8.8202 4.6652 12.4973 0.0000 42.9668 0.0000
# 6 0.0000 0.0000 0.0000 20.0880 0.0000 44.0911
#
#
#
# Elastic Compliance Matrix: (Units=1/GPa)
#
#
# Indices 1 2 3 4 5 6 
#
# 1 0.012039 -0.012498 0.005511 0.000000 0.002226 0.000000
# 2 -0.012498 0.065905 -0.063797 0.000000 0.008835 0.000000
# 3 0.005511 -0.063797 0.086296 0.000000 -0.017042 0.000000
# 4 0.000000 0.000000 0.000000 0.059339 0.000000 -0.027035
# 5 0.002226 0.008835 -0.017042 0.000000 0.027728 0.000000
# 6 0.000000 0.000000 0.000000 -0.027035 0.000000 0.034998
#
#
# Mechanical properties :
#
#
# Convention : Reuss Voigt Hill
#
# Bulk Modulus (GPa) = 44.10854 60.91013 52.50934
# Shear Modulus (GPa) = 11.48289 30.47270 20.97779
#
# Velocity S-wave (km/s) = 2.27919 3.71288 3.08060
# Velocity P-wave (km/s) = 5.18464 6.77758 6.03391
#
# Compressibility (1/GPa) = 0.02267135
#
# Stress axis : x y z
#
# Youngs Moduli (GPa) = 83.06309 15.17336 11.58802
#
# Poissons Ratio (x) = 0.18964 -0.06386
# Poissons Ratio (y) = 1.03814 0.73928
# Poissons Ratio (z) = -0.45774 0.96801
#
# Static dielectric constant tensor:
#      x y z
#    x 1.814660 0.000000 0.012200 
#    y 0.000000 1.775240 0.000000 
#    z 0.012200 0.000000 1.844400 
# 
# From -- ./inp_files/62120.got.cif
#   From: 2010.05.17/outbox.cif.g08.bks.cpg/sg13_32_cif.got.tgz:62120.got - 2010.06.03 16:44:36.
