data_PCOD9233480
_publ_section_title
;
Structure prediction by ZEFSAII (Michael W. Deem and Ramdas Pophale) SiO2 
 PCOD9233480
Probable space group: P 2/C
;
_chemical_formula_sum "Si O2"
_cell_formula_units_Z 28
_cell_length_a 24.068281
_cell_length_b 8.199739
_cell_length_c 20.369717
_cell_angle_alpha 90.000000
_cell_angle_beta 17.468106
_cell_angle_gamma 90.000000
_cell_volume 1206.714180
_symmetry_space_group_name_H-M "P 2/C"
_symmetry_group_IT_number 13
_symmetry_cell_setting 'monoclinic'
loop_
_space_group_symop_operation_xyz
x,y,z
-x,y,1/2-z
-x,-y,-z
x,-y,1/2+z
loop_
_atom_site_type_symbol
_atom_site_label
_atom_site_fract_x
_atom_site_fract_y
_atom_site_fract_z
Si Si1 0.969657 0.850776 0.584437
Si Si2 0.596967 0.746698 0.240215
Si Si3 0.014110 0.398656 0.612791
Si Si4 0.301611 0.549374 0.611305
Si Si5 0.084207 0.061425 0.727268
Si Si6 0.680062 0.369914 0.783834
Si Si7 0.000000 0.375471 0.250000
Si Si8 0.500000 0.975717 0.750000
O O1 0.811194 0.717521 0.745091
O O2 0.160133 0.753527 0.372781
O O3 0.929164 0.916605 0.704226
O O4 0.000000 0.000000 0.500000
O O5 0.454211 0.600255 0.385463
O O6 0.584559 0.734529 0.333569
O O7 0.525455 0.906584 0.284654
O O8 0.809836 0.718104 0.981024
O O9 0.858075 0.431155 0.734899
O O10 0.027675 0.212214 0.616601
O O11 0.205033 0.479764 0.376625
O O12 0.952214 0.507117 0.743894
O O13 0.399388 0.451776 0.560594
O O14 0.000000 0.029897 0.750000
O O15 0.301639 0.111303 0.478272
#
# Coordination Sequence:
#
# PCOD9233480 Si02
#       8
#     4   4   4   4   4   4   2   2
#     4  11  22  42  68  95 134 179 223 275 349 416
#     4  11  23  40  65  97 133 170 227 280 337 402
#     4  10  21  41  63  97 129 172 225 270 340 397
#     4  11  21  41  66  97 129 170 229 284 331 408
#     4  12  25  43  67  98 141 181 224 284 342 415
#     4  10  22  40  68  96 126 174 226 277 342 403
#     4  10  22  38  66  94 126 182 218 276 336 398
#     4  12  26  42  64 100 140 178 230 272 354 418
#
# _framework density 23.203505
#
# number of rings (size 3 to 8) (size 9 to 14) (size 15 to 20)
#    0.000    1.143    2.143    5.571    5.000    1.143 
#    0.000    0.714    0.000    0.000    0.000    0.000 
#    0.000    0.000    0.000    0.000    0.000    0.000 
#
# Total GULP energy -156386.301610 kJ/mol
# GULP energy per Si atom -5585.225058 kJ/mol
# Density = 2.315069 g / cm^3
# Si number density = 23.203505 Si / 1000 Ang^3
#
#
#
# Elastic Constant Matrix: (Units=GPa)
#
#
# Indices 1 2 3 4 5 6 
#
# 1 130.0327 33.4445 20.9324 0.0000 -14.2347 0.0000
# 2 33.4445 84.3169 14.8510 0.0000 2.8916 0.0000
# 3 20.9324 14.8510 77.2807 0.0000 -6.4815 0.0000
# 4 0.0000 0.0000 0.0000 -54.6877 0.0000 -34.5421
# 5 -14.2347 2.8916 -6.4815 0.0000 32.1754 0.0000
# 6 0.0000 0.0000 0.0000 -34.5421 0.0000 -16.5357
#
#
#
# Elastic Compliance Matrix: (Units=1/GPa)
#
#
# Indices 1 2 3 4 5 6 
#
# 1 0.009300 -0.003569 -0.001486 0.000000 0.004136 0.000000
# 2 -0.003569 0.013727 -0.001940 0.000000 -0.003203 0.000000
# 3 -0.001486 -0.001940 0.013910 0.000000 0.002319 0.000000
# 4 0.000000 0.000000 0.000000 0.057245 0.000000 -0.119582
# 5 0.004136 -0.003203 0.002319 0.000000 0.033664 0.000000
# 6 0.000000 0.000000 0.000000 -0.119582 0.000000 0.189325
#
#
# Mechanical properties :
#
#
# Convention : Reuss Voigt Hill
#
# Bulk Modulus (GPa) = 43.57934 47.78732 45.68333
# Shear Modulus (GPa) = 14.75747 7.01723 10.88735
#
# Velocity S-wave (km/s) = 2.52464 1.74091 2.16848
# Velocity P-wave (km/s) = 5.22691 4.96796 5.09908
#
# Compressibility (1/GPa) = 0.02294665
#
# Stress axis : x y z
#
# Youngs Moduli (GPa) = 107.52260 72.84790 71.89220
#
# Poissons Ratio (x) = 0.26000 0.10686
# Poissons Ratio (y) = 0.38375 0.13946
# Poissons Ratio (z) = 0.15982 0.14132
#
# Static dielectric constant tensor:
#      x y z
#    x 1.150510 0.000000 0.347890 
#    y 0.000000 1.851460 0.000000 
#    z 0.347890 0.000000 1.753430 
# 
# From -- ./inp_files/82172.got.cif
#   From: 2010.05.17/outbox.cif.g08.bks.cpg/sg13_42_cif.got.tgz:82172.got - 2010.06.03 16:44:36.
