data_PCOD9233989
_publ_section_title
;
Structure prediction by ZEFSAII (Michael W. Deem and Ramdas Pophale) SiO2 
 PCOD9233989
Probable space group: P 2/C
;
_chemical_formula_sum "Si O2"
_cell_formula_units_Z 28
_cell_length_a 10.128276
_cell_length_b 5.171762
_cell_length_c 34.513338
_cell_angle_alpha 90.000000
_cell_angle_beta 127.121179
_cell_angle_gamma 90.000000
_cell_volume 1441.504359
_symmetry_space_group_name_H-M "P 2/C"
_symmetry_group_IT_number 13
_symmetry_cell_setting 'monoclinic'
loop_
_space_group_symop_operation_xyz
x,y,z
-x,y,1/2-z
-x,-y,-z
x,-y,1/2+z
loop_
_atom_site_type_symbol
_atom_site_label
_atom_site_fract_x
_atom_site_fract_y
_atom_site_fract_z
Si Si1 0.433803 0.103830 0.809107
Si Si2 0.201579 0.045299 0.125673
Si Si3 0.628567 0.592293 0.652610
Si Si4 0.836628 0.088860 0.295162
Si Si5 0.728739 0.401852 0.436639
Si Si6 0.016609 0.802261 0.467570
Si Si7 0.984754 0.410338 0.702258
O O1 0.631519 0.119960 0.838931
O O2 0.384440 0.884130 0.832623
O O3 0.334858 0.011354 0.753834
O O4 0.382283 0.386177 0.814257
O O5 0.177784 0.175077 0.162832
O O6 0.248798 0.209559 0.096009
O O7 0.029120 0.914547 0.082159
O O8 0.464842 0.537980 0.597894
O O9 0.799636 0.517656 0.662343
O O10 0.901575 0.337847 0.283804
O O11 0.957633 0.839723 0.311774
O O12 0.860490 0.618168 0.447987
O O13 0.803305 0.312789 0.491249
O O14 0.000000 0.000000 0.500000
O O15 0.000000 0.328746 0.750000
#
# Coordination Sequence:
#
# PCOD9233989 Si02
#       7
#     4   4   4   4   4   4   4
#     4  11  20  36  56  85 116 153 184 242 286 341
#     4  10  22  34  56  88 122 146 187 234 305 354
#     4  11  21  36  60  81 114 149 203 238 274 332
#     4  12  24  37  58  83 120 160 190 237 286 341
#     4   9  19  35  60  87 113 146 187 243 295 344
#     4   9  17  35  58  88 113 146 184 236 303 345
#     4  12  23  40  57  78 114 162 207 235 269 333
#
# _framework density 19.424150999999998
#
# number of rings (size 3 to 8) (size 9 to 14) (size 15 to 20)
#    0.000    1.429    4.286    1.714    2.000    0.000 
#    0.000    2.857    0.000    1.714    0.000    0.000 
#    0.000    0.000    0.000    0.000    0.000    0.000 
#
# Total GULP energy -155898.093704 kJ/mol
# GULP energy per Si atom -5567.789061 kJ/mol
# Density = 1.937994 g / cm^3
# Si number density = 19.424151 Si / 1000 Ang^3
#
#
#
# Elastic Constant Matrix: (Units=GPa)
#
#
# Indices 1 2 3 4 5 6 
#
# 1 47.8836 2.5317 35.1653 0.0000 20.3504 0.0000
# 2 2.5317 52.0583 3.4841 0.0000 4.7991 0.0000
# 3 35.1653 3.4841 119.2556 0.0000 31.4340 0.0000
# 4 0.0000 0.0000 0.0000 20.0542 0.0000 11.0541
# 5 20.3504 4.7991 31.4340 0.0000 32.3954 0.0000
# 6 0.0000 0.0000 0.0000 11.0541 0.0000 18.4222
#
#
#
# Elastic Compliance Matrix: (Units=1/GPa)
#
#
# Indices 1 2 3 4 5 6 
#
# 1 0.030846 0.000168 -0.005356 0.000000 -0.014204 0.000000
# 2 0.000168 0.019482 0.000228 0.000000 -0.003213 0.000000
# 3 -0.005356 0.000228 0.012201 0.000000 -0.008507 0.000000
# 4 0.000000 0.000000 0.000000 0.074509 0.000000 -0.044708
# 5 -0.014204 -0.003213 -0.008507 0.000000 0.048523 0.000000
# 6 0.000000 0.000000 0.000000 -0.044708 0.000000 0.081109
#
#
# Mechanical properties :
#
#
# Convention : Reuss Voigt Hill
#
# Bulk Modulus (GPa) = 19.00869 33.50664 26.25766
# Shear Modulus (GPa) = 16.99957 26.04212 21.52084
#
# Velocity S-wave (km/s) = 2.96155 3.66554 3.33219
# Velocity P-wave (km/s) = 4.63699 5.93316 5.32466
#
# Compressibility (1/GPa) = 0.05260751
#
# Stress axis : x y z
#
# Youngs Moduli (GPa) = 32.41955 51.32949 81.96325
#
# Poissons Ratio (x) = -0.00862 0.43903
# Poissons Ratio (y) = -0.00544 -0.01871
# Poissons Ratio (z) = 0.17365 -0.01172
#
# Static dielectric constant tensor:
#      x y z
#    x 1.695300 0.000000 0.028070 
#    y 0.000000 1.704650 0.000000 
#    z 0.028070 0.000000 1.509470 
# 
# From -- ./inp_files/95713.got.cif
#   From: 2010.05.17/outbox.cif.g08.bks.cpg/sg13_48_cif.got.tgz:95713.got - 2010.06.03 16:44:36.
