data_PCOD9233080
_publ_section_title
;
Structure prediction by ZEFSAII (Michael W. Deem and Ramdas Pophale) SiO2 
 PCOD9233080
Probable space group: P 2/C
;
_chemical_formula_sum "Si O2"
_cell_formula_units_Z 16
_cell_length_a 7.834559
_cell_length_b 20.875369
_cell_length_c 5.134586
_cell_angle_alpha 90.000000
_cell_angle_beta 64.259024
_cell_angle_gamma 90.000000
_cell_volume 756.426001
_symmetry_space_group_name_H-M "P 2/C"
_symmetry_group_IT_number 13
_symmetry_cell_setting 'monoclinic'
loop_
_space_group_symop_operation_xyz
x,y,z
-x,y,1/2-z
-x,-y,-z
x,-y,1/2+z
loop_
_atom_site_type_symbol
_atom_site_label
_atom_site_fract_x
_atom_site_fract_y
_atom_site_fract_z
Si Si1 0.225244 0.040496 0.614228
Si Si2 0.500000 0.150496 0.250000
Si Si3 0.500000 0.235309 0.750000
Si Si4 0.125569 0.682985 0.420766
Si Si5 0.271332 0.459544 0.912442
O O1 0.334184 0.103959 0.460580
O O2 0.000000 0.051094 0.750000
O O3 0.272323 0.985883 0.369095
O O4 0.555252 0.193089 0.462191
O O5 0.678634 0.278426 0.713076
O O6 0.176482 0.608005 0.416773
O O7 0.000000 0.693307 0.250000
O O8 0.000000 0.702825 0.750000
O O9 0.500000 0.450629 0.750000
O O10 0.222494 0.511964 0.726092
#
# Coordination Sequence:
#
# PCOD9233080 Si02
#       5
#     4   2   2   4   4
#     4  10  21  39  65 100 134 164 207 266 325 383
#     4  12  24  41  70  91 132 180 218 264 318 388
#     4  12  28  47  62  97 134 176 232 274 312 380
#     4  12  26  45  69  93 130 177 221 275 334 392
#     4  10  21  39  66  97 129 163 208 275 340 398
#
# _framework density 21.152100000000001
#
# number of rings (size 3 to 8) (size 9 to 14) (size 15 to 20)
#    0.000    1.000    1.250    5.250    0.000    6.000 
#    0.000    0.000    0.000    0.000    0.000    0.000 
#    0.000    0.000    0.000    0.000    0.000    0.000 
#
# Total GULP energy -89637.020787 kJ/mol
# GULP energy per Si atom -5602.313799 kJ/mol
# Density = 2.110396 g / cm^3
# Si number density = 21.152100 Si / 1000 Ang^3
#
#
#
# Elastic Constant Matrix: (Units=GPa)
#
#
# Indices 1 2 3 4 5 6 
#
# 1 141.3379 54.5526 56.9697 0.0000 -4.9267 0.0000
# 2 54.5526 100.4171 37.1416 0.0000 -11.9066 0.0000
# 3 56.9697 37.1416 114.0360 0.0000 6.7369 0.0000
# 4 0.0000 0.0000 0.0000 1316.8536 0.0000 -293.4763
# 5 -4.9267 -11.9066 6.7369 0.0000 38.7670 0.0000
# 6 0.0000 0.0000 0.0000 -293.4763 0.0000 83.6194
#
#
#
# Elastic Compliance Matrix: (Units=1/GPa)
#
#
# Indices 1 2 3 4 5 6 
#
# 1 0.010201 -0.004043 -0.003822 0.000000 0.000719 0.000000
# 2 -0.004043 0.013631 -0.002664 0.000000 0.004136 0.000000
# 3 -0.003822 -0.002664 0.011744 0.000000 -0.003345 0.000000
# 4 0.000000 0.000000 0.000000 0.003486 0.000000 0.012235
# 5 0.000719 0.004136 -0.003345 0.000000 0.027738 0.000000
# 6 0.000000 0.000000 0.000000 0.012235 0.000000 0.054900
#
#
# Mechanical properties :
#
#
# Convention : Reuss Voigt Hill
#
# Bulk Modulus (GPa) = 68.88176 72.56875 70.72525
# Shear Modulus (GPa) = 33.87591 301.65649 167.76620
#
# Velocity S-wave (km/s) = 4.00626 11.95503 8.91551
# Velocity P-wave (km/s) = 7.35091 14.99820 11.81063
#
# Compressibility (1/GPa) = 0.01451763
#
# Stress axis : x y z
#
# Youngs Moduli (GPa) = 98.02598 73.36426 85.15141
#
# Poissons Ratio (x) = 0.29662 0.32545
# Poissons Ratio (y) = 0.39633 0.22684
# Poissons Ratio (z) = 0.37465 0.19544
#
# Static dielectric constant tensor:
#      x y z
#    x 1.742720 0.000000 -0.023480 
#    y 0.000000 1.718360 0.000000 
#    z -0.023480 0.000000 1.741200 
# 
# From -- ./inp_files/1452.got.cif
#   From: 2010.05.17/outbox.cif.g08.bks.cpg/sg13_1_cif.got.tgz:1452.got - 2010.06.03 16:44:36.
