data_PCOD9233134
_publ_section_title
;
Structure prediction by ZEFSAII (Michael W. Deem and Ramdas Pophale) SiO2 
 PCOD9233134
Probable space group: P 2/C
;
_chemical_formula_sum "Si O2"
_cell_formula_units_Z 24
_cell_length_a 13.043102
_cell_length_b 10.948952
_cell_length_c 13.788031
_cell_angle_alpha 90.000000
_cell_angle_beta 148.409774
_cell_angle_gamma 90.000000
_cell_volume 1031.465845
_symmetry_space_group_name_H-M "P 2/C"
_symmetry_group_IT_number 13
_symmetry_cell_setting 'monoclinic'
loop_
_space_group_symop_operation_xyz
x,y,z
-x,y,1/2-z
-x,-y,-z
x,-y,1/2+z
loop_
_atom_site_type_symbol
_atom_site_label
_atom_site_fract_x
_atom_site_fract_y
_atom_site_fract_z
Si Si1 0.954577 0.402713 0.826869
Si Si2 0.106096 0.326323 0.233895
Si Si3 0.275355 0.966497 0.528864
Si Si4 0.372634 0.205255 0.938392
Si Si5 0.426147 0.207221 0.585802
Si Si6 0.809103 0.796709 0.876632
O O1 0.941216 0.542657 0.849354
O O2 0.753412 0.327323 0.677809
O O3 0.000000 0.409746 0.750000
O O4 0.125200 0.321534 0.010463
O O5 0.331152 0.317232 0.449684
O O6 0.073246 0.219457 0.129117
O O7 0.000000 0.314484 0.250000
O O8 0.500000 0.964100 0.750000
O O9 0.254136 0.880105 0.418023
O O10 0.160029 0.911803 0.527817
O O11 0.265393 0.103417 0.480691
O O12 0.418933 0.153313 0.867472
O O13 0.582646 0.214048 0.161847
O O14 0.500000 0.247339 0.750000
#
# Coordination Sequence:
#
# PCOD9233134 Si02
#       6
#     4   4   4   4   4   4
#     4  11  22  40  65  98 125 168 216 258 323 383
#     4  10  24  43  58  91 138 167 206 272 320 367
#     4   9  18  38  66  91 121 164 213 265 316 373
#     4  10  21  39  66  94 126 166 212 267 317 378
#     4  10  22  40  62  91 127 171 212 258 326 378
#     4  10  21  40  66  94 127 165 214 267 315 376
#
# _framework density 23.267856999999999
#
# number of rings (size 3 to 8) (size 9 to 14) (size 15 to 20)
#    0.000    2.000    1.667    1.000    2.333    4.000 
#    9.000    0.833    0.000    0.000    0.000    0.000 
#    0.000    0.000    0.000    0.000    0.000    0.000 
#
# Total GULP energy -133799.377870 kJ/mol
# GULP energy per Si atom -5574.974078 kJ/mol
# Density = 2.321490 g / cm^3
# Si number density = 23.267857 Si / 1000 Ang^3
#
#
#
# Elastic Constant Matrix: (Units=GPa)
#
#
# Indices 1 2 3 4 5 6 
#
# 1 115.6755 42.4877 25.4208 0.0000 -31.8577 0.0000
# 2 42.4877 76.9103 6.7935 0.0000 1.0167 0.0000
# 3 25.4208 6.7935 65.6564 0.0000 -15.8006 0.0000
# 4 0.0000 0.0000 0.0000 23.1339 0.0000 4.0494
# 5 -31.8577 1.0167 -15.8006 0.0000 30.5725 0.0000
# 6 0.0000 0.0000 0.0000 4.0494 0.0000 2.6838
#
#
#
# Elastic Compliance Matrix: (Units=1/GPa)
#
#
# Indices 1 2 3 4 5 6 
#
# 1 0.017420 -0.009727 -0.001475 0.000000 0.017714 0.000000
# 2 -0.009727 0.018599 -0.000852 0.000000 -0.011195 0.000000
# 3 -0.001475 -0.000852 0.017733 0.000000 0.007656 0.000000
# 4 0.000000 0.000000 0.000000 0.058740 0.000000 -0.088626
# 5 0.017714 -0.011195 0.007656 0.000000 0.055496 0.000000
# 6 0.000000 0.000000 0.000000 -0.088626 0.000000 0.506317
#
#
# Mechanical properties :
#
#
# Convention : Reuss Voigt Hill
#
# Bulk Modulus (GPa) = 33.73637 45.29403 39.51520
# Shear Modulus (GPa) = 7.05919 23.51407 15.28663
#
# Velocity S-wave (km/s) = 1.74369 3.18241 2.56595
# Velocity P-wave (km/s) = 4.31098 5.74563 5.07922
#
# Compressibility (1/GPa) = 0.02964160
#
# Stress axis : x y z
#
# Youngs Moduli (GPa) = 57.40374 53.76564 56.39330
#
# Poissons Ratio (x) = 0.52300 0.08320
# Poissons Ratio (y) = 0.55839 0.04807
# Poissons Ratio (z) = 0.08469 0.04583
#
# Static dielectric constant tensor:
#      x y z
#    x 2.009050 0.000000 0.071390 
#    y 0.000000 1.885100 0.000000 
#    z 0.071390 0.000000 1.933450 
# 
# From -- ./inp_files/53748.got.cif
#   From: 2010.05.17/outbox.cif.g08.bks.cpg/sg13_27_cif.got.tgz:53748.got - 2010.06.03 16:44:36.
