data_PCOD9233137
_publ_section_title
;
Structure prediction by ZEFSAII (Michael W. Deem and Ramdas Pophale) SiO2 
 PCOD9233137
Probable space group: P 2/C
;
_chemical_formula_sum "Si O2"
_cell_formula_units_Z 20
_cell_length_a 14.952902
_cell_length_b 8.147463
_cell_length_c 19.916842
_cell_angle_alpha 90.000000
_cell_angle_beta 158.392493
_cell_angle_gamma 90.000000
_cell_volume 893.525265
_symmetry_space_group_name_H-M "P 2/C"
_symmetry_group_IT_number 13
_symmetry_cell_setting 'monoclinic'
loop_
_space_group_symop_operation_xyz
x,y,z
-x,y,1/2-z
-x,-y,-z
x,-y,1/2+z
loop_
_atom_site_type_symbol
_atom_site_label
_atom_site_fract_x
_atom_site_fract_y
_atom_site_fract_z
Si Si1 0.621811 0.254321 0.049368
Si Si2 0.299309 0.392715 0.714771
Si Si3 0.743308 0.892725 0.104858
Si Si4 0.570266 0.711477 0.873195
Si Si5 0.975846 0.516528 0.600393
O O1 0.814236 0.385011 0.213308
O O2 0.744353 0.075209 0.133993
O O3 0.521078 0.296139 0.904612
O O4 0.384027 0.229663 0.931025
O O5 0.383437 0.581806 0.772591
O O6 0.089342 0.394611 0.623795
O O7 0.197264 0.366461 0.567994
O O8 0.000000 0.853486 0.250000
O O9 0.573591 0.869246 0.921870
O O10 0.500000 0.759641 0.750000
O O11 0.809406 0.595970 0.031635
#
# Coordination Sequence:
#
# PCOD9233137 Si02
#       5
#     4   4   4   4   4
#     4  11  24  43  64  91 131 169 206 260 318 375
#     4  10  21  39  66  95 121 162 212 262 312 371
#     4  11  25  43  60  94 130 167 210 252 323 384
#     4  10  22  40  64  94 125 164 212 263 315 371
#     4  10  21  39  69  95 123 160 217 263 312 371
#
# _framework density 22.383251000000001
#
# number of rings (size 3 to 8) (size 9 to 14) (size 15 to 20)
#    0.000    1.600    2.000    1.800    5.600    0.000 
#    3.600    2.000    0.000    0.000    0.000    0.000 
#    0.000    0.000    0.000    0.000    0.000    0.000 
#
# Total GULP energy -111419.328547 kJ/mol
# GULP energy per Si atom -5570.966427 kJ/mol
# Density = 2.233231 g / cm^3
# Si number density = 22.383251 Si / 1000 Ang^3
#
#
#
# Elastic Constant Matrix: (Units=GPa)
#
#
# Indices 1 2 3 4 5 6 
#
# 1 67.7654 18.9919 28.3066 0.0000 -3.0996 0.0000
# 2 18.9919 48.4208 27.1185 0.0000 -19.5780 0.0000
# 3 28.3066 27.1185 95.7205 0.0000 -8.8963 0.0000
# 4 0.0000 0.0000 0.0000 10.3030 0.0000 -8.8215
# 5 -3.0996 -19.5780 -8.8963 0.0000 41.0943 0.0000
# 6 0.0000 0.0000 0.0000 -8.8215 0.0000 20.1866
#
#
#
# Elastic Compliance Matrix: (Units=1/GPa)
#
#
# Indices 1 2 3 4 5 6 
#
# 1 0.017881 -0.005749 -0.003866 0.000000 -0.002227 0.000000
# 2 -0.005749 0.031688 -0.006036 0.000000 0.013356 0.000000
# 3 -0.003866 -0.006036 0.013273 0.000000 -0.000294 0.000000
# 4 0.000000 0.000000 0.000000 0.155087 0.000000 0.067773
# 5 -0.002227 0.013356 -0.000294 0.000000 0.030466 0.000000
# 6 0.000000 0.000000 0.000000 0.067773 0.000000 0.079155
#
#
# Mechanical properties :
#
#
# Convention : Reuss Voigt Hill
#
# Bulk Modulus (GPa) = 31.70534 40.08228 35.89381
# Shear Modulus (GPa) = 13.53677 23.48276 18.50977
#
# Velocity S-wave (km/s) = 2.46188 3.24253 2.87879
# Velocity P-wave (km/s) = 4.71981 5.65374 5.20776
#
# Compressibility (1/GPa) = 0.03154042
#
# Stress axis : x y z
#
# Youngs Moduli (GPa) = 55.92539 31.55765 75.33998
#
# Poissons Ratio (x) = 0.18141 0.29127
# Poissons Ratio (y) = 0.32149 0.45477
# Poissons Ratio (z) = 0.21622 0.19049
#
# Static dielectric constant tensor:
#      x y z
#    x 1.914710 0.000000 -0.005570 
#    y 0.000000 1.760030 0.000000 
#    z -0.005570 0.000000 1.988750 
# 
# From -- ./inp_files/28110.got.cif
#   From: 2010.05.17/outbox.cif.g08.bks.cpg/sg13_15_cif.got.tgz:28110.got - 2010.06.03 16:44:36.
