data_PCOD9233177
_publ_section_title
;
Structure prediction by ZEFSAII (Michael W. Deem and Ramdas Pophale) SiO2 
 PCOD9233177
Probable space group: P 2/C
;
_chemical_formula_sum "Si O2"
_cell_formula_units_Z 16
_cell_length_a 9.938303
_cell_length_b 7.083675
_cell_length_c 17.521507
_cell_angle_alpha 90.000000
_cell_angle_beta 31.955304
_cell_angle_gamma 90.000000
_cell_volume 652.843940
_symmetry_space_group_name_H-M "P 2/C"
_symmetry_group_IT_number 13
_symmetry_cell_setting 'monoclinic'
loop_
_space_group_symop_operation_xyz
x,y,z
-x,y,1/2-z
-x,-y,-z
x,-y,1/2+z
loop_
_atom_site_type_symbol
_atom_site_label
_atom_site_fract_x
_atom_site_fract_y
_atom_site_fract_z
Si Si1 0.737518 0.952130 0.584849
Si Si2 0.265259 0.705231 0.158082
Si Si3 0.481926 0.349779 0.123807
Si Si4 0.963323 0.897362 0.682851
O O1 0.500000 0.012641 0.750000
O O2 0.690254 0.734395 0.581381
O O3 0.000000 0.000000 0.500000
O O4 0.776644 0.064981 0.486646
O O5 0.407701 0.566091 0.147585
O O6 0.000000 0.622400 0.250000
O O7 0.176611 0.901082 0.237842
O O8 0.437115 0.721744 0.999721
O O9 0.223816 0.242194 0.270283
O O10 0.000000 0.822167 0.750000
#
# Coordination Sequence:
#
# PCOD9233177 Si02
#       4
#     4   4   4   4
#     4  12  25  44  70 102 149 192 237 289 362 436
#     4  10  21  39  69 106 136 171 238 306 350 410
#     4  11  22  41  69 103 141 178 236 297 355 422
#     4  11  22  42  74 103 135 186 243 295 358 419
#
# _framework density 24.508154000000001
#
# number of rings (size 3 to 8) (size 9 to 14) (size 15 to 20)
#    0.000    1.000    7.500    1.500    0.000    0.000 
#    0.000    1.250    5.500    0.000    0.000    0.000 
#    0.000    0.000    0.000    0.000    0.000    0.000 
#
# Total GULP energy -89441.429551 kJ/mol
# GULP energy per Si atom -5590.089347 kJ/mol
# Density = 2.445237 g / cm^3
# Si number density = 24.508154 Si / 1000 Ang^3
#
#
#
# Elastic Constant Matrix: (Units=GPa)
#
#
# Indices 1 2 3 4 5 6 
#
# 1 122.5320 37.2200 3.6869 0.0000 -18.6918 0.0000
# 2 37.2200 110.4011 13.1621 0.0000 -9.8064 0.0000
# 3 3.6869 13.1621 152.5739 0.0000 -6.5330 0.0000
# 4 0.0000 0.0000 0.0000 19.5328 0.0000 -5.6929
# 5 -18.6918 -9.8064 -6.5330 0.0000 35.8261 0.0000
# 6 0.0000 0.0000 0.0000 -5.6929 0.0000 53.2528
#
#
#
# Elastic Compliance Matrix: (Units=1/GPa)
#
#
# Indices 1 2 3 4 5 6 
#
# 1 0.009695 -0.002911 0.000201 0.000000 0.004298 0.000000
# 2 -0.002911 0.010232 -0.000763 0.000000 0.001143 0.000000
# 3 0.000201 -0.000763 0.006663 0.000000 0.001111 0.000000
# 4 0.000000 0.000000 0.000000 0.052842 0.000000 0.005649
# 5 0.004298 0.001143 0.001111 0.000000 0.030670 0.000000
# 6 0.000000 0.000000 0.000000 0.005649 0.000000 0.019382
#
#
# Mechanical properties :
#
#
# Convention : Reuss Voigt Hill
#
# Bulk Modulus (GPa) = 50.90879 54.84945 52.87912
# Shear Modulus (GPa) = 34.97031 43.81821 39.39426
#
# Velocity S-wave (km/s) = 3.78151 4.23295 4.01358
# Velocity P-wave (km/s) = 6.31536 6.80582 6.56517
#
# Compressibility (1/GPa) = 0.01964297
#
# Stress axis : x y z
#
# Youngs Moduli (GPa) = 103.14722 97.73568 150.08787
#
# Poissons Ratio (x) = 0.28447 -0.03015
# Poissons Ratio (y) = 0.30022 0.11458
# Poissons Ratio (z) = -0.02072 0.07461
#
# Static dielectric constant tensor:
#      x y z
#    x 2.113630 0.000000 0.025320 
#    y 0.000000 1.920220 0.000000 
#    z 0.025320 0.000000 1.991760 
# 
# From -- ./inp_files/65555.got.cif
#   From: 2010.05.17/outbox.cif.g08.bks.cpg/sg13_33_cif.got.tgz:65555.got - 2010.06.03 16:44:36.
