data_PCOD9233513
_publ_section_title
;
Structure prediction by ZEFSAII (Michael W. Deem and Ramdas Pophale) SiO2 
 PCOD9233513
Probable space group: P 2/C
;
_chemical_formula_sum "Si O2"
_cell_formula_units_Z 26
_cell_length_a 16.715265
_cell_length_b 13.389807
_cell_length_c 9.421318
_cell_angle_alpha 90.000000
_cell_angle_beta 145.029056
_cell_angle_gamma 90.000000
_cell_volume 1208.581220
_symmetry_space_group_name_H-M "P 2/C"
_symmetry_group_IT_number 13
_symmetry_cell_setting 'monoclinic'
loop_
_space_group_symop_operation_xyz
x,y,z
-x,y,1/2-z
-x,-y,-z
x,-y,1/2+z
loop_
_atom_site_type_symbol
_atom_site_label
_atom_site_fract_x
_atom_site_fract_y
_atom_site_fract_z
Si Si1 0.277381 0.099656 0.590879
Si Si2 0.081926 0.789607 0.598429
Si Si3 0.340603 0.093871 0.014755
Si Si4 0.166166 0.523387 0.491356
Si Si5 0.500000 0.234880 0.750000
Si Si6 0.254955 0.610445 0.888933
Si Si7 0.803940 0.242251 0.538290
O O1 0.144288 0.152204 0.322277
O O2 0.285050 0.096433 0.772391
O O3 0.413789 0.162987 0.732651
O O4 0.271397 0.989992 0.513540
O O5 0.113472 0.674888 0.679960
O O6 0.168112 0.805988 0.576294
O O7 0.924202 0.798009 0.319391
O O8 0.331333 0.199347 0.083363
O O9 0.500000 0.062057 0.250000
O O10 0.229387 0.525056 0.739049
O O11 0.258520 0.443800 0.542311
O O12 0.183448 0.638591 0.461740
O O13 0.000000 0.502175 0.250000
O O14 0.378598 0.313547 0.528188
#
# Coordination Sequence:
#
# PCOD9233513 Si02
#       7
#     4   4   4   4   2   4   4
#     4  11  24  43  67  91 126 164 214 259 322 374
#     4   9  20  42  66  91 126 172 204 271 308 367
#     4  12  26  40  66  96 123 169 210 261 313 390
#     4  11  21  39  65  93 124 170 204 261 311 370
#     4  10  24  44  64  88 124 170 204 264 318 368
#     4  10  22  39  64  90 128 163 212 255 313 373
#     4  10  21  41  65  94 129 166 216 256 318 362
#
# _framework density 21.512827999999999
#
# number of rings (size 3 to 8) (size 9 to 14) (size 15 to 20)
#    0.000    1.538    3.846    1.846    6.462    4.308 
#    1.385    0.000    0.000    0.000    0.000    0.000 
#    0.000    0.000    0.000    0.000    0.000    0.000 
#
# Total GULP energy -144872.896864 kJ/mol
# GULP energy per Si atom -5572.034495 kJ/mol
# Density = 2.146386 g / cm^3
# Si number density = 21.512828 Si / 1000 Ang^3
#
#
#
# Elastic Constant Matrix: (Units=GPa)
#
#
# Indices 1 2 3 4 5 6 
#
# 1 33.4780 15.2738 -7.7730 0.0000 -11.7693 0.0000
# 2 15.2738 25.5709 -3.6851 0.0000 -5.3146 0.0000
# 3 -7.7730 -3.6851 55.6556 0.0000 -14.0845 0.0000
# 4 0.0000 0.0000 0.0000 25.0958 0.0000 -1.8153
# 5 -11.7693 -5.3146 -14.0845 0.0000 26.5541 0.0000
# 6 0.0000 0.0000 0.0000 -1.8153 0.0000 26.7440
#
#
#
# Elastic Compliance Matrix: (Units=1/GPa)
#
#
# Indices 1 2 3 4 5 6 
#
# 1 0.052522 -0.024509 0.011969 0.000000 0.024722 0.000000
# 2 -0.024509 0.053757 0.000127 0.000000 -0.000036 0.000000
# 3 0.011969 0.000127 0.024252 0.000000 0.018194 0.000000
# 4 0.000000 0.000000 0.000000 0.040044 0.000000 0.002718
# 5 0.024722 -0.000036 0.018194 0.000000 0.058259 0.000000
# 6 0.000000 0.000000 0.000000 0.002718 0.000000 0.037576
#
#
# Mechanical properties :
#
#
# Convention : Reuss Voigt Hill
#
# Bulk Modulus (GPa) = 9.46027 13.59288 11.52657
# Shear Modulus (GPa) = 15.31530 23.07137 19.19334
#
# Velocity S-wave (km/s) = 2.67107 3.27838 2.99018
# Velocity P-wave (km/s) = 3.73093 4.54561 4.15827
#
# Compressibility (1/GPa) = 0.10570525
#
# Stress axis : x y z
#
# Youngs Moduli (GPa) = 19.03963 18.60215 41.23397
#
# Poissons Ratio (x) = 0.45592 -0.49352
# Poissons Ratio (y) = 0.46664 -0.00525
# Poissons Ratio (z) = -0.22788 -0.00237
#
# Static dielectric constant tensor:
#      x y z
#    x 1.878420 0.000000 -0.058240 
#    y 0.000000 1.778750 0.000000 
#    z -0.058240 0.000000 1.869390 
# 
# From -- ./inp_files/19927.got.cif
#   From: 2010.05.17/outbox.cif.g08.bks.cpg/sg13_10_cif.got.tgz:19927.got - 2010.06.03 16:44:36.
