data_PCOD9233063
_publ_section_title
;
Structure prediction by ZEFSAII (Michael W. Deem and Ramdas Pophale) SiO2 
 PCOD9233063
Probable space group: P 2/C
;
_chemical_formula_sum "Si O2"
_cell_formula_units_Z 22
_cell_length_a 12.027696
_cell_length_b 6.055123
_cell_length_c 23.674897
_cell_angle_alpha 90.000000
_cell_angle_beta 34.078351
_cell_angle_gamma 90.000000
_cell_volume 966.127276
_symmetry_space_group_name_H-M "P 2/C"
_symmetry_group_IT_number 13
_symmetry_cell_setting 'monoclinic'
loop_
_space_group_symop_operation_xyz
x,y,z
-x,y,1/2-z
-x,-y,-z
x,-y,1/2+z
loop_
_atom_site_type_symbol
_atom_site_label
_atom_site_fract_x
_atom_site_fract_y
_atom_site_fract_z
Si Si1 0.452886 0.912619 0.868250
Si Si2 0.479378 0.192460 0.554162
Si Si3 0.156366 0.521716 0.639905
Si Si4 0.500000 0.628206 0.750000
Si Si5 0.094096 0.623338 0.050936
Si Si6 0.185659 0.273277 0.924722
O O1 0.575465 0.774482 0.770902
O O2 0.547899 0.074946 0.873941
O O3 0.312395 0.065875 0.889281
O O4 0.312271 0.735100 0.959104
O O5 0.299614 0.353802 0.613442
O O6 0.688818 0.321189 0.458641
O O7 0.500000 0.000000 0.500000
O O8 0.036289 0.402158 0.640075
O O9 0.000000 0.623634 0.750000
O O10 0.329268 0.468694 0.843487
O O11 0.959598 0.771655 0.066269
O O12 0.088905 0.387943 0.020448
#
# Coordination Sequence:
#
# PCOD9233063 Si02
#       6
#     4   4   4   2   4   4
#     4  11  21  41  67  93 131 170 215 264 328 396
#     4  11  24  45  69  94 135 180 218 272 333 384
#     4  11  25  43  68  99 130 176 226 274 323 391
#     4  10  24  36  62 100 126 170 212 260 336 386
#     4  10  21  40  63  93 125 168 212 265 335 375
#     4  10  21  39  64  91 130 164 208 271 319 391
#
# _framework density 22.771325000000001
#
# number of rings (size 3 to 8) (size 9 to 14) (size 15 to 20)
#    0.000    1.455    3.636    1.091    0.000    5.091 
#    0.000    0.000    0.000    0.000    0.000    0.000 
#    0.000    0.000    0.000    0.000    0.000    0.000 
#
# Total GULP energy -122883.888727 kJ/mol
# GULP energy per Si atom -5585.631306 kJ/mol
# Density = 2.271950 g / cm^3
# Si number density = 22.771325 Si / 1000 Ang^3
#
#
#
# Elastic Constant Matrix: (Units=GPa)
#
#
# Indices 1 2 3 4 5 6 
#
# 1 111.8691 9.7361 27.7320 0.0000 21.1751 0.0000
# 2 9.7361 64.6446 17.4929 0.0000 6.3831 0.0000
# 3 27.7320 17.4929 71.8275 0.0000 23.5885 0.0000
# 4 0.0000 0.0000 0.0000 19.7118 0.0000 5.2812
# 5 21.1751 6.3831 23.5885 0.0000 30.9979 0.0000
# 6 0.0000 0.0000 0.0000 5.2812 0.0000 29.4286
#
#
#
# Elastic Compliance Matrix: (Units=1/GPa)
#
#
# Indices 1 2 3 4 5 6 
#
# 1 0.010550 -0.000463 -0.002167 0.000000 -0.005463 0.000000
# 2 -0.000463 0.016586 -0.003790 0.000000 -0.000215 0.000000
# 3 -0.002167 -0.003790 0.019917 0.000000 -0.012896 0.000000
# 4 0.000000 0.000000 0.000000 0.053293 0.000000 -0.009564
# 5 -0.005463 -0.000215 -0.012896 0.000000 0.045850 0.000000
# 6 0.000000 0.000000 0.000000 -0.009564 0.000000 0.035697
#
#
# Mechanical properties :
#
#
# Convention : Reuss Voigt Hill
#
# Bulk Modulus (GPa) = 29.22817 39.80701 34.51759
# Shear Modulus (GPa) = 24.25576 28.91968 26.58772
#
# Velocity S-wave (km/s) = 3.26726 3.56758 3.42072
# Velocity P-wave (km/s) = 5.20545 5.87276 5.54915
#
# Compressibility (1/GPa) = 0.03421357
#
# Stress axis : x y z
#
# Youngs Moduli (GPa) = 94.78232 60.29278 50.20915
#
# Poissons Ratio (x) = 0.02794 0.10878
# Poissons Ratio (y) = 0.04391 0.19028
# Poissons Ratio (z) = 0.20535 0.22850
#
# Static dielectric constant tensor:
#      x y z
#    x 1.889500 0.000000 -0.023660 
#    y 0.000000 1.889710 0.000000 
#    z -0.023660 0.000000 1.907900 
# 
# From -- ./inp_files/72167.got.cif
#   From: 2010.05.17/outbox.cif.g08.bks.cpg/sg13_37_cif.got.tgz:72167.got - 2010.06.03 16:44:36.
