data_PCOD9233130
_publ_section_title
;
Structure prediction by ZEFSAII (Michael W. Deem and Ramdas Pophale) SiO2 
 PCOD9233130
Probable space group: P 2/C
;
_chemical_formula_sum "Si O2"
_cell_formula_units_Z 24
_cell_length_a 11.993925
_cell_length_b 12.135493
_cell_length_c 9.049293
_cell_angle_alpha 90.000000
_cell_angle_beta 137.296198
_cell_angle_gamma 90.000000
_cell_volume 893.298470
_symmetry_space_group_name_H-M "P 2/C"
_symmetry_group_IT_number 13
_symmetry_cell_setting 'monoclinic'
loop_
_space_group_symop_operation_xyz
x,y,z
-x,y,1/2-z
-x,-y,-z
x,-y,1/2+z
loop_
_atom_site_type_symbol
_atom_site_label
_atom_site_fract_x
_atom_site_fract_y
_atom_site_fract_z
Si Si1 0.175792 0.129482 0.568095
Si Si2 0.000000 0.452026 0.750000
Si Si3 0.451132 0.883000 0.871617
Si Si4 0.953848 0.355985 0.989272
Si Si5 0.809976 0.961810 0.714119
Si Si6 0.650859 0.652298 0.638871
Si Si7 0.500000 0.508995 0.750000
O O1 0.145492 0.257447 0.535597
O O2 0.268588 0.086973 0.512400
O O3 0.998361 0.071338 0.387255
O O4 0.225496 0.089753 0.781238
O O5 0.098433 0.376361 0.731045
O O6 0.921150 0.536706 0.556191
O O7 0.500000 0.875137 0.750000
O O8 0.254415 0.901551 0.701367
O O9 0.459883 0.764872 0.964060
O O10 0.500000 0.000000 0.000000
O O11 0.849291 0.330550 0.320617
O O12 0.605502 0.587805 0.745234
O O13 0.600714 0.572019 0.456486
#
# Coordination Sequence:
#
# PCOD9233130 Si02
#       7
#     4   2   4   4   4   4   2
#     4  10  21  39  66  93 129 175 216 267 338 402
#     4  10  24  40  64 102 132 168 228 266 348 408
#     4  12  26  45  67 100 139 182 230 289 347 412
#     4  11  22  43  66  98 136 176 217 287 338 407
#     4  10  21  41  62  94 129 172 220 268 331 413
#     4  11  23  46  70  98 134 178 231 291 338 405
#     4  10  24  46  72  98 128 184 242 282 344 398
#
# _framework density 26.866720999999998
#
# number of rings (size 3 to 8) (size 9 to 14) (size 15 to 20)
#    0.000    1.333    2.500    3.000    1.167    2.667 
#    3.000    1.667    0.000    0.000    0.000    0.000 
#    0.000    0.000    0.000    0.000    0.000    0.000 
#
# Total GULP energy -133978.121874 kJ/mol
# GULP energy per Si atom -5582.421745 kJ/mol
# Density = 2.680557 g / cm^3
# Si number density = 26.866721 Si / 1000 Ang^3
#
#
#
# Elastic Constant Matrix: (Units=GPa)
#
#
# Indices 1 2 3 4 5 6 
#
# 1 132.8173 38.1129 46.8055 0.0000 -39.1637 0.0000
# 2 38.1129 161.6202 36.8974 0.0000 -22.5506 0.0000
# 3 46.8055 36.8974 125.3125 0.0000 -38.5495 0.0000
# 4 0.0000 0.0000 0.0000 31.2660 0.0000 -9.1309
# 5 -39.1637 -22.5506 -38.5495 0.0000 57.9314 0.0000
# 6 0.0000 0.0000 0.0000 -9.1309 0.0000 44.3896
#
#
#
# Elastic Compliance Matrix: (Units=1/GPa)
#
#
# Indices 1 2 3 4 5 6 
#
# 1 0.010024 -0.001240 -0.001814 0.000000 0.005087 0.000000
# 2 -0.001240 0.006909 -0.001259 0.000000 0.001013 0.000000
# 3 -0.001814 -0.001259 0.010688 0.000000 0.005396 0.000000
# 4 0.000000 0.000000 0.000000 0.034028 0.000000 0.006999
# 5 0.005087 0.001013 0.005396 0.000000 0.024685 0.000000
# 6 0.000000 0.000000 0.000000 0.006999 0.000000 0.023968
#
#
# Mechanical properties :
#
#
# Convention : Reuss Voigt Hill
#
# Bulk Modulus (GPa) = 52.64825 73.70906 63.17866
# Shear Modulus (GPa) = 39.91683 46.57970 43.24827
#
# Velocity S-wave (km/s) = 3.85871 4.16833 4.01650
# Velocity P-wave (km/s) = 6.28422 7.11767 6.71389
#
# Compressibility (1/GPa) = 0.01899398
#
# Stress axis : x y z
#
# Youngs Moduli (GPa) = 99.75812 144.74691 93.55976
#
# Poissons Ratio (x) = 0.17948 0.16974
# Poissons Ratio (y) = 0.12370 0.11783
# Poissons Ratio (z) = 0.18098 0.18230
#
# Static dielectric constant tensor:
#      x y z
#    x 2.231060 0.000000 0.302390 
#    y 0.000000 2.166620 0.000000 
#    z 0.302390 0.000000 3.100300 
# 
# From -- ./inp_files/15992.got.cif
#   From: 2010.05.17/outbox.cif.g08.bks.cpg/sg13_8_cif.got.tgz:15992.got - 2010.06.03 16:44:36.
