data_PCOD9233524
_publ_section_title
;
Structure prediction by ZEFSAII (Michael W. Deem and Ramdas Pophale) SiO2 
 PCOD9233524
Probable space group: P 2/C
;
_chemical_formula_sum "Si O2"
_cell_formula_units_Z 20
_cell_length_a 9.018960
_cell_length_b 10.905179
_cell_length_c 17.315491
_cell_angle_alpha 90.000000
_cell_angle_beta 147.767137
_cell_angle_gamma 90.000000
_cell_volume 908.334405
_symmetry_space_group_name_H-M "P 2/C"
_symmetry_group_IT_number 13
_symmetry_cell_setting 'monoclinic'
loop_
_space_group_symop_operation_xyz
x,y,z
-x,y,1/2-z
-x,-y,-z
x,-y,1/2+z
loop_
_atom_site_type_symbol
_atom_site_label
_atom_site_fract_x
_atom_site_fract_y
_atom_site_fract_z
Si Si1 0.945170 0.502435 0.810112
Si Si2 0.719579 0.949762 0.913904
Si Si3 0.568975 0.149280 0.617306
Si Si4 0.172853 0.225126 0.921306
Si Si5 0.608301 0.600301 0.385562
O O1 0.074234 0.364308 0.866671
O O2 0.000000 0.560230 0.750000
O O3 0.615555 0.486540 0.670672
O O4 0.090184 0.564481 0.948210
O O5 0.500000 0.960375 0.750000
O O6 0.607439 0.031776 0.936174
O O7 0.740135 0.811720 0.954840
O O8 0.000000 0.000000 0.000000
O O9 0.596617 0.189732 0.540401
O O10 0.441697 0.261255 0.609280
O O11 0.893714 0.143195 0.785035
O O12 0.500000 0.593043 0.250000
#
# Coordination Sequence:
#
# PCOD9233524 Si02
#       5
#     4   4   4   4   4
#     4  11  22  42  67  91 129 171 209 257 315 383
#     4  12  24  41  65  94 126 162 209 265 315 370
#     4  10  21  42  65  87 128 170 205 249 319 381
#     4  10  21  41  66  88 123 174 207 245 314 383
#     4  11  23  40  66  96 127 164 211 262 317 370
#
# _framework density 22.018321
#
# number of rings (size 3 to 8) (size 9 to 14) (size 15 to 20)
#    0.000    1.200    6.000    2.400    2.800    0.800 
#    3.600    0.000    0.000    0.000    0.000    0.000 
#    0.000    0.000    0.000    0.000    0.000    0.000 
#
# Total GULP energy -111618.669233 kJ/mol
# GULP energy per Si atom -5580.933462 kJ/mol
# Density = 2.196821 g / cm^3
# Si number density = 22.018321 Si / 1000 Ang^3
#
#
#
# Elastic Constant Matrix: (Units=GPa)
#
#
# Indices 1 2 3 4 5 6 
#
# 1 50.9556 5.1509 -3.8831 0.0000 -8.7476 0.0000
# 2 5.1509 30.2617 10.4507 0.0000 -4.8087 0.0000
# 3 -3.8831 10.4507 83.3962 0.0000 -1.7087 0.0000
# 4 0.0000 0.0000 0.0000 22.1434 0.0000 -2.6487
# 5 -8.7476 -4.8087 -1.7087 0.0000 25.4884 0.0000
# 6 0.0000 0.0000 0.0000 -2.6487 0.0000 18.7702
#
#
#
# Elastic Compliance Matrix: (Units=1/GPa)
#
#
# Indices 1 2 3 4 5 6 
#
# 1 0.021217 -0.003051 0.001510 0.000000 0.006807 0.000000
# 2 -0.003051 0.035997 -0.004542 0.000000 0.005440 0.000000
# 3 0.001510 -0.004542 0.012641 0.000000 0.000509 0.000000
# 4 0.000000 0.000000 0.000000 0.045936 0.000000 0.006482
# 5 0.006807 0.005440 0.000509 0.000000 0.042630 0.000000
# 6 0.000000 0.000000 0.000000 0.006482 0.000000 0.054191
#
#
# Mechanical properties :
#
#
# Convention : Reuss Voigt Hill
#
# Bulk Modulus (GPa) = 17.33426 20.89449 19.11438
# Shear Modulus (GPa) = 20.49123 23.47341 21.98232
#
# Velocity S-wave (km/s) = 3.05396 3.26864 3.16312
# Velocity P-wave (km/s) = 4.50836 4.87396 4.69472
#
# Compressibility (1/GPa) = 0.05768921
#
# Stress axis : x y z
#
# Youngs Moduli (GPa) = 47.13205 27.77992 79.10901
#
# Poissons Ratio (x) = 0.08476 -0.11943
# Poissons Ratio (y) = 0.14380 0.35928
# Poissons Ratio (z) = -0.07116 0.12616
#
# Static dielectric constant tensor:
#      x y z
#    x 1.781570 0.000000 0.008810 
#    y 0.000000 1.799520 0.000000 
#    z 0.008810 0.000000 1.774780 
# 
# From -- ./inp_files/21769.got.cif
#   From: 2010.05.17/outbox.cif.g08.bks.cpg/sg13_11_cif.got.tgz:21769.got - 2010.06.03 16:44:36.
