data_PCOD9233498
_publ_section_title
;
Structure prediction by ZEFSAII (Michael W. Deem and Ramdas Pophale) SiO2 
 PCOD9233498
Probable space group: P 2/C
;
_chemical_formula_sum "Si O2"
_cell_formula_units_Z 28
_cell_length_a 9.277525
_cell_length_b 11.104231
_cell_length_c 16.609809
_cell_angle_alpha 90.000000
_cell_angle_beta 127.801484
_cell_angle_gamma 90.000000
_cell_volume 1352.037799
_symmetry_space_group_name_H-M "P 2/C"
_symmetry_group_IT_number 13
_symmetry_cell_setting 'monoclinic'
loop_
_space_group_symop_operation_xyz
x,y,z
-x,y,1/2-z
-x,-y,-z
x,-y,1/2+z
loop_
_atom_site_type_symbol
_atom_site_label
_atom_site_fract_x
_atom_site_fract_y
_atom_site_fract_z
Si Si1 0.324721 0.954306 0.889988
Si Si2 0.954744 0.860748 0.003913
Si Si3 0.196089 0.266811 0.454588
Si Si4 0.550356 0.353707 0.676552
Si Si5 0.361201 0.568539 0.893573
Si Si6 0.465507 0.214816 0.146189
Si Si7 0.863594 0.827290 0.260599
O O1 0.232680 0.854519 0.915640
O O2 0.400500 0.891861 0.835305
O O3 0.192403 0.058743 0.814193
O O4 0.500000 0.000000 0.000000
O O5 0.041753 0.844669 0.121526
O O6 0.042298 0.771606 0.966238
O O7 0.740562 0.830789 0.935106
O O8 0.000000 0.000000 0.000000
O O9 0.369340 0.314014 0.565698
O O10 0.192919 0.372065 0.384944
O O11 0.500000 0.383159 0.750000
O O12 0.666719 0.465395 0.681618
O O13 0.676917 0.238351 0.715023
O O14 0.476603 0.676269 0.892193
O O15 0.500000 0.500000 0.000000
O O16 0.500000 0.248647 0.250000
O O17 0.000000 0.753392 0.250000
#
# Coordination Sequence:
#
# PCOD9233498 Si02
#       7
#     4   4   4   4   4   4   4
#     4  11  21  38  63  91 133 177 214 258 332 406
#     4  12  25  41  65 105 140 168 222 281 339 405
#     4  10  21  41  64  95 131 176 213 275 326 398
#     4  11  21  41  67  95 132 172 226 272 336 394
#     4   9  22  42  70  90 126 177 224 271 329 398
#     4  11  24  43  68  92 130 176 221 270 335 399
#     4  12  25  38  64 100 136 173 220 280 336 398
#
# _framework density 20.709482000000001
#
# number of rings (size 3 to 8) (size 9 to 14) (size 15 to 20)
#    0.000    1.143    2.857    3.857    4.000    0.571 
#    0.000    7.857    0.000    0.000    0.000    0.000 
#    0.000    0.000    0.000    0.000    0.000    0.000 
#
# Total GULP energy -156233.770189 kJ/mol
# GULP energy per Si atom -5579.777507 kJ/mol
# Density = 2.066235 g / cm^3
# Si number density = 20.709482 Si / 1000 Ang^3
#
#
#
# Elastic Constant Matrix: (Units=GPa)
#
#
# Indices 1 2 3 4 5 6 
#
# 1 84.9809 12.0624 34.8275 0.0000 -22.9692 0.0000
# 2 12.0624 64.4367 22.7791 0.0000 -10.0090 0.0000
# 3 34.8275 22.7791 68.4933 0.0000 -15.2860 0.0000
# 4 0.0000 0.0000 0.0000 -468.1217 0.0000 280.1860
# 5 -22.9692 -10.0090 -15.2860 0.0000 40.5786 0.0000
# 6 0.0000 0.0000 0.0000 280.1860 0.0000 -157.2616
#
#
#
# Elastic Compliance Matrix: (Units=1/GPa)
#
#
# Indices 1 2 3 4 5 6 
#
# 1 0.016389 0.000447 -0.006974 0.000000 0.006760 0.000000
# 2 0.000447 0.017803 -0.005581 0.000000 0.002542 0.000000
# 3 -0.006974 -0.005581 0.020541 0.000000 0.002414 0.000000
# 4 0.000000 0.000000 0.000000 0.032182 0.000000 0.057338
# 5 0.006760 0.002542 0.002414 0.000000 0.030006 0.000000
# 6 0.000000 0.000000 0.000000 0.057338 0.000000 0.095797
#
#
# Mechanical properties :
#
#
# Convention : Reuss Voigt Hill
#
# Bulk Modulus (GPa) = 32.76708 39.69432 36.23070
# Shear Modulus (GPa) = 20.23427 -107.07816 -43.42195
#
# Velocity S-wave (km/s) = 3.12918 -7.19841 -4.58396
# Velocity P-wave (km/s) = 5.37701 7.06263 3.23793
#
# Compressibility (1/GPa) = 0.03051844
#
# Stress axis : x y z
#
# Youngs Moduli (GPa) = 61.01653 56.16969 48.68392
#
# Poissons Ratio (x) = -0.02513 0.33950
# Poissons Ratio (y) = -0.02729 0.27170
# Poissons Ratio (z) = 0.42550 0.31348
#
# Static dielectric constant tensor:
#      x y z
#    x 2.302950 0.000000 -0.429290 
#    y 0.000000 1.680660 0.000000 
#    z -0.429290 0.000000 1.974680 
# 
# From -- ./inp_files/47305.got.cif
#   From: 2010.05.17/outbox.cif.g08.bks.cpg/sg13_24_cif.got.tgz:47305.got - 2010.06.03 16:44:36.
