data_PCOD9233240
_publ_section_title
;
Structure prediction by ZEFSAII (Michael W. Deem and Ramdas Pophale) SiO2 
 PCOD9233240
Probable space group: P 2/C
;
_chemical_formula_sum "Si O2"
_cell_formula_units_Z 20
_cell_length_a 11.275328
_cell_length_b 12.497789
_cell_length_c 10.860068
_cell_angle_alpha 90.000000
_cell_angle_beta 137.376303
_cell_angle_gamma 90.000000
_cell_volume 1036.332857
_symmetry_space_group_name_H-M "P 2/C"
_symmetry_group_IT_number 13
_symmetry_cell_setting 'monoclinic'
loop_
_space_group_symop_operation_xyz
x,y,z
-x,y,1/2-z
-x,-y,-z
x,-y,1/2+z
loop_
_atom_site_type_symbol
_atom_site_label
_atom_site_fract_x
_atom_site_fract_y
_atom_site_fract_z
Si Si1 0.296535 0.198682 0.951827
Si Si2 0.810337 0.441330 0.347066
Si Si3 0.289075 0.797194 0.733306
Si Si4 0.796533 0.437808 0.608244
Si Si5 0.111942 0.994328 0.710811
O O1 0.206941 0.312724 0.860500
O O2 0.223241 0.102856 0.813818
O O3 0.503039 0.218317 0.093883
O O4 0.262010 0.170477 0.069213
O O5 0.814308 0.313975 0.327622
O O6 0.721526 0.452434 0.413600
O O7 0.718079 0.495275 0.159927
O O8 0.000000 0.500000 0.500000
O O9 0.229964 0.889947 0.779391
O O10 0.000000 0.470088 0.750000
O O11 0.000000 0.982561 0.750000
O O12 0.000000 0.000000 0.500000
#
# Coordination Sequence:
#
# PCOD9233240 Si02
#       5
#     4   4   4   4   4
#     4  10  21  40  62  86 124 164 201 249 311 371
#     4   9  19  34  58  85 116 154 198 246 292 356
#     4  10  22  40  61  89 124 163 202 250 309 366
#     4   9  18  34  59  83 116 154 202 239 300 356
#     4  12  24  40  65  90 118 157 209 252 308 365
#
# _framework density 19.298819999999999
#
# number of rings (size 3 to 8) (size 9 to 14) (size 15 to 20)
#    0.000    2.000    2.000    1.200    5.600    3.200 
#    0.000    0.000    0.000    0.000    0.000    0.000 
#    0.000    0.000    0.000    0.000    0.000    0.000 
#
# Total GULP energy -111510.833415 kJ/mol
# GULP energy per Si atom -5575.541671 kJ/mol
# Density = 1.925489 g / cm^3
# Si number density = 19.298820 Si / 1000 Ang^3
#
#
#
# Elastic Constant Matrix: (Units=GPa)
#
#
# Indices 1 2 3 4 5 6 
#
# 1 74.6948 58.7846 34.0083 0.0000 -13.2704 0.0000
# 2 58.7846 119.1216 38.3657 0.0000 -20.0394 0.0000
# 3 34.0083 38.3657 60.7474 0.0000 -18.0190 0.0000
# 4 0.0000 0.0000 0.0000 -18.1130 0.0000 -55.3488
# 5 -13.2704 -20.0394 -18.0190 0.0000 35.6983 0.0000
# 6 0.0000 0.0000 0.0000 -55.3488 0.0000 -2.2281
#
#
#
# Elastic Compliance Matrix: (Units=1/GPa)
#
#
# Indices 1 2 3 4 5 6 
#
# 1 0.024398 -0.009609 -0.007644 0.000000 -0.000183 0.000000
# 2 -0.009609 0.014604 -0.002907 0.000000 0.003159 0.000000
# 3 -0.007644 -0.002907 0.024992 0.000000 0.008141 0.000000
# 4 0.000000 0.000000 0.000000 0.000737 0.000000 -0.018308
# 5 -0.000183 0.003159 0.008141 0.000000 0.033827 0.000000
# 6 0.000000 0.000000 0.000000 -0.018308 0.000000 0.005991
#
#
# Mechanical properties :
#
#
# Convention : Reuss Voigt Hill
#
# Bulk Modulus (GPa) = 42.24133 57.43123 49.83628
# Shear Modulus (GPa) = 32.73072 11.29845 22.01458
#
# Velocity S-wave (km/s) = 4.12271 2.42223 3.38112
# Velocity P-wave (km/s) = 6.67817 6.13567 6.41266
#
# Compressibility (1/GPa) = 0.02367349
#
# Stress axis : x y z
#
# Youngs Moduli (GPa) = 40.98734 68.47334 40.01251
#
# Poissons Ratio (x) = 0.65793 0.30587
# Poissons Ratio (y) = 0.39383 0.11633
# Poissons Ratio (z) = 0.31333 0.19907
#
# Static dielectric constant tensor:
#      x y z
#    x 1.811960 0.000000 0.208750 
#    y 0.000000 1.659280 0.000000 
#    z 0.208750 0.000000 2.139860 
# 
# From -- ./inp_files/33421.got.cif
#   From: 2010.05.17/outbox.cif.g08.bks.cpg/sg13_17_cif.got.tgz:33421.got - 2010.06.03 16:44:36.
