data_PCOD9233420
_publ_section_title
;
Structure prediction by ZEFSAII (Michael W. Deem and Ramdas Pophale) SiO2 
 PCOD9233420
Probable space group: P 2/C
;
_chemical_formula_sum "Si O2"
_cell_formula_units_Z 24
_cell_length_a 7.962098
_cell_length_b 9.057856
_cell_length_c 20.875659
_cell_angle_alpha 90.000000
_cell_angle_beta 128.913422
_cell_angle_gamma 90.000000
_cell_volume 1171.456914
_symmetry_space_group_name_H-M "P 2/C"
_symmetry_group_IT_number 13
_symmetry_cell_setting 'monoclinic'
loop_
_space_group_symop_operation_xyz
x,y,z
-x,y,1/2-z
-x,-y,-z
x,-y,1/2+z
loop_
_atom_site_type_symbol
_atom_site_label
_atom_site_fract_x
_atom_site_fract_y
_atom_site_fract_z
Si Si1 0.265099 0.920443 0.229002
Si Si2 0.464388 0.065978 0.392159
Si Si3 0.910259 0.580640 0.541679
Si Si4 0.508571 0.759069 0.472463
Si Si5 0.027943 0.362146 0.829158
Si Si6 0.113281 0.898180 0.579478
O O1 0.500000 0.907988 0.250000
O O2 0.281165 0.007588 0.299968
O O3 0.158186 0.761146 0.210068
O O4 0.117834 0.013020 0.146025
O O5 0.547268 0.910566 0.442209
O O6 0.436588 0.185284 0.442073
O O7 0.647016 0.128524 0.389198
O O8 0.655132 0.620332 0.485889
O O9 0.986819 0.487975 0.621051
O O10 0.000000 0.500000 0.500000
O O11 0.004926 0.743370 0.563223
O O12 0.259247 0.715240 0.400393
O O13 0.000000 0.419631 0.750000
O O14 0.000000 0.000000 0.500000
#
# Coordination Sequence:
#
# PCOD9233420 Si02
#       6
#     4   4   4   4   4   4
#     4  10  23  42  70 102 134 177 234 284 340 408
#     4  10  21  40  71  99 126 171 228 290 326 389
#     4  12  27  43  67  97 139 186 225 276 344 426
#     4  11  23  43  67  99 135 176 227 280 340 403
#     4  12  26  43  67 105 139 183 222 284 352 416
#     4  11  21  41  68  95 129 174 231 277 334 402
#
# _framework density 20.487310000000001
#
# number of rings (size 3 to 8) (size 9 to 14) (size 15 to 20)
#    0.000    1.000    3.333    3.500    4.667    1.333 
#    0.000    5.833    0.000    0.000    0.000    0.000 
#    0.000    0.000    0.000    0.000    0.000    0.000 
#
# Total GULP energy -134007.283089 kJ/mol
# GULP energy per Si atom -5583.636795 kJ/mol
# Density = 2.044068 g / cm^3
# Si number density = 20.487310 Si / 1000 Ang^3
#
#
#
# Elastic Constant Matrix: (Units=GPa)
#
#
# Indices 1 2 3 4 5 6 
#
# 1 66.2382 36.2443 46.1142 0.0000 -10.3119 0.0000
# 2 36.2443 85.4451 62.8492 0.0000 -8.8830 0.0000
# 3 46.1142 62.8492 161.0640 0.0000 -30.3757 0.0000
# 4 0.0000 0.0000 0.0000 38.2525 0.0000 -0.1531
# 5 -10.3119 -8.8830 -30.3757 0.0000 39.2567 0.0000
# 6 0.0000 0.0000 0.0000 -0.1531 0.0000 45.3361
#
#
#
# Elastic Compliance Matrix: (Units=1/GPa)
#
#
# Indices 1 2 3 4 5 6 
#
# 1 0.021106 -0.006400 -0.003247 0.000000 0.001584 0.000000
# 2 -0.006400 0.018427 -0.005724 0.000000 -0.001941 0.000000
# 3 -0.003247 -0.005724 0.010499 0.000000 0.005976 0.000000
# 4 0.000000 0.000000 0.000000 0.026142 0.000000 0.000088
# 5 0.001584 -0.001941 0.005976 0.000000 0.030074 0.000000
# 6 0.000000 0.000000 0.000000 0.000088 0.000000 0.022058
#
#
# Mechanical properties :
#
#
# Convention : Reuss Voigt Hill
#
# Bulk Modulus (GPa) = 51.84029 67.01808 59.42918
# Shear Modulus (GPa) = 30.21570 35.73836 32.97703
#
# Velocity S-wave (km/s) = 3.84454 4.18115 4.01637
# Velocity P-wave (km/s) = 6.71311 7.48948 7.11190
#
# Compressibility (1/GPa) = 0.01929002
#
# Stress axis : x y z
#
# Youngs Moduli (GPa) = 47.38019 54.26923 95.24862
#
# Poissons Ratio (x) = 0.34732 0.30926
# Poissons Ratio (y) = 0.30323 0.54520
# Poissons Ratio (z) = 0.15384 0.31063
#
# Static dielectric constant tensor:
#      x y z
#    x 1.835430 0.000000 0.035460 
#    y 0.000000 1.664550 0.000000 
#    z 0.035460 0.000000 1.754720 
# 
# From -- ./inp_files/75767.got.cif
#   From: 2010.05.17/outbox.cif.g08.bks.cpg/sg13_38_cif.got.tgz:75767.got - 2010.06.03 16:44:36.
