data_PCOD9233316
_publ_section_title
;
Structure prediction by ZEFSAII (Michael W. Deem and Ramdas Pophale) SiO2 
 PCOD9233316
Probable space group: P 2/C
;
_chemical_formula_sum "Si O2"
_cell_formula_units_Z 20
_cell_length_a 8.025860
_cell_length_b 22.672243
_cell_length_c 9.547114
_cell_angle_alpha 90.000000
_cell_angle_beta 148.080727
_cell_angle_gamma 90.000000
_cell_volume 918.516794
_symmetry_space_group_name_H-M "P 2/C"
_symmetry_group_IT_number 13
_symmetry_cell_setting 'monoclinic'
loop_
_space_group_symop_operation_xyz
x,y,z
-x,y,1/2-z
-x,-y,-z
x,-y,1/2+z
loop_
_atom_site_type_symbol
_atom_site_label
_atom_site_fract_x
_atom_site_fract_y
_atom_site_fract_z
Si Si1 0.194947 0.961993 0.746938
Si Si2 0.709064 0.245258 0.758545
Si Si3 0.360446 0.648210 0.506395
Si Si4 0.784005 0.828839 0.736722
Si Si5 0.200402 0.460969 0.253194
O O1 0.243266 0.895229 0.727239
O O2 0.000000 0.956119 0.750000
O O3 0.000000 0.000000 0.500000
O O4 0.500000 0.000000 0.000000
O O5 0.500000 0.253933 0.750000
O O6 0.682156 0.303787 0.646547
O O7 0.549706 0.194243 0.552916
O O8 0.045619 0.219513 0.044504
O O9 0.634506 0.599886 0.676078
O O10 0.000000 0.621610 0.250000
O O11 0.500000 0.675588 0.750000
O O12 0.000000 0.830325 0.750000
O O13 0.500000 0.500000 0.500000
O O14 0.000000 0.450399 0.250000
O O15 0.000000 0.500000 0.000000
#
# Coordination Sequence:
#
# PCOD9233316 Si02
#       5
#     4   4   4   4   4
#     4  11  22  39  62  91 125 167 214 266 323 385
#     4  10  21  40  65  92 120 166 220 263 310 378
#     4  12  26  44  66  98 137 171 208 263 325 384
#     4   9  19  37  62  88 122 165 214 263 316 382
#     4  12  26  46  71  99 131 171 215 263 316 377
#
# _framework density 21.774232999999999
#
# number of rings (size 3 to 8) (size 9 to 14) (size 15 to 20)
#    0.000    1.200    0.000    6.600    0.000    8.800 
#    0.000   10.000    0.000    0.000    0.000    0.000 
#    0.000    0.000    0.000    0.000    0.000    0.000 
#
# Total GULP energy -111702.352770 kJ/mol
# GULP energy per Si atom -5585.117638 kJ/mol
# Density = 2.172467 g / cm^3
# Si number density = 21.774233 Si / 1000 Ang^3
#
#
#
# Elastic Constant Matrix: (Units=GPa)
#
#
# Indices 1 2 3 4 5 6 
#
# 1 80.2113 51.4411 46.6213 0.0000 3.1069 0.0000
# 2 51.4411 155.6644 59.4646 0.0000 -16.1317 0.0000
# 3 46.6213 59.4646 180.5303 0.0000 -7.5490 0.0000
# 4 0.0000 0.0000 0.0000 42.9409 0.0000 -4.9868
# 5 3.1069 -16.1317 -7.5490 0.0000 31.7429 0.0000
# 6 0.0000 0.0000 0.0000 -4.9868 0.0000 32.2380
#
#
#
# Elastic Compliance Matrix: (Units=1/GPa)
#
#
# Indices 1 2 3 4 5 6 
#
# 1 0.017826 -0.005243 -0.003092 0.000000 -0.005144 0.000000
# 2 -0.005243 0.009225 -0.001482 0.000000 0.004849 0.000000
# 3 -0.003092 -0.001482 0.006875 0.000000 0.001185 0.000000
# 4 0.000000 0.000000 0.000000 0.023714 0.000000 0.003668
# 5 -0.005144 0.004849 0.001185 0.000000 0.034753 0.000000
# 6 0.000000 0.000000 0.000000 0.003668 0.000000 0.031587
#
#
# Mechanical properties :
#
#
# Convention : Reuss Voigt Hill
#
# Bulk Modulus (GPa) = 69.96242 81.27335 75.61788
# Shear Modulus (GPa) = 33.69811 38.64297 36.17054
#
# Velocity S-wave (km/s) = 3.93824 4.21730 4.08016
# Velocity P-wave (km/s) = 7.27188 7.81797 7.54986
#
# Compressibility (1/GPa) = 0.01429339
#
# Stress axis : x y z
#
# Youngs Moduli (GPa) = 56.09923 108.39819 145.44790
#
# Poissons Ratio (x) = 0.56831 0.44967
# Poissons Ratio (y) = 0.29412 0.21555
# Poissons Ratio (z) = 0.17344 0.16065
#
# Static dielectric constant tensor:
#      x y z
#    x 2.586460 0.000000 -0.130870 
#    y 0.000000 1.795890 0.000000 
#    z -0.130870 0.000000 1.755770 
# 
# From -- ./inp_files/13848.got.cif
#   From: 2010.05.17/outbox.cif.g08.bks.cpg/sg13_7_cif.got.tgz:13848.got - 2010.06.03 16:44:36.
