data_PCOD9233783
_publ_section_title
;
Structure prediction by ZEFSAII (Michael W. Deem and Ramdas Pophale) SiO2 
 PCOD9233783
Probable space group: P 2/C
;
_chemical_formula_sum "Si O2"
_cell_formula_units_Z 16
_cell_length_a 7.071000
_cell_length_b 14.922779
_cell_length_c 7.187303
_cell_angle_alpha 90.000000
_cell_angle_beta 57.349874
_cell_angle_gamma 90.000000
_cell_volume 638.555496
_symmetry_space_group_name_H-M "P 2/C"
_symmetry_group_IT_number 13
_symmetry_cell_setting 'monoclinic'
loop_
_space_group_symop_operation_xyz
x,y,z
-x,y,1/2-z
-x,-y,-z
x,-y,1/2+z
loop_
_atom_site_type_symbol
_atom_site_label
_atom_site_fract_x
_atom_site_fract_y
_atom_site_fract_z
Si Si1 0.020328 0.105362 0.457808
Si Si2 0.236952 0.392927 0.725740
Si Si3 0.500000 0.449121 0.250000
Si Si4 0.606434 0.896716 0.459996
Si Si5 0.500000 0.758534 0.250000
O O1 0.267919 0.122609 0.412885
O O2 0.000000 0.124419 0.250000
O O3 0.813896 0.126819 0.705131
O O4 0.000000 0.000000 0.500000
O O5 0.424930 0.392151 0.464262
O O6 0.294437 0.484707 0.804093
O O7 0.291696 0.309227 0.825658
O O8 0.000000 0.389829 0.750000
O O9 0.451403 0.820403 0.455346
O O10 0.500000 0.000000 0.500000
#
# Coordination Sequence:
#
# PCOD9233783 Si02
#       5
#     4   4   2   4   2
#     4  11  23  43  67  96 120 171 249 311 369 426
#     4  10  21  42  74 105 151 182 229 292 350 437
#     4   9  20  42  73 116 136 190 233 262 364 449
#     4  11  25  45  68  92 138 188 245 305 361 427
#     4  11  26  44  65 106 140 186 245 304 364 419
#
# _framework density 25.056554999999999
#
# number of rings (size 3 to 8) (size 9 to 14) (size 15 to 20)
#    0.000    1.500    2.500    2.250    3.500    1.000 
#    4.500    0.000    5.500    0.000    0.000    0.000 
#    0.000    0.000    0.000    0.000    0.000    0.000 
#
# Total GULP energy -89225.049125 kJ/mol
# GULP energy per Si atom -5576.565570 kJ/mol
# Density = 2.499952 g / cm^3
# Si number density = 25.056555 Si / 1000 Ang^3
#
#
#
# Elastic Constant Matrix: (Units=GPa)
#
#
# Indices 1 2 3 4 5 6 
#
# 1 248.8431 66.5779 58.8037 0.0000 26.7085 0.0000
# 2 66.5779 99.0500 36.2456 0.0000 6.0686 0.0000
# 3 58.8037 36.2456 103.7743 0.0000 27.6535 0.0000
# 4 0.0000 0.0000 0.0000 22.3112 0.0000 19.1580
# 5 26.7085 6.0686 27.6535 0.0000 55.4646 0.0000
# 6 0.0000 0.0000 0.0000 19.1580 0.0000 19.3225
#
#
#
# Elastic Compliance Matrix: (Units=1/GPa)
#
#
# Indices 1 2 3 4 5 6 
#
# 1 0.005334 -0.002902 -0.001625 0.000000 -0.001441 0.000000
# 2 -0.002902 0.013191 -0.003402 0.000000 0.001651 0.000000
# 3 -0.001625 -0.003402 0.013190 0.000000 -0.005422 0.000000
# 4 0.000000 0.000000 0.000000 0.301546 0.000000 -0.298980
# 5 -0.001441 0.001651 -0.005422 0.000000 0.021246 0.000000
# 6 0.000000 0.000000 0.000000 -0.298980 0.000000 0.348189
#
#
# Mechanical properties :
#
#
# Convention : Reuss Voigt Hill
#
# Bulk Modulus (GPa) = 63.06946 86.10243 74.58595
# Shear Modulus (GPa) = 6.90761 38.75566 22.83164
#
# Velocity S-wave (km/s) = 1.66216 3.93711 3.02189
# Velocity P-wave (km/s) = 5.37673 7.42332 6.48131
#
# Compressibility (1/GPa) = 0.01585553
#
# Stress axis : x y z
#
# Youngs Moduli (GPa) = 187.48790 75.81120 75.81468
#
# Poissons Ratio (x) = 0.22003 0.12318
# Poissons Ratio (y) = 0.54415 0.25795
# Poissons Ratio (z) = 0.30461 0.25794
#
# Static dielectric constant tensor:
#      x y z
#    x 2.247940 0.000000 -0.087260 
#    y 0.000000 2.102830 0.000000 
#    z -0.087260 0.000000 2.239820 
# 
# From -- ./inp_files/8916.got.cif
#   From: 2010.05.17/outbox.cif.g08.bks.cpg/sg13_5_cif.got.tgz:8916.got - 2010.06.03 16:44:36.
