data_PCOD9233204
_publ_section_title
;
Structure prediction by ZEFSAII (Michael W. Deem and Ramdas Pophale) SiO2 
 PCOD9233204
Probable space group: P 2/C
;
_chemical_formula_sum "Si O2"
_cell_formula_units_Z 32
_cell_length_a 23.898048
_cell_length_b 5.040765
_cell_length_c 27.820352
_cell_angle_alpha 90.000000
_cell_angle_beta 25.700017
_cell_angle_gamma 90.000000
_cell_volume 1453.350008
_symmetry_space_group_name_H-M "P 2/C"
_symmetry_group_IT_number 13
_symmetry_cell_setting 'monoclinic'
loop_
_space_group_symop_operation_xyz
x,y,z
-x,y,1/2-z
-x,-y,-z
x,-y,1/2+z
loop_
_atom_site_type_symbol
_atom_site_label
_atom_site_fract_x
_atom_site_fract_y
_atom_site_fract_z
Si Si1 0.730769 0.559347 0.658856
Si Si2 0.748458 0.499608 0.037666
Si Si3 0.903662 0.058131 0.531308
Si Si4 0.455450 0.415352 0.114628
Si Si5 0.383437 0.194492 0.077779
Si Si6 0.699852 0.298248 0.975933
Si Si7 0.826406 0.176341 0.335558
Si Si8 0.918794 0.999764 0.410612
O O1 0.687112 0.552490 0.637180
O O2 0.849389 0.356015 0.572934
O O3 0.623577 0.473097 0.779807
O O4 0.783560 0.853763 0.628342
O O5 0.797509 0.800638 0.000611
O O6 0.872517 0.300828 0.937986
O O7 0.670351 0.417706 0.051035
O O8 0.962597 0.010849 0.432612
O O9 0.000000 0.000000 0.500000
O O10 0.355076 0.310727 0.152511
O O11 0.564894 0.230908 0.053903
O O12 0.546554 0.605382 0.012918
O O13 0.258008 0.102199 0.146661
O O14 0.500000 0.000000 0.000000
O O15 0.785789 0.527374 0.882970
O O16 0.781422 0.030051 0.910958
O O17 0.972177 0.116061 0.208441
#
# Coordination Sequence:
#
# PCOD9233204 Si02
#       8
#     4   4   4   4   4   4   4   4
#     4  10  23  39  62  87 118 158 198 241 300 346
#     4  10  22  42  59  85 122 154 198 259 285 344
#     4  10  22  40  58  89 119 156 199 243 285 355
#     4  10  23  39  60  90 120 158 198 241 299 360
#     4  10  21  40  59  87 128 153 190 253 294 351
#     4  11  23  39  61  87 119 155 204 244 295 353
#     4  11  23  37  61  91 115 160 197 237 306 360
#     4  10  22  39  59  87 122 152 201 244 297 352
#
# _framework density 22.018097999999998
#
# number of rings (size 3 to 8) (size 9 to 14) (size 15 to 20)
#    0.000    1.750    1.250    1.875    3.500    3.500 
#    0.000    0.000    0.000    6.000    0.000    0.000 
#    0.000    0.000    0.000    0.000    0.000    0.000 
#
# Total GULP energy -178571.839976 kJ/mol
# GULP energy per Si atom -5580.369999 kJ/mol
# Density = 2.196798 g / cm^3
# Si number density = 22.018098 Si / 1000 Ang^3
#
#
#
# Elastic Constant Matrix: (Units=GPa)
#
#
# Indices 1 2 3 4 5 6 
#
# 1 97.7993 -2.0117 25.6421 0.0000 28.8378 0.0000
# 2 -2.0117 61.5324 -10.8481 0.0000 2.7568 0.0000
# 3 25.6421 -10.8481 65.9633 0.0000 23.5448 0.0000
# 4 0.0000 0.0000 0.0000 12.4700 0.0000 1.1484
# 5 28.8378 2.7568 23.5448 0.0000 25.6540 0.0000
# 6 0.0000 0.0000 0.0000 1.1484 0.0000 28.7717
#
#
#
# Elastic Compliance Matrix: (Units=1/GPa)
#
#
# Indices 1 2 3 4 5 6 
#
# 1 0.015417 0.001444 0.000722 0.000000 -0.018148 0.000000
# 2 0.001444 0.017618 0.005341 0.000000 -0.008419 0.000000
# 3 0.000722 0.005341 0.024170 0.000000 -0.023569 0.000000
# 4 0.000000 0.000000 0.000000 0.080489 0.000000 -0.003213
# 5 -0.018148 -0.008419 -0.023569 0.000000 0.081917 0.000000
# 6 0.000000 0.000000 0.000000 -0.003213 0.000000 0.034885
#
#
# Mechanical properties :
#
#
# Convention : Reuss Voigt Hill
#
# Bulk Modulus (GPa) = 13.84666 27.87328 20.85997
# Shear Modulus (GPa) = 18.97156 27.54662 23.25909
#
# Velocity S-wave (km/s) = 2.93855 3.54091 3.25370
# Velocity P-wave (km/s) = 4.22088 5.42256 4.85901
#
# Compressibility (1/GPa) = 0.07221960
#
# Stress axis : x y z
#
# Youngs Moduli (GPa) = 64.86496 56.76142 41.37338
#
# Poissons Ratio (x) = -0.08199 -0.02989
# Poissons Ratio (y) = -0.09370 -0.22097
# Poissons Ratio (z) = -0.04686 -0.30315
#
# Static dielectric constant tensor:
#      x y z
#    x 1.936020 0.000000 0.027450 
#    y 0.000000 1.829200 0.000000 
#    z 0.027450 0.000000 1.793870 
# 
# From -- ./inp_files/88756.got.cif
#   From: 2010.05.17/outbox.cif.g08.bks.cpg/sg13_45_cif.got.tgz:88756.got - 2010.06.03 16:44:36.
