data_PCOD9233217
_publ_section_title
;
Structure prediction by ZEFSAII (Michael W. Deem and Ramdas Pophale) SiO2 
 PCOD9233217
Probable space group: P 2/C
;
_chemical_formula_sum "Si O2"
_cell_formula_units_Z 26
_cell_length_a 14.483054
_cell_length_b 6.314526
_cell_length_c 14.374900
_cell_angle_alpha 90.000000
_cell_angle_beta 88.043856
_cell_angle_gamma 90.000000
_cell_volume 1313.870549
_symmetry_space_group_name_H-M "P 2/C"
_symmetry_group_IT_number 13
_symmetry_cell_setting 'monoclinic'
loop_
_space_group_symop_operation_xyz
x,y,z
-x,y,1/2-z
-x,-y,-z
x,-y,1/2+z
loop_
_atom_site_type_symbol
_atom_site_label
_atom_site_fract_x
_atom_site_fract_y
_atom_site_fract_z
Si Si1 0.643590 0.840943 0.176169
Si Si2 0.500000 0.154905 0.250000
Si Si3 0.926048 0.690147 0.998463
Si Si4 0.224796 0.218846 0.320624
Si Si5 0.282756 0.527887 0.476593
Si Si6 0.971429 0.041275 0.148704
Si Si7 0.346989 0.530919 0.680689
O O1 0.631310 0.678900 0.261612
O O2 0.559161 0.004356 0.180375
O O3 0.733618 0.984817 0.191359
O O4 0.660535 0.703245 0.083681
O O5 0.570740 0.302905 0.303682
O O6 0.943220 0.844728 0.085297
O O7 0.821578 0.609646 0.003611
O O8 0.000000 0.500000 0.000000
O O9 0.948251 0.831431 0.907035
O O10 0.271678 0.325943 0.409483
O O11 0.116219 0.197409 0.338556
O O12 0.257396 0.361740 0.233022
O O13 0.328856 0.486489 0.573946
O O14 0.000000 0.971467 0.250000
#
# Coordination Sequence:
#
# PCOD9233217 Si02
#       7
#     4   2   4   4   4   4   4
#     4  10  22  42  65  89 131 155 202 267 302 383
#     4  10  22  44  66  96 122 158 208 252 320 390
#     4  11  23  40  60  93 132 163 216 263 297 373
#     4  10  21  40  60  91 124 165 211 252 307 371
#     4  11  22  41  64  93 127 167 207 260 316 361
#     4  11  23  39  61  88 125 170 211 259 312 360
#     4  10  23  40  67  92 123 165 204 255 319 378
#
# _framework density 19.788858999999999
#
# number of rings (size 3 to 8) (size 9 to 14) (size 15 to 20)
#    0.000    1.538    3.077    1.385    0.000    4.923 
#    0.000   10.769    0.000    0.000    0.000    0.000 
#    0.000    0.000    0.000    0.000    0.000    0.000 
#
# Total GULP energy -145290.758561 kJ/mol
# GULP energy per Si atom -5588.106098 kJ/mol
# Density = 1.974382 g / cm^3
# Si number density = 19.788859 Si / 1000 Ang^3
#
#
#
# Elastic Constant Matrix: (Units=GPa)
#
#
# Indices 1 2 3 4 5 6 
#
# 1 77.5154 24.3778 28.3705 0.0000 -12.8559 0.0000
# 2 24.3778 72.2696 17.4107 0.0000 0.3205 0.0000
# 3 28.3705 17.4107 108.7178 0.0000 10.4705 0.0000
# 4 0.0000 0.0000 0.0000 12.8152 0.0000 -7.2786
# 5 -12.8559 0.3205 10.4705 0.0000 20.4649 0.0000
# 6 0.0000 0.0000 0.0000 -7.2786 0.0000 22.1405
#
#
#
# Elastic Compliance Matrix: (Units=1/GPa)
#
#
# Indices 1 2 3 4 5 6 
#
# 1 0.019027 -0.005141 -0.005575 0.000000 0.014886 0.000000
# 2 -0.005141 0.015801 -0.000898 0.000000 -0.003017 0.000000
# 3 -0.005575 -0.000898 0.011710 0.000000 -0.009480 0.000000
# 4 0.000000 0.000000 0.000000 0.095947 0.000000 0.031542
# 5 0.014886 -0.003017 -0.009480 0.000000 0.063113 0.000000
# 6 0.000000 0.000000 0.000000 0.031542 0.000000 0.055535
#
#
# Mechanical properties :
#
#
# Convention : Reuss Voigt Hill
#
# Bulk Modulus (GPa) = 42.90311 44.31343 43.60827
# Shear Modulus (GPa) = 17.11559 23.64038 20.37798
#
# Velocity S-wave (km/s) = 2.94413 3.46009 3.21249
# Velocity P-wave (km/s) = 5.76929 6.19715 5.98704
#
# Compressibility (1/GPa) = 0.02330833
#
# Stress axis : x y z
#
# Youngs Moduli (GPa) = 52.55746 63.28723 85.39779
#
# Poissons Ratio (x) = 0.32535 0.47613
# Poissons Ratio (y) = 0.27019 0.07672
# Poissons Ratio (z) = 0.29303 0.05685
#
# Static dielectric constant tensor:
#      x y z
#    x 1.691810 0.000000 -0.031710 
#    y 0.000000 1.686330 0.000000 
#    z -0.031710 0.000000 1.668210 
# 
# From -- ./inp_files/52197.got.cif
#   From: 2010.05.17/outbox.cif.g08.bks.cpg/sg13_27_cif.got.tgz:52197.got - 2010.06.03 16:44:36.
