data_PCOD9233104
_publ_section_title
;
Structure prediction by ZEFSAII (Michael W. Deem and Ramdas Pophale) SiO2 
 PCOD9233104
Probable space group: P 2/C
;
_chemical_formula_sum "Si O2"
_cell_formula_units_Z 18
_cell_length_a 7.771027
_cell_length_b 19.321512
_cell_length_c 5.565032
_cell_angle_alpha 90.000000
_cell_angle_beta 61.132449
_cell_angle_gamma 90.000000
_cell_volume 731.747812
_symmetry_space_group_name_H-M "P 2/C"
_symmetry_group_IT_number 13
_symmetry_cell_setting 'monoclinic'
loop_
_space_group_symop_operation_xyz
x,y,z
-x,y,1/2-z
-x,-y,-z
x,-y,1/2+z
loop_
_atom_site_type_symbol
_atom_site_label
_atom_site_fract_x
_atom_site_fract_y
_atom_site_fract_z
Si Si1 0.260667 0.964062 0.927741
Si Si2 0.186911 0.677401 0.796456
Si Si3 0.776373 0.526249 0.623301
Si Si4 0.280587 0.191133 0.510270
Si Si5 0.500000 0.260416 0.750000
O O1 0.500000 0.965610 0.750000
O O2 0.201536 0.884390 0.006775
O O3 0.200603 0.994988 0.710288
O O4 0.218448 0.608211 0.927270
O O5 0.163451 0.746693 0.967494
O O6 0.384959 0.691550 0.512825
O O7 0.000000 0.666832 0.750000
O O8 0.693335 0.487738 0.446289
O O9 0.000000 0.500000 0.500000
O O10 0.500000 0.191945 0.250000
O O11 0.332100 0.211309 0.748382
#
# Coordination Sequence:
#
# PCOD9233104 Si02
#       5
#     4   4   4   4   2
#     4   9  18  30  56  89 127 171 217 266 327 384
#     4  11  23  41  68  94 129 175 219 271 336 394
#     4  10  21  39  65  95 128 166 217 273 327 391
#     4   9  21  37  59  93 131 169 222 272 321 394
#     4  10  24  40  62  94 136 166 226 276 324 392
#
# _framework density 24.598637
#
# number of rings (size 3 to 8) (size 9 to 14) (size 15 to 20)
#    0.000    2.222    2.222    0.000   14.000    0.889 
#    0.000    1.111    0.000    1.333    0.000    0.000 
#    0.000    0.000    0.000    0.000    0.000    0.000 
#
# Total GULP energy -100668.050139 kJ/mol
# GULP energy per Si atom -5592.669452 kJ/mol
# Density = 2.454265 g / cm^3
# Si number density = 24.598637 Si / 1000 Ang^3
#
#
#
# Elastic Constant Matrix: (Units=GPa)
#
#
# Indices 1 2 3 4 5 6 
#
# 1 90.4477 25.6202 24.4985 0.0000 5.5382 0.0000
# 2 25.6202 193.6483 36.3865 0.0000 13.6628 0.0000
# 3 24.4985 36.3865 119.7261 0.0000 5.1029 0.0000
# 4 0.0000 0.0000 0.0000 33.4520 0.0000 7.9915
# 5 5.5382 13.6628 5.1029 0.0000 36.0188 0.0000
# 6 0.0000 0.0000 0.0000 7.9915 0.0000 24.2546
#
#
#
# Elastic Compliance Matrix: (Units=1/GPa)
#
#
# Indices 1 2 3 4 5 6 
#
# 1 0.012002 -0.001120 -0.002068 0.000000 -0.001128 0.000000
# 2 -0.001120 0.005707 -0.001429 0.000000 -0.001790 0.000000
# 3 -0.002068 -0.001429 0.009229 0.000000 -0.000448 0.000000
# 4 0.000000 0.000000 0.000000 0.032448 0.000000 -0.010691
# 5 -0.001128 -0.001790 -0.000448 0.000000 0.028679 0.000000
# 6 0.000000 0.000000 0.000000 -0.010691 0.000000 0.044752
#
#
# Mechanical properties :
#
#
# Convention : Reuss Voigt Hill
#
# Bulk Modulus (GPa) = 56.47997 64.09248 60.28622
# Shear Modulus (GPa) = 33.79489 39.89952 36.84721
#
# Velocity S-wave (km/s) = 3.71057 4.03180 3.87452
# Velocity P-wave (km/s) = 6.43182 6.91273 6.67660
#
# Compressibility (1/GPa) = 0.01770539
#
# Stress axis : x y z
#
# Youngs Moduli (GPa) = 83.31669 175.22418 108.35625
#
# Poissons Ratio (x) = 0.19623 0.22403
# Poissons Ratio (y) = 0.09331 0.15484
# Poissons Ratio (z) = 0.17226 0.25039
#
# Static dielectric constant tensor:
#      x y z
#    x 2.018330 0.000000 0.005550 
#    y 0.000000 1.889820 0.000000 
#    z 0.005550 0.000000 1.949780 
# 
# From -- ./inp_files/1500.got.cif
#   From: 2010.05.17/outbox.cif.g08.bks.cpg/sg13_1_cif.got.tgz:1500.got - 2010.06.03 16:44:36.
