data_PCOD9233730
_publ_section_title
;
Structure prediction by ZEFSAII (Michael W. Deem and Ramdas Pophale) SiO2 
 PCOD9233730
Probable space group: P 2/C
;
_chemical_formula_sum "Si O2"
_cell_formula_units_Z 32
_cell_length_a 8.770734
_cell_length_b 16.019070
_cell_length_c 19.988015
_cell_angle_alpha 90.000000
_cell_angle_beta 142.593152
_cell_angle_gamma 90.000000
_cell_volume 1705.957868
_symmetry_space_group_name_H-M "P 2/C"
_symmetry_group_IT_number 13
_symmetry_cell_setting 'monoclinic'
loop_
_space_group_symop_operation_xyz
x,y,z
-x,y,1/2-z
-x,-y,-z
x,-y,1/2+z
loop_
_atom_site_type_symbol
_atom_site_label
_atom_site_fract_x
_atom_site_fract_y
_atom_site_fract_z
Si Si1 0.053881 0.557778 0.082679
Si Si2 0.247734 0.889863 0.880836
Si Si3 0.266910 0.972913 0.503596
Si Si4 0.299569 0.272687 0.620157
Si Si5 0.285961 0.598671 0.729204
Si Si6 0.231058 0.709262 0.945765
Si Si7 0.522521 0.580025 0.959161
Si Si8 0.766187 0.089900 0.878614
O O1 0.156568 0.644150 0.091139
O O2 0.221787 0.496198 0.185292
O O3 0.000000 0.500000 0.000000
O O4 0.811432 0.581085 0.040313
O O5 0.215197 0.799555 0.904707
O O6 0.000000 0.904268 0.750000
O O7 0.269407 0.957957 0.946863
O O8 0.503307 0.907994 0.927162
O O9 0.992404 0.932093 0.408127
O O10 0.270467 0.022871 0.574997
O O11 0.500000 0.265780 0.750000
O O12 0.362935 0.285249 0.564374
O O13 0.167014 0.182516 0.572111
O O14 0.500000 0.627696 0.750000
O O15 0.382785 0.587406 0.838685
O O16 0.039082 0.659687 0.641614
O O17 0.410313 0.654872 0.962151
O O18 0.500000 0.500000 0.000000
O O19 0.500000 0.092168 0.750000
#
# Coordination Sequence:
#
# PCOD9233730 Si02
#       8
#     4   4   4   4   4   4   4   4
#     4  12  23  41  66  91 124 169 223 264 318 391
#     4  11  23  42  66  96 135 171 207 270 335 394
#     4  10  22  41  70  96 130 165 215 265 327 402
#     4  11  24  43  67  90 131 168 214 270 319 388
#     4  12  24  43  67  91 127 177 219 271 326 383
#     4  12  25  45  62  99 132 167 220 272 330 387
#     4  12  25  41  64  92 132 168 214 276 321 384
#     4  10  21  42  68  97 127 167 216 265 323 395
#
# _framework density 18.75779
#
# number of rings (size 3 to 8) (size 9 to 14) (size 15 to 20)
#    0.000    0.750    5.000    2.250    3.500    0.000 
#    2.250    0.625    0.000    0.000    0.000    0.000 
#    0.000    0.000    0.000    0.000    0.000    0.000 
#
# Total GULP energy -178313.123368 kJ/mol
# GULP energy per Si atom -5572.285105 kJ/mol
# Density = 1.871510 g / cm^3
# Si number density = 18.757790 Si / 1000 Ang^3
#
#
#
# Elastic Constant Matrix: (Units=GPa)
#
#
# Indices 1 2 3 4 5 6 
#
# 1 124.2804 55.4283 29.8624 0.0000 18.7292 0.0000
# 2 55.4283 98.1056 22.1761 0.0000 13.1320 0.0000
# 3 29.8624 22.1761 60.4805 0.0000 6.4811 0.0000
# 4 0.0000 0.0000 0.0000 -8.7931 0.0000 11.6235
# 5 18.7292 13.1320 6.4811 0.0000 34.3512 0.0000
# 6 0.0000 0.0000 0.0000 11.6235 0.0000 32.0731
#
#
#
# Elastic Compliance Matrix: (Units=1/GPa)
#
#
# Indices 1 2 3 4 5 6 
#
# 1 0.011859 -0.005415 -0.003469 0.000000 -0.003741 0.000000
# 2 -0.005415 0.014028 -0.002257 0.000000 -0.001985 0.000000
# 3 -0.003469 -0.002257 0.019167 0.000000 -0.000862 0.000000
# 4 0.000000 0.000000 0.000000 -0.076891 0.000000 0.027866
# 5 -0.003741 -0.001985 -0.000862 0.000000 0.032072 0.000000
# 6 0.000000 0.000000 0.000000 0.027866 0.000000 0.021080
#
#
# Mechanical properties :
#
#
# Convention : Reuss Voigt Hill
#
# Bulk Modulus (GPa) = 43.91433 55.31111 49.61272
# Shear Modulus (GPa) = 97.67717 23.21956 60.44837
#
# Velocity S-wave (km/s) = 7.22398 3.52214 5.68293
# Velocity P-wave (km/s) = 9.64589 6.78909 8.34071
#
# Compressibility (1/GPa) = 0.02277161
#
# Stress axis : x y z
#
# Youngs Moduli (GPa) = 84.32605 71.28355 52.17285
#
# Poissons Ratio (x) = 0.38601 0.18098
# Poissons Ratio (y) = 0.45664 0.11777
# Poissons Ratio (z) = 0.29251 0.16091
#
# Static dielectric constant tensor:
#      x y z
#    x 1.669950 0.000000 -0.035930 
#    y 0.000000 1.713780 0.000000 
#    z -0.035930 0.000000 1.736310 
# 
# From -- ./inp_files/76626.got.cif
#   From: 2010.05.17/outbox.cif.g08.bks.cpg/sg13_39_cif.got.tgz:76626.got - 2010.06.03 16:44:36.
