data_PCOD9233193
_publ_section_title
;
Structure prediction by ZEFSAII (Michael W. Deem and Ramdas Pophale) SiO2 
 PCOD9233193
Probable space group: P 2/C
;
_chemical_formula_sum "Si O2"
_cell_formula_units_Z 20
_cell_length_a 8.664350
_cell_length_b 16.977022
_cell_length_c 8.665553
_cell_angle_alpha 90.000000
_cell_angle_beta 129.629394
_cell_angle_gamma 90.000000
_cell_volume 981.724150
_symmetry_space_group_name_H-M "P 2/C"
_symmetry_group_IT_number 13
_symmetry_cell_setting 'monoclinic'
loop_
_space_group_symop_operation_xyz
x,y,z
-x,y,1/2-z
-x,-y,-z
x,-y,1/2+z
loop_
_atom_site_type_symbol
_atom_site_label
_atom_site_fract_x
_atom_site_fract_y
_atom_site_fract_z
Si Si1 0.279830 0.095286 0.394763
Si Si2 0.710878 0.242829 0.307798
Si Si3 0.284363 0.423743 0.192295
Si Si4 0.000000 0.188692 0.750000
Si Si5 0.256110 0.932688 0.220615
Si Si6 0.000000 0.517181 0.250000
O O1 0.243744 0.179606 0.295678
O O2 0.512672 0.085626 0.591785
O O3 0.184312 0.082223 0.500765
O O4 0.231566 0.023994 0.248660
O O5 0.500000 0.218064 0.250000
O O6 0.689343 0.332903 0.241326
O O7 0.877973 0.238009 0.546894
O O8 0.500000 0.448889 0.250000
O O9 0.173155 0.469092 0.263752
O O10 0.122637 0.432743 0.952549
O O11 0.856002 0.129183 0.746061
#
# Coordination Sequence:
#
# PCOD9233193 Si02
#       6
#     4   4   4   2   4   2
#     4  10  21  40  57  83 122 159 202 258 305 355
#     4  11  23  40  61  90 127 158 195 258 311 360
#     4  10  22  40  67  95 129 164 204 253 318 367
#     4  12  23  38  61  88 116 164 212 248 305 366
#     4  10  22  36  61  84 115 164 211 251 301 358
#     4  10  21  42  67  96 124 164 210 252 297 400
#
# _framework density 20.372322
#
# number of rings (size 3 to 8) (size 9 to 14) (size 15 to 20)
#    0.000    1.600    2.000    2.400    2.800    5.600 
#    0.000    0.000    4.400    0.000    0.000    0.000 
#    0.000    0.000    0.000    0.000    0.000    0.000 
#
# Total GULP energy -111607.917696 kJ/mol
# GULP energy per Si atom -5580.395885 kJ/mol
# Density = 2.032595 g / cm^3
# Si number density = 20.372322 Si / 1000 Ang^3
#
#
#
# Elastic Constant Matrix: (Units=GPa)
#
#
# Indices 1 2 3 4 5 6 
#
# 1 95.3455 31.7045 19.9896 0.0000 5.7209 0.0000
# 2 31.7045 80.2793 23.7354 0.0000 -12.7864 0.0000
# 3 19.9896 23.7354 86.0098 0.0000 -8.0648 0.0000
# 4 0.0000 0.0000 0.0000 24.0312 0.0000 -1.6724
# 5 5.7209 -12.7864 -8.0648 0.0000 43.8285 0.0000
# 6 0.0000 0.0000 0.0000 -1.6724 0.0000 15.0786
#
#
#
# Elastic Compliance Matrix: (Units=1/GPa)
#
#
# Indices 1 2 3 4 5 6 
#
# 1 0.012771 -0.005036 -0.001905 0.000000 -0.003487 0.000000
# 2 -0.005036 0.016042 -0.002805 0.000000 0.004821 0.000000
# 3 -0.001905 -0.002805 0.013015 0.000000 0.001825 0.000000
# 4 0.000000 0.000000 0.000000 0.041936 0.000000 0.004651
# 5 -0.003487 0.004821 0.001825 0.000000 0.025014 0.000000
# 6 0.000000 0.000000 0.000000 0.004651 0.000000 0.066835
#
#
# Mechanical properties :
#
#
# Convention : Reuss Voigt Hill
#
# Bulk Modulus (GPa) = 44.76953 45.83261 45.30107
# Shear Modulus (GPa) = 24.68515 29.00131 26.84323
#
# Velocity S-wave (km/s) = 3.48473 3.77711 3.63386
# Velocity P-wave (km/s) = 6.18178 6.44736 6.31597
#
# Compressibility (1/GPa) = 0.02233662
#
# Stress axis : x y z
#
# Youngs Moduli (GPa) = 78.30017 62.33486 76.83703
#
# Poissons Ratio (x) = 0.31390 0.14641
# Poissons Ratio (y) = 0.39430 0.21550
# Poissons Ratio (z) = 0.14920 0.17483
#
# Static dielectric constant tensor:
#      x y z
#    x 1.781750 0.000000 0.039440 
#    y 0.000000 1.668040 0.000000 
#    z 0.039440 0.000000 1.702980 
# 
# From -- ./inp_files/13039.got.cif
#   From: 2010.05.17/outbox.cif.g08.bks.cpg/sg13_7_cif.got.tgz:13039.got - 2010.06.03 16:44:36.
