data_PCOD9233862
_publ_section_title
;
Structure prediction by ZEFSAII (Michael W. Deem and Ramdas Pophale) SiO2 
 PCOD9233862
Probable space group: P 2/C
;
_chemical_formula_sum "Si O2"
_cell_formula_units_Z 16
_cell_length_a 5.323624
_cell_length_b 17.673053
_cell_length_c 8.222355
_cell_angle_alpha 90.000000
_cell_angle_beta 61.429900
_cell_angle_gamma 90.000000
_cell_volume 679.398780
_symmetry_space_group_name_H-M "P 2/C"
_symmetry_group_IT_number 13
_symmetry_cell_setting 'monoclinic'
loop_
_space_group_symop_operation_xyz
x,y,z
-x,y,1/2-z
-x,-y,-z
x,-y,1/2+z
loop_
_atom_site_type_symbol
_atom_site_label
_atom_site_fract_x
_atom_site_fract_y
_atom_site_fract_z
Si Si1 0.182531 0.795281 0.861380
Si Si2 0.213587 0.049375 0.540126
Si Si3 0.087803 0.349910 0.951803
Si Si4 0.426071 0.587791 0.027270
O O1 0.500000 0.759488 0.750000
O O2 0.000000 0.807216 0.750000
O O3 0.257358 0.873712 0.927802
O O4 0.990396 0.738321 0.028724
O O5 0.000000 0.071183 0.750000
O O6 0.500000 0.000000 0.500000
O O7 0.000000 0.000000 0.500000
O O8 0.283712 0.365658 0.045919
O O9 0.254776 0.383232 0.742837
O O10 0.792044 0.394951 0.048438
O O11 0.500000 0.500000 0.000000
#
# Coordination Sequence:
#
# PCOD9233862 Si02
#       4
#     4   4   4   4
#     4  12  26  48  72 106 155 195 245 309 366 441
#     4  12  26  47  78 111 149 194 246 302 373 449
#     4  10  23  43  67 101 138 185 246 291 377 433
#     4  10  21  43  69  95 138 179 240 309 363 442
#
# _framework density 23.550232999999999
#
# number of rings (size 3 to 8) (size 9 to 14) (size 15 to 20)
#    0.000    1.000    0.000    6.750    3.500    0.000 
#   31.500    0.000    0.000    0.000    0.000    0.000 
#    0.000    0.000    0.000    0.000    0.000    0.000 
#
# Total GULP energy -89292.265288 kJ/mol
# GULP energy per Si atom -5580.766581 kJ/mol
# Density = 2.349663 g / cm^3
# Si number density = 23.550233 Si / 1000 Ang^3
#
#
#
# Elastic Constant Matrix: (Units=GPa)
#
#
# Indices 1 2 3 4 5 6 
#
# 1 227.8316 57.4653 46.8146 0.0000 -37.6757 0.0000
# 2 57.4653 180.5093 54.4693 0.0000 -14.5704 0.0000
# 3 46.8146 54.4693 124.0629 0.0000 -4.1975 0.0000
# 4 0.0000 0.0000 0.0000 45.2320 0.0000 -5.8576
# 5 -37.6757 -14.5704 -4.1975 0.0000 37.4825 0.0000
# 6 0.0000 0.0000 0.0000 -5.8576 0.0000 46.0160
#
#
#
# Elastic Compliance Matrix: (Units=1/GPa)
#
#
# Indices 1 2 3 4 5 6 
#
# 1 0.005838 -0.000944 -0.001609 0.000000 0.005321 0.000000
# 2 -0.000944 0.006720 -0.002548 0.000000 0.001379 0.000000
# 3 -0.001609 -0.002548 0.009735 0.000000 -0.001517 0.000000
# 4 0.000000 0.000000 0.000000 0.022479 0.000000 0.002861
# 5 0.005321 0.001379 -0.001517 0.000000 0.032393 0.000000
# 6 0.000000 0.000000 0.000000 0.002861 0.000000 0.022096
#
#
# Mechanical properties :
#
#
# Convention : Reuss Voigt Hill
#
# Bulk Modulus (GPa) = 82.69370 94.43357 88.56364
# Shear Modulus (GPa) = 44.05620 50.65640 47.35630
#
# Velocity S-wave (km/s) = 4.32989 4.64291 4.48913
# Velocity P-wave (km/s) = 7.75804 8.30229 8.03478
#
# Compressibility (1/GPa) = 0.01209282
#
# Stress axis : x y z
#
# Youngs Moduli (GPa) = 171.30371 148.80138 102.72537
#
# Poissons Ratio (x) = 0.14040 0.16523
# Poissons Ratio (y) = 0.16163 0.26173
# Poissons Ratio (z) = 0.27554 0.37913
#
# Static dielectric constant tensor:
#      x y z
#    x 2.031800 0.000000 -0.039010 
#    y 0.000000 2.887520 0.000000 
#    z -0.039010 0.000000 1.845580 
# 
# From -- ./inp_files/26008.got.cif
#   From: 2010.05.17/outbox.cif.g08.bks.cpg/sg13_14_cif.got.tgz:26008.got - 2010.06.03 16:44:36.
