data_PCOD9233651
_publ_section_title
;
Structure prediction by ZEFSAII (Michael W. Deem and Ramdas Pophale) SiO2 
 PCOD9233651
Probable space group: P 2/C
;
_chemical_formula_sum "Si O2"
_cell_formula_units_Z 32
_cell_length_a 6.773275
_cell_length_b 14.520650
_cell_length_c 17.643854
_cell_angle_alpha 90.000000
_cell_angle_beta 87.457304
_cell_angle_gamma 90.000000
_cell_volume 1733.606081
_symmetry_space_group_name_H-M "P 2/C"
_symmetry_group_IT_number 13
_symmetry_cell_setting 'monoclinic'
loop_
_space_group_symop_operation_xyz
x,y,z
-x,y,1/2-z
-x,-y,-z
x,-y,1/2+z
loop_
_atom_site_type_symbol
_atom_site_label
_atom_site_fract_x
_atom_site_fract_y
_atom_site_fract_z
Si Si1 0.620658 0.582857 0.456505
Si Si2 0.940490 0.647040 0.573570
Si Si3 0.777851 0.021199 0.423505
Si Si4 0.394736 0.015813 0.331531
Si Si5 0.936046 0.164778 0.165413
Si Si6 0.976544 0.463858 0.840583
Si Si7 0.121147 0.111125 0.918918
Si Si8 0.774704 0.323518 0.564264
O O1 0.500000 0.500000 0.500000
O O2 0.765168 0.626224 0.517317
O O3 0.760965 0.551995 0.383807
O O4 0.457526 0.656228 0.432148
O O5 0.922317 0.744089 0.615487
O O6 0.953699 0.564096 0.632511
O O7 0.137669 0.648000 0.519041
O O8 0.561180 0.015141 0.393269
O O9 0.792167 0.060850 0.507797
O O10 0.903073 0.094108 0.371578
O O11 0.895070 0.924057 0.419091
O O12 0.500000 0.005336 0.250000
O O13 0.269661 0.109769 0.333897
O O14 0.239972 0.933920 0.347937
O O15 0.000000 0.186471 0.250000
O O16 0.000000 0.456960 0.750000
O O17 0.119111 0.388858 0.876925
O O18 0.159285 0.218778 0.923669
#
# Coordination Sequence:
#
# PCOD9233651 Si02
#       8
#     4   4   4   4   4   4   4   4
#     4  11  21  42  69  91 122 169 213 261 315 381
#     4  11  22  39  67  93 127 165 210 260 327 381
#     4  10  21  42  63  88 127 160 207 258 311 375
#     4  11  23  40  61  91 128 168 207 257 317 378
#     4  11  22  38  62  94 129 165 200 259 323 381
#     4  11  24  43  63  93 131 169 208 264 324 382
#     4  10  23  39  65  91 120 166 212 260 308 374
#     4  11  22  43  65  94 123 166 215 265 314 380
#
# _framework density 18.458632999999999
#
# number of rings (size 3 to 8) (size 9 to 14) (size 15 to 20)
#    0.000    1.250    5.000    1.500    1.750    2.500 
#    4.500    0.000    0.000    0.000    0.000    0.000 
#    0.000    0.000    0.000    0.000    0.000    0.000 
#
# Total GULP energy -178710.591237 kJ/mol
# GULP energy per Si atom -5584.705976 kJ/mol
# Density = 1.841662 g / cm^3
# Si number density = 18.458633 Si / 1000 Ang^3
#
#
#
# Elastic Constant Matrix: (Units=GPa)
#
#
# Indices 1 2 3 4 5 6 
#
# 1 90.6403 19.6280 33.2154 0.0000 3.7231 0.0000
# 2 19.6280 91.8591 23.1629 0.0000 2.0450 0.0000
# 3 33.2154 23.1629 105.4940 0.0000 -11.6508 0.0000
# 4 0.0000 0.0000 0.0000 22.9152 0.0000 2.0087
# 5 3.7231 2.0450 -11.6508 0.0000 26.0902 0.0000
# 6 0.0000 0.0000 0.0000 2.0087 0.0000 17.3339
#
#
#
# Elastic Compliance Matrix: (Units=1/GPa)
#
#
# Indices 1 2 3 4 5 6 
#
# 1 0.013058 -0.001666 -0.004141 0.000000 -0.003582 0.000000
# 2 -0.001666 0.011851 -0.002266 0.000000 -0.001703 0.000000
# 3 -0.004141 -0.002266 0.011955 0.000000 0.006107 0.000000
# 4 0.000000 0.000000 0.000000 0.044087 0.000000 -0.005109
# 5 -0.003582 -0.001703 0.006107 0.000000 0.041700 0.000000
# 6 0.000000 0.000000 0.000000 -0.005109 0.000000 0.058282
#
#
# Mechanical properties :
#
#
# Convention : Reuss Voigt Hill
#
# Bulk Modulus (GPa) = 48.26596 48.88956 48.57776
# Shear Modulus (GPa) = 24.51141 27.40035 25.95588
#
# Velocity S-wave (km/s) = 3.64800 3.85700 3.75395
# Velocity P-wave (km/s) = 6.62939 6.81019 6.72040
#
# Compressibility (1/GPa) = 0.02071853
#
# Stress axis : x y z
#
# Youngs Moduli (GPa) = 76.58068 84.37770 83.64685
#
# Poissons Ratio (x) = 0.14059 0.34640
# Poissons Ratio (y) = 0.12760 0.18951
# Poissons Ratio (z) = 0.31713 0.19117
#
# Static dielectric constant tensor:
#      x y z
#    x 1.642790 0.000000 -0.012360 
#    y 0.000000 1.623710 0.000000 
#    z -0.012360 0.000000 1.634820 
# 
# From -- ./inp_files/61601.got.cif
#   From: 2010.05.17/outbox.cif.g08.bks.cpg/sg13_31_cif.got.tgz:61601.got - 2010.06.03 16:44:36.
