data_PCOD9233598
_publ_section_title
;
Structure prediction by ZEFSAII (Michael W. Deem and Ramdas Pophale) SiO2 
 PCOD9233598
Probable space group: P 2/C
;
_chemical_formula_sum "Si O2"
_cell_formula_units_Z 20
_cell_length_a 7.679969
_cell_length_b 25.948294
_cell_length_c 5.106195
_cell_angle_alpha 90.000000
_cell_angle_beta 65.752239
_cell_angle_gamma 90.000000
_cell_volume 927.800979
_symmetry_space_group_name_H-M "P 2/C"
_symmetry_group_IT_number 13
_symmetry_cell_setting 'monoclinic'
loop_
_space_group_symop_operation_xyz
x,y,z
-x,y,1/2-z
-x,-y,-z
x,-y,1/2+z
loop_
_atom_site_type_symbol
_atom_site_label
_atom_site_fract_x
_atom_site_fract_y
_atom_site_fract_z
Si Si1 0.772031 0.468945 0.910719
Si Si2 0.500000 0.620124 0.750000
Si Si3 0.708357 0.878949 0.064877
Si Si4 0.500000 0.694326 0.250000
Si Si5 0.000000 0.814217 0.250000
Si Si6 0.000000 0.036392 0.250000
Si Si7 0.312617 0.772035 0.694903
O O1 0.718018 0.485907 0.650493
O O2 0.000000 0.463130 0.750000
O O3 0.676845 0.418318 0.089495
O O4 0.504200 0.656508 0.494598
O O5 0.500000 0.900706 0.250000
O O6 0.846986 0.851942 0.198123
O O7 0.824121 0.924326 0.859807
O O8 0.661072 0.830137 0.915204
O O9 0.327582 0.733548 0.437535
O O10 0.881324 0.777400 0.520494
O O11 0.000000 0.000000 0.500000
O O12 0.500000 0.758817 0.750000
#
# Coordination Sequence:
#
# PCOD9233598 Si02
#       7
#     4   2   4   2   2   2   4
#     4  10  21  41  70 101 133 187 253 296 349 442
#     4  12  24  43  66 102 154 191 222 310 384 426
#     4  12  25  45  79 107 140 192 243 300 357 446
#     4  12  26  45  68 108 154 183 246 302 370 448
#     4  12  23  44  78 110 138 188 260 297 356 426
#     4  12  29  50  72 114 152 182 236 303 382 446
#     4  12  23  46  74 107 140 195 252 304 349 445
#
# _framework density 21.556349000000001
#
# number of rings (size 3 to 8) (size 9 to 14) (size 15 to 20)
#    0.000    0.400    6.000    2.400    0.000    0.800 
#    1.800    2.000    0.000    0.000    0.000    0.000 
#    0.000    0.000    0.000    0.000    0.000    0.000 
#
# Total GULP energy -111629.872345 kJ/mol
# GULP energy per Si atom -5581.493617 kJ/mol
# Density = 2.150729 g / cm^3
# Si number density = 21.556349 Si / 1000 Ang^3
#
#
#
# Elastic Constant Matrix: (Units=GPa)
#
#
# Indices 1 2 3 4 5 6 
#
# 1 94.6126 29.8611 53.4242 0.0000 -26.2278 0.0000
# 2 29.8611 145.8283 77.1497 0.0000 -10.7424 0.0000
# 3 53.4242 77.1497 176.3236 0.0000 -17.3829 0.0000
# 4 0.0000 0.0000 0.0000 96.0246 0.0000 -7.0442
# 5 -26.2278 -10.7424 -17.3829 0.0000 45.3696 0.0000
# 6 0.0000 0.0000 0.0000 -7.0442 0.0000 19.1618
#
#
#
# Elastic Compliance Matrix: (Units=1/GPa)
#
#
# Indices 1 2 3 4 5 6 
#
# 1 0.014676 -0.000653 -0.003471 0.000000 0.006999 0.000000
# 2 -0.000653 0.008970 -0.003694 0.000000 0.000331 0.000000
# 3 -0.003471 -0.003694 0.008372 0.000000 0.000326 0.000000
# 4 0.000000 0.000000 0.000000 0.010703 0.000000 0.003934
# 5 0.006999 0.000331 0.000326 0.000000 0.026291 0.000000
# 6 0.000000 0.000000 0.000000 0.003934 0.000000 0.053633
#
#
# Mechanical properties :
#
#
# Convention : Reuss Voigt Hill
#
# Bulk Modulus (GPa) = 61.04735 81.95938 71.50337
# Shear Modulus (GPa) = 34.78481 49.19983 41.99232
#
# Velocity S-wave (km/s) = 4.02141 4.78261 4.41843
# Velocity P-wave (km/s) = 7.06708 8.28259 7.69886
#
# Compressibility (1/GPa) = 0.01638073
#
# Stress axis : x y z
#
# Youngs Moduli (GPa) = 68.13968 111.48367 119.45269
#
# Poissons Ratio (x) = 0.07284 0.41458
# Poissons Ratio (y) = 0.04452 0.44128
# Poissons Ratio (z) = 0.23649 0.41184
#
# Static dielectric constant tensor:
#      x y z
#    x 1.962630 0.000000 -0.082090 
#    y 0.000000 1.899430 0.000000 
#    z -0.082090 0.000000 1.967690 
# 
# From -- ./inp_files/2017.got.cif
#   From: 2010.05.17/outbox.cif.g08.bks.cpg/sg13_2_cif.got.tgz:2017.got - 2010.06.03 16:44:36.
