data_PCOD9233520
_publ_section_title
;
Structure prediction by ZEFSAII (Michael W. Deem and Ramdas Pophale) SiO2 
 PCOD9233520
Probable space group: P 2/C
;
_chemical_formula_sum "Si O2"
_cell_formula_units_Z 30
_cell_length_a 16.255221
_cell_length_b 6.395438
_cell_length_c 12.930390
_cell_angle_alpha 90.000000
_cell_angle_beta 102.188558
_cell_angle_gamma 90.000000
_cell_volume 1313.932137
_symmetry_space_group_name_H-M "P 2/C"
_symmetry_group_IT_number 13
_symmetry_cell_setting 'monoclinic'
loop_
_space_group_symop_operation_xyz
x,y,z
-x,y,1/2-z
-x,-y,-z
x,-y,1/2+z
loop_
_atom_site_type_symbol
_atom_site_label
_atom_site_fract_x
_atom_site_fract_y
_atom_site_fract_z
Si Si1 0.345118 0.662599 0.970485
Si Si2 0.065993 0.007456 0.110524
Si Si3 0.709104 0.554845 0.242336
Si Si4 0.412567 0.876665 0.171725
Si Si5 0.116371 0.279191 0.798278
Si Si6 0.802029 0.972592 0.526776
Si Si7 0.675721 0.725854 0.904125
Si Si8 0.000000 0.645525 0.750000
O O1 0.406187 0.823266 0.046950
O O2 0.365436 0.457226 0.042452
O O3 0.249922 0.761304 0.961160
O O4 0.345463 0.579722 0.854067
O O5 0.154427 0.979785 0.073764
O O6 0.045919 0.209909 0.176073
O O7 0.065206 0.810976 0.187047
O O8 0.000000 0.000000 0.000000
O O9 0.656034 0.736203 0.285214
O O10 0.791141 0.649573 0.212270
O O11 0.734749 0.390525 0.337558
O O12 0.500000 0.837068 0.250000
O O13 0.385919 0.117813 0.170446
O O14 0.068976 0.490571 0.820671
O O15 0.132331 0.076385 0.875668
O O16 0.728883 0.142370 0.498600
#
# Coordination Sequence:
#
# PCOD9233520 Si02
#       8
#     4   4   4   4   4   4   4   2
#     4  10  23  42  69 105 134 178 230 283 341 415
#     4  12  27  44  64  96 137 182 227 287 349 413
#     4  11  24  41  73 101 136 180 237 283 348 416
#     4  10  24  44  67 102 143 181 227 285 347 411
#     4  12  26  44  71 103 134 182 235 291 352 412
#     4  11  24  41  70  97 136 172 233 287 339 410
#     4  10  21  41  65  98 132 178 220 285 337 407
#     4  12  28  46  68 100 140 182 232 286 358 414
#
# _framework density 22.832229999999999
#
# number of rings (size 3 to 8) (size 9 to 14) (size 15 to 20)
#    0.000    1.067    1.333    5.200    7.467    5.867 
#    0.000    1.333    0.000    0.000    0.000    0.000 
#    0.000    0.000    0.000    0.000    0.000    0.000 
#
# Total GULP energy -167323.097831 kJ/mol
# GULP energy per Si atom -5577.436594 kJ/mol
# Density = 2.278026 g / cm^3
# Si number density = 22.832230 Si / 1000 Ang^3
#
#
#
# Elastic Constant Matrix: (Units=GPa)
#
#
# Indices 1 2 3 4 5 6 
#
# 1 32.5888 17.0077 -1.1149 0.0000 18.3388 0.0000
# 2 17.0077 110.5858 29.6523 0.0000 -3.0418 0.0000
# 3 -1.1149 29.6523 99.2667 0.0000 10.2875 0.0000
# 4 0.0000 0.0000 0.0000 36.9259 0.0000 0.6756
# 5 18.3388 -3.0418 10.2875 0.0000 27.5839 0.0000
# 6 0.0000 0.0000 0.0000 0.6756 0.0000 14.8103
#
#
#
# Elastic Compliance Matrix: (Units=1/GPa)
#
#
# Indices 1 2 3 4 5 6 
#
# 1 0.066294 -0.014272 0.010130 0.000000 -0.049427 0.000000
# 2 -0.014272 0.013041 -0.005397 0.000000 0.012939 0.000000
# 3 0.010130 -0.005397 0.013064 0.000000 -0.012202 0.000000
# 4 0.000000 0.000000 0.000000 0.027104 0.000000 -0.001236
# 5 -0.049427 0.012939 -0.012202 0.000000 0.075091 0.000000
# 6 0.000000 0.000000 0.000000 -0.001236 0.000000 0.067577
#
#
# Mechanical properties :
#
#
# Convention : Reuss Voigt Hill
#
# Bulk Modulus (GPa) = 13.63837 37.05906 25.34871
# Shear Modulus (GPa) = 16.35652 28.99044 22.67348
#
# Velocity S-wave (km/s) = 2.67943 3.56717 3.15468
# Velocity P-wave (km/s) = 3.94445 5.76477 4.93919
#
# Compressibility (1/GPa) = 0.07332256
#
# Stress axis : x y z
#
# Youngs Moduli (GPa) = 15.08431 76.68330 76.54449
#
# Poissons Ratio (x) = 1.09440 -0.77540
# Poissons Ratio (y) = 0.21528 0.41308
# Poissons Ratio (z) = -0.15281 0.41383
#
# Static dielectric constant tensor:
#      x y z
#    x 1.911970 0.000000 -0.017000 
#    y 0.000000 1.885590 0.000000 
#    z -0.017000 0.000000 1.889240 
# 
# From -- ./inp_files/54689.got.cif
#   From: 2010.05.17/outbox.cif.g08.bks.cpg/sg13_28_cif.got.tgz:54689.got - 2010.06.03 16:44:36.
