data_PCOD9233041
_publ_section_title
;
Structure prediction by ZEFSAII (Michael W. Deem and Ramdas Pophale) SiO2 
 PCOD9233041
Probable space group: P 2/C
;
_chemical_formula_sum "Si O2"
_cell_formula_units_Z 24
_cell_length_a 22.491695
_cell_length_b 5.470144
_cell_length_c 17.775751
_cell_angle_alpha 90.000000
_cell_angle_beta 149.087573
_cell_angle_gamma 90.000000
_cell_volume 1123.522019
_symmetry_space_group_name_H-M "P 2/C"
_symmetry_group_IT_number 13
_symmetry_cell_setting 'monoclinic'
loop_
_space_group_symop_operation_xyz
x,y,z
-x,y,1/2-z
-x,-y,-z
x,-y,1/2+z
loop_
_atom_site_type_symbol
_atom_site_label
_atom_site_fract_x
_atom_site_fract_y
_atom_site_fract_z
Si Si1 0.076916 0.387979 0.277482
Si Si2 0.012986 0.992420 0.602731
Si Si3 0.188028 0.021883 0.513738
Si Si4 0.402020 0.734604 0.318497
Si Si5 0.461216 0.757018 0.555560
Si Si6 0.755659 0.232247 0.572515
O O1 0.110360 0.180227 0.373163
O O2 0.198033 0.494337 0.383038
O O3 0.000000 0.558504 0.250000
O O4 0.016208 0.285561 0.137590
O O5 0.134750 0.104772 0.764773
O O6 0.899192 0.100553 0.520940
O O7 0.000000 0.000000 0.500000
O O8 0.275484 0.201865 0.650833
O O9 0.253796 0.855059 0.524268
O O10 0.403889 0.714893 0.411070
O O11 0.457255 0.483333 0.346288
O O12 0.474015 0.981844 0.377626
O O13 0.362053 0.780928 0.510119
#
# Coordination Sequence:
#
# PCOD9233041 Si02
#       6
#     4   4   4   4   4   4
#     4   9  20  38  59  89 130 159 206 263 327 393
#     4  10  21  39  63  94 125 168 214 269 330 401
#     4  10  22  39  62  92 131 164 218 269 333 391
#     4  10  23  46  64  96 126 178 216 279 319 393
#     4  10  24  43  69  90 134 169 226 268 332 380
#     4  11  22  39  62  95 124 174 208 278 327 401
#
# _framework density 21.361398999999999
#
# number of rings (size 3 to 8) (size 9 to 14) (size 15 to 20)
#    0.000    2.000    0.000    3.500    7.000    1.333 
#    3.000    0.000    0.000    0.000    0.000    0.000 
#    0.000    0.000    0.000    0.000    0.000    0.000 
#
# Total GULP energy -133726.235745 kJ/mol
# GULP energy per Si atom -5571.926489 kJ/mol
# Density = 2.131278 g / cm^3
# Si number density = 21.361399 Si / 1000 Ang^3
#
#
#
# Elastic Constant Matrix: (Units=GPa)
#
#
# Indices 1 2 3 4 5 6 
#
# 1 152.1947 38.2169 31.7284 0.0000 -2.5378 0.0000
# 2 38.2169 70.5497 23.7991 0.0000 -5.5662 0.0000
# 3 31.7284 23.7991 98.9965 0.0000 -12.2546 0.0000
# 4 0.0000 0.0000 0.0000 29.9910 0.0000 7.1322
# 5 -2.5378 -5.5662 -12.2546 0.0000 30.9874 0.0000
# 6 0.0000 0.0000 0.0000 7.1322 0.0000 21.1083
#
#
#
# Elastic Compliance Matrix: (Units=1/GPa)
#
#
# Indices 1 2 3 4 5 6 
#
# 1 0.007852 -0.003733 -0.001706 0.000000 -0.000702 0.000000
# 2 -0.003733 0.017256 -0.002740 0.000000 0.001710 0.000000
# 3 -0.001706 -0.002740 0.011807 0.000000 0.004037 0.000000
# 4 0.000000 0.000000 0.000000 0.036257 0.000000 -0.012251
# 5 -0.000702 0.001710 0.004037 0.000000 0.034117 0.000000
# 6 0.000000 0.000000 0.000000 -0.012251 0.000000 0.051514
#
#
# Mechanical properties :
#
#
# Convention : Reuss Voigt Hill
#
# Bulk Modulus (GPa) = 48.64831 56.58108 52.61470
# Shear Modulus (GPa) = 27.47046 31.61710 29.54378
#
# Velocity S-wave (km/s) = 3.58996 3.85139 3.72297
# Velocity P-wave (km/s) = 6.32511 6.80607 6.57000
#
# Compressibility (1/GPa) = 0.02055570
#
# Stress axis : x y z
#
# Youngs Moduli (GPa) = 127.35736 57.95071 84.69808
#
# Poissons Ratio (x) = 0.21635 0.14449
# Poissons Ratio (y) = 0.47547 0.23209
# Poissons Ratio (z) = 0.21727 0.15880
#
# Static dielectric constant tensor:
#      x y z
#    x 1.800720 0.000000 0.059350 
#    y 0.000000 1.919400 0.000000 
#    z 0.059350 0.000000 1.779090 
# 
# From -- ./inp_files/70950.got.cif
#   From: 2010.05.17/outbox.cif.g08.bks.cpg/sg13_36_cif.got.tgz:70950.got - 2010.06.03 16:44:36.
