data_PCOD9233552
_publ_section_title
;
Structure prediction by ZEFSAII (Michael W. Deem and Ramdas Pophale) SiO2 
 PCOD9233552
Probable space group: P 2/C
;
_chemical_formula_sum "Si O2"
_cell_formula_units_Z 24
_cell_length_a 8.255994
_cell_length_b 8.630787
_cell_length_c 20.193090
_cell_angle_alpha 90.000000
_cell_angle_beta 128.647444
_cell_angle_gamma 90.000000
_cell_volume 1123.765211
_symmetry_space_group_name_H-M "P 2/C"
_symmetry_group_IT_number 13
_symmetry_cell_setting 'monoclinic'
loop_
_space_group_symop_operation_xyz
x,y,z
-x,y,1/2-z
-x,-y,-z
x,-y,1/2+z
loop_
_atom_site_type_symbol
_atom_site_label
_atom_site_fract_x
_atom_site_fract_y
_atom_site_fract_z
Si Si1 0.297662 0.106314 0.957557
Si Si2 0.000000 0.397453 0.250000
Si Si3 0.520991 0.364744 0.952380
Si Si4 0.369072 0.423003 0.775952
Si Si5 0.500000 0.119466 0.750000
Si Si6 0.083354 0.195937 0.394605
Si Si7 0.791630 0.088035 0.418577
O O1 0.327117 0.251597 0.917827
O O2 0.114371 0.988376 0.892960
O O3 0.295991 0.153497 0.034649
O O4 0.500000 0.000000 0.000000
O O5 0.839459 0.498481 0.251668
O O6 0.901598 0.284901 0.170236
O O7 0.514207 0.424325 0.876971
O O8 0.500000 0.500000 0.000000
O O9 0.728320 0.265824 0.015120
O O10 0.500000 0.499521 0.750000
O O11 0.346435 0.243527 0.746649
O O12 0.373764 0.020071 0.662925
O O13 0.876522 0.208559 0.385741
O O14 0.000000 0.000000 0.500000
#
# Coordination Sequence:
#
# PCOD9233552 Si02
#       7
#     4   2   4   4   2   4   4
#     4   9  20  38  67  94 131 175 228 285 345 434
#     4  12  24  44  62 106 134 186 232 300 342 432
#     4  11  21  44  69  95 136 186 229 291 361 430
#     4  10  25  44  68  97 144 178 243 286 362 425
#     4  10  22  44  68  98 146 192 228 304 368 426
#     4  10  23  41  66  97 138 169 237 286 354 429
#     4  10  21  41  67 101 133 174 238 289 353 435
#
# _framework density 21.356774000000001
#
# number of rings (size 3 to 8) (size 9 to 14) (size 15 to 20)
#    0.500    1.333    1.667    3.000    0.000    8.000 
#    1.500    1.667    0.000    0.000    0.000    0.000 
#    0.000    0.000    0.000    0.000    0.000    0.000 
#
# Total GULP energy -133730.607723 kJ/mol
# GULP energy per Si atom -5572.108655 kJ/mol
# Density = 2.130817 g / cm^3
# Si number density = 21.356774 Si / 1000 Ang^3
#
#
#
# Elastic Constant Matrix: (Units=GPa)
#
#
# Indices 1 2 3 4 5 6 
#
# 1 141.4966 43.0243 27.9743 0.0000 -32.8809 0.0000
# 2 43.0243 70.5566 21.3951 0.0000 -6.5969 0.0000
# 3 27.9743 21.3951 88.1858 0.0000 -21.8647 0.0000
# 4 0.0000 0.0000 0.0000 18.1044 0.0000 2.7708
# 5 -32.8809 -6.5969 -21.8647 0.0000 36.0290 0.0000
# 6 0.0000 0.0000 0.0000 2.7708 0.0000 29.6380
#
#
#
# Elastic Compliance Matrix: (Units=1/GPa)
#
#
# Indices 1 2 3 4 5 6 
#
# 1 0.010903 -0.005866 0.000195 0.000000 0.008994 0.000000
# 2 -0.005866 0.018468 -0.003659 0.000000 -0.004193 0.000000
# 3 0.000195 -0.003659 0.014177 0.000000 0.008111 0.000000
# 4 0.000000 0.000000 0.000000 0.056037 0.000000 -0.005239
# 5 0.008994 -0.004193 0.008111 0.000000 0.040118 0.000000
# 6 0.000000 0.000000 0.000000 -0.005239 0.000000 0.034230
#
#
# Mechanical properties :
#
#
# Convention : Reuss Voigt Hill
#
# Bulk Modulus (GPa) = 40.18423 53.89183 47.03803
# Shear Modulus (GPa) = 24.88933 30.61063 27.74998
#
# Velocity S-wave (km/s) = 3.41751 3.79000 3.60856
# Velocity P-wave (km/s) = 5.86762 6.66641 6.27973
#
# Compressibility (1/GPa) = 0.02488538
#
# Stress axis : x y z
#
# Youngs Moduli (GPa) = 91.72137 54.14835 70.53803
#
# Poissons Ratio (x) = 0.31765 -0.01373
# Poissons Ratio (y) = 0.53807 0.25811
# Poissons Ratio (z) = -0.01786 0.19814
#
# Static dielectric constant tensor:
#      x y z
#    x 1.760220 0.000000 -0.077490 
#    y 0.000000 1.875670 0.000000 
#    z -0.077490 0.000000 1.725380 
# 
# From -- ./inp_files/75780.got.cif
#   From: 2010.05.17/outbox.cif.g08.bks.cpg/sg13_38_cif.got.tgz:75780.got - 2010.06.03 16:44:36.
