data_PCOD9233671
_publ_section_title
;
Structure prediction by ZEFSAII (Michael W. Deem and Ramdas Pophale) SiO2 
 PCOD9233671
Probable space group: P 2/C
;
_chemical_formula_sum "Si O2"
_cell_formula_units_Z 32
_cell_length_a 13.123430
_cell_length_b 11.283943
_cell_length_c 10.409879
_cell_angle_alpha 90.000000
_cell_angle_beta 90.282496
_cell_angle_gamma 90.000000
_cell_volume 1541.518160
_symmetry_space_group_name_H-M "P 2/C"
_symmetry_group_IT_number 13
_symmetry_cell_setting 'monoclinic'
loop_
_space_group_symop_operation_xyz
x,y,z
-x,y,1/2-z
-x,-y,-z
x,-y,1/2+z
loop_
_atom_site_type_symbol
_atom_site_label
_atom_site_fract_x
_atom_site_fract_y
_atom_site_fract_z
Si Si1 0.203665 0.727197 0.654029
Si Si2 0.878719 0.749947 0.384852
Si Si3 0.068189 0.502596 0.127317
Si Si4 0.690975 0.105869 0.939297
Si Si5 0.582257 0.401024 0.366466
Si Si6 0.548835 0.330823 0.890193
Si Si7 0.887541 0.170831 0.604663
Si Si8 0.759865 0.959017 0.693760
O O1 0.123881 0.618899 0.662965
O O2 0.315249 0.669999 0.660552
O O3 0.176295 0.787895 0.517799
O O4 0.201196 0.831542 0.758076
O O5 0.860417 0.612427 0.409409
O O6 0.801306 0.833389 0.455428
O O7 0.857077 0.760467 0.233084
O O8 0.993296 0.797053 0.412528
O O9 0.000000 0.537522 0.250000
O O10 0.000000 0.500000 0.000000
O O11 0.614749 0.214318 0.917395
O O12 0.705610 0.020553 0.817007
O O13 0.678638 0.043975 0.076717
O O14 0.500000 0.391127 0.250000
O O15 0.532530 0.350034 0.496320
O O16 0.605025 0.541089 0.385836
O O17 0.500000 0.316201 0.750000
O O18 0.855210 0.038027 0.644039
#
# Coordination Sequence:
#
# PCOD9233671 Si02
#       8
#     4   4   4   4   4   4   4   4
#     4  12  24  42  72  96 139 180 224 288 332 398
#     4  10  21  42  65  91 138 178 217 273 343 401
#     4  12  24  43  64 105 138 168 226 274 343 407
#     4  11  24  44  67  96 133 180 229 281 332 399
#     4  10  23  46  69 103 139 170 224 285 350 414
#     4  10  23  44  72 103 129 172 227 281 355 415
#     4  10  21  44  61  93 133 183 219 274 330 400
#     4  11  25  43  65  96 136 177 239 264 332 400
#
# _framework density 20.758756999999999
#
# number of rings (size 3 to 8) (size 9 to 14) (size 15 to 20)
#    0.000    1.250    3.750    1.500    5.250    0.500 
#   20.250    3.125    0.000    0.000    0.000    0.000 
#    0.000    0.000    0.000    0.000    0.000    0.000 
#
# Total GULP energy -178593.956449 kJ/mol
# GULP energy per Si atom -5581.061139 kJ/mol
# Density = 2.071151 g / cm^3
# Si number density = 20.758757 Si / 1000 Ang^3
#
#
#
# Elastic Constant Matrix: (Units=GPa)
#
#
# Indices 1 2 3 4 5 6 
#
# 1 48.7456 37.8684 34.8698 0.0000 7.2508 0.0000
# 2 37.8684 132.2688 47.7274 0.0000 -1.1467 0.0000
# 3 34.8698 47.7274 128.2955 0.0000 25.3699 0.0000
# 4 0.0000 0.0000 0.0000 29.2330 0.0000 16.0070
# 5 7.2508 -1.1467 25.3699 0.0000 12.2784 0.0000
# 6 0.0000 0.0000 0.0000 16.0070 0.0000 36.1005
#
#
#
# Elastic Compliance Matrix: (Units=1/GPa)
#
#
# Indices 1 2 3 4 5 6 
#
# 1 0.030551 -0.007836 -0.002834 0.000000 -0.012917 0.000000
# 2 -0.007836 0.012102 -0.005937 0.000000 0.018024 0.000000
# 3 -0.002834 -0.005937 0.017842 0.000000 -0.035746 0.000000
# 4 0.000000 0.000000 0.000000 0.045176 0.000000 -0.020031
# 5 -0.012917 0.018024 -0.035746 0.000000 0.164615 0.000000
# 6 0.000000 0.000000 0.000000 -0.020031 0.000000 0.036582
#
#
# Mechanical properties :
#
#
# Convention : Reuss Voigt Hill
#
# Bulk Modulus (GPa) = 36.65453 61.13787 48.89620
# Shear Modulus (GPa) = 14.31943 28.11200 21.21572
#
# Velocity S-wave (km/s) = 2.62926 3.68397 3.20036
# Velocity P-wave (km/s) = 5.18778 6.90008 6.10426
#
# Compressibility (1/GPa) = 0.02728176
#
# Stress axis : x y z
#
# Youngs Moduli (GPa) = 32.73220 82.62976 56.04793
#
# Poissons Ratio (x) = 0.64749 0.15884
# Poissons Ratio (y) = 0.25649 0.33273
# Poissons Ratio (z) = 0.09277 0.49053
#
# Static dielectric constant tensor:
#      x y z
#    x 1.766340 0.000000 0.018490 
#    y 0.000000 1.810320 0.000000 
#    z 0.018490 0.000000 1.759620 
# 
# From -- ./inp_files/33848.got.cif
#   From: 2010.05.17/outbox.cif.g08.bks.cpg/sg13_17_cif.got.tgz:33848.got - 2010.06.03 16:44:36.
