data_PCOD9233737
_publ_section_title
;
Structure prediction by ZEFSAII (Michael W. Deem and Ramdas Pophale) SiO2 
 PCOD9233737
Probable space group: P 2/C
;
_chemical_formula_sum "Si O2"
_cell_formula_units_Z 28
_cell_length_a 22.500982
_cell_length_b 11.937329
_cell_length_c 10.620479
_cell_angle_alpha 90.000000
_cell_angle_beta 25.553890
_cell_angle_gamma 90.000000
_cell_volume 1230.530690
_symmetry_space_group_name_H-M "P 2/C"
_symmetry_group_IT_number 13
_symmetry_cell_setting 'monoclinic'
loop_
_space_group_symop_operation_xyz
x,y,z
-x,y,1/2-z
-x,-y,-z
x,-y,1/2+z
loop_
_atom_site_type_symbol
_atom_site_label
_atom_site_fract_x
_atom_site_fract_y
_atom_site_fract_z
Si Si1 0.228582 0.716787 0.588824
Si Si2 0.021508 0.604492 0.557019
Si Si3 0.645589 0.065303 0.213209
Si Si4 0.330826 0.081393 0.058790
Si Si5 0.568505 0.334546 0.000482
Si Si6 0.700839 0.326307 0.095651
Si Si7 0.339907 0.565675 0.573889
O O1 0.256763 0.810189 0.640568
O O2 0.342051 0.737007 0.264205
O O3 0.264907 0.599867 0.589493
O O4 0.086659 0.697447 0.787860
O O5 0.344346 0.562092 0.111568
O O6 0.000000 0.581609 0.750000
O O7 0.000000 0.500000 0.500000
O O8 0.717328 0.046757 0.210502
O O9 0.648184 0.198910 0.198593
O O10 0.500000 0.000000 0.500000
O O11 0.703779 0.014813 0.974468
O O12 0.500000 0.100652 0.750000
O O13 0.438566 0.389442 0.178250
O O14 0.827740 0.346641 0.761961
O O15 0.500000 0.272360 0.250000
O O16 0.732520 0.367450 0.174872
O O17 0.500000 0.601331 0.250000
#
# Coordination Sequence:
#
# PCOD9233737 Si02
#       7
#     4   4   4   4   4   4   4
#     4  12  24  45  73  97 145 196 243 311 377 456
#     4  12  32  50  72 105 155 209 263 313 382 463
#     4  10  22  39  72 105 145 182 238 310 377 450
#     4  10  21  42  69 108 139 183 234 301 381 441
#     4  11  24  36  65 100 138 184 242 313 372 443
#     4  12  24  45  68 105 149 195 252 310 387 452
#     4  11  23  38  69 103 138 182 248 303 370 458
#
# _framework density 22.75441
#
# number of rings (size 3 to 8) (size 9 to 14) (size 15 to 20)
#    0.000    0.857    2.857    4.286   10.000    4.000 
#    0.000    0.714    0.000    0.000    0.000    0.000 
#    0.000    0.000    0.000    0.000    0.000    0.000 
#
# Total GULP energy -156373.959044 kJ/mol
# GULP energy per Si atom -5584.784252 kJ/mol
# Density = 2.270262 g / cm^3
# Si number density = 22.754410 Si / 1000 Ang^3
#
#
#
# Elastic Constant Matrix: (Units=GPa)
#
#
# Indices 1 2 3 4 5 6 
#
# 1 173.4159 50.4938 51.6554 0.0000 22.5918 0.0000
# 2 50.4938 72.6595 21.7047 0.0000 3.4532 0.0000
# 3 51.6554 21.7047 105.6240 0.0000 4.2090 0.0000
# 4 0.0000 0.0000 0.0000 18.1146 0.0000 0.1826
# 5 22.5918 3.4532 4.2090 0.0000 47.4612 0.0000
# 6 0.0000 0.0000 0.0000 0.1826 0.0000 41.9963
#
#
#
# Elastic Compliance Matrix: (Units=1/GPa)
#
#
# Indices 1 2 3 4 5 6 
#
# 1 0.008535 -0.004860 -0.003038 0.000000 -0.003440 0.000000
# 2 -0.004860 0.017461 -0.001257 0.000000 0.001154 0.000000
# 3 -0.003038 -0.001257 0.011190 0.000000 0.000545 0.000000
# 4 0.000000 0.000000 0.000000 0.055206 0.000000 -0.000240
# 5 -0.003440 0.001154 0.000545 0.000000 0.022575 0.000000
# 6 0.000000 0.000000 0.000000 -0.000240 0.000000 0.023813
#
#
# Mechanical properties :
#
#
# Convention : Reuss Voigt Hill
#
# Bulk Modulus (GPa) = 52.98088 66.60079 59.79084
# Shear Modulus (GPa) = 30.60319 36.70413 33.65366
#
# Velocity S-wave (km/s) = 3.67131 4.02064 3.84994
# Velocity P-wave (km/s) = 6.42695 7.13352 6.78943
#
# Compressibility (1/GPa) = 0.01887473
#
# Stress axis : x y z
#
# Youngs Moduli (GPa) = 117.16955 57.27068 89.36579
#
# Poissons Ratio (x) = 0.27834 0.27150
# Poissons Ratio (y) = 0.56945 0.11235
# Poissons Ratio (z) = 0.35597 0.07200
#
# Static dielectric constant tensor:
#      x y z
#    x 1.966000 0.000000 0.005570 
#    y 0.000000 1.917710 0.000000 
#    z 0.005570 0.000000 1.904010 
# 
# From -- ./inp_files/20071.got.cif
#   From: 2010.05.17/outbox.cif.g08.bks.cpg/sg13_11_cif.got.tgz:20071.got - 2010.06.03 16:44:36.
