data_PCOD9233416
_publ_section_title
;
Structure prediction by ZEFSAII (Michael W. Deem and Ramdas Pophale) SiO2 
 PCOD9233416
Probable space group: P 2/C
;
_chemical_formula_sum "Si O2"
_cell_formula_units_Z 18
_cell_length_a 10.643982
_cell_length_b 17.089537
_cell_length_c 5.613648
_cell_angle_alpha 90.000000
_cell_angle_beta 55.929022
_cell_angle_gamma 90.000000
_cell_volume 845.844336
_symmetry_space_group_name_H-M "P 2/C"
_symmetry_group_IT_number 13
_symmetry_cell_setting 'monoclinic'
loop_
_space_group_symop_operation_xyz
x,y,z
-x,y,1/2-z
-x,-y,-z
x,-y,1/2+z
loop_
_atom_site_type_symbol
_atom_site_label
_atom_site_fract_x
_atom_site_fract_y
_atom_site_fract_z
Si Si1 0.000000 0.734378 0.750000
Si Si2 0.724488 0.211177 0.825071
Si Si3 0.326798 0.970250 0.155239
Si Si4 0.500000 0.682779 0.250000
Si Si5 0.760120 0.340520 0.165794
Si Si6 0.000000 0.546344 0.250000
O O1 0.106457 0.784268 0.463289
O O2 0.112625 0.679798 0.776497
O O3 0.674390 0.122101 0.891748
O O4 0.612425 0.260663 0.775936
O O5 0.725233 0.259176 0.069109
O O6 0.258379 0.989171 0.490170
O O7 0.500000 0.000000 0.000000
O O8 0.393933 0.634216 0.541589
O O9 0.846550 0.401129 0.906316
O O10 0.000000 0.500000 0.500000
#
# Coordination Sequence:
#
# PCOD9233416 Si02
#       6
#     2   4   4   2   4   2
#     4  10  21  40  70  97 138 174 256 284 343 408
#     4  11  22  40  70  99 137 189 238 298 341 426
#     4  10  23  38  59  92 140 180 231 283 357 406
#     4  10  24  36  72 102 142 170 252 286 346 394
#     4  11  23  44  70 108 134 188 239 288 348 432
#     4  12  27  48  78 105 144 188 228 288 365 434
#
# _framework density 21.280512000000002
#
# number of rings (size 3 to 8) (size 9 to 14) (size 15 to 20)
#    0.000    1.333    2.222    2.667   15.556    0.000 
#    0.000    2.222    0.000    0.000    0.000    0.000 
#    0.000    0.000    0.000    0.000    0.000    0.000 
#
# Total GULP energy -100519.893794 kJ/mol
# GULP energy per Si atom -5584.438544 kJ/mol
# Density = 2.123208 g / cm^3
# Si number density = 21.280512 Si / 1000 Ang^3
#
#
#
# Elastic Constant Matrix: (Units=GPa)
#
#
# Indices 1 2 3 4 5 6 
#
# 1 68.2876 9.6845 39.5244 0.0000 10.6815 0.0000
# 2 9.6845 87.4633 50.6142 0.0000 -3.1498 0.0000
# 3 39.5244 50.6142 160.6977 0.0000 -13.2072 0.0000
# 4 0.0000 0.0000 0.0000 -26.8144 0.0000 42.4762
# 5 10.6815 -3.1498 -13.2072 0.0000 54.9552 0.0000
# 6 0.0000 0.0000 0.0000 42.4762 0.0000 -3.3300
#
#
#
# Elastic Compliance Matrix: (Units=1/GPa)
#
#
# Indices 1 2 3 4 5 6 
#
# 1 0.018236 0.000772 -0.005117 0.000000 -0.004730 0.000000
# 2 0.000772 0.014018 -0.004643 0.000000 -0.000462 0.000000
# 3 -0.005117 -0.004643 0.009185 0.000000 0.002936 0.000000
# 4 0.000000 0.000000 0.000000 0.001942 0.000000 0.024768
# 5 -0.004730 -0.000462 0.002936 0.000000 0.019795 0.000000
# 6 0.000000 0.000000 0.000000 0.024768 0.000000 0.015636
#
#
# Mechanical properties :
#
#
# Convention : Reuss Voigt Hill
#
# Bulk Modulus (GPa) = 42.62123 57.34387 49.98255
# Shear Modulus (GPa) = 47.79671 19.40385 33.60028
#
# Velocity S-wave (km/s) = 4.74437 3.02290 3.97788
# Velocity P-wave (km/s) = 7.07700 6.26012 6.68105
#
# Compressibility (1/GPa) = 0.02346248
#
# Stress axis : x y z
#
# Youngs Moduli (GPa) = 54.83634 71.33611 108.87196
#
# Poissons Ratio (x) = -0.05504 0.55710
# Poissons Ratio (y) = -0.04231 0.50549
# Poissons Ratio (z) = 0.28060 0.33121
#
# Static dielectric constant tensor:
#      x y z
#    x 1.741940 0.000000 -0.002940 
#    y 0.000000 1.742660 0.000000 
#    z -0.002940 0.000000 1.848030 
# 
# From -- ./inp_files/1348.got.cif
#   From: 2010.05.17/outbox.cif.g08.bks.cpg/sg13_1_cif.got.tgz:1348.got - 2010.06.03 16:44:36.
