data_PCOD9233296
_publ_section_title
;
Structure prediction by ZEFSAII (Michael W. Deem and Ramdas Pophale) SiO2 
 PCOD9233296
Probable space group: P 2/C
;
_chemical_formula_sum "Si O2"
_cell_formula_units_Z 18
_cell_length_a 5.632872
_cell_length_b 7.468092
_cell_length_c 18.636775
_cell_angle_alpha 90.000000
_cell_angle_beta 71.436491
_cell_angle_gamma 90.000000
_cell_volume 743.199691
_symmetry_space_group_name_H-M "P 2/C"
_symmetry_group_IT_number 13
_symmetry_cell_setting 'monoclinic'
loop_
_space_group_symop_operation_xyz
x,y,z
-x,y,1/2-z
-x,-y,-z
x,-y,1/2+z
loop_
_atom_site_type_symbol
_atom_site_label
_atom_site_fract_x
_atom_site_fract_y
_atom_site_fract_z
Si Si1 0.500000 0.003330 0.250000
Si Si2 0.359952 0.848732 0.612882
Si Si3 0.843882 0.870058 0.464981
Si Si4 0.716804 0.346001 0.773826
Si Si5 0.723373 0.469071 0.923092
O O1 0.281368 0.851986 0.262325
O O2 0.527800 0.119321 0.319010
O O3 0.587748 0.846725 0.534316
O O4 0.210131 0.664115 0.614185
O O5 0.196288 0.016120 0.603160
O O6 0.925326 0.666214 0.439116
O O7 0.000000 0.000000 0.500000
O O8 0.500000 0.445803 0.750000
O O9 0.624338 0.356260 0.864469
O O10 0.000000 0.414442 0.750000
O O11 0.500000 0.500000 0.000000
#
# Coordination Sequence:
#
# PCOD9233296 Si02
#       5
#     2   4   4   4   4
#     4  10  22  38  68  92 138 182 236 280 364 418
#     4  10  22  40  63  94 128 178 228 282 350 425
#     4  10  21  40  64  93 131 173 224 286 349 418
#     4  10  23  44  70  97 142 185 233 294 362 420
#     4  10  22  44  65  99 138 179 238 288 357 423
#
# _framework density 24.219601000000001
#
# number of rings (size 3 to 8) (size 9 to 14) (size 15 to 20)
#    0.667    1.333    2.222    0.000    4.667    0.889 
#    8.000    1.111    0.000    0.000    0.000    0.000 
#    0.000    0.000    0.000    0.000    0.000    0.000 
#
# Total GULP energy -100252.415446 kJ/mol
# GULP energy per Si atom -5569.578636 kJ/mol
# Density = 2.416448 g / cm^3
# Si number density = 24.219601 Si / 1000 Ang^3
#
#
#
# Elastic Constant Matrix: (Units=GPa)
#
#
# Indices 1 2 3 4 5 6 
#
# 1 92.5394 40.2777 36.8798 0.0000 10.6190 0.0000
# 2 40.2777 196.3378 56.7934 0.0000 18.0703 0.0000
# 3 36.8798 56.7934 138.5758 0.0000 32.9734 0.0000
# 4 0.0000 0.0000 0.0000 35.1627 0.0000 7.1972
# 5 10.6190 18.0703 32.9734 0.0000 31.8455 0.0000
# 6 0.0000 0.0000 0.0000 7.1972 0.0000 15.7763
#
#
#
# Elastic Compliance Matrix: (Units=1/GPa)
#
#
# Indices 1 2 3 4 5 6 
#
# 1 0.012657 -0.001824 -0.002472 0.000000 -0.000626 0.000000
# 2 -0.001824 0.006070 -0.001761 0.000000 -0.001012 0.000000
# 3 -0.002472 -0.001761 0.010830 0.000000 -0.009390 0.000000
# 4 0.000000 0.000000 0.000000 0.031368 0.000000 -0.014310
# 5 -0.000626 -0.001012 -0.009390 0.000000 0.041908 0.000000
# 6 0.000000 0.000000 0.000000 -0.014310 0.000000 0.069915
#
#
# Mechanical properties :
#
#
# Convention : Reuss Voigt Hill
#
# Bulk Modulus (GPa) = 57.33002 77.26165 67.29584
# Shear Modulus (GPa) = 26.22234 36.12371 31.17302
#
# Velocity S-wave (km/s) = 3.29400 3.86619 3.59151
# Velocity P-wave (km/s) = 6.17977 7.20414 6.71153
#
# Compressibility (1/GPa) = 0.01744287
#
# Stress axis : x y z
#
# Youngs Moduli (GPa) = 79.00736 164.74132 92.33251
#
# Poissons Ratio (x) = 0.30046 0.22825
# Poissons Ratio (y) = 0.14410 0.16264
# Poissons Ratio (z) = 0.19531 0.29019
#
# Static dielectric constant tensor:
#      x y z
#    x 2.028240 0.000000 0.029020 
#    y 0.000000 2.029690 0.000000 
#    z 0.029020 0.000000 1.958950 
# 
# From -- ./inp_files/60350.got.cif
#   From: 2010.05.17/outbox.cif.g08.bks.cpg/sg13_31_cif.got.tgz:60350.got - 2010.06.03 16:44:36.
