data_PCOD9233650
_publ_section_title
;
Structure prediction by ZEFSAII (Michael W. Deem and Ramdas Pophale) SiO2 
 PCOD9233650
Probable space group: P 2/C
;
_chemical_formula_sum "Si O2"
_cell_formula_units_Z 24
_cell_length_a 8.403861
_cell_length_b 16.858767
_cell_length_c 14.494306
_cell_angle_alpha 90.000000
_cell_angle_beta 34.695189
_cell_angle_gamma 90.000000
_cell_volume 1168.893620
_symmetry_space_group_name_H-M "P 2/C"
_symmetry_group_IT_number 13
_symmetry_cell_setting 'monoclinic'
loop_
_space_group_symop_operation_xyz
x,y,z
-x,y,1/2-z
-x,-y,-z
x,-y,1/2+z
loop_
_atom_site_type_symbol
_atom_site_label
_atom_site_fract_x
_atom_site_fract_y
_atom_site_fract_z
Si Si1 0.133206 0.086719 0.330425
Si Si2 0.445322 0.311188 0.560073
Si Si3 0.771681 0.935694 0.503793
Si Si4 0.395926 0.399009 0.394833
Si Si5 0.000000 0.186341 0.750000
Si Si6 0.161843 0.536632 0.270273
Si Si7 0.000000 0.223402 0.250000
O O1 0.119332 0.094269 0.448103
O O2 0.097450 0.165271 0.286417
O O3 0.441456 0.053457 0.165447
O O4 0.911636 0.019012 0.411306
O O5 0.381132 0.337430 0.485362
O O6 0.230065 0.242137 0.687780
O O7 0.366511 0.388080 0.657295
O O8 0.756971 0.278344 0.407956
O O9 0.845532 0.869157 0.395595
O O10 0.500000 0.361616 0.250000
O O11 0.636681 0.463944 0.302107
O O12 0.090681 0.440728 0.540205
O O13 0.000000 0.521805 0.250000
#
# Coordination Sequence:
#
# PCOD9233650 Si02
#       7
#     4   4   4   4   2   4   2
#     4  10  23  43  62  94 119 165 207 254 300 365
#     4  11  24  40  61  88 126 161 203 248 312 367
#     4  10  23  41  67  87 126 160 209 252 303 363
#     4  11  23  40  66  91 121 158 207 252 302 361
#     4  12  21  42  63  88 124 172 194 252 313 370
#     4  10  21  42  63  88 120 162 202 245 304 368
#     4  12  25  40  65  92 124 164 210 250 313 368
#
# _framework density 20.532236000000001
#
# number of rings (size 3 to 8) (size 9 to 14) (size 15 to 20)
#    0.000    1.333    4.167    3.000    5.833    2.667 
#    0.000    0.000    0.000    0.000    0.000    0.000 
#    0.000    0.000    0.000    0.000    0.000    0.000 
#
# Total GULP energy -134100.559998 kJ/mol
# GULP energy per Si atom -5587.523333 kJ/mol
# Density = 2.048550 g / cm^3
# Si number density = 20.532236 Si / 1000 Ang^3
#
#
#
# Elastic Constant Matrix: (Units=GPa)
#
#
# Indices 1 2 3 4 5 6 
#
# 1 23.4118 12.4765 9.4220 0.0000 -9.1787 0.0000
# 2 12.4765 46.6252 11.5675 0.0000 -9.3186 0.0000
# 3 9.4220 11.5675 84.1099 0.0000 -5.7963 0.0000
# 4 0.0000 0.0000 0.0000 56.0321 0.0000 -18.4284
# 5 -9.1787 -9.3186 -5.7963 0.0000 36.7505 0.0000
# 6 0.0000 0.0000 0.0000 -18.4284 0.0000 26.1545
#
#
#
# Elastic Compliance Matrix: (Units=1/GPa)
#
#
# Indices 1 2 3 4 5 6 
#
# 1 0.054359 -0.011597 -0.003803 0.000000 0.010036 0.000000
# 2 -0.011597 0.025710 -0.002009 0.000000 0.003306 0.000000
# 3 -0.003803 -0.002009 0.012628 0.000000 0.000533 0.000000
# 4 0.000000 0.000000 0.000000 0.023230 0.000000 0.016368
# 5 0.010036 0.003306 0.000533 0.000000 0.030639 0.000000
# 6 0.000000 0.000000 0.000000 0.016368 0.000000 0.049767
#
#
# Mechanical properties :
#
#
# Convention : Reuss Voigt Hill
#
# Bulk Modulus (GPa) = 17.27712 24.56432 20.92072
# Shear Modulus (GPa) = 19.96460 31.83282 25.89871
#
# Velocity S-wave (km/s) = 3.12164 3.94176 3.55543
# Velocity P-wave (km/s) = 4.62880 5.71895 5.20251
#
# Compressibility (1/GPa) = 0.05788003
#
# Stress axis : x y z
#
# Youngs Moduli (GPa) = 18.39638 38.89549 79.18796
#
# Poissons Ratio (x) = 0.45105 0.30113
# Poissons Ratio (y) = 0.21333 0.15909
# Poissons Ratio (z) = 0.06996 0.07814
#
# Static dielectric constant tensor:
#      x y z
#    x 1.748780 0.000000 0.045990 
#    y 0.000000 1.701950 0.000000 
#    z 0.045990 0.000000 1.538850 
# 
# From -- ./inp_files/48056.got.cif
#   From: 2010.05.17/outbox.cif.g08.bks.cpg/sg13_25_cif.got.tgz:48056.got - 2010.06.03 16:44:36.
