data_PCOD9233576
_publ_section_title
;
Structure prediction by ZEFSAII (Michael W. Deem and Ramdas Pophale) SiO2 
 PCOD9233576
Probable space group: P 2/C
;
_chemical_formula_sum "Si O2"
_cell_formula_units_Z 32
_cell_length_a 12.087494
_cell_length_b 17.367760
_cell_length_c 14.763427
_cell_angle_alpha 90.000000
_cell_angle_beta 148.160444
_cell_angle_gamma 90.000000
_cell_volume 1635.025949
_symmetry_space_group_name_H-M "P 2/C"
_symmetry_group_IT_number 13
_symmetry_cell_setting 'monoclinic'
loop_
_space_group_symop_operation_xyz
x,y,z
-x,y,1/2-z
-x,-y,-z
x,-y,1/2+z
loop_
_atom_site_type_symbol
_atom_site_label
_atom_site_fract_x
_atom_site_fract_y
_atom_site_fract_z
Si Si1 0.398116 0.842337 0.896135
Si Si2 0.053769 0.410728 0.032849
Si Si3 0.604457 0.342736 0.106189
Si Si4 0.952873 0.910568 0.977962
Si Si5 0.802578 0.346514 0.552426
Si Si6 0.586689 0.157038 0.714589
Si Si7 0.295625 0.173423 0.045843
Si Si8 0.592810 0.657599 0.219165
O O1 0.361070 0.749865 0.870165
O O2 0.205140 0.882236 0.710995
O O3 0.447993 0.868904 0.032389
O O4 0.608262 0.854140 0.982116
O O5 0.191137 0.383785 0.213423
O O6 0.184844 0.389332 0.034205
O O7 0.000000 0.500000 0.000000
O O8 0.833899 0.365788 0.876436
O O9 0.409930 0.357572 0.038832
O O10 0.536873 0.368706 0.958996
O O11 0.840647 0.887622 0.994093
O O12 0.173428 0.867129 0.128060
O O13 0.000000 0.000000 0.000000
O O14 0.500000 0.190558 0.250000
O O15 0.820343 0.254666 0.546050
O O16 0.500000 0.127929 0.750000
O O17 0.578921 0.249763 0.709322
O O18 0.000000 0.370947 0.750000
O O19 0.500000 0.629041 0.250000
#
# Coordination Sequence:
#
# PCOD9233576 Si02
#       8
#     4   4   4   4   4   4   4   4
#     4   9  20  39  64  92 113 154 209 265 305 346
#     4  12  25  40  59  92 129 168 193 248 323 387
#     4  10  21  41  68  91 120 157 210 272 310 350
#     4  11  23  37  57  89 129 161 190 248 316 379
#     4  11  20  38  68  95 117 152 212 269 307 353
#     4  10  22  39  62  83 116 161 210 250 293 358
#     4   9  19  36  63  93 116 149 206 264 305 351
#     4  10  22  42  62  90 118 161 216 257 295 366
#
# _framework density 19.571555
#
# number of rings (size 3 to 8) (size 9 to 14) (size 15 to 20)
#    0.000    1.750    1.250    4.125    3.500    4.500 
#    2.250    5.000    0.000    0.000    0.000    0.000 
#    0.000    0.000    0.000    0.000    0.000    0.000 
#
# Total GULP energy -178805.408370 kJ/mol
# GULP energy per Si atom -5587.669012 kJ/mol
# Density = 1.952701 g / cm^3
# Si number density = 19.571555 Si / 1000 Ang^3
#
#
#
# Elastic Constant Matrix: (Units=GPa)
#
#
# Indices 1 2 3 4 5 6 
#
# 1 96.4515 37.8107 55.6588 0.0000 -29.5462 0.0000
# 2 37.8107 35.8530 39.5906 0.0000 -5.7801 0.0000
# 3 55.6588 39.5906 142.1902 0.0000 -21.0049 0.0000
# 4 0.0000 0.0000 0.0000 -7.3509 0.0000 -1.0600
# 5 -29.5462 -5.7801 -21.0049 0.0000 26.1533 0.0000
# 6 0.0000 0.0000 0.0000 -1.0600 0.0000 -22.0306
#
#
#
# Elastic Compliance Matrix: (Units=1/GPa)
#
#
# Indices 1 2 3 4 5 6 
#
# 1 0.028759 -0.025918 -0.000099 0.000000 0.026682 0.000000
# 2 -0.025918 0.063633 -0.011142 0.000000 -0.024166 0.000000
# 3 -0.000099 -0.011142 0.011112 0.000000 0.006350 0.000000
# 4 0.000000 0.000000 0.000000 -0.136989 0.000000 0.006591
# 5 0.026682 -0.024166 0.006350 0.000000 0.068139 0.000000
# 6 0.000000 0.000000 0.000000 0.006591 0.000000 -0.045708
#
#
# Mechanical properties :
#
#
# Convention : Reuss Voigt Hill
#
# Bulk Modulus (GPa) = 34.26441 60.06832 47.16636
# Shear Modulus (GPa) = 68.49939 8.78333 38.64136
#
# Velocity S-wave (km/s) = 5.92245 2.12074 4.44820
# Velocity P-wave (km/s) = 8.01951 6.06259 7.10871
#
# Compressibility (1/GPa) = 0.02918480
#
# Stress axis : x y z
#
# Youngs Moduli (GPa) = 34.77126 15.71522 89.99235
#
# Poissons Ratio (x) = 0.40731 0.00894
# Poissons Ratio (y) = 0.90121 1.00269
# Poissons Ratio (z) = 0.00346 0.17510
#
# Static dielectric constant tensor:
#      x y z
#    x 1.704060 0.000000 -0.028770 
#    y 0.000000 1.663050 0.000000 
#    z -0.028770 0.000000 1.682270 
# 
# From -- ./inp_files/51660.got.cif
#   From: 2010.05.17/outbox.cif.g08.bks.cpg/sg13_26_cif.got.tgz:51660.got - 2010.06.03 16:44:36.
