data_PCOD9233327
_publ_section_title
;
Structure prediction by ZEFSAII (Michael W. Deem and Ramdas Pophale) SiO2 
 PCOD9233327
Probable space group: P 2/C
;
_chemical_formula_sum "Si O2"
_cell_formula_units_Z 22
_cell_length_a 8.111815
_cell_length_b 16.320781
_cell_length_c 7.965926
_cell_angle_alpha 90.000000
_cell_angle_beta 97.630187
_cell_angle_gamma 90.000000
_cell_volume 1045.280270
_symmetry_space_group_name_H-M "P 2/C"
_symmetry_group_IT_number 13
_symmetry_cell_setting 'monoclinic'
loop_
_space_group_symop_operation_xyz
x,y,z
-x,y,1/2-z
-x,-y,-z
x,-y,1/2+z
loop_
_atom_site_type_symbol
_atom_site_label
_atom_site_fract_x
_atom_site_fract_y
_atom_site_fract_z
Si Si1 0.192238 0.594660 0.232018
Si Si2 0.194681 0.591604 0.831787
Si Si3 0.696459 0.088863 0.758553
Si Si4 0.625605 0.751343 0.111064
Si Si5 0.882852 0.056851 0.099526
Si Si6 0.500000 0.299409 0.250000
O O1 0.237819 0.502668 0.293108
O O2 0.286476 0.664675 0.346942
O O3 0.000000 0.603740 0.250000
O O4 0.211952 0.603564 0.034454
O O5 0.333545 0.647307 0.761928
O O6 0.000000 0.605218 0.750000
O O7 0.500000 0.076528 0.750000
O O8 0.735626 0.167173 0.647313
O O9 0.770063 0.006758 0.687925
O O10 0.774331 0.106096 0.952009
O O11 0.500000 0.756930 0.250000
O O12 0.535443 0.751986 0.921434
O O13 0.000000 0.102384 0.250000
O O14 0.000000 0.000000 0.000000
#
# Coordination Sequence:
#
# PCOD9233327 Si02
#       6
#     4   4   4   4   4   2
#     4  11  22  40  63  93 134 171 225 281 332 398
#     4  11  23  40  64  98 128 177 234 279 336 395
#     4  10  21  40  65  95 132 169 213 266 324 394
#     4  11  24  43  62  94 133 169 218 269 332 401
#     4   9  19  39  64  94 123 161 213 260 316 392
#     4  12  24  44  70  92 134 180 226 278 338 402
#
# _framework density 21.046987999999999
#
# number of rings (size 3 to 8) (size 9 to 14) (size 15 to 20)
#    0.000    1.455    1.818    4.909    1.273    3.636 
#   14.727    0.909    0.000    0.000    0.000    0.000 
#    0.000    0.000    0.000    0.000    0.000    0.000 
#
# Total GULP energy -122866.124860 kJ/mol
# GULP energy per Si atom -5584.823857 kJ/mol
# Density = 2.099908 g / cm^3
# Si number density = 21.046988 Si / 1000 Ang^3
#
#
#
# Elastic Constant Matrix: (Units=GPa)
#
#
# Indices 1 2 3 4 5 6 
#
# 1 67.4073 18.8824 36.4310 0.0000 4.7715 0.0000
# 2 18.8824 61.6106 42.0126 0.0000 19.3311 0.0000
# 3 36.4310 42.0126 172.5715 0.0000 21.4836 0.0000
# 4 0.0000 0.0000 0.0000 47.4765 0.0000 -22.1455
# 5 4.7715 19.3311 21.4836 0.0000 42.6670 0.0000
# 6 0.0000 0.0000 0.0000 -22.1455 0.0000 -355.3781
#
#
#
# Elastic Compliance Matrix: (Units=1/GPa)
#
#
# Indices 1 2 3 4 5 6 
#
# 1 0.017364 -0.003715 -0.002911 0.000000 0.001207 0.000000
# 2 -0.003715 0.022342 -0.003677 0.000000 -0.007855 0.000000
# 3 -0.002911 -0.003677 0.007528 0.000000 -0.001799 0.000000
# 4 0.000000 0.000000 0.000000 0.020468 0.000000 -0.001275
# 5 0.001207 -0.007855 -0.001799 0.000000 0.027767 0.000000
# 6 0.000000 0.000000 0.000000 -0.001275 0.000000 -0.002734
#
#
# Mechanical properties :
#
#
# Convention : Reuss Voigt Hill
#
# Bulk Modulus (GPa) = 37.55582 55.13792 46.34687
# Shear Modulus (GPa) = 40.91057 -39.42938 0.74060
#
# Velocity S-wave (km/s) = 4.41361 -4.33297 0.59384
# Velocity P-wave (km/s) = 6.62237 1.10523 4.74749
#
# Compressibility (1/GPa) = 0.02662703
#
# Stress axis : x y z
#
# Youngs Moduli (GPa) = 57.59051 44.75950 132.82935
#
# Poissons Ratio (x) = 0.16629 0.38673
# Poissons Ratio (y) = 0.21396 0.48839
# Poissons Ratio (z) = 0.16767 0.16457
#
# Static dielectric constant tensor:
#      x y z
#    x 1.747450 0.000000 -0.005520 
#    y 0.000000 1.844360 0.000000 
#    z -0.005520 0.000000 1.769890 
# 
# From -- ./inp_files/12555.got.cif
#   From: 2010.05.17/outbox.cif.g08.bks.cpg/sg13_7_cif.got.tgz:12555.got - 2010.06.03 16:44:36.
