data_PCOD9233287
_publ_section_title
;
Structure prediction by ZEFSAII (Michael W. Deem and Ramdas Pophale) SiO2 
 PCOD9233287
Probable space group: P 2/C
;
_chemical_formula_sum "Si O2"
_cell_formula_units_Z 24
_cell_length_a 21.818253
_cell_length_b 11.820985
_cell_length_c 14.104008
_cell_angle_alpha 90.000000
_cell_angle_beta 19.166013
_cell_angle_gamma 90.000000
_cell_volume 1194.250778
_symmetry_space_group_name_H-M "P 2/C"
_symmetry_group_IT_number 13
_symmetry_cell_setting 'monoclinic'
loop_
_space_group_symop_operation_xyz
x,y,z
-x,y,1/2-z
-x,-y,-z
x,-y,1/2+z
loop_
_atom_site_type_symbol
_atom_site_label
_atom_site_fract_x
_atom_site_fract_y
_atom_site_fract_z
Si Si1 0.012020 0.680055 0.458763
Si Si2 0.610874 0.260073 0.211477
Si Si3 0.237762 0.628594 0.300812
Si Si4 0.800086 0.386338 0.092179
Si Si5 0.000000 0.178876 0.250000
Si Si6 0.130412 0.085086 0.253336
Si Si7 0.500000 0.050119 0.250000
O O1 0.079664 0.610256 0.451278
O O2 0.852046 0.632053 0.625137
O O3 0.921525 0.793426 0.630606
O O4 0.203460 0.710442 0.121073
O O5 0.429660 0.339724 0.467887
O O6 0.675429 0.289681 0.224889
O O7 0.534223 0.138343 0.287974
O O8 0.267463 0.515719 0.318597
O O9 0.159179 0.735814 0.475525
O O10 0.000000 0.381025 0.750000
O O11 0.084522 0.099958 0.209070
O O12 0.000000 0.000000 0.500000
O O13 0.328870 0.034804 0.989825
#
# Coordination Sequence:
#
# PCOD9233287 Si02
#       7
#     4   4   4   4   2   4   2
#     4  10  21  40  64  90 125 165 208 256 313 382
#     4  11  21  39  63  91 123 161 215 255 308 385
#     4  11  19  40  63  89 131 162 201 259 318 379
#     4  10  22  36  61  95 125 163 204 252 315 382
#     4  10  24  40  62  96 126 164 212 266 320 376
#     4  11  23  43  66  89 128 167 214 271 319 374
#     4  12  22  42  64  90 120 172 210 258 328 360
#
# _framework density 20.096281000000001
#
# number of rings (size 3 to 8) (size 9 to 14) (size 15 to 20)
#    0.000    1.333    4.167    2.000    0.000    2.667 
#    0.000    2.500    0.000    0.000    0.000    0.000 
#    0.000    0.000    0.000    0.000    0.000    0.000 
#
# Total GULP energy -133614.439632 kJ/mol
# GULP energy per Si atom -5567.268318 kJ/mol
# Density = 2.005054 g / cm^3
# Si number density = 20.096281 Si / 1000 Ang^3
#
#
#
# Elastic Constant Matrix: (Units=GPa)
#
#
# Indices 1 2 3 4 5 6 
#
# 1 112.7949 57.3748 47.1894 0.0000 -20.1149 0.0000
# 2 57.3748 87.3556 37.2715 0.0000 -18.4254 0.0000
# 3 47.1894 37.2715 88.4273 0.0000 -28.1452 0.0000
# 4 0.0000 0.0000 0.0000 14.7379 0.0000 -1.7265
# 5 -20.1149 -18.4254 -28.1452 0.0000 22.8110 0.0000
# 6 0.0000 0.0000 0.0000 -1.7265 0.0000 23.2555
#
#
#
# Elastic Compliance Matrix: (Units=1/GPa)
#
#
# Indices 1 2 3 4 5 6 
#
# 1 0.014751 -0.007548 -0.004102 0.000000 0.001850 0.000000
# 2 -0.007548 0.018453 -0.001851 0.000000 0.005965 0.000000
# 3 -0.004102 -0.001851 0.020832 0.000000 0.020591 0.000000
# 4 0.000000 0.000000 0.000000 0.068448 0.000000 0.005081
# 5 0.001850 0.005965 0.020591 0.000000 0.075694 0.000000
# 6 0.000000 0.000000 0.000000 0.005081 0.000000 0.043378
#
#
# Mechanical properties :
#
#
# Convention : Reuss Voigt Hill
#
# Bulk Modulus (GPa) = 36.99047 63.58322 50.28684
# Shear Modulus (GPa) = 18.01356 21.94368 19.97862
#
# Velocity S-wave (km/s) = 2.99718 3.30802 3.15643
# Velocity P-wave (km/s) = 5.51580 6.80431 6.19365
#
# Compressibility (1/GPa) = 0.02703399
#
# Stress axis : x y z
#
# Youngs Moduli (GPa) = 67.79197 54.19133 48.00403
#
# Poissons Ratio (x) = 0.40905 0.19690
# Poissons Ratio (y) = 0.51171 0.08886
# Poissons Ratio (z) = 0.27806 0.10031
#
# Static dielectric constant tensor:
#      x y z
#    x 1.791300 0.000000 -0.008320 
#    y 0.000000 1.670420 0.000000 
#    z -0.008320 0.000000 1.658700 
# 
# From -- ./inp_files/57695.got.cif
#   From: 2010.05.17/outbox.cif.g08.bks.cpg/sg13_29_cif.got.tgz:57695.got - 2010.06.03 16:44:36.
