data_PCOD9233208
_publ_section_title
;
Structure prediction by ZEFSAII (Michael W. Deem and Ramdas Pophale) SiO2 
 PCOD9233208
Probable space group: P 2/C
;
_chemical_formula_sum "Si O2"
_cell_formula_units_Z 22
_cell_length_a 25.414304
_cell_length_b 8.905520
_cell_length_c 13.905561
_cell_angle_alpha 90.000000
_cell_angle_beta 162.072345
_cell_angle_gamma 90.000000
_cell_volume 968.761903
_symmetry_space_group_name_H-M "P 2/C"
_symmetry_group_IT_number 13
_symmetry_cell_setting 'monoclinic'
loop_
_space_group_symop_operation_xyz
x,y,z
-x,y,1/2-z
-x,-y,-z
x,-y,1/2+z
loop_
_atom_site_type_symbol
_atom_site_label
_atom_site_fract_x
_atom_site_fract_y
_atom_site_fract_z
Si Si1 0.513339 0.195069 0.630407
Si Si2 0.000000 0.762551 0.750000
Si Si3 0.087442 0.871218 0.218224
Si Si4 0.678583 0.077515 0.739576
Si Si5 0.898392 0.391272 0.893873
Si Si6 0.766767 0.686829 0.734077
O O1 0.586604 0.195535 0.650157
O O2 0.339594 0.282041 0.354391
O O3 0.461002 0.021486 0.557074
O O4 0.655069 0.250016 0.951070
O O5 0.827299 0.855109 0.433599
O O6 0.023561 0.671728 0.693476
O O7 0.165975 0.746531 0.282657
O O8 0.219986 0.960563 0.514631
O O9 0.944828 0.778734 0.032704
O O10 0.000000 0.000000 0.000000
O O11 0.777744 0.507981 0.738942
O O12 0.000000 0.500000 0.000000
#
# Coordination Sequence:
#
# PCOD9233208 Si02
#       6
#     4   2   4   4   4   4
#     4  10  22  39  58  88 136 167 207 266 345 397
#     4  12  22  40  70 100 130 170 238 284 328 392
#     4  11  19  39  67  95 119 165 229 281 322 388
#     4  11  22  37  64 100 122 167 223 288 329 395
#     4  10  23  39  63  94 131 167 215 276 331 390
#     4  10  21  40  60  85 130 176 208 267 341 402
#
# _framework density 22.709396999999999
#
# number of rings (size 3 to 8) (size 9 to 14) (size 15 to 20)
#    0.000    1.455    3.636    2.182    0.000    2.909 
#    0.000    9.091    0.000    0.000    0.000    0.000 
#    0.000    0.000    0.000    0.000    0.000    0.000 
#
# Total GULP energy -122824.528872 kJ/mol
# GULP energy per Si atom -5582.933131 kJ/mol
# Density = 2.265771 g / cm^3
# Si number density = 22.709397 Si / 1000 Ang^3
#
#
#
# Elastic Constant Matrix: (Units=GPa)
#
#
# Indices 1 2 3 4 5 6 
#
# 1 66.4402 28.0451 2.2606 0.0000 24.7065 0.0000
# 2 28.0451 96.4089 10.9642 0.0000 6.0110 0.0000
# 3 2.2606 10.9642 50.3353 0.0000 10.5114 0.0000
# 4 0.0000 0.0000 0.0000 23.6805 0.0000 8.5085
# 5 24.7065 6.0110 10.5114 0.0000 45.8011 0.0000
# 6 0.0000 0.0000 0.0000 8.5085 0.0000 46.9712
#
#
#
# Elastic Compliance Matrix: (Units=1/GPa)
#
#
# Indices 1 2 3 4 5 6 
#
# 1 0.021768 -0.005920 0.002733 0.000000 -0.011592 0.000000
# 2 -0.005920 0.012282 -0.002878 0.000000 0.002242 0.000000
# 3 0.002733 -0.002878 0.021637 0.000000 -0.006062 0.000000
# 4 0.000000 0.000000 0.000000 0.045169 0.000000 -0.008182
# 5 -0.011592 0.002242 -0.006062 0.000000 0.029184 0.000000
# 6 0.000000 0.000000 0.000000 -0.008182 0.000000 0.022772
#
#
# Mechanical properties :
#
#
# Convention : Reuss Voigt Hill
#
# Bulk Modulus (GPa) = 22.95858 32.85824 27.90841
# Shear Modulus (GPa) = 27.86133 34.75155 31.30644
#
# Velocity S-wave (km/s) = 3.50646 3.91611 3.71693
# Velocity P-wave (km/s) = 5.15028 5.91171 5.54408
#
# Compressibility (1/GPa) = 0.04355670
#
# Stress axis : x y z
#
# Youngs Moduli (GPa) = 45.93912 81.41906 46.21750
#
# Poissons Ratio (x) = 0.48202 -0.12630
# Poissons Ratio (y) = 0.27197 0.13300
# Poissons Ratio (z) = -0.12554 0.23430
#
# Static dielectric constant tensor:
#      x y z
#    x 2.310530 0.000000 -0.031280 
#    y 0.000000 1.897090 0.000000 
#    z -0.031280 0.000000 1.879590 
# 
# From -- ./inp_files/59461.got.cif
#   From: 2010.05.17/outbox.cif.g08.bks.cpg/sg13_30_cif.got.tgz:59461.got - 2010.06.03 16:44:36.
