data_PCOD9233816
_publ_section_title
;
Structure prediction by ZEFSAII (Michael W. Deem and Ramdas Pophale) SiO2 
 PCOD9233816
Probable space group: P 2/C
;
_chemical_formula_sum "Si O2"
_cell_formula_units_Z 22
_cell_length_a 25.816273
_cell_length_b 5.646449
_cell_length_c 14.707232
_cell_angle_alpha 90.000000
_cell_angle_beta 24.309460
_cell_angle_gamma 90.000000
_cell_volume 882.558834
_symmetry_space_group_name_H-M "P 2/C"
_symmetry_group_IT_number 13
_symmetry_cell_setting 'monoclinic'
loop_
_space_group_symop_operation_xyz
x,y,z
-x,y,1/2-z
-x,-y,-z
x,-y,1/2+z
loop_
_atom_site_type_symbol
_atom_site_label
_atom_site_fract_x
_atom_site_fract_y
_atom_site_fract_z
Si Si1 0.225453 0.907152 0.826713
Si Si2 0.610444 0.810158 0.326796
Si Si3 0.150137 0.960475 0.258090
Si Si4 0.000000 0.425568 0.750000
Si Si5 0.120366 0.537743 0.741268
Si Si6 0.537677 0.432776 0.586055
O O1 0.349233 0.756905 0.602219
O O2 0.261078 0.051940 0.860019
O O3 0.193657 0.070758 0.791966
O O4 0.107588 0.737857 0.033175
O O5 0.589980 0.660648 0.450883
O O6 0.579590 0.647177 0.290015
O O7 0.500000 0.000000 0.500000
O O8 0.185967 0.721572 0.146424
O O9 0.190533 0.223823 0.160878
O O10 0.000000 0.000000 0.500000
O O11 0.067105 0.563922 0.724487
O O12 0.000000 0.500000 0.000000
O O13 0.500000 0.469312 0.750000
#
# Coordination Sequence:
#
# PCOD9233816 Si02
#       6
#     4   4   4   2   4   4
#     4  11  24  43  73 104 146 192 233 303 369 448
#     4   9  22  46  70 105 137 178 251 302 369 440
#     4  10  21  43  65  97 147 190 246 288 351 438
#     4  12  24  44  68 108 150 198 234 294 370 446
#     4  10  22  43  62  95 147 194 246 287 343 441
#     4  10  23  47  74 103 137 185 242 312 373 434
#
# _framework density 24.927517999999999
#
# number of rings (size 3 to 8) (size 9 to 14) (size 15 to 20)
#    0.000    1.818    3.636    0.000    2.545    5.091 
#   13.091    0.000    0.000    0.000    0.000    0.000 
#    0.000    0.000    0.000    0.000    0.000    0.000 
#
# Total GULP energy -123060.025136 kJ/mol
# GULP energy per Si atom -5593.637506 kJ/mol
# Density = 2.487078 g / cm^3
# Si number density = 24.927518 Si / 1000 Ang^3
#
#
#
# Elastic Constant Matrix: (Units=GPa)
#
#
# Indices 1 2 3 4 5 6 
#
# 1 170.1387 33.9918 17.5168 0.0000 13.8718 0.0000
# 2 33.9918 121.8121 12.4603 0.0000 0.8106 0.0000
# 3 17.5168 12.4603 82.9530 0.0000 7.4866 0.0000
# 4 0.0000 0.0000 0.0000 20.4600 0.0000 6.9550
# 5 13.8718 0.8106 7.4866 0.0000 42.4603 0.0000
# 6 0.0000 0.0000 0.0000 6.9550 0.0000 4.2325
#
#
#
# Elastic Compliance Matrix: (Units=1/GPa)
#
#
# Indices 1 2 3 4 5 6 
#
# 1 0.006469 -0.001697 -0.000938 0.000000 -0.001916 0.000000
# 2 -0.001697 0.008783 -0.001012 0.000000 0.000565 0.000000
# 3 -0.000938 -0.001012 0.012576 0.000000 -0.001891 0.000000
# 4 0.000000 0.000000 0.000000 0.110726 0.000000 -0.181950
# 5 -0.001916 0.000565 -0.001891 0.000000 0.024500 0.000000
# 6 0.000000 0.000000 0.000000 -0.181950 0.000000 0.535255
#
#
# Mechanical properties :
#
#
# Convention : Reuss Voigt Hill
#
# Bulk Modulus (GPa) = 48.69972 55.87131 52.28551
# Shear Modulus (GPa) = 7.01806 34.15955 20.58881
#
# Velocity S-wave (km/s) = 1.67973 3.70585 2.87705
# Velocity P-wave (km/s) = 4.83125 6.38539 5.66190
#
# Compressibility (1/GPa) = 0.02053400
#
# Stress axis : x y z
#
# Youngs Moduli (GPa) = 154.57602 113.86224 79.51728
#
# Poissons Ratio (x) = 0.19317 0.07462
# Poissons Ratio (y) = 0.26224 0.08047
# Poissons Ratio (z) = 0.14505 0.11522
#
# Static dielectric constant tensor:
#      x y z
#    x 1.939150 0.000000 0.059750 
#    y 0.000000 2.016630 0.000000 
#    z 0.059750 0.000000 1.927040 
# 
# From -- ./inp_files/59103.got.cif
#   From: 2010.05.17/outbox.cif.g08.bks.cpg/sg13_30_cif.got.tgz:59103.got - 2010.06.03 16:44:36.
