data_PCOD9233894
_publ_section_title
;
Structure prediction by ZEFSAII (Michael W. Deem and Ramdas Pophale) SiO2 
 PCOD9233894
Probable space group: P 2/C
;
_chemical_formula_sum "Si O2"
_cell_formula_units_Z 30
_cell_length_a 8.295908
_cell_length_b 6.847372
_cell_length_c 28.939893
_cell_angle_alpha 90.000000
_cell_angle_beta 113.679247
_cell_angle_gamma 90.000000
_cell_volume 1505.529472
_symmetry_space_group_name_H-M "P 2/C"
_symmetry_group_IT_number 13
_symmetry_cell_setting 'monoclinic'
loop_
_space_group_symop_operation_xyz
x,y,z
-x,y,1/2-z
-x,-y,-z
x,-y,1/2+z
loop_
_atom_site_type_symbol
_atom_site_label
_atom_site_fract_x
_atom_site_fract_y
_atom_site_fract_z
Si Si1 0.812223 0.949243 0.883583
Si Si2 0.916850 0.759642 0.109842
Si Si3 0.538703 0.285715 0.520836
Si Si4 0.834097 0.566670 0.824442
Si Si5 0.543079 0.754013 0.304440
Si Si6 0.438023 0.036857 0.068440
Si Si7 0.000000 0.736624 0.750000
Si Si8 0.747811 0.949571 0.173861
O O1 0.819643 0.771320 0.849170
O O2 0.729936 0.890821 0.922855
O O3 0.679141 0.110229 0.847285
O O4 0.992203 0.067077 0.908261
O O5 0.731270 0.717565 0.065561
O O6 0.033070 0.568509 0.130790
O O7 0.891194 0.847172 0.158159
O O8 0.500000 0.500000 0.500000
O O9 0.527243 0.160820 0.472891
O O10 0.419553 0.184332 0.546768
O O11 0.647268 0.448421 0.805678
O O12 0.916473 0.610912 0.782961
O O13 0.500000 0.844624 0.250000
O O14 0.359986 0.780842 0.311033
O O15 0.604264 0.043255 0.122291
O O16 0.155584 0.882131 0.785903
#
# Coordination Sequence:
#
# PCOD9233894 Si02
#       8
#     4   4   4   4   4   4   2   4
#     4  10  21  44  60  89 130 168 210 266 328 382
#     4  10  23  40  63  93 128 166 208 271 321 380
#     4  10  22  40  66  95 121 162 218 260 326 385
#     4  11  25  39  62  95 129 168 221 263 320 387
#     4  10  23  39  60  88 127 168 217 267 320 384
#     4   9  22  41  65  89 123 166 209 266 318 389
#     4  12  24  38  72  96 126 184 220 264 336 388
#     4  10  22  42  65  86 130 169 211 265 325 378
#
# _framework density 19.926545000000001
#
# number of rings (size 3 to 8) (size 9 to 14) (size 15 to 20)
#    0.000    1.867    1.333    0.800    5.600    8.533 
#    0.000    1.333    0.000    0.000    0.000    0.000 
#    0.000    0.000    0.000    0.000    0.000    0.000 
#
# Total GULP energy -167241.235950 kJ/mol
# GULP energy per Si atom -5574.707865 kJ/mol
# Density = 1.988119 g / cm^3
# Si number density = 19.926545 Si / 1000 Ang^3
#
#
#
# Elastic Constant Matrix: (Units=GPa)
#
#
# Indices 1 2 3 4 5 6 
#
# 1 70.7807 27.0653 15.0970 0.0000 -18.4900 0.0000
# 2 27.0653 82.8563 17.7830 0.0000 -4.9163 0.0000
# 3 15.0970 17.7830 76.3070 0.0000 -11.1804 0.0000
# 4 0.0000 0.0000 0.0000 25.3401 0.0000 -9.9615
# 5 -18.4900 -4.9163 -11.1804 0.0000 26.8558 0.0000
# 6 0.0000 0.0000 0.0000 -9.9615 0.0000 19.0047
#
#
#
# Elastic Compliance Matrix: (Units=1/GPa)
#
#
# Indices 1 2 3 4 5 6 
#
# 1 0.019573 -0.005499 -0.000814 0.000000 0.012131 0.000000
# 2 -0.005499 0.014284 -0.002569 0.000000 -0.002241 0.000000
# 3 -0.000814 -0.002569 0.014604 0.000000 0.005050 0.000000
# 4 0.000000 0.000000 0.000000 0.049705 0.000000 0.026053
# 5 0.012131 -0.002241 0.005050 0.000000 0.047280 0.000000
# 6 0.000000 0.000000 0.000000 0.026053 0.000000 0.066275
#
#
# Mechanical properties :
#
#
# Convention : Reuss Voigt Hill
#
# Bulk Modulus (GPa) = 32.57565 38.87053 35.72309
# Shear Modulus (GPa) = 20.85782 25.57336 23.21559
#
# Velocity S-wave (km/s) = 3.23884 3.58632 3.41700
# Velocity P-wave (km/s) = 5.51091 6.05790 5.79087
#
# Compressibility (1/GPa) = 0.03069777
#
# Stress axis : x y z
#
# Youngs Moduli (GPa) = 51.08961 70.00885 68.47212
#
# Poissons Ratio (x) = 0.38500 0.05571
# Poissons Ratio (y) = 0.28096 0.17591
# Poissons Ratio (z) = 0.04156 0.17986
#
# Static dielectric constant tensor:
#      x y z
#    x 1.816460 0.000000 -0.021910 
#    y 0.000000 1.732010 0.000000 
#    z -0.021910 0.000000 1.694000 
# 
# From -- ./inp_files/95684.got.cif
#   From: 2010.05.17/outbox.cif.g08.bks.cpg/sg13_48_cif.got.tgz:95684.got - 2010.06.03 16:44:36.
