data_PCOD9233620
_publ_section_title
;
Structure prediction by ZEFSAII (Michael W. Deem and Ramdas Pophale) SiO2 
 PCOD9233620
Probable space group: P 2/C
;
_chemical_formula_sum "Si O2"
_cell_formula_units_Z 22
_cell_length_a 7.156734
_cell_length_b 11.575445
_cell_length_c 17.820356
_cell_angle_alpha 90.000000
_cell_angle_beta 133.469070
_cell_angle_gamma 90.000000
_cell_volume 1071.404619
_symmetry_space_group_name_H-M "P 2/C"
_symmetry_group_IT_number 13
_symmetry_cell_setting 'monoclinic'
loop_
_space_group_symop_operation_xyz
x,y,z
-x,y,1/2-z
-x,-y,-z
x,-y,1/2+z
loop_
_atom_site_type_symbol
_atom_site_label
_atom_site_fract_x
_atom_site_fract_y
_atom_site_fract_z
Si Si1 0.154836 0.619858 0.030806
Si Si2 0.448656 0.912075 0.918757
Si Si3 0.157329 0.679801 0.870583
Si Si4 0.277629 0.577205 0.369106
Si Si5 0.000000 0.064085 0.750000
Si Si6 0.094354 0.221667 0.921593
O O1 0.038909 0.670084 0.920830
O O2 0.748909 0.673291 0.073899
O O3 0.111659 0.711403 0.085191
O O4 0.000000 0.500000 0.000000
O O5 0.303996 0.800141 0.909846
O O6 0.251858 0.982162 0.812330
O O7 0.725599 0.857855 0.975017
O O8 0.500000 0.000000 0.000000
O O9 0.292034 0.554478 0.900908
O O10 0.000000 0.684250 0.750000
O O11 0.537636 0.601408 0.394281
O O12 0.000000 0.585870 0.250000
O O13 0.011373 0.143223 0.827767
#
# Coordination Sequence:
#
# PCOD9233620 Si02
#       6
#     4   4   4   4   2   4
#     4  12  24  42  73 108 140 177 228 289 353 426
#     4  10  21  41  72  93 134 194 232 277 347 402
#     4  11  22  42  70  98 140 181 223 281 352 414
#     4  11  23  42  70 106 143 179 217 287 363 419
#     4  10  22  44  70  96 144 190 232 292 344 410
#     4  11  22  42  72 102 136 184 231 284 353 416
#
# _framework density 20.533794
#
# number of rings (size 3 to 8) (size 9 to 14) (size 15 to 20)
#    0.000    1.091    5.455    1.636    0.000    0.727 
#    0.000    6.364    8.000    0.000    0.000    0.000 
#    0.000    0.000    0.000    0.000    0.000    0.000 
#
# Total GULP energy -122511.189144 kJ/mol
# GULP energy per Si atom -5568.690416 kJ/mol
# Density = 2.048706 g / cm^3
# Si number density = 20.533794 Si / 1000 Ang^3
#
#
#
# Elastic Constant Matrix: (Units=GPa)
#
#
# Indices 1 2 3 4 5 6 
#
# 1 118.7689 47.5448 38.8211 0.0000 3.1424 0.0000
# 2 47.5448 154.0317 54.7968 0.0000 0.7910 0.0000
# 3 38.8211 54.7968 110.3021 0.0000 1.1966 0.0000
# 4 0.0000 0.0000 0.0000 47.2521 0.0000 4.1762
# 5 3.1424 0.7910 1.1966 0.0000 27.4398 0.0000
# 6 0.0000 0.0000 0.0000 4.1762 0.0000 -1.3460
#
#
#
# Elastic Compliance Matrix: (Units=1/GPa)
#
#
# Indices 1 2 3 4 5 6 
#
# 1 0.010147 -0.002260 -0.002438 0.000000 -0.000991 0.000000
# 2 -0.002260 0.008389 -0.003374 0.000000 0.000164 0.000000
# 3 -0.002438 -0.003374 0.011602 0.000000 -0.000129 0.000000
# 4 0.000000 0.000000 0.000000 0.016609 0.000000 0.051531
# 5 -0.000991 0.000164 -0.000129 0.000000 0.036558 0.000000
# 6 0.000000 0.000000 0.000000 0.051531 0.000000 -0.583044
#
#
# Mechanical properties :
#
#
# Convention : Reuss Voigt Hill
#
# Bulk Modulus (GPa) = 71.45662 73.93646 72.69654
# Shear Modulus (GPa) = -10.43992 30.79852 10.17930
#
# Velocity S-wave (km/s) = -2.25728 3.87705 2.22892
# Velocity P-wave (km/s) = 5.29918 7.49182 6.48879
#
# Compressibility (1/GPa) = 0.01399450
#
# Stress axis : x y z
#
# Youngs Moduli (GPa) = 98.54695 119.20108 86.19428
#
# Poissons Ratio (x) = 0.26937 0.21014
# Poissons Ratio (y) = 0.22269 0.29083
# Poissons Ratio (z) = 0.24026 0.40220
#
# Static dielectric constant tensor:
#      x y z
#    x 1.731740 0.000000 0.105000 
#    y 0.000000 1.706670 0.000000 
#    z 0.105000 0.000000 1.852670 
# 
# From -- ./inp_files/64381.got.cif
#   From: 2010.05.17/outbox.cif.g08.bks.cpg/sg13_33_cif.got.tgz:64381.got - 2010.06.03 16:44:36.
