data_PCOD9233032
_publ_section_title
;
Structure prediction by ZEFSAII (Michael W. Deem and Ramdas Pophale) SiO2 
 PCOD9233032
Probable space group: P 2/C
;
_chemical_formula_sum "Si O2"
_cell_formula_units_Z 28
_cell_length_a 29.387899
_cell_length_b 7.343696
_cell_length_c 9.776396
_cell_angle_alpha 90.000000
_cell_angle_beta 42.216578
_cell_angle_gamma 90.000000
_cell_volume 1417.715921
_symmetry_space_group_name_H-M "P 2/C"
_symmetry_group_IT_number 13
_symmetry_cell_setting 'monoclinic'
loop_
_space_group_symop_operation_xyz
x,y,z
-x,y,1/2-z
-x,-y,-z
x,-y,1/2+z
loop_
_atom_site_type_symbol
_atom_site_label
_atom_site_fract_x
_atom_site_fract_y
_atom_site_fract_z
Si Si1 0.650307 0.322203 0.573299
Si Si2 0.500844 0.319823 0.907560
Si Si3 0.648619 0.302805 0.249224
Si Si4 0.250645 0.023823 0.024353
Si Si5 0.042210 0.752876 0.296167
Si Si6 0.158674 0.040241 0.976640
Si Si7 0.052475 0.335590 0.256842
O O1 0.575018 0.236356 0.765040
O O2 0.658805 0.342719 0.389559
O O3 0.653247 0.514844 0.646891
O O4 0.705752 0.189829 0.513975
O O5 0.500000 0.373024 0.750000
O O6 0.500000 0.500000 0.000000
O O7 0.428562 0.226020 0.094348
O O8 0.703078 0.155903 0.079855
O O9 0.185803 0.003330 0.266360
O O10 0.222595 0.051496 0.934725
O O11 0.066868 0.544373 0.264039
O O12 0.000000 0.767421 0.250000
O O13 0.986730 0.775390 0.538303
O O14 0.105331 0.887932 0.146613
O O15 0.119126 0.229691 0.067067
O O16 0.000000 0.342493 0.250000
#
# Coordination Sequence:
#
# PCOD9233032 Si02
#       7
#     4   4   4   4   4   4   4
#     4  10  22  41  65  90 123 164 210 264 313 364
#     4   8  16  35  62  90 115 153 209 264 315 357
#     4  10  22  41  65  90 123 164 211 264 312 362
#     4  12  26  40  58  90 132 169 212 239 305 383
#     4  10  21  39  63  90 116 149 201 252 303 355
#     4  12  24  39  60  87 126 167 198 245 301 370
#     4  10  21  39  65  90 114 149 199 255 306 354
#
# _framework density 19.750076
#
# number of rings (size 3 to 8) (size 9 to 14) (size 15 to 20)
#    0.000    1.714    1.429    2.571    2.000    2.857 
#    0.000    0.000    0.000    0.000    0.000    0.000 
#    0.000    0.000    0.000    0.000    0.000    0.000 
#
# Total GULP energy -156246.423098 kJ/mol
# GULP energy per Si atom -5580.229396 kJ/mol
# Density = 1.970512 g / cm^3
# Si number density = 19.750076 Si / 1000 Ang^3
#
#
#
# Elastic Constant Matrix: (Units=GPa)
#
#
# Indices 1 2 3 4 5 6 
#
# 1 54.1147 18.4394 -2.6174 0.0000 -9.9430 0.0000
# 2 18.4394 69.2357 19.6745 0.0000 -18.3095 0.0000
# 3 -2.6174 19.6745 66.9835 0.0000 -5.7250 0.0000
# 4 0.0000 0.0000 0.0000 26.5553 0.0000 -0.5263
# 5 -9.9430 -18.3095 -5.7250 0.0000 31.9298 0.0000
# 6 0.0000 0.0000 0.0000 -0.5263 0.0000 68.8885
#
#
#
# Elastic Compliance Matrix: (Units=1/GPa)
#
#
# Indices 1 2 3 4 5 6 
#
# 1 0.021175 -0.005358 0.002744 0.000000 0.004014 0.000000
# 2 -0.005358 0.019650 -0.005241 0.000000 0.008660 0.000000
# 3 0.002744 -0.005241 0.016647 0.000000 0.000834 0.000000
# 4 0.000000 0.000000 0.000000 0.037663 0.000000 0.000288
# 5 0.004014 0.008660 0.000834 0.000000 0.037684 0.000000
# 6 0.000000 0.000000 0.000000 0.000288 0.000000 0.014518
#
#
# Mechanical properties :
#
#
# Convention : Reuss Voigt Hill
#
# Bulk Modulus (GPa) = 23.94481 29.03632 26.49056
# Shear Modulus (GPa) = 28.25386 35.79719 32.02553
#
# Velocity S-wave (km/s) = 3.78639 4.26198 4.03120
# Velocity P-wave (km/s) = 5.59159 6.24124 5.92532
#
# Compressibility (1/GPa) = 0.04176271
#
# Stress axis : x y z
#
# Youngs Moduli (GPa) = 47.22514 50.89133 60.07123
#
# Poissons Ratio (x) = 0.27267 -0.16485
# Poissons Ratio (y) = 0.25303 0.31482
# Poissons Ratio (z) = -0.12960 0.26671
#
# Static dielectric constant tensor:
#      x y z
#    x 1.673420 0.000000 -0.025570 
#    y 0.000000 1.678450 0.000000 
#    z -0.025570 0.000000 1.679390 
# 
# From -- ./inp_files/24821.got.cif
#   From: 2010.05.17/outbox.cif.g08.bks.cpg/sg13_13_cif.got.tgz:24821.got - 2010.06.03 16:44:36.
