data_PCOD9233871
_publ_section_title
;
Structure prediction by ZEFSAII (Michael W. Deem and Ramdas Pophale) SiO2 
 PCOD9233871
Probable space group: P 2/C
;
_chemical_formula_sum "Si O2"
_cell_formula_units_Z 20
_cell_length_a 30.276809
_cell_length_b 5.226280
_cell_length_c 11.632701
_cell_angle_alpha 90.000000
_cell_angle_beta 25.992317
_cell_angle_gamma 90.000000
_cell_volume 806.688525
_symmetry_space_group_name_H-M "P 2/C"
_symmetry_group_IT_number 13
_symmetry_cell_setting 'monoclinic'
loop_
_space_group_symop_operation_xyz
x,y,z
-x,y,1/2-z
-x,-y,-z
x,-y,1/2+z
loop_
_atom_site_type_symbol
_atom_site_label
_atom_site_fract_x
_atom_site_fract_y
_atom_site_fract_z
Si Si1 0.884957 0.472075 0.060418
Si Si2 0.431400 0.250063 0.156158
Si Si3 0.296833 0.541685 0.168490
Si Si4 0.940501 0.029785 0.516495
Si Si5 0.620734 0.024527 0.448499
O O1 0.817041 0.522064 0.108171
O O2 0.867165 0.208372 0.167604
O O3 0.000000 0.452309 0.750000
O O4 0.880548 0.705932 0.158679
O O5 0.355415 0.286995 0.436945
O O6 0.370415 0.204108 0.184242
O O7 0.500000 0.500000 0.000000
O O8 0.500000 0.000000 0.000000
O O9 0.338456 0.250508 0.062786
O O10 0.322948 0.753096 0.205316
O O11 0.000000 0.045904 0.250000
O O12 0.000000 0.000000 0.500000
O O13 0.500000 0.978375 0.750000
#
# Coordination Sequence:
#
# PCOD9233871 Si02
#       5
#     4   4   4   4   4
#     4  10  23  45  68  97 134 175 227 283 332 407
#     4  12  23  40  65  95 132 173 218 275 336 401
#     4  12  24  44  66  97 133 174 224 269 339 402
#     4  10  21  43  71  95 131 179 227 285 345 396
#     4  12  23  41  69  93 132 176 216 276 337 402
#
# _framework density 24.792715000000001
#
# number of rings (size 3 to 8) (size 9 to 14) (size 15 to 20)
#    0.000    0.800    4.000    3.600    0.000    0.000 
#   21.600    0.000    0.000    0.000    0.000    0.000 
#    0.000    0.000    0.000    0.000    0.000    0.000 
#
# Total GULP energy -111416.815934 kJ/mol
# GULP energy per Si atom -5570.840797 kJ/mol
# Density = 2.473629 g / cm^3
# Si number density = 24.792715 Si / 1000 Ang^3
#
#
#
# Elastic Constant Matrix: (Units=GPa)
#
#
# Indices 1 2 3 4 5 6 
#
# 1 62.7650 2.7774 5.5162 0.0000 -13.1370 0.0000
# 2 2.7774 213.6807 2.7185 0.0000 -25.8038 0.0000
# 3 5.5162 2.7185 83.3154 0.0000 -23.0443 0.0000
# 4 0.0000 0.0000 0.0000 2.9383 0.0000 -11.8106
# 5 -13.1370 -25.8038 -23.0443 0.0000 43.6775 0.0000
# 6 0.0000 0.0000 0.0000 -11.8106 0.0000 46.6864
#
#
#
# Elastic Compliance Matrix: (Units=1/GPa)
#
#
# Indices 1 2 3 4 5 6 
#
# 1 0.017051 0.000451 0.000408 0.000000 0.005610 0.000000
# 2 0.000451 0.005094 0.000789 0.000000 0.003561 0.000000
# 3 0.000408 0.000789 0.014182 0.000000 0.008071 0.000000
# 4 0.000000 0.000000 0.000000-20.190571 0.000000 -5.107739
# 5 0.005610 0.003561 0.008071 0.000000 0.030945 0.000000
# 6 0.000000 0.000000 0.000000 -5.107739 0.000000 -1.270718
#
#
# Mechanical properties :
#
#
# Convention : Reuss Voigt Hill
#
# Bulk Modulus (GPa) = 25.23823 42.42058 33.82941
# Shear Modulus (GPa) = -0.23382 41.91037 20.83828
#
# Velocity S-wave (km/s) = -0.30743 4.11595 2.90228
# Velocity P-wave (km/s) = 3.17424 6.30359 4.99054
#
# Compressibility (1/GPa) = 0.03962242
#
# Stress axis : x y z
#
# Youngs Moduli (GPa) = 58.64819 196.30789 70.51042
#
# Poissons Ratio (x) = -0.08846 -0.02877
# Poissons Ratio (y) = -0.02643 -0.05563
# Poissons Ratio (z) = -0.02393 -0.15488
#
# Static dielectric constant tensor:
#      x y z
#    x 2.391550 0.000000 -0.036970 
#    y 0.000000 -0.556330 0.000000 
#    z -0.036970 0.000000 1.899550 
# 
# From -- ./inp_files/35400.got.cif
#   From: 2010.05.17/outbox.cif.g08.bks.cpg/sg13_18_cif.got.tgz:35400.got - 2010.06.03 16:44:36.
