data_PCOD9233675
_publ_section_title
;
Structure prediction by ZEFSAII (Michael W. Deem and Ramdas Pophale) SiO2 
 PCOD9233675
Probable space group: P 2/C
;
_chemical_formula_sum "Si O2"
_cell_formula_units_Z 30
_cell_length_a 10.604012
_cell_length_b 6.691051
_cell_length_c 18.822294
_cell_angle_alpha 90.000000
_cell_angle_beta 107.127412
_cell_angle_gamma 90.000000
_cell_volume 1276.253599
_symmetry_space_group_name_H-M "P 2/C"
_symmetry_group_IT_number 13
_symmetry_cell_setting 'monoclinic'
loop_
_space_group_symop_operation_xyz
x,y,z
-x,y,1/2-z
-x,-y,-z
x,-y,1/2+z
loop_
_atom_site_type_symbol
_atom_site_label
_atom_site_fract_x
_atom_site_fract_y
_atom_site_fract_z
Si Si1 0.877637 0.593663 0.020477
Si Si2 0.702141 0.537205 0.870181
Si Si3 0.301427 0.082669 0.195695
Si Si4 0.910953 0.776785 0.358257
Si Si5 0.554036 0.975709 0.638201
Si Si6 0.000000 0.521303 0.750000
Si Si7 0.761179 0.644630 0.624752
Si Si8 0.534729 0.609878 0.080213
O O1 0.814512 0.412582 0.055549
O O2 0.948055 0.766060 0.078320
O O3 0.771643 0.661326 0.945518
O O4 0.000000 0.500000 0.000000
O O5 0.792178 0.342592 0.877305
O O6 0.561197 0.471151 0.874602
O O7 0.703594 0.675998 0.801210
O O8 0.155776 0.991559 0.162321
O O9 0.360747 0.981079 0.276004
O O10 0.410886 0.064370 0.150804
O O11 0.937512 0.632386 0.296078
O O12 0.528857 0.153217 0.579179
O O13 0.647576 0.809959 0.616099
O O14 0.889497 0.658000 0.694595
O O15 0.682335 0.441532 0.628167
O O16 0.500000 0.500000 0.000000
#
# Coordination Sequence:
#
# PCOD9233675 Si02
#       8
#     4   4   4   4   4   2   4   4
#     4   9  21  41  65  92 133 181 229 274 350 425
#     4  11  21  42  66 100 136 179 226 292 362 419
#     4  11  23  41  67 101 137 178 232 295 362 434
#     4  10  21  42  65  93 139 185 233 290 344 436
#     4  11  25  42  65 104 135 179 236 298 367 429
#     4  10  22  42  70  98 144 202 240 294 364 426
#     4  11  22  44  67 100 138 183 240 297 355 436
#     4  12  24  43  69 103 142 182 237 308 365 433
#
# _framework density 23.5063
#
# number of rings (size 3 to 8) (size 9 to 14) (size 15 to 20)
#    0.000    1.333    4.000    1.600    0.000    1.067 
#    4.800   16.667    0.000    0.000    0.000    0.000 
#    0.000    0.000    0.000    0.000    0.000    0.000 
#
# Total GULP energy -167304.873542 kJ/mol
# GULP energy per Si atom -5576.829118 kJ/mol
# Density = 2.345280 g / cm^3
# Si number density = 23.506300 Si / 1000 Ang^3
#
#
#
# Elastic Constant Matrix: (Units=GPa)
#
#
# Indices 1 2 3 4 5 6 
#
# 1 123.2175 28.4337 27.6230 0.0000 -15.5948 0.0000
# 2 28.4337 61.0120 11.6046 0.0000 -8.9760 0.0000
# 3 27.6230 11.6046 66.9732 0.0000 4.3310 0.0000
# 4 0.0000 0.0000 0.0000 27.4717 0.0000 0.7593
# 5 -15.5948 -8.9760 4.3310 0.0000 37.5544 0.0000
# 6 0.0000 0.0000 0.0000 0.7593 0.0000 43.9990
#
#
#
# Elastic Compliance Matrix: (Units=1/GPa)
#
#
# Indices 1 2 3 4 5 6 
#
# 1 0.010283 -0.003481 -0.003889 0.000000 0.003887 0.000000
# 2 -0.003481 0.018889 -0.002051 0.000000 0.003306 0.000000
# 3 -0.003889 -0.002051 0.017155 0.000000 -0.004084 0.000000
# 4 0.000000 0.000000 0.000000 0.036418 0.000000 -0.000628
# 5 0.003887 0.003306 -0.004084 0.000000 0.029503 0.000000
# 6 0.000000 0.000000 0.000000 -0.000628 0.000000 0.022739
#
#
# Mechanical properties :
#
#
# Convention : Reuss Voigt Hill
#
# Bulk Modulus (GPa) = 36.38425 42.94723 39.66574
# Shear Modulus (GPa) = 30.67669 34.04112 32.35890
#
# Velocity S-wave (km/s) = 3.61645 3.80961 3.71429
# Velocity P-wave (km/s) = 5.74025 6.13686 5.94186
#
# Compressibility (1/GPa) = 0.02748442
#
# Stress axis : x y z
#
# Youngs Moduli (GPa) = 97.25052 52.94155 58.29208
#
# Poissons Ratio (x) = 0.18427 0.22672
# Poissons Ratio (y) = 0.33848 0.11957
# Poissons Ratio (z) = 0.37824 0.10859
#
# Static dielectric constant tensor:
#      x y z
#    x 1.878930 0.000000 -0.002290 
#    y 0.000000 1.945140 0.000000 
#    z -0.002290 0.000000 1.992840 
# 
# From -- ./inp_files/77560.got.cif
#   From: 2010.05.17/outbox.cif.g08.bks.cpg/sg13_39_cif.got.tgz:77560.got - 2010.06.03 16:44:36.
