data_PCOD9233108
_publ_section_title
;
Structure prediction by ZEFSAII (Michael W. Deem and Ramdas Pophale) SiO2 
 PCOD9233108
Probable space group: P 2/C
;
_chemical_formula_sum "Si O2"
_cell_formula_units_Z 32
_cell_length_a 7.949551
_cell_length_b 11.175960
_cell_length_c 22.280854
_cell_angle_alpha 90.000000
_cell_angle_beta 48.655818
_cell_angle_gamma 90.000000
_cell_volume 1486.132346
_symmetry_space_group_name_H-M "P 2/C"
_symmetry_group_IT_number 13
_symmetry_cell_setting 'monoclinic'
loop_
_space_group_symop_operation_xyz
x,y,z
-x,y,1/2-z
-x,-y,-z
x,-y,1/2+z
loop_
_atom_site_type_symbol
_atom_site_label
_atom_site_fract_x
_atom_site_fract_y
_atom_site_fract_z
Si Si1 0.042679 0.223223 0.636941
Si Si2 0.187975 0.550252 0.257011
Si Si3 0.366868 0.844151 0.647001
Si Si4 0.803289 0.182339 0.444532
Si Si5 0.641874 0.064414 0.774433
Si Si6 0.177301 0.068683 0.498622
Si Si7 0.521168 0.727059 0.383493
Si Si8 0.749364 0.291555 0.212663
O O1 0.909715 0.346090 0.677291
O O2 0.871733 0.123737 0.700159
O O3 0.097579 0.178468 0.557934
O O4 0.264392 0.236202 0.625606
O O5 0.401259 0.608027 0.170911
O O6 0.223239 0.433857 0.288825
O O7 0.000000 0.527313 0.250000
O O8 0.315634 0.808321 0.591625
O O9 0.630421 0.873442 0.587046
O O10 0.257044 0.749669 0.716832
O O11 0.284924 0.969178 0.693291
O O12 0.689296 0.266081 0.522079
O O13 0.058231 0.222908 0.370089
O O14 0.756099 0.043930 0.474560
O O15 0.500000 0.019936 0.750000
O O16 0.495258 0.167668 0.840750
O O17 0.000000 0.000000 0.500000
O O18 0.500000 0.262214 0.250000
#
# Coordination Sequence:
#
# PCOD9233108 Si02
#       8
#     4   4   4   4   4   4   4   4
#     4  10  21  39  65  95 132 178 222 272 319 395
#     4   9  21  44  69  93 127 173 233 273 326 401
#     4  12  23  41  66  96 137 177 226 267 333 404
#     4  12  24  44  70  97 137 176 224 280 332 409
#     4  11  21  36  62  99 137 178 217 266 337 393
#     4  12  23  39  63 104 144 171 215 276 333 398
#     4  10  21  42  67 101 130 174 229 276 324 397
#     4  12  27  48  66  96 131 176 222 285 349 404
#
# _framework density 21.532402000000001
#
# number of rings (size 3 to 8) (size 9 to 14) (size 15 to 20)
#    0.000    1.000    2.500    6.000    0.000    3.000 
#    2.250    2.500    0.000    0.000    0.000    0.000 
#    0.000    0.000    0.000    0.000    0.000    0.000 
#
# Total GULP energy -178695.128947 kJ/mol
# GULP energy per Si atom -5584.222780 kJ/mol
# Density = 2.148339 g / cm^3
# Si number density = 21.532402 Si / 1000 Ang^3
#
#
#
# Elastic Constant Matrix: (Units=GPa)
#
#
# Indices 1 2 3 4 5 6 
#
# 1 53.7773 -3.8227 26.5900 0.0000 -14.2340 0.0000
# 2 -3.8227 51.0408 37.1754 0.0000 -12.6991 0.0000
# 3 26.5900 37.1754 128.3891 0.0000 -22.2911 0.0000
# 4 0.0000 0.0000 0.0000 87.3833 0.0000 -8.0953
# 5 -14.2340 -12.6991 -22.2911 0.0000 29.6333 0.0000
# 6 0.0000 0.0000 0.0000 -8.0953 0.0000 15.7699
#
#
#
# Elastic Compliance Matrix: (Units=1/GPa)
#
#
# Indices 1 2 3 4 5 6 
#
# 1 0.025170 0.008995 -0.005808 0.000000 0.011577 0.000000
# 2 0.008995 0.029013 -0.008460 0.000000 0.010390 0.000000
# 3 -0.005808 -0.008460 0.011879 0.000000 0.002521 0.000000
# 4 0.000000 0.000000 0.000000 0.012015 0.000000 0.006168
# 5 0.011577 0.010390 0.002521 0.000000 0.045655 0.000000
# 6 0.000000 0.000000 0.000000 0.006168 0.000000 0.066578
#
#
# Mechanical properties :
#
#
# Convention : Reuss Voigt Hill
#
# Bulk Modulus (GPa) = 18.01223 39.23252 28.62238
# Shear Modulus (GPa) = 22.79356 38.10825 30.45091
#
# Velocity S-wave (km/s) = 3.25710 4.21147 3.76465
# Velocity P-wave (km/s) = 4.74639 6.47367 5.67612
#
# Compressibility (1/GPa) = 0.05551783
#
# Stress axis : x y z
#
# Youngs Moduli (GPa) = 39.72933 34.46776 84.18377
#
# Poissons Ratio (x) = -0.31005 0.48891
# Poissons Ratio (y) = -0.35738 0.71217
# Poissons Ratio (z) = 0.23073 0.29159
#
# Static dielectric constant tensor:
#      x y z
#    x 1.861900 0.000000 0.012140 
#    y 0.000000 1.821510 0.000000 
#    z 0.012140 0.000000 1.794090 
# 
# From -- ./inp_files/76411.got.cif
#   From: 2010.05.17/outbox.cif.g08.bks.cpg/sg13_39_cif.got.tgz:76411.got - 2010.06.03 16:44:36.
