data_PCOD9233243
_publ_section_title
;
Structure prediction by ZEFSAII (Michael W. Deem and Ramdas Pophale) SiO2 
 PCOD9233243
Probable space group: P 2/C
;
_chemical_formula_sum "Si O2"
_cell_formula_units_Z 26
_cell_length_a 11.371080
_cell_length_b 9.702580
_cell_length_c 10.199905
_cell_angle_alpha 90.000000
_cell_angle_beta 97.666362
_cell_angle_gamma 90.000000
_cell_volume 1115.284749
_symmetry_space_group_name_H-M "P 2/C"
_symmetry_group_IT_number 13
_symmetry_cell_setting 'monoclinic'
loop_
_space_group_symop_operation_xyz
x,y,z
-x,y,1/2-z
-x,-y,-z
x,-y,1/2+z
loop_
_atom_site_type_symbol
_atom_site_label
_atom_site_fract_x
_atom_site_fract_y
_atom_site_fract_z
Si Si1 0.246945 0.047081 0.030039
Si Si2 0.607394 0.376943 0.180924
Si Si3 0.000000 0.655813 0.250000
Si Si4 0.171607 0.691936 0.601388
Si Si5 0.390748 0.936682 0.815436
Si Si6 0.813176 0.531424 0.585532
Si Si7 0.933460 0.800793 0.514703
O O1 0.133992 0.946526 0.995436
O O2 0.224053 0.207454 0.997520
O O3 0.287225 0.051145 0.188970
O O4 0.346740 0.000934 0.943285
O O5 0.500000 0.437022 0.250000
O O6 0.724382 0.344977 0.284859
O O7 0.571409 0.220390 0.140184
O O8 0.670116 0.472651 0.082014
O O9 0.890185 0.552526 0.202798
O O10 0.966464 0.750359 0.371470
O O11 0.139680 0.547597 0.534569
O O12 0.053863 0.778042 0.616829
O O13 0.500000 0.998749 0.750000
O O14 0.844948 0.689909 0.565653
#
# Coordination Sequence:
#
# PCOD9233243 Si02
#       7
#     4   4   2   4   4   4   4
#     4  11  23  41  65  97 127 168 215 268 321 376
#     4  10  21  40  62  88 124 165 212 262 314 380
#     4  10  22  36  62  92 126 166 204 268 306 396
#     4  10  23  39  58  92 128 159 208 268 312 378
#     4  10  22  42  66  92 130 174 217 264 318 382
#     4  11  20  39  63  87 124 163 214 248 327 374
#     4  11  22  39  63  90 128 167 208 258 324 382
#
# _framework density 23.312432000000001
#
# number of rings (size 3 to 8) (size 9 to 14) (size 15 to 20)
#    0.000    1.538    1.538    4.615    4.308    0.615 
#    0.000    0.769    0.000    0.000    0.000    0.000 
#    0.000    0.000    0.000    0.000    0.000    0.000 
#
# Total GULP energy -144894.313694 kJ/mol
# GULP energy per Si atom -5572.858219 kJ/mol
# Density = 2.325937 g / cm^3
# Si number density = 23.312432 Si / 1000 Ang^3
#
#
#
# Elastic Constant Matrix: (Units=GPa)
#
#
# Indices 1 2 3 4 5 6 
#
# 1 92.6898 0.6944 16.2488 0.0000 -24.9577 0.0000
# 2 0.6944 54.1825 12.6259 0.0000 -7.1549 0.0000
# 3 16.2488 12.6259 83.7388 0.0000 -13.3113 0.0000
# 4 0.0000 0.0000 0.0000 7.4783 0.0000 5.6837
# 5 -24.9577 -7.1549 -13.3113 0.0000 38.1539 0.0000
# 6 0.0000 0.0000 0.0000 5.6837 0.0000 22.9103
#
#
#
# Elastic Compliance Matrix: (Units=1/GPa)
#
#
# Indices 1 2 3 4 5 6 
#
# 1 0.013303 0.001278 -0.001432 0.000000 0.008442 0.000000
# 2 0.001278 0.019524 -0.002622 0.000000 0.003582 0.000000
# 3 -0.001432 -0.002622 0.013115 0.000000 0.003147 0.000000
# 4 0.000000 0.000000 0.000000 0.164790 0.000000 -0.040882
# 5 0.008442 0.003582 0.003147 0.000000 0.033502 0.000000
# 6 0.000000 0.000000 0.000000 -0.040882 0.000000 0.053791
#
#
# Mechanical properties :
#
#
# Convention : Reuss Voigt Hill
#
# Bulk Modulus (GPa) = 24.75867 32.19437 28.47652
# Shear Modulus (GPa) = 15.77082 27.11132 21.44107
#
# Velocity S-wave (km/s) = 2.60378 3.41391 3.03599
# Velocity P-wave (km/s) = 4.43655 5.42030 4.95291
#
# Compressibility (1/GPa) = 0.04038989
#
# Stress axis : x y z
#
# Youngs Moduli (GPa) = 75.16943 51.21926 76.24591
#
# Poissons Ratio (x) = -0.06546 0.10919
# Poissons Ratio (y) = -0.09607 0.19994
# Poissons Ratio (z) = 0.10765 0.13431
#
# Static dielectric constant tensor:
#      x y z
#    x 1.991630 0.000000 -0.006460 
#    y 0.000000 1.868220 0.000000 
#    z -0.006460 0.000000 2.058840 
# 
# From -- ./inp_files/32622.got.cif
#   From: 2010.05.17/outbox.cif.g08.bks.cpg/sg13_17_cif.got.tgz:32622.got - 2010.06.03 16:44:36.
