data_PCOD9233384
_publ_section_title
;
Structure prediction by ZEFSAII (Michael W. Deem and Ramdas Pophale) SiO2 
 PCOD9233384
Probable space group: P 2/C
;
_chemical_formula_sum "Si O2"
_cell_formula_units_Z 14
_cell_length_a 6.893443
_cell_length_b 11.990597
_cell_length_c 7.064348
_cell_angle_alpha 90.000000
_cell_angle_beta 87.859196
_cell_angle_gamma 90.000000
_cell_volume 583.506713
_symmetry_space_group_name_H-M "P 2/C"
_symmetry_group_IT_number 13
_symmetry_cell_setting 'monoclinic'
loop_
_space_group_symop_operation_xyz
x,y,z
-x,y,1/2-z
-x,-y,-z
x,-y,1/2+z
loop_
_atom_site_type_symbol
_atom_site_label
_atom_site_fract_x
_atom_site_fract_y
_atom_site_fract_z
Si Si1 0.000000 0.484763 0.250000
Si Si2 0.500000 0.733684 0.750000
Si Si3 0.000000 0.137384 0.750000
Si Si4 0.378234 0.894261 0.434434
Si Si5 0.186226 0.656780 0.040818
O O1 0.183242 0.568359 0.212757
O O2 0.019231 0.399789 0.421496
O O3 0.372655 0.811121 0.612844
O O4 0.630955 0.664840 0.600947
O O5 0.165037 0.075198 0.863856
O O6 0.118959 0.222246 0.610699
O O7 0.500000 0.846392 0.250000
O O8 0.500000 0.000000 0.500000
#
# Coordination Sequence:
#
# PCOD9233384 Si02
#       5
#     2   2   2   4   4
#     4   9  20  40  63 104 142 184 239 284 360 415
#     4  12  24  44  72 102 144 188 242 290 350 430
#     4  11  24  46  75 100 150 192 229 298 362 413
#     4  12  26  48  70 108 143 183 245 295 354 432
#     4  10  21  40  68 100 142 191 229 293 353 419
#
# _framework density 23.99287
#
# number of rings (size 3 to 8) (size 9 to 14) (size 15 to 20)
#    0.000    1.143    4.286    1.714    0.000    2.286 
#    0.000    0.000    0.000    0.000    0.000    0.000 
#    0.000    0.000    0.000    0.000    0.000    0.000 
#
# Total GULP energy -78157.586189 kJ/mol
# GULP energy per Si atom -5582.684728 kJ/mol
# Density = 2.393826 g / cm^3
# Si number density = 23.992870 Si / 1000 Ang^3
#
#
#
# Elastic Constant Matrix: (Units=GPa)
#
#
# Indices 1 2 3 4 5 6 
#
# 1 147.2416 46.0537 48.8988 0.0000 8.8084 0.0000
# 2 46.0537 72.9853 27.0040 0.0000 3.6797 0.0000
# 3 48.8988 27.0040 137.8963 0.0000 -20.8377 0.0000
# 4 0.0000 0.0000 0.0000 29.3538 0.0000 -6.1315
# 5 8.8084 3.6797 -20.8377 0.0000 58.2763 0.0000
# 6 0.0000 0.0000 0.0000 -6.1315 0.0000 14.3831
#
#
#
# Elastic Compliance Matrix: (Units=1/GPa)
#
#
# Indices 1 2 3 4 5 6 
#
# 1 0.009295 -0.004773 -0.002673 0.000000 -0.002059 0.000000
# 2 -0.004773 0.017464 -0.001887 0.000000 -0.001056 0.000000
# 3 -0.002673 -0.001887 0.009142 0.000000 0.003792 0.000000
# 4 0.000000 0.000000 0.000000 0.037397 0.000000 0.015943
# 5 -0.002059 -0.001056 0.003792 0.000000 0.018894 0.000000
# 6 0.000000 0.000000 0.000000 0.015943 0.000000 0.076323
#
#
# Mechanical properties :
#
#
# Convention : Reuss Voigt Hill
#
# Bulk Modulus (GPa) = 58.01562 66.89292 62.45427
# Shear Modulus (GPa) = 25.91675 36.14708 31.03192
#
# Velocity S-wave (km/s) = 3.29018 3.88567 3.60026
# Velocity P-wave (km/s) = 6.21825 6.93341 6.58554
#
# Compressibility (1/GPa) = 0.01723674
#
# Stress axis : x y z
#
# Youngs Moduli (GPa) = 107.58392 57.25943 109.38310
#
# Poissons Ratio (x) = 0.27327 0.29235
# Poissons Ratio (y) = 0.51344 0.20644
# Poissons Ratio (z) = 0.28754 0.10806
#
# Static dielectric constant tensor:
#      x y z
#    x 1.937910 0.000000 -0.014300 
#    y 0.000000 1.927930 0.000000 
#    z -0.014300 0.000000 2.355690 
# 
# From -- ./inp_files/8554.got.cif
#   From: 2010.05.17/outbox.cif.g08.bks.cpg/sg13_5_cif.got.tgz:8554.got - 2010.06.03 16:44:36.
