data_PCOD9233645
_publ_section_title
;
Structure prediction by ZEFSAII (Michael W. Deem and Ramdas Pophale) SiO2 
 PCOD9233645
Probable space group: P 2/C
;
_chemical_formula_sum "Si O2"
_cell_formula_units_Z 26
_cell_length_a 13.725119
_cell_length_b 12.171260
_cell_length_c 7.810455
_cell_angle_alpha 90.000000
_cell_angle_beta 60.571346
_cell_angle_gamma 90.000000
_cell_volume 1136.397555
_symmetry_space_group_name_H-M "P 2/C"
_symmetry_group_IT_number 13
_symmetry_cell_setting 'monoclinic'
loop_
_space_group_symop_operation_xyz
x,y,z
-x,y,1/2-z
-x,-y,-z
x,-y,1/2+z
loop_
_atom_site_type_symbol
_atom_site_label
_atom_site_fract_x
_atom_site_fract_y
_atom_site_fract_z
Si Si1 0.586243 0.157375 0.326209
Si Si2 0.710339 0.389442 0.243407
Si Si3 0.500000 0.787172 0.250000
Si Si4 0.131404 0.318921 0.694759
Si Si5 0.706775 0.620753 0.141755
Si Si6 0.072217 0.086644 0.325806
Si Si7 0.201520 0.097860 0.520174
O O1 0.500000 0.153412 0.250000
O O2 0.633979 0.281928 0.287150
O O3 0.539789 0.140368 0.555153
O O4 0.683260 0.078445 0.173995
O O5 0.652889 0.505624 0.250594
O O6 0.746207 0.386990 0.410618
O O7 0.805070 0.377184 0.017438
O O8 0.606253 0.712264 0.223471
O O9 0.185483 0.366835 0.824383
O O10 0.181442 0.194290 0.670749
O O11 0.000000 0.318880 0.750000
O O12 0.155337 0.012420 0.142314
O O13 0.000000 0.150447 0.250000
O O14 0.131836 0.150513 0.421452
O O15 0.000000 0.000000 0.500000
#
# Coordination Sequence:
#
# PCOD9233645 Si02
#       7
#     4   4   2   4   4   4   4
#     4  10  22  40  61  88 128 163 206 260 311 366
#     4  10  22  38  58  91 117 164 219 252 307 354
#     4  10  22  38  62  90 116 168 216 266 306 352
#     4  11  23  41  60  87 130 164 200 253 319 378
#     4  11  22  39  61  88 121 163 218 263 300 360
#     4   9  18  38  66  93 116 151 196 247 306 371
#     4  10  21  42  62  95 120 155 204 253 314 376
#
# _framework density 22.879318000000001
#
# number of rings (size 3 to 8) (size 9 to 14) (size 15 to 20)
#    0.000    1.846    1.538    3.231    1.077    2.462 
#   30.462    0.769    0.000    0.000    0.000    0.000 
#    0.000    0.000    0.000    0.000    0.000    0.000 
#
# Total GULP energy -144844.062268 kJ/mol
# GULP energy per Si atom -5570.925472 kJ/mol
# Density = 2.282724 g / cm^3
# Si number density = 22.879318 Si / 1000 Ang^3
#
#
#
# Elastic Constant Matrix: (Units=GPa)
#
#
# Indices 1 2 3 4 5 6 
#
# 1 106.5802 -11.7967 53.9516 0.0000 17.8914 0.0000
# 2 -11.7967 20.1121 4.3286 0.0000 3.2361 0.0000
# 3 53.9516 4.3286 146.6170 0.0000 7.4496 0.0000
# 4 0.0000 0.0000 0.0000 43.5814 0.0000 -44.6808
# 5 17.8914 3.2361 7.4496 0.0000 30.2901 0.0000
# 6 0.0000 0.0000 0.0000 -44.6808 0.0000 91.9315
#
#
#
# Elastic Compliance Matrix: (Units=1/GPa)
#
#
# Indices 1 2 3 4 5 6 
#
# 1 0.014761 0.011188 -0.005325 0.000000 -0.008605 0.000000
# 2 0.011188 0.059293 -0.005276 0.000000 -0.011646 0.000000
# 3 -0.005325 -0.005276 0.008858 0.000000 0.001530 0.000000
# 4 0.000000 0.000000 0.000000 0.045734 0.000000 0.022228
# 5 -0.008605 -0.011646 0.001530 0.000000 0.038964 0.000000
# 6 0.000000 0.000000 0.000000 0.022228 0.000000 0.021681
#
#
# Mechanical properties :
#
#
# Convention : Reuss Voigt Hill
#
# Bulk Modulus (GPa) = 11.89236 40.69736 26.29486
# Shear Modulus (GPa) = 23.13264 48.28232 35.70748
#
# Velocity S-wave (km/s) = 3.18319 4.59879 3.95484
# Velocity P-wave (km/s) = 4.32659 6.78417 5.68965
#
# Compressibility (1/GPa) = 0.08408759
#
# Stress axis : x y z
#
# Youngs Moduli (GPa) = 67.74680 16.86532 112.89375
#
# Poissons Ratio (x) = -0.18870 0.60113
# Poissons Ratio (y) = -0.75798 0.59562
# Poissons Ratio (z) = 0.36074 0.08898
#
# Static dielectric constant tensor:
#      x y z
#    x 1.835120 0.000000 -0.023370 
#    y 0.000000 1.826700 0.000000 
#    z -0.023370 0.000000 1.862170 
# 
# From -- ./inp_files/16404.got.cif
#   From: 2010.05.17/outbox.cif.g08.bks.cpg/sg13_9_cif.got.tgz:16404.got - 2010.06.03 16:44:36.
