data_PCOD9233413
_publ_section_title
;
Structure prediction by ZEFSAII (Michael W. Deem and Ramdas Pophale) SiO2 
 PCOD9233413
Probable space group: P 2/C
;
_chemical_formula_sum "Si O2"
_cell_formula_units_Z 24
_cell_length_a 16.628897
_cell_length_b 4.908578
_cell_length_c 22.552858
_cell_angle_alpha 90.000000
_cell_angle_beta 33.091215
_cell_angle_gamma 90.000000
_cell_volume 1005.060712
_symmetry_space_group_name_H-M "P 2/C"
_symmetry_group_IT_number 13
_symmetry_cell_setting 'monoclinic'
loop_
_space_group_symop_operation_xyz
x,y,z
-x,y,1/2-z
-x,-y,-z
x,-y,1/2+z
loop_
_atom_site_type_symbol
_atom_site_label
_atom_site_fract_x
_atom_site_fract_y
_atom_site_fract_z
Si Si1 0.305478 0.623096 0.162057
Si Si2 0.397798 0.888581 0.678522
Si Si3 0.304662 0.637918 0.024075
Si Si4 0.862366 0.794904 0.579637
Si Si5 0.890538 0.861872 0.872582
Si Si6 0.987958 0.473762 0.608107
O O1 0.328897 0.317692 0.171611
O O2 0.340194 0.659950 0.072097
O O3 0.131802 0.688897 0.279318
O O4 0.401031 0.822191 0.143841
O O5 0.554376 0.756229 0.596676
O O6 0.290185 0.912646 0.801667
O O7 0.252588 0.331394 0.045828
O O8 0.165146 0.830321 0.096032
O O9 0.872731 0.677814 0.507002
O O10 0.895648 0.557990 0.606720
O O11 0.000000 0.000000 0.500000
O O12 0.965579 0.741752 0.885005
O O13 0.000000 0.810825 0.750000
#
# Coordination Sequence:
#
# PCOD9233413 Si02
#       6
#     4   4   4   4   4   4
#     4  11  21  39  67  96 132 164 214 277 319 379
#     4  11  23  40  66  97 133 165 218 270 325 377
#     4  12  25  41  63  99 133 175 205 260 336 389
#     4  10  21  40  70  90 123 167 223 279 308 372
#     4  12  26  42  66  93 136 172 210 260 320 411
#     4  10  23  40  64  99 120 168 223 268 320 370
#
# _framework density 23.879152999999999
#
# number of rings (size 3 to 8) (size 9 to 14) (size 15 to 20)
#    0.000    1.000    3.333    3.500    4.667    0.000 
#    0.000    0.833    0.000    0.000    0.000    0.000 
#    0.000    0.000    0.000    0.000    0.000    0.000 
#
# Total GULP energy -134281.483367 kJ/mol
# GULP energy per Si atom -5595.061807 kJ/mol
# Density = 2.382480 g / cm^3
# Si number density = 23.879153 Si / 1000 Ang^3
#
#
#
# Elastic Constant Matrix: (Units=GPa)
#
#
# Indices 1 2 3 4 5 6 
#
# 1 46.2413 -1.8296 14.9897 0.0000 2.7355 0.0000
# 2 -1.8296 71.4187 -0.3994 0.0000 8.9086 0.0000
# 3 14.9897 -0.3994 134.1746 0.0000 -1.1856 0.0000
# 4 0.0000 0.0000 0.0000 27.4140 0.0000 -9.3152
# 5 2.7355 8.9086 -1.1856 0.0000 36.4030 0.0000
# 6 0.0000 0.0000 0.0000 -9.3152 0.0000 37.4859
#
#
#
# Elastic Compliance Matrix: (Units=1/GPa)
#
#
# Indices 1 2 3 4 5 6 
#
# 1 0.022598 0.000812 -0.002540 0.000000 -0.001979 0.000000
# 2 0.000812 0.014472 -0.000079 0.000000 -0.003605 0.000000
# 3 -0.002540 -0.000079 0.007741 0.000000 0.000462 0.000000
# 4 0.000000 0.000000 0.000000 0.039842 0.000000 0.009901
# 5 -0.001979 -0.003605 0.000462 0.000000 0.028516 0.000000
# 6 0.000000 0.000000 0.000000 0.009901 0.000000 0.029137
#
#
# Mechanical properties :
#
#
# Convention : Reuss Voigt Hill
#
# Bulk Modulus (GPa) = 24.27438 30.81733 27.54585
# Shear Modulus (GPa) = 31.31794 36.19884 33.75839
#
# Velocity S-wave (km/s) = 3.62542 3.89770 3.76402
# Velocity P-wave (km/s) = 5.26426 5.76105 5.51825
#
# Compressibility (1/GPa) = 0.04119570
#
# Stress axis : x y z
#
# Youngs Moduli (GPa) = 44.25132 69.09901 129.18970
#
# Poissons Ratio (x) = -0.05608 0.32810
# Poissons Ratio (y) = -0.03592 0.01026
# Poissons Ratio (z) = 0.11238 0.00549
#
# Static dielectric constant tensor:
#      x y z
#    x 1.908070 0.000000 -0.051510 
#    y 0.000000 1.910430 0.000000 
#    z -0.051510 0.000000 1.999760 
# 
# From -- ./inp_files/77153.got.cif
#   From: 2010.05.17/outbox.cif.g08.bks.cpg/sg13_39_cif.got.tgz:77153.got - 2010.06.03 16:44:36.
