data_PCOD9233641
_publ_section_title
;
Structure prediction by ZEFSAII (Michael W. Deem and Ramdas Pophale) SiO2 
 PCOD9233641
Probable space group: P 2/C
;
_chemical_formula_sum "Si O2"
_cell_formula_units_Z 20
_cell_length_a 7.816426
_cell_length_b 13.850684
_cell_length_c 12.501344
_cell_angle_alpha 90.000000
_cell_angle_beta 129.127594
_cell_angle_gamma 90.000000
_cell_volume 1049.914123
_symmetry_space_group_name_H-M "P 2/C"
_symmetry_group_IT_number 13
_symmetry_cell_setting 'monoclinic'
loop_
_space_group_symop_operation_xyz
x,y,z
-x,y,1/2-z
-x,-y,-z
x,-y,1/2+z
loop_
_atom_site_type_symbol
_atom_site_label
_atom_site_fract_x
_atom_site_fract_y
_atom_site_fract_z
Si Si1 0.750090 0.089164 0.157293
Si Si2 0.563579 0.101646 0.655697
Si Si3 0.285174 0.590533 0.591279
Si Si4 0.505115 0.738268 0.984119
Si Si5 0.887530 0.397115 0.090556
O O1 0.603696 0.180034 0.135757
O O2 0.000000 0.119489 0.250000
O O3 0.721613 0.990573 0.210616
O O4 0.651231 0.070834 0.999345
O O5 0.500000 0.123993 0.750000
O O6 0.637802 0.197806 0.622889
O O7 0.500000 0.574395 0.750000
O O8 0.350709 0.666056 0.526292
O O9 0.219258 0.491857 0.505243
O O10 0.085527 0.628372 0.587048
O O11 0.303119 0.682013 0.962554
O O12 0.000000 0.418086 0.250000
#
# Coordination Sequence:
#
# PCOD9233641 Si02
#       5
#     4   4   4   4   4
#     4   9  20  40  61  88 122 156 202 252 304 367
#     4   9  21  41  58  90 124 160 199 252 314 352
#     4  11  24  39  66  88 124 167 197 258 312 353
#     4  10  21  42  62  91 123 160 207 256 286 382
#     4  11  23  42  61  94 122 159 213 245 312 364
#
# _framework density 19.049178000000001
#
# number of rings (size 3 to 8) (size 9 to 14) (size 15 to 20)
#    1.200    0.800    2.000    1.200    0.000    2.400 
#    7.200    0.000    0.000    0.000    0.000    0.000 
#    0.000    0.000    0.000    0.000    0.000    0.000 
#
# Total GULP energy -111381.804801 kJ/mol
# GULP energy per Si atom -5569.090240 kJ/mol
# Density = 1.900582 g / cm^3
# Si number density = 19.049178 Si / 1000 Ang^3
#
#
#
# Elastic Constant Matrix: (Units=GPa)
#
#
# Indices 1 2 3 4 5 6 
#
# 1 106.2605 58.5399 13.5220 0.0000 -12.1357 0.0000
# 2 58.5399 106.4096 15.8827 0.0000 -13.7151 0.0000
# 3 13.5220 15.8827 21.9635 0.0000 -18.4606 0.0000
# 4 0.0000 0.0000 0.0000 13.4466 0.0000 3.4491
# 5 -12.1357 -13.7151 -18.4606 0.0000 16.3432 0.0000
# 6 0.0000 0.0000 0.0000 3.4491 0.0000 19.8977
#
#
#
# Elastic Compliance Matrix: (Units=1/GPa)
#
#
# Indices 1 2 3 4 5 6 
#
# 1 0.013798 -0.007050 0.004789 0.000000 0.009739 0.000000
# 2 -0.007050 0.014155 -0.006158 0.000000 -0.000312 0.000000
# 3 0.004789 -0.006158 0.902902 0.000000 1.018269 0.000000
# 4 0.000000 0.000000 0.000000 0.077829 0.000000 -0.013491
# 5 0.009739 -0.000312 1.018269 0.000000 1.218353 0.000000
# 6 0.000000 0.000000 0.000000 -0.013491 0.000000 0.052596
#
#
# Mechanical properties :
#
#
# Convention : Reuss Voigt Hill
#
# Bulk Modulus (GPa) = 1.09407 45.61365 23.35386
# Shear Modulus (GPa) = 1.92223 19.71676 10.81950
#
# Velocity S-wave (km/s) = 1.00562 3.22070 2.38581
# Velocity P-wave (km/s) = 1.38707 6.15043 4.45823
#
# Compressibility (1/GPa) = 0.91401669
#
# Stress axis : x y z
#
# Youngs Moduli (GPa) = 72.47609 70.64572 1.10754
#
# Poissons Ratio (x) = 0.49807 -0.00530
# Poissons Ratio (y) = 0.51097 0.00682
# Poissons Ratio (z) = -0.34709 0.43502
#
# Static dielectric constant tensor:
#      x y z
#    x 1.650950 0.000000 0.013210 
#    y 0.000000 1.706370 0.000000 
#    z 0.013210 0.000000 1.653850 
# 
# From -- ./inp_files/29766.got.cif
#   From: 2010.05.17/outbox.cif.g08.bks.cpg/sg13_15_cif.got.tgz:29766.got - 2010.06.03 16:44:36.
