data_PCOD9233748
_publ_section_title
;
Structure prediction by ZEFSAII (Michael W. Deem and Ramdas Pophale) SiO2 
 PCOD9233748
Probable space group: P 2/C
;
_chemical_formula_sum "Si O2"
_cell_formula_units_Z 28
_cell_length_a 27.974763
_cell_length_b 8.145805
_cell_length_c 11.892693
_cell_angle_alpha 90.000000
_cell_angle_beta 151.083494
_cell_angle_gamma 90.000000
_cell_volume 1310.412910
_symmetry_space_group_name_H-M "P 2/C"
_symmetry_group_IT_number 13
_symmetry_cell_setting 'monoclinic'
loop_
_space_group_symop_operation_xyz
x,y,z
-x,y,1/2-z
-x,-y,-z
x,-y,1/2+z
loop_
_atom_site_type_symbol
_atom_site_label
_atom_site_fract_x
_atom_site_fract_y
_atom_site_fract_z
Si Si1 0.780045 0.176510 0.398360
Si Si2 0.631670 0.340197 0.243087
Si Si3 0.821163 0.649225 0.299706
Si Si4 0.247589 0.187159 0.614000
Si Si5 0.957923 0.684360 0.394185
Si Si6 0.844444 0.274096 0.301839
Si Si7 0.453501 0.320513 0.032027
O O1 0.675569 0.243628 0.226895
O O2 0.864525 0.297608 0.619842
O O3 0.794353 0.165662 0.294481
O O4 0.792659 0.996741 0.475503
O O5 0.722007 0.342998 0.518914
O O6 0.538547 0.268729 0.119652
O O7 0.597064 0.516462 0.124624
O O8 0.799128 0.722792 0.375159
O O9 0.911225 0.735401 0.417763
O O10 0.848300 0.457327 0.360214
O O11 0.219453 0.278233 0.442058
O O12 0.365794 0.190969 0.868358
O O13 0.000000 0.500000 0.500000
O O14 0.047442 0.778350 0.518710
O O15 0.500000 0.357854 0.250000
#
# Coordination Sequence:
#
# PCOD9233748 Si02
#       7
#     4   4   4   4   4   4   4
#     4  11  26  43  66  98 148 175 221 285 358 416
#     4  10  22  41  69  96 128 180 235 294 337 403
#     4  10  21  42  69  97 132 175 237 286 335 405
#     4  12  26  42  67 104 140 183 221 289 361 412
#     4   9  22  44  71  97 126 182 233 278 332 407
#     4  11  24  43  69  96 137 179 234 277 340 414
#     4  11  22  40  70 100 129 176 242 291 339 419
#
# _framework density 21.36731
#
# number of rings (size 3 to 8) (size 9 to 14) (size 15 to 20)
#    0.000    1.429    2.857    1.286    8.000    1.714 
#    2.571    0.714    0.000    0.000    0.000    0.000 
#    0.000    0.000    0.000    0.000    0.000    0.000 
#
# Total GULP energy -156325.120412 kJ/mol
# GULP energy per Si atom -5583.040015 kJ/mol
# Density = 2.131868 g / cm^3
# Si number density = 21.367310 Si / 1000 Ang^3
#
#
#
# Elastic Constant Matrix: (Units=GPa)
#
#
# Indices 1 2 3 4 5 6 
#
# 1 172.7404 33.3461 71.8093 0.0000 17.5201 0.0000
# 2 33.3461 51.6505 19.2055 0.0000 6.9507 0.0000
# 3 71.8093 19.2055 60.0468 0.0000 9.1440 0.0000
# 4 0.0000 0.0000 0.0000 12.7142 0.0000 -4.3836
# 5 17.5201 6.9507 9.1440 0.0000 38.4634 0.0000
# 6 0.0000 0.0000 0.0000 -4.3836 0.0000 14.0699
#
#
#
# Elastic Compliance Matrix: (Units=1/GPa)
#
#
# Indices 1 2 3 4 5 6 
#
# 1 0.011958 -0.002564 -0.013200 0.000000 -0.001846 0.000000
# 2 -0.002564 0.022737 -0.003899 0.000000 -0.002014 0.000000
# 3 -0.013200 -0.003899 0.033890 0.000000 -0.001340 0.000000
# 4 0.000000 0.000000 0.000000 0.088118 0.000000 0.027454
# 5 -0.001846 -0.002014 -0.001340 0.000000 0.027522 0.000000
# 6 0.000000 0.000000 0.000000 0.027454 0.000000 0.079627
#
#
# Mechanical properties :
#
#
# Convention : Reuss Voigt Hill
#
# Bulk Modulus (GPa) = 34.17684 59.23994 46.70839
# Shear Modulus (GPa) = 15.97789 23.72130 19.84959
#
# Velocity S-wave (km/s) = 2.73751 3.33553 3.05121
# Velocity P-wave (km/s) = 5.10114 6.52833 5.85836
#
# Compressibility (1/GPa) = 0.02925958
#
# Stress axis : x y z
#
# Youngs Moduli (GPa) = 83.62288 43.98081 29.50680
#
# Poissons Ratio (x) = 0.11276 0.38949
# Poissons Ratio (y) = 0.21440 0.11506
# Poissons Ratio (z) = 1.10381 0.17150
#
# Static dielectric constant tensor:
#      x y z
#    x 1.799820 0.000000 0.013000 
#    y 0.000000 1.778620 0.000000 
#    z 0.013000 0.000000 1.794690 
# 
# From -- ./inp_files/42279.got.cif
#   From: 2010.05.17/outbox.cif.g08.bks.cpg/sg13_22_cif.got.tgz:42279.got - 2010.06.03 16:44:36.
