data_PCOD9233459
_publ_section_title
;
Structure prediction by ZEFSAII (Michael W. Deem and Ramdas Pophale) SiO2 
 PCOD9233459
Probable space group: P 2/C
;
_chemical_formula_sum "Si O2"
_cell_formula_units_Z 16
_cell_length_a 5.258212
_cell_length_b 7.551780
_cell_length_c 17.653099
_cell_angle_alpha 90.000000
_cell_angle_beta 86.603487
_cell_angle_gamma 90.000000
_cell_volume 699.753116
_symmetry_space_group_name_H-M "P 2/C"
_symmetry_group_IT_number 13
_symmetry_cell_setting 'monoclinic'
loop_
_space_group_symop_operation_xyz
x,y,z
-x,y,1/2-z
-x,-y,-z
x,-y,1/2+z
loop_
_atom_site_type_symbol
_atom_site_label
_atom_site_fract_x
_atom_site_fract_y
_atom_site_fract_z
Si Si1 0.221984 0.150973 0.582412
Si Si2 0.729404 0.312369 0.526903
Si Si3 0.732310 0.138701 0.296631
Si Si4 0.362754 0.499199 0.125876
O O1 0.469281 0.197268 0.527720
O O2 0.237254 0.311211 0.644559
O O3 0.963362 0.187824 0.542508
O O4 0.246211 0.968417 0.625401
O O5 0.759048 0.425934 0.450706
O O6 0.651652 0.449039 0.596070
O O7 0.500000 0.066994 0.250000
O O8 0.671391 0.343126 0.315500
O O9 0.000000 0.122321 0.250000
#
# Coordination Sequence:
#
# PCOD9233459 Si02
#       4
#     4   4   4   4
#     4  10  21  41  62  92 126 158 202 267 312 377
#     4   9  20  40  68  96 118 155 207 265 338 357
#     4  12  28  41  60  91 128 177 218 244 304 386
#     4   9  23  40  68  92 125 156 211 266 315 373
#
# _framework density 22.865209
#
# number of rings (size 3 to 8) (size 9 to 14) (size 15 to 20)
#    1.500    0.500    0.000    2.250    3.500    4.000 
#    0.000    0.000    0.000    0.000    0.000    0.000 
#    0.000    0.000    0.000    0.000    0.000    0.000 
#
# Total GULP energy -89296.968466 kJ/mol
# GULP energy per Si atom -5581.060529 kJ/mol
# Density = 2.281317 g / cm^3
# Si number density = 22.865209 Si / 1000 Ang^3
#
#
#
# Elastic Constant Matrix: (Units=GPa)
#
#
# Indices 1 2 3 4 5 6 
#
# 1 170.4591 14.6353 27.5244 0.0000 -0.5915 0.0000
# 2 14.6353 99.9836 4.2043 0.0000 -3.3911 0.0000
# 3 27.5244 4.2043 34.5131 0.0000 -6.3655 0.0000
# 4 0.0000 0.0000 0.0000 6.2163 0.0000 18.7512
# 5 -0.5915 -3.3911 -6.3655 0.0000 27.1336 0.0000
# 6 0.0000 0.0000 0.0000 18.7512 0.0000 -3.9855
#
#
#
# Elastic Compliance Matrix: (Units=1/GPa)
#
#
# Indices 1 2 3 4 5 6 
#
# 1 0.006833 -0.000808 -0.005584 0.000000 -0.001262 0.000000
# 2 -0.000808 0.010175 -0.000380 0.000000 0.001165 0.000000
# 3 -0.005584 -0.000380 0.034955 0.000000 0.008031 0.000000
# 4 0.000000 0.000000 0.000000 0.010589 0.000000 0.049819
# 5 -0.001262 0.001165 0.008031 0.000000 0.038857 0.000000
# 6 0.000000 0.000000 0.000000 0.049819 0.000000 -0.016516
#
#
# Mechanical properties :
#
#
# Convention : Reuss Voigt Hill
#
# Bulk Modulus (GPa) = 26.02848 44.18707 35.10778
# Shear Modulus (GPa) = 44.94604 23.11232 34.02918
#
# Velocity S-wave (km/s) = 4.43843 3.18277 3.86197
# Velocity P-wave (km/s) = 6.13794 5.73356 5.93919
#
# Compressibility (1/GPa) = 0.03841945
#
# Stress axis : x y z
#
# Youngs Moduli (GPa) = 146.34547 98.27586 28.60814
#
# Poissons Ratio (x) = 0.07943 0.15974
# Poissons Ratio (y) = 0.11828 0.01087
# Poissons Ratio (z) = 0.81716 0.03736
#
# Static dielectric constant tensor:
#      x y z
#    x 1.868710 0.000000 0.036010 
#    y 0.000000 1.894660 0.000000 
#    z 0.036010 0.000000 1.910510 
# 
# From -- ./inp_files/60200.got.cif
#   From: 2010.05.17/outbox.cif.g08.bks.cpg/sg13_31_cif.got.tgz:60200.got - 2010.06.03 16:44:36.
