data_PCOD9233789
_publ_section_title
;
Structure prediction by ZEFSAII (Michael W. Deem and Ramdas Pophale) SiO2 
 PCOD9233789
Probable space group: P 2/C
;
_chemical_formula_sum "Si O2"
_cell_formula_units_Z 28
_cell_length_a 18.502038
_cell_length_b 13.665419
_cell_length_c 9.713654
_cell_angle_alpha 90.000000
_cell_angle_beta 39.424998
_cell_angle_gamma 90.000000
_cell_volume 1559.714477
_symmetry_space_group_name_H-M "P 2/C"
_symmetry_group_IT_number 13
_symmetry_cell_setting 'monoclinic'
loop_
_space_group_symop_operation_xyz
x,y,z
-x,y,1/2-z
-x,-y,-z
x,-y,1/2+z
loop_
_atom_site_type_symbol
_atom_site_label
_atom_site_fract_x
_atom_site_fract_y
_atom_site_fract_z
Si Si1 0.630351 0.563483 0.611387
Si Si2 0.680684 0.605108 0.844967
Si Si3 0.636714 0.213960 0.029844
Si Si4 0.307947 0.153945 0.858176
Si Si5 0.000000 0.121168 0.750000
Si Si6 0.500000 0.254938 0.750000
Si Si7 0.245483 0.069128 0.429119
Si Si8 0.178149 0.789325 0.804647
O O1 0.500000 0.552753 0.750000
O O2 0.649315 0.555980 0.746415
O O3 0.697049 0.479451 0.432872
O O4 0.664380 0.674396 0.527275
O O5 0.783239 0.683168 0.698504
O O6 0.575059 0.673736 0.044836
O O7 0.500000 0.201353 0.250000
O O8 0.700223 0.138837 0.036672
O O9 0.678340 0.196095 0.814125
O O10 0.418882 0.188974 0.777170
O O11 0.297868 0.037548 0.858358
O O12 0.204889 0.195789 0.104672
O O13 0.108154 0.061541 0.646814
O O14 0.054170 0.184937 0.546630
O O15 0.255486 0.128034 0.269891
#
# Coordination Sequence:
#
# PCOD9233789 Si02
#       8
#     4   4   4   4   2   2   4   4
#     4  11  21  33  56  82 116 157 193 237 287 346
#     4  11  21  36  56  84 116 155 197 235 298 350
#     4  11  24  38  57  90 130 156 195 241 289 353
#     4  11  23  35  60  89 116 163 203 234 287 354
#     4   8  20  42  68  76 114 160 194 254 306 342
#     4  10  22  36  54  84 132 156 190 236 286 366
#     4  10  21  43  60  86 117 160 201 240 305 347
#     4   9  21  41  59  84 113 150 201 245 299 350
#
# _framework density 17.952002
#
# number of rings (size 3 to 8) (size 9 to 14) (size 15 to 20)
#    0.857    0.857    2.143    3.000    7.000    1.143 
#    0.000    0.000    0.000    3.429    0.000    0.000 
#    0.000    0.000    0.000    0.000    0.000    0.000 
#
# Total GULP energy -156053.028255 kJ/mol
# GULP energy per Si atom -5573.322438 kJ/mol
# Density = 1.791114 g / cm^3
# Si number density = 17.952002 Si / 1000 Ang^3
#
#
#
# Elastic Constant Matrix: (Units=GPa)
#
#
# Indices 1 2 3 4 5 6 
#
# 1 53.1767 34.1935 31.4710 0.0000 11.5360 0.0000
# 2 34.1935 73.1855 14.6842 0.0000 2.3806 0.0000
# 3 31.4710 14.6842 90.1992 0.0000 23.2188 0.0000
# 4 0.0000 0.0000 0.0000 18.6161 0.0000 9.8312
# 5 11.5360 2.3806 23.2188 0.0000 25.0608 0.0000
# 6 0.0000 0.0000 0.0000 9.8312 0.0000 -4.6328
#
#
#
# Elastic Compliance Matrix: (Units=1/GPa)
#
#
# Indices 1 2 3 4 5 6 
#
# 1 0.033995 -0.014101 -0.007724 0.000000 -0.007153 0.000000
# 2 -0.014101 0.019994 0.000634 0.000000 0.004004 0.000000
# 3 -0.007724 0.000634 0.016781 0.000000 -0.012052 0.000000
# 4 0.000000 0.000000 0.000000 0.025330 0.000000 0.053753
# 5 -0.007153 0.004004 -0.012052 0.000000 0.053981 0.000000
# 6 0.000000 0.000000 0.000000 0.053753 0.000000 -0.101784
#
#
# Mechanical properties :
#
#
# Convention : Reuss Voigt Hill
#
# Bulk Modulus (GPa) = 35.22544 41.91766 38.57155
# Shear Modulus (GPa) = 49.92882 16.88966 33.40924
#
# Velocity S-wave (km/s) = 5.27947 3.07061 4.31865
# Velocity P-wave (km/s) = 7.53846 5.99767 6.81177
#
# Compressibility (1/GPa) = 0.02838857
#
# Stress axis : x y z
#
# Youngs Moduli (GPa) = 29.41587 50.01377 59.59187
#
# Poissons Ratio (x) = 0.70523 0.46031
# Poissons Ratio (y) = 0.41478 -0.03778
# Poissons Ratio (z) = 0.22722 -0.03171
#
# Static dielectric constant tensor:
#      x y z
#    x 1.604800 0.000000 0.009260 
#    y 0.000000 1.593950 0.000000 
#    z 0.009260 0.000000 1.660680 
# 
# From -- ./inp_files/23335.got.cif
#   From: 2010.05.17/outbox.cif.g08.bks.cpg/sg13_12_cif.got.tgz:23335.got - 2010.06.03 16:44:36.
