data_PCOD9233497
_publ_section_title
;
Structure prediction by ZEFSAII (Michael W. Deem and Ramdas Pophale) SiO2 
 PCOD9233497
Probable space group: P 2/C
;
_chemical_formula_sum "Si O2"
_cell_formula_units_Z 18
_cell_length_a 10.173224
_cell_length_b 4.971470
_cell_length_c 17.838080
_cell_angle_alpha 90.000000
_cell_angle_beta 53.374961
_cell_angle_gamma 90.000000
_cell_volume 724.047967
_symmetry_space_group_name_H-M "P 2/C"
_symmetry_group_IT_number 13
_symmetry_cell_setting 'monoclinic'
loop_
_space_group_symop_operation_xyz
x,y,z
-x,y,1/2-z
-x,-y,-z
x,-y,1/2+z
loop_
_atom_site_type_symbol
_atom_site_label
_atom_site_fract_x
_atom_site_fract_y
_atom_site_fract_z
Si Si1 0.500000 0.633325 0.750000
Si Si2 0.303285 0.300271 0.573899
Si Si3 0.399892 0.776594 0.625387
Si Si4 0.985871 0.007829 0.664141
Si Si5 0.866953 0.490157 0.614401
O O1 0.423676 0.782228 0.704918
O O2 0.672718 0.507868 0.659805
O O3 0.267166 0.571197 0.633232
O O4 0.436699 0.349836 0.465290
O O5 0.158602 0.140052 0.583056
O O6 0.375787 0.077020 0.605283
O O7 0.868570 0.225165 0.665665
O O8 0.000000 0.009235 0.750000
O O9 0.935601 0.727714 0.644991
O O10 0.000000 0.500000 0.500000
#
# Coordination Sequence:
#
# PCOD9233497 Si02
#       5
#     2   4   4   4   4
#     4  12  26  46  68 102 142 178 228 282 348 420
#     4  10  21  41  64  94 129 173 225 274 331 396
#     4  10  22  38  65  95 131 174 218 276 334 396
#     4  12  24  45  72 101 137 184 240 290 342 414
#     4  12  28  46  71 104 143 186 228 289 358 417
#
# _framework density 24.860233999999998
#
# number of rings (size 3 to 8) (size 9 to 14) (size 15 to 20)
#    0.000    0.889    0.000    6.667    0.000    7.111 
#    0.000    0.000    0.000    0.000    0.000    0.000 
#    0.000    0.000    0.000    0.000    0.000    0.000 
#
# Total GULP energy -100434.552926 kJ/mol
# GULP energy per Si atom -5579.697385 kJ/mol
# Density = 2.480365 g / cm^3
# Si number density = 24.860234 Si / 1000 Ang^3
#
#
#
# Elastic Constant Matrix: (Units=GPa)
#
#
# Indices 1 2 3 4 5 6 
#
# 1 123.0717 23.5456 60.7205 0.0000 -0.9441 0.0000
# 2 23.5456 131.6504 37.8015 0.0000 35.5372 0.0000
# 3 60.7205 37.8015 135.3912 0.0000 -1.7195 0.0000
# 4 0.0000 0.0000 0.0000 12.9371 0.0000 -8.7240
# 5 -0.9441 35.5372 -1.7195 0.0000 57.5945 0.0000
# 6 0.0000 0.0000 0.0000 -8.7240 0.0000 31.4985
#
#
#
# Elastic Compliance Matrix: (Units=1/GPa)
#
#
# Indices 1 2 3 4 5 6 
#
# 1 0.010484 -0.000713 -0.004497 0.000000 0.000477 0.000000
# 2 -0.000713 0.010194 -0.002608 0.000000 -0.006380 0.000000
# 3 -0.004497 -0.002608 0.010154 0.000000 0.001838 0.000000
# 4 0.000000 0.000000 0.000000 0.095049 0.000000 0.026325
# 5 0.000477 -0.006380 0.001838 0.000000 0.021362 0.000000
# 6 0.000000 0.000000 0.000000 0.026325 0.000000 0.039039
#
#
# Mechanical properties :
#
#
# Convention : Reuss Voigt Hill
#
# Bulk Modulus (GPa) = 65.79819 70.47207 68.13513
# Shear Modulus (GPa) = 24.15667 38.27576 31.21621
#
# Velocity S-wave (km/s) = 3.12059 3.92808 3.54739
# Velocity P-wave (km/s) = 6.28560 6.99871 6.65172
#
# Compressibility (1/GPa) = 0.01519799
#
# Stress axis : x y z
#
# Youngs Moduli (GPa) = 95.38369 98.09540 98.48195
#
# Poissons Ratio (x) = 0.06991 0.44286
# Poissons Ratio (y) = 0.06798 0.25680
# Poissons Ratio (z) = 0.42892 0.25580
#
# Static dielectric constant tensor:
#      x y z
#    x 2.724050 0.000000 -0.452900 
#    y 0.000000 1.933910 0.000000 
#    z -0.452900 0.000000 2.269170 
# 
# From -- ./inp_files/62263.got.cif
#   From: 2010.05.17/outbox.cif.g08.bks.cpg/sg13_32_cif.got.tgz:62263.got - 2010.06.03 16:44:36.
