data_PCOD9233176
_publ_section_title
;
Structure prediction by ZEFSAII (Michael W. Deem and Ramdas Pophale) SiO2 
 PCOD9233176
Probable space group: P 2/C
;
_chemical_formula_sum "Si O2"
_cell_formula_units_Z 22
_cell_length_a 19.764754
_cell_length_b 6.245466
_cell_length_c 20.877848
_cell_angle_alpha 90.000000
_cell_angle_beta 21.528173
_cell_angle_gamma 90.000000
_cell_volume 945.712561
_symmetry_space_group_name_H-M "P 2/C"
_symmetry_group_IT_number 13
_symmetry_cell_setting 'monoclinic'
loop_
_space_group_symop_operation_xyz
x,y,z
-x,y,1/2-z
-x,-y,-z
x,-y,1/2+z
loop_
_atom_site_type_symbol
_atom_site_label
_atom_site_fract_x
_atom_site_fract_y
_atom_site_fract_z
Si Si1 0.000000 0.060913 0.750000
Si Si2 0.454054 0.883653 0.620116
Si Si3 0.697205 0.767027 0.975981
Si Si4 0.271581 0.255850 0.726033
Si Si5 0.351723 0.502521 0.287397
Si Si6 0.966966 0.577892 0.173629
O O1 0.966860 0.217089 0.719733
O O2 0.823096 0.908072 0.911616
O O3 0.557892 0.743519 0.474895
O O4 0.403586 0.741287 0.725219
O O5 0.598347 0.065680 0.515009
O O6 0.280557 0.010215 0.743145
O O7 0.829029 0.601715 0.822148
O O8 0.531587 0.629407 0.150895
O O9 0.299060 0.397638 0.764513
O O10 0.100201 0.339507 0.836348
O O11 0.173129 0.511174 0.488349
#
# Coordination Sequence:
#
# PCOD9233176 Si02
#       6
#     2   4   4   4   4   4
#     4  12  26  48  70  86 132 190 232 286 342 404
#     4  10  21  40  70 103 141 182 213 270 350 410
#     4  11  24  47  68  96 134 180 228 284 340 403
#     4  10  21  39  69 105 145 178 214 277 349 415
#     4  11  24  43  71 107 137 174 224 286 345 410
#     4  12  26  46  69 102 137 180 234 282 341 407
#
# _framework density 23.262882999999999
#
# number of rings (size 3 to 8) (size 9 to 14) (size 15 to 20)
#    0.000    1.091    3.636    1.636    5.091    3.636 
#    0.000   13.636    0.000    0.000    0.000    0.000 
#    0.000    0.000    0.000    0.000    0.000    0.000 
#
# Total GULP energy -123113.024151 kJ/mol
# GULP energy per Si atom -5596.046552 kJ/mol
# Density = 2.320994 g / cm^3
# Si number density = 23.262883 Si / 1000 Ang^3
#
#
#
# Elastic Constant Matrix: (Units=GPa)
#
#
# Indices 1 2 3 4 5 6 
#
# 1 79.4181 46.6789 24.6459 0.0000 -16.7893 0.0000
# 2 46.6789 126.5486 68.2758 0.0000 -12.3339 0.0000
# 3 24.6459 68.2758 144.5575 0.0000 -16.7813 0.0000
# 4 0.0000 0.0000 0.0000 19.6598 0.0000 -24.8549
# 5 -16.7893 -12.3339 -16.7813 0.0000 24.5283 0.0000
# 6 0.0000 0.0000 0.0000 -24.8549 0.0000 27.4091
#
#
#
# Elastic Compliance Matrix: (Units=1/GPa)
#
#
# Indices 1 2 3 4 5 6 
#
# 1 0.018036 -0.006238 0.001022 0.000000 0.009907 0.000000
# 2 -0.006238 0.012860 -0.005165 0.000000 -0.001338 0.000000
# 3 0.001022 -0.005165 0.009736 0.000000 0.004763 0.000000
# 4 0.000000 0.000000 0.000000 -0.347351 0.000000 -0.314982
# 5 0.009907 -0.001338 0.004763 0.000000 0.050137 0.000000
# 6 0.000000 0.000000 0.000000 -0.314982 0.000000 -0.249145
#
#
# Mechanical properties :
#
#
# Convention : Reuss Voigt Hill
#
# Bulk Modulus (GPa) = 50.33441 69.96947 60.15194
# Shear Modulus (GPa) = -10.45279 28.38101 8.96411
#
# Velocity S-wave (km/s) = -2.12205 3.49666 1.96514
# Velocity P-wave (km/s) = 3.95981 6.81507 5.57339
#
# Compressibility (1/GPa) = 0.01986712
#
# Stress axis : x y z
#
# Youngs Moduli (GPa) = 55.44609 77.76281 102.71057
#
# Poissons Ratio (x) = 0.48510 -0.10492
# Poissons Ratio (y) = 0.34588 0.53054
# Poissons Ratio (z) = -0.05664 0.40168
#
# Static dielectric constant tensor:
#      x y z
#    x 1.880160 0.000000 -0.029960 
#    y 0.000000 1.876820 0.000000 
#    z -0.029960 0.000000 1.861560 
# 
# From -- ./inp_files/88701.got.cif
#   From: 2010.05.17/outbox.cif.g08.bks.cpg/sg13_45_cif.got.tgz:88701.got - 2010.06.03 16:44:36.
