data_PCOD9233801
_publ_section_title
;
Structure prediction by ZEFSAII (Michael W. Deem and Ramdas Pophale) SiO2 
 PCOD9233801
Probable space group: P 2/C
;
_chemical_formula_sum "Si O2"
_cell_formula_units_Z 26
_cell_length_a 5.804109
_cell_length_b 11.707624
_cell_length_c 17.791095
_cell_angle_alpha 90.000000
_cell_angle_beta 79.349307
_cell_angle_gamma 90.000000
_cell_volume 1188.118814
_symmetry_space_group_name_H-M "P 2/C"
_symmetry_group_IT_number 13
_symmetry_cell_setting 'monoclinic'
loop_
_space_group_symop_operation_xyz
x,y,z
-x,y,1/2-z
-x,-y,-z
x,-y,1/2+z
loop_
_atom_site_type_symbol
_atom_site_label
_atom_site_fract_x
_atom_site_fract_y
_atom_site_fract_z
Si Si1 0.984764 0.056927 0.402760
Si Si2 0.000000 0.417818 0.750000
Si Si3 0.273461 0.641453 0.372337
Si Si4 0.500000 0.188171 0.750000
Si Si5 0.679441 0.899747 0.508116
Si Si6 0.572712 0.577440 0.824994
Si Si7 0.000000 0.942436 0.250000
Si Si8 0.681431 0.723388 0.966451
O O1 0.839550 0.167647 0.435945
O O2 0.249330 0.086039 0.409632
O O3 0.908540 0.938472 0.448846
O O4 0.943783 0.025873 0.321234
O O5 0.930194 0.350554 0.678435
O O6 0.786756 0.497612 0.787158
O O7 0.460786 0.730495 0.325280
O O8 0.371013 0.512253 0.361395
O O9 0.224199 0.667651 0.462415
O O10 0.750427 0.122336 0.746651
O O11 0.571675 0.778284 0.498445
O O12 0.500000 0.000000 0.500000
O O13 0.500000 0.637911 0.750000
O O14 0.647448 0.648945 0.893546
#
# Coordination Sequence:
#
# PCOD9233801 Si02
#       8
#     4   2   4   2   4   4   2   4
#     4  10  24  43  63  99 133 178 228 292 345 430
#     4  10  21  43  64  88 148 168 229 295 342 412
#     4  11  23  43  66 100 132 179 236 290 349 424
#     4  12  26  44  74 104 136 192 236 302 360 426
#     4   9  21  42  62  86 134 173 220 286 339 411
#     4  10  23  43  65  96 135 178 228 292 352 423
#     4  12  29  41  74 104 138 186 243 291 366 426
#     4  11  24  39  70  97 135 181 229 286 362 426
#
# _framework density 21.883331999999999
#
# number of rings (size 3 to 8) (size 9 to 14) (size 15 to 20)
#    0.000    1.538    2.308    1.846   10.769    6.154 
#    0.000    0.000    0.000    0.000    0.000    0.000 
#    0.000    0.000    0.000    0.000    0.000    0.000 
#
# Total GULP energy -144901.094304 kJ/mol
# GULP energy per Si atom -5573.119012 kJ/mol
# Density = 2.183352 g / cm^3
# Si number density = 21.883332 Si / 1000 Ang^3
#
#
#
# Elastic Constant Matrix: (Units=GPa)
#
#
# Indices 1 2 3 4 5 6 
#
# 1 77.8708 27.9553 32.7731 0.0000 28.6282 0.0000
# 2 27.9553 73.2542 72.7959 0.0000 21.6382 0.0000
# 3 32.7731 72.7959 188.4267 0.0000 39.6279 0.0000
# 4 0.0000 0.0000 0.0000 69.6643 0.0000 -34.8835
# 5 28.6282 21.6382 39.6279 0.0000 31.3384 0.0000
# 6 0.0000 0.0000 0.0000 -34.8835 0.0000 95.1616
#
#
#
# Elastic Compliance Matrix: (Units=1/GPa)
#
#
# Indices 1 2 3 4 5 6 
#
# 1 0.020147 -0.004325 0.001920 0.000000 -0.017847 0.000000
# 2 -0.004325 0.023975 -0.007983 0.000000 -0.002509 0.000000
# 3 0.001920 -0.007983 0.009899 0.000000 -0.008760 0.000000
# 4 0.000000 0.000000 0.000000 0.017582 0.000000 0.006445
# 5 -0.017847 -0.002509 -0.008760 0.000000 0.061023 0.000000
# 6 0.000000 0.000000 0.000000 0.006445 0.000000 0.012871
#
#
# Mechanical properties :
#
#
# Convention : Reuss Voigt Hill
#
# Bulk Modulus (GPa) = 30.07784 67.40003 48.73894
# Shear Modulus (GPa) = 28.19195 52.96802 40.57999
#
# Velocity S-wave (km/s) = 3.59316 4.92517 4.31092
# Velocity P-wave (km/s) = 5.56677 7.95045 6.86289
#
# Compressibility (1/GPa) = 0.03324706
#
# Stress axis : x y z
#
# Youngs Moduli (GPa) = 49.63410 41.70928 101.01542
#
# Poissons Ratio (x) = 0.18039 -0.19394
# Poissons Ratio (y) = 0.21467 0.80637
# Poissons Ratio (z) = -0.09529 0.33295
#
# Static dielectric constant tensor:
#      x y z
#    x 1.908520 0.000000 -0.042750 
#    y 0.000000 1.802140 0.000000 
#    z -0.042750 0.000000 1.658120 
# 
# From -- ./inp_files/61144.got.cif
#   From: 2010.05.17/outbox.cif.g08.bks.cpg/sg13_31_cif.got.tgz:61144.got - 2010.06.03 16:44:36.
