data_PCOD9233112
_publ_section_title
;
Structure prediction by ZEFSAII (Michael W. Deem and Ramdas Pophale) SiO2 
 PCOD9233112
Probable space group: P 2/C
;
_chemical_formula_sum "Si O2"
_cell_formula_units_Z 32
_cell_length_a 15.305794
_cell_length_b 19.876787
_cell_length_c 14.577545
_cell_angle_alpha 90.000000
_cell_angle_beta 19.225080
_cell_angle_gamma 90.000000
_cell_volume 1460.332619
_symmetry_space_group_name_H-M "P 2/C"
_symmetry_group_IT_number 13
_symmetry_cell_setting 'monoclinic'
loop_
_space_group_symop_operation_xyz
x,y,z
-x,y,1/2-z
-x,-y,-z
x,-y,1/2+z
loop_
_atom_site_type_symbol
_atom_site_label
_atom_site_fract_x
_atom_site_fract_y
_atom_site_fract_z
Si Si1 0.503274 0.385400 0.358503
Si Si2 0.993714 0.532795 0.146043
Si Si3 0.114967 0.058055 0.951809
Si Si4 0.362985 0.991497 0.483618
Si Si5 0.333346 0.709072 0.639596
Si Si6 0.175664 0.793301 0.322943
Si Si7 0.741683 0.857219 0.445051
Si Si8 0.747750 0.398407 0.436184
O O1 0.500000 0.372557 0.250000
O O2 0.213520 0.410015 0.676554
O O3 0.593145 0.325877 0.336124
O O4 0.710658 0.446366 0.173247
O O5 0.865480 0.459909 0.257524
O O6 0.000000 0.534443 0.250000
O O7 0.918172 0.044749 0.231620
O O8 0.421715 0.042112 0.663924
O O9 0.087250 0.133933 0.946513
O O10 0.000000 0.000000 0.000000
O O11 0.500000 0.986040 0.250000
O O12 0.332626 0.071766 0.528887
O O13 0.541296 0.769569 0.420513
O O14 0.347389 0.657833 0.540663
O O15 0.039988 0.738356 0.937380
O O16 0.198533 0.802572 0.190838
O O17 0.000000 0.870101 0.250000
O O18 0.500000 0.837341 0.750000
O O19 0.000000 0.377808 0.250000
O O20 0.500000 0.417290 0.750000
#
# Coordination Sequence:
#
# PCOD9233112 Si02
#       8
#     4   4   4   4   4   4   4   4
#     4  10  21  39  65  98 140 170 209 267 331 395
#     4   9  18  36  66 100 127 169 218 273 330 386
#     4  12  24  42  69  93 123 169 209 278 346 374
#     4  11  23  40  67  99 126 153 207 272 344 406
#     4  12  27  44  64  98 136 186 229 269 326 415
#     4  12  27  44  64  94 133 173 231 263 322 420
#     4  11  23  40  67  96 128 163 205 265 330 403
#     4  11  23  44  71  95 131 176 232 291 338 381
#
# _framework density 21.912815999999999
#
# number of rings (size 3 to 8) (size 9 to 14) (size 15 to 20)
#    0.000    1.000    1.250    7.125    1.750    2.500 
#    0.000    6.250    0.000    2.250    0.000    0.000 
#    0.000    0.000    0.000    0.000    0.000    0.000 
#
# Total GULP energy -178833.133035 kJ/mol
# GULP energy per Si atom -5588.535407 kJ/mol
# Density = 2.186294 g / cm^3
# Si number density = 21.912816 Si / 1000 Ang^3
#
#
#
# Elastic Constant Matrix: (Units=GPa)
#
#
# Indices 1 2 3 4 5 6 
#
# 1 60.0685 17.2789 9.2236 0.0000 -4.7585 0.0000
# 2 17.2789 58.2818 2.3943 0.0000 9.1429 0.0000
# 3 9.2236 2.3943 97.7557 0.0000 -2.0218 0.0000
# 4 0.0000 0.0000 0.0000 41.5558 0.0000 -23.6662
# 5 -4.7585 9.1429 -2.0218 0.0000 33.0435 0.0000
# 6 0.0000 0.0000 0.0000 -23.6662 0.0000 42.4853
#
#
#
# Elastic Compliance Matrix: (Units=1/GPa)
#
#
# Indices 1 2 3 4 5 6 
#
# 1 0.019036 -0.006267 -0.001552 0.000000 0.004380 0.000000
# 2 -0.006267 0.020029 -0.000033 0.000000 -0.006446 0.000000
# 3 -0.001552 -0.000033 0.010386 0.000000 0.000421 0.000000
# 4 0.000000 0.000000 0.000000 0.035245 0.000000 0.019633
# 5 0.004380 -0.006446 0.000421 0.000000 0.032703 0.000000
# 6 0.000000 0.000000 0.000000 0.019633 0.000000 0.034474
#
#
# Mechanical properties :
#
#
# Convention : Reuss Voigt Hill
#
# Bulk Modulus (GPa) = 29.63249 30.43330 30.03290
# Shear Modulus (GPa) = 27.96043 35.89754 31.92899
#
# Velocity S-wave (km/s) = 3.57597 4.05186 3.82133
# Velocity P-wave (km/s) = 5.53194 5.98403 5.76242
#
# Compressibility (1/GPa) = 0.03374675
#
# Stress axis : x y z
#
# Youngs Moduli (GPa) = 52.53297 49.92867 96.28787
#
# Poissons Ratio (x) = 0.31290 0.14944
# Poissons Ratio (y) = 0.32922 0.00314
# Poissons Ratio (z) = 0.08153 0.00163
#
# Static dielectric constant tensor:
#      x y z
#    x 1.817590 0.000000 0.031150 
#    y 0.000000 1.804900 0.000000 
#    z 0.031150 0.000000 1.828220 
# 
# From -- ./inp_files/53988.got.cif
#   From: 2010.05.17/outbox.cif.g08.bks.cpg/sg13_27_cif.got.tgz:53988.got - 2010.06.03 16:44:36.
