data_PCOD9233877
_publ_section_title
;
Structure prediction by ZEFSAII (Michael W. Deem and Ramdas Pophale) SiO2 
 PCOD9233877
Probable space group: P 2/C
;
_chemical_formula_sum "Si O2"
_cell_formula_units_Z 18
_cell_length_a 7.731407
_cell_length_b 5.165161
_cell_length_c 20.346373
_cell_angle_alpha 90.000000
_cell_angle_beta 106.066192
_cell_angle_gamma 90.000000
_cell_volume 780.776722
_symmetry_space_group_name_H-M "P 2/C"
_symmetry_group_IT_number 13
_symmetry_cell_setting 'monoclinic'
loop_
_space_group_symop_operation_xyz
x,y,z
-x,y,1/2-z
-x,-y,-z
x,-y,1/2+z
loop_
_atom_site_type_symbol
_atom_site_label
_atom_site_fract_x
_atom_site_fract_y
_atom_site_fract_z
Si Si1 0.907312 0.366266 0.309048
Si Si2 0.325793 0.819675 0.981277
Si Si3 0.558144 0.605928 0.110467
Si Si4 0.080024 0.139311 0.885625
Si Si5 0.500000 0.445210 0.250000
O O1 0.695642 0.317020 0.276856
O O2 0.000000 0.446680 0.250000
O O3 0.964268 0.597867 0.365653
O O4 0.983877 0.091266 0.338171
O O5 0.351301 0.632657 0.920786
O O6 0.149733 0.998940 0.960106
O O7 0.371751 0.656930 0.051479
O O8 0.500000 0.000000 0.000000
O O9 0.722795 0.807017 0.124382
O O10 0.514885 0.585589 0.181877
#
# Coordination Sequence:
#
# PCOD9233877 Si02
#       5
#     4   4   4   4   2
#     4  12  25  43  69 100 147 190 237 296 364 428
#     4   9  19  40  76  99 139 193 239 285 363 429
#     4  10  21  43  72 107 141 188 238 298 358 432
#     4  11  21  44  69  99 137 194 233 287 354 431
#     4  12  26  46  70 114 144 186 244 310 362 426
#
# _framework density 23.053964000000001
#
# number of rings (size 3 to 8) (size 9 to 14) (size 15 to 20)
#    0.000    1.333    4.444    0.667    0.000    0.889 
#    8.000    2.222    0.000    0.000    0.000    0.000 
#    0.000    0.000    0.000    0.000    0.000    0.000 
#
# Total GULP energy -100234.052520 kJ/mol
# GULP energy per Si atom -5568.558473 kJ/mol
# Density = 2.300149 g / cm^3
# Si number density = 23.053964 Si / 1000 Ang^3
#
#
#
# Elastic Constant Matrix: (Units=GPa)
#
#
# Indices 1 2 3 4 5 6 
#
# 1 134.5088 36.2929 54.9150 0.0000 23.4687 0.0000
# 2 36.2929 125.8122 45.3022 0.0000 15.8392 0.0000
# 3 54.9150 45.3022 97.5453 0.0000 0.0361 0.0000
# 4 0.0000 0.0000 0.0000 12.0359 0.0000 -23.0477
# 5 23.4687 15.8392 0.0361 0.0000 38.3005 0.0000
# 6 0.0000 0.0000 0.0000 -23.0477 0.0000 -77.6031
#
#
#
# Elastic Compliance Matrix: (Units=1/GPa)
#
#
# Indices 1 2 3 4 5 6 
#
# 1 0.011208 -0.000126 -0.006249 0.000000 -0.006810 0.000000
# 2 -0.000126 0.010181 -0.004656 0.000000 -0.004129 0.000000
# 3 -0.006249 -0.004656 0.015930 0.000000 0.005739 0.000000
# 4 0.000000 0.000000 0.000000 0.052964 0.000000 -0.015730
# 5 -0.006810 -0.004129 0.005739 0.000000 0.031984 0.000000
# 6 0.000000 0.000000 0.000000 -0.015730 0.000000 -0.008214
#
#
# Mechanical properties :
#
#
# Convention : Reuss Voigt Hill
#
# Bulk Modulus (GPa) = 65.54129 70.09849 67.81989
# Shear Modulus (GPa) = 35.41137 9.30375 22.35756
#
# Velocity S-wave (km/s) = 3.92346 2.01107 3.11753
# Velocity P-wave (km/s) = 7.00114 5.98872 6.51463
#
# Compressibility (1/GPa) = 0.01525756
#
# Stress axis : x y z
#
# Youngs Moduli (GPa) = 89.22541 98.22283 62.77630
#
# Poissons Ratio (x) = 0.01235 0.39226
# Poissons Ratio (y) = 0.01122 0.29228
# Poissons Ratio (z) = 0.55753 0.45732
#
# Static dielectric constant tensor:
#      x y z
#    x 1.875530 0.000000 -0.027810 
#    y 0.000000 1.979770 0.000000 
#    z -0.027810 0.000000 1.838550 
# 
# From -- ./inp_files/74258.got.cif
#   From: 2010.05.17/outbox.cif.g08.bks.cpg/sg13_38_cif.got.tgz:74258.got - 2010.06.03 16:44:36.
