data_PCOD9233301
_publ_section_title
;
Structure prediction by ZEFSAII (Michael W. Deem and Ramdas Pophale) SiO2 
 PCOD9233301
Probable space group: P 2/C
;
_chemical_formula_sum "Si O2"
_cell_formula_units_Z 22
_cell_length_a 13.962487
_cell_length_b 12.019865
_cell_length_c 12.166642
_cell_angle_alpha 90.000000
_cell_angle_beta 152.046284
_cell_angle_gamma 90.000000
_cell_volume 957.154266
_symmetry_space_group_name_H-M "P 2/C"
_symmetry_group_IT_number 13
_symmetry_cell_setting 'monoclinic'
loop_
_space_group_symop_operation_xyz
x,y,z
-x,y,1/2-z
-x,-y,-z
x,-y,1/2+z
loop_
_atom_site_type_symbol
_atom_site_label
_atom_site_fract_x
_atom_site_fract_y
_atom_site_fract_z
Si Si1 0.233127 0.701072 0.592838
Si Si2 0.684309 0.150191 0.018995
Si Si3 0.000000 0.476518 0.750000
Si Si4 0.004545 0.327686 0.423645
Si Si5 0.262217 0.092402 0.976739
Si Si6 0.607848 0.217563 0.595199
O O1 0.189797 0.607423 0.458383
O O2 0.086963 0.671730 0.546324
O O3 0.183954 0.822253 0.490231
O O4 0.461963 0.705536 0.872081
O O5 0.855621 0.242725 0.208880
O O6 0.500000 0.179545 0.750000
O O7 0.555894 0.143327 0.003299
O O8 0.791616 0.036332 0.090154
O O9 0.990189 0.556865 0.844971
O O10 0.236559 0.284277 0.669832
O O11 0.500000 0.085643 0.250000
O O12 0.256300 0.146090 0.850381
#
# Coordination Sequence:
#
# PCOD9233301 Si02
#       6
#     4   4   2   4   4   4
#     4  10  23  43  66  92 129 172 216 266 315 371
#     4  10  21  40  64  94 133 167 204 258 318 382
#     4  12  24  44  66  90 128 170 222 272 314 376
#     4  11  24  42  66  98 129 167 217 263 319 383
#     4   9  19  39  66  93 128 169 210 256 315 384
#     4  10  21  40  64  96 128 164 209 261 324 379
#
# _framework density 22.9848
#
# number of rings (size 3 to 8) (size 9 to 14) (size 15 to 20)
#    0.000    1.818    0.000    3.273    0.000    2.909 
#    0.000   30.909    0.000    0.000    0.000    0.000 
#    0.000    0.000    0.000    0.000    0.000    0.000 
#
# Total GULP energy -122900.187398 kJ/mol
# GULP energy per Si atom -5586.372154 kJ/mol
# Density = 2.293249 g / cm^3
# Si number density = 22.984800 Si / 1000 Ang^3
#
#
#
# Elastic Constant Matrix: (Units=GPa)
#
#
# Indices 1 2 3 4 5 6 
#
# 1 109.2554 43.9544 25.4441 0.0000 4.4892 0.0000
# 2 43.9544 162.1695 80.4821 0.0000 -5.7153 0.0000
# 3 25.4441 80.4821 158.2602 0.0000 -2.8927 0.0000
# 4 0.0000 0.0000 0.0000 36.1668 0.0000 -5.9933
# 5 4.4892 -5.7153 -2.8927 0.0000 34.1808 0.0000
# 6 0.0000 0.0000 0.0000 -5.9933 0.0000 26.2171
#
#
#
# Elastic Compliance Matrix: (Units=1/GPa)
#
#
# Indices 1 2 3 4 5 6 
#
# 1 0.010400 -0.002725 -0.000320 0.000000 -0.001849 0.000000
# 2 -0.002725 0.008998 -0.004110 0.000000 0.001515 0.000000
# 3 -0.000320 -0.004110 0.008462 0.000000 0.000071 0.000000
# 4 0.000000 0.000000 0.000000 0.028738 0.000000 0.006570
# 5 -0.001849 0.001515 0.000071 0.000000 0.029758 0.000000
# 6 0.000000 0.000000 0.000000 0.006570 0.000000 0.039645
#
#
# Mechanical properties :
#
#
# Convention : Reuss Voigt Hill
#
# Bulk Modulus (GPa) = 73.80577 81.04962 77.42770
# Shear Modulus (GPa) = 34.52380 37.96657 36.24519
#
# Velocity S-wave (km/s) = 3.87980 4.06866 3.97535
# Velocity P-wave (km/s) = 7.22848 7.57699 7.40479
#
# Compressibility (1/GPa) = 0.01354908
#
# Stress axis : x y z
#
# Youngs Moduli (GPa) = 96.15696 111.13363 118.18047
#
# Poissons Ratio (x) = 0.30285 0.03781
# Poissons Ratio (y) = 0.26204 0.48574
# Poissons Ratio (z) = 0.03077 0.45678
#
# Static dielectric constant tensor:
#      x y z
#    x 1.950340 0.000000 -0.017020 
#    y 0.000000 1.846150 0.000000 
#    z -0.017020 0.000000 1.869780 
# 
# From -- ./inp_files/37261.got.cif
#   From: 2010.05.17/outbox.cif.g08.bks.cpg/sg13_19_cif.got.tgz:37261.got - 2010.06.03 16:44:36.
