data_PCOD9233281
_publ_section_title
;
Structure prediction by ZEFSAII (Michael W. Deem and Ramdas Pophale) SiO2 
 PCOD9233281
Probable space group: P 2/C
;
_chemical_formula_sum "Si O2"
_cell_formula_units_Z 32
_cell_length_a 12.528370
_cell_length_b 11.199278
_cell_length_c 11.952489
_cell_angle_alpha 90.000000
_cell_angle_beta 109.159450
_cell_angle_gamma 90.000000
_cell_volume 1584.145158
_symmetry_space_group_name_H-M "P 2/C"
_symmetry_group_IT_number 13
_symmetry_cell_setting 'monoclinic'
loop_
_space_group_symop_operation_xyz
x,y,z
-x,y,1/2-z
-x,-y,-z
x,-y,1/2+z
loop_
_atom_site_type_symbol
_atom_site_label
_atom_site_fract_x
_atom_site_fract_y
_atom_site_fract_z
Si Si1 0.116242 0.738976 0.244136
Si Si2 0.807586 0.497486 0.617344
Si Si3 0.644159 0.345052 0.192103
Si Si4 0.720271 0.875579 0.044192
Si Si5 0.901984 0.279161 0.026960
Si Si6 0.600341 0.646257 0.936794
Si Si7 0.238209 0.883414 0.846722
Si Si8 0.909460 0.903176 0.917493
O O1 0.123154 0.609491 0.304767
O O2 0.218416 0.813349 0.329882
O O3 0.123947 0.729927 0.113729
O O4 0.000000 0.795398 0.250000
O O5 0.752087 0.579441 0.692883
O O6 0.878638 0.586991 0.562927
O O7 0.698759 0.434746 0.522932
O O8 0.531046 0.379357 0.084804
O O9 0.618691 0.366134 0.311536
O O10 0.677741 0.208440 0.183441
O O11 0.694827 0.008776 0.073543
O O12 0.623687 0.784202 0.975976
O O13 0.811743 0.885543 0.975489
O O14 0.826702 0.191029 0.078611
O O15 0.026790 0.223057 0.079257
O O16 0.148788 0.931001 0.722286
O O17 0.000000 0.000000 0.000000
#
# Coordination Sequence:
#
# PCOD9233281 Si02
#       8
#     4   4   4   4   4   4   4   4
#     4  11  23  38  56  86 125 166 198 244 299 358
#     4  10  23  39  59  90 117 160 204 254 295 360
#     4  10  21  40  64  85 116 153 206 255 307 354
#     4  11  23  38  60  88 123 157 201 243 302 364
#     4  11  23  38  60  88 126 161 203 244 297 358
#     4  10  21  41  63  85 116 160 198 256 308 355
#     4  11  24  38  62  94 120 159 200 254 297 365
#     4  12  22  38  61  89 125 164 196 239 300 365
#
# _framework density 20.200171000000001
#
# number of rings (size 3 to 8) (size 9 to 14) (size 15 to 20)
#    0.000    1.250    3.750    2.250    0.000    3.000 
#    0.000    0.000    0.000    6.750    0.000    0.000 
#    0.000    0.000    0.000    0.000    0.000    0.000 
#
# Total GULP energy -178649.410313 kJ/mol
# GULP energy per Si atom -5582.794072 kJ/mol
# Density = 2.015419 g / cm^3
# Si number density = 20.200171 Si / 1000 Ang^3
#
#
#
# Elastic Constant Matrix: (Units=GPa)
#
#
# Indices 1 2 3 4 5 6 
#
# 1 35.8821 -7.2919 9.0438 0.0000 -0.0176 0.0000
# 2 -7.2919 78.4100 9.6172 0.0000 1.8493 0.0000
# 3 9.0438 9.6172 93.2201 0.0000 -7.3415 0.0000
# 4 0.0000 0.0000 0.0000 15.7786 0.0000 6.8994
# 5 -0.0176 1.8493 -7.3415 0.0000 31.1366 0.0000
# 6 0.0000 0.0000 0.0000 6.8994 0.0000 12.4519
#
#
#
# Elastic Compliance Matrix: (Units=1/GPa)
#
#
# Indices 1 2 3 4 5 6 
#
# 1 0.029326 0.003147 -0.003243 0.000000 -0.000935 0.000000
# 2 0.003147 0.013292 -0.001772 0.000000 -0.001205 0.000000
# 3 -0.003243 -0.001772 0.011445 0.000000 0.002802 0.000000
# 4 0.000000 0.000000 0.000000 0.083642 0.000000 -0.046345
# 5 -0.000935 -0.001205 0.002802 0.000000 0.032848 0.000000
# 6 0.000000 0.000000 0.000000 -0.046345 0.000000 0.105988
#
#
# Mechanical properties :
#
#
# Convention : Reuss Voigt Hill
#
# Bulk Modulus (GPa) = 19.86997 25.58338 22.72668
# Shear Modulus (GPa) = 16.83208 24.94965 20.89086
#
# Velocity S-wave (km/s) = 2.88976 3.51824 3.21938
# Velocity P-wave (km/s) = 4.58172 5.40337 5.00942
#
# Compressibility (1/GPa) = 0.05032720
#
# Stress axis : x y z
#
# Youngs Moduli (GPa) = 34.09994 75.23406 87.37149
#
# Poissons Ratio (x) = -0.23677 0.28337
# Poissons Ratio (y) = -0.10731 0.15478
# Poissons Ratio (z) = 0.11060 0.13328
#
# Static dielectric constant tensor:
#      x y z
#    x 1.694160 0.000000 0.013940 
#    y 0.000000 1.744050 0.000000 
#    z 0.013940 0.000000 1.728340 
# 
# From -- ./inp_files/34190.got.cif
#   From: 2010.05.17/outbox.cif.g08.bks.cpg/sg13_18_cif.got.tgz:34190.got - 2010.06.03 16:44:36.
