data_PCOD9233907
_publ_section_title
;
Structure prediction by ZEFSAII (Michael W. Deem and Ramdas Pophale) SiO2 
 PCOD9233907
Probable space group: P 2/C
;
_chemical_formula_sum "Si O2"
_cell_formula_units_Z 30
_cell_length_a 28.752303
_cell_length_b 8.472565
_cell_length_c 10.074850
_cell_angle_alpha 90.000000
_cell_angle_beta 35.443616
_cell_angle_gamma 90.000000
_cell_volume 1423.247330
_symmetry_space_group_name_H-M "P 2/C"
_symmetry_group_IT_number 13
_symmetry_cell_setting 'monoclinic'
loop_
_space_group_symop_operation_xyz
x,y,z
-x,y,1/2-z
-x,-y,-z
x,-y,1/2+z
loop_
_atom_site_type_symbol
_atom_site_label
_atom_site_fract_x
_atom_site_fract_y
_atom_site_fract_z
Si Si1 0.550947 0.070469 0.762037
Si Si2 0.369667 0.675782 0.570435
Si Si3 0.500000 0.412201 0.250000
Si Si4 0.063525 0.657644 0.716114
Si Si5 0.789782 0.139113 0.022670
Si Si6 0.775122 0.169158 0.740485
Si Si7 0.613232 0.767834 0.671848
Si Si8 0.959577 0.717242 0.206937
O O1 0.500000 0.041094 0.750000
O O2 0.622812 0.947203 0.601241
O O3 0.412315 0.242435 0.843975
O O4 0.500000 0.000000 0.000000
O O5 0.420312 0.514398 0.468415
O O6 0.392939 0.758369 0.656229
O O7 0.275587 0.722919 0.784442
O O8 0.465136 0.307487 0.211570
O O9 0.147820 0.730395 0.481100
O O10 0.065172 0.467394 0.721819
O O11 0.000000 0.698339 0.750000
O O12 0.027494 0.723469 0.936360
O O13 0.782809 0.117946 0.878633
O O14 0.879527 0.191700 0.851396
O O15 0.772903 0.978155 0.143102
O O16 0.699027 0.292005 0.921079
O O17 0.000000 0.771022 0.250000
#
# Coordination Sequence:
#
# PCOD9233907 Si02
#       8
#     4   4   2   4   4   4   4   4
#     4  12  21  39  65  88 124 171 216 264 326 385
#     4  11  24  44  64  95 134 167 222 276 327 391
#     4  12  24  42  66 100 128 176 220 272 338 398
#     4  10  21  44  67  96 137 177 216 273 326 395
#     4  11  25  44  66 100 134 177 220 278 327 395
#     4  11  25  43  67  98 135 174 224 274 332 387
#     4  11  24  42  64  96 131 172 218 272 330 398
#     4  10  23  42  69  98 135 178 222 264 335 396
#
# _framework density 21.078557
#
# number of rings (size 3 to 8) (size 9 to 14) (size 15 to 20)
#    0.000    1.067    5.333    0.400    3.733    1.067 
#    0.000    0.000    0.000    0.000    0.000    0.000 
#    0.000    0.000    0.000    0.000    0.000    0.000 
#
# Total GULP energy -167076.488155 kJ/mol
# GULP energy per Si atom -5569.216272 kJ/mol
# Density = 2.103058 g / cm^3
# Si number density = 21.078557 Si / 1000 Ang^3
#
#
#
# Elastic Constant Matrix: (Units=GPa)
#
#
# Indices 1 2 3 4 5 6 
#
# 1 104.2719 17.3185 43.6973 0.0000 7.8553 0.0000
# 2 17.3185 38.8721 31.8178 0.0000 0.6894 0.0000
# 3 43.6973 31.8178 144.8788 0.0000 10.6282 0.0000
# 4 0.0000 0.0000 0.0000 24.3146 0.0000 -12.0011
# 5 7.8553 0.6894 10.6282 0.0000 31.9446 0.0000
# 6 0.0000 0.0000 0.0000 -12.0011 0.0000 10.6336
#
#
#
# Elastic Compliance Matrix: (Units=1/GPa)
#
#
# Indices 1 2 3 4 5 6 
#
# 1 0.011312 -0.002834 -0.002655 0.000000 -0.001837 0.000000
# 2 -0.002834 0.032159 -0.006363 0.000000 0.002120 0.000000
# 3 -0.002655 -0.006363 0.009269 0.000000 -0.002294 0.000000
# 4 0.000000 0.000000 0.000000 0.092848 0.000000 0.104788
# 5 -0.001837 0.002120 -0.002294 0.000000 0.032473 0.000000
# 6 0.000000 0.000000 0.000000 0.104788 0.000000 0.212304
#
#
# Mechanical properties :
#
#
# Convention : Reuss Voigt Hill
#
# Bulk Modulus (GPa) = 34.44082 52.63223 43.53652
# Shear Modulus (GPa) = 11.79945 26.39117 19.09531
#
# Velocity S-wave (km/s) = 2.36854 3.54225 3.01310
# Velocity P-wave (km/s) = 4.88413 6.46172 5.72750
#
# Compressibility (1/GPa) = 0.02903532
#
# Stress axis : x y z
#
# Youngs Moduli (GPa) = 88.40222 31.09533 107.88953
#
# Poissons Ratio (x) = 0.08813 0.28640
# Poissons Ratio (y) = 0.25056 0.68654
# Poissons Ratio (z) = 0.23467 0.19787
#
# Static dielectric constant tensor:
#      x y z
#    x 1.768710 0.000000 -0.050230 
#    y 0.000000 1.846690 0.000000 
#    z -0.050230 0.000000 1.885360 
# 
# From -- ./inp_files/42686.got.cif
#   From: 2010.05.17/outbox.cif.g08.bks.cpg/sg13_22_cif.got.tgz:42686.got - 2010.06.03 16:44:36.
