data_PCOD9233370
_publ_section_title
;
Structure prediction by ZEFSAII (Michael W. Deem and Ramdas Pophale) SiO2 
 PCOD9233370
Probable space group: P 2/C
;
_chemical_formula_sum "Si O2"
_cell_formula_units_Z 20
_cell_length_a 6.856208
_cell_length_b 9.654418
_cell_length_c 17.405421
_cell_angle_alpha 90.000000
_cell_angle_beta 132.238417
_cell_angle_gamma 90.000000
_cell_volume 852.970606
_symmetry_space_group_name_H-M "P 2/C"
_symmetry_group_IT_number 13
_symmetry_cell_setting 'monoclinic'
loop_
_space_group_symop_operation_xyz
x,y,z
-x,y,1/2-z
-x,-y,-z
x,-y,1/2+z
loop_
_atom_site_type_symbol
_atom_site_label
_atom_site_fract_x
_atom_site_fract_y
_atom_site_fract_z
Si Si1 0.500000 0.497249 0.750000
Si Si2 0.453728 0.259319 0.613758
Si Si3 0.500000 0.983074 0.250000
Si Si4 0.893352 0.355372 0.438712
Si Si5 0.060151 0.961391 0.852071
Si Si6 0.592463 0.802112 0.987605
O O1 0.514977 0.391918 0.682547
O O2 0.249857 0.597196 0.676215
O O3 0.489806 0.121799 0.674475
O O4 0.611721 0.267476 0.576553
O O5 0.148814 0.260636 0.507448
O O6 0.772026 0.067258 0.312423
O O7 0.685692 0.291512 0.442876
O O8 0.000000 0.500000 0.500000
O O9 0.000000 0.018703 0.750000
O O10 0.291411 0.850632 0.897323
O O11 0.208742 0.068619 0.948282
#
# Coordination Sequence:
#
# PCOD9233370 Si02
#       6
#     2   4   2   4   4   4
#     4   9  22  40  65  94 128 177 232 279 354 404
#     4  10  21  40  67  96 130 181 230 290 344 420
#     4  11  20  40  67  96 136 183 234 279 352 428
#     4  10  22  42  64  96 134 178 235 288 346 413
#     4  11  24  40  65 102 136 183 232 285 355 422
#     4  11  24  41  66  98 141 178 233 291 347 422
#
# _framework density 23.447465000000001
#
# number of rings (size 3 to 8) (size 9 to 14) (size 15 to 20)
#    0.000    1.600    4.000    0.000    0.000    7.200 
#    0.000    4.000    0.000    0.000    0.000    0.000 
#    0.000    0.000    0.000    0.000    0.000    0.000 
#
# Total GULP energy -111722.596365 kJ/mol
# GULP energy per Si atom -5586.129818 kJ/mol
# Density = 2.339410 g / cm^3
# Si number density = 23.447465 Si / 1000 Ang^3
#
#
#
# Elastic Constant Matrix: (Units=GPa)
#
#
# Indices 1 2 3 4 5 6 
#
# 1 139.3572 47.6218 38.4622 0.0000 25.2506 0.0000
# 2 47.6218 78.2814 35.8204 0.0000 12.7215 0.0000
# 3 38.4622 35.8204 122.6664 0.0000 20.0997 0.0000
# 4 0.0000 0.0000 0.0000 25.7866 0.0000 0.1601
# 5 25.2506 12.7215 20.0997 0.0000 37.7474 0.0000
# 6 0.0000 0.0000 0.0000 0.1601 0.0000 27.6306
#
#
#
# Elastic Compliance Matrix: (Units=1/GPa)
#
#
# Indices 1 2 3 4 5 6 
#
# 1 0.009914 -0.004867 -0.000953 0.000000 -0.004485 0.000000
# 2 -0.004867 0.017436 -0.003436 0.000000 -0.000791 0.000000
# 3 -0.000953 -0.003436 0.010036 0.000000 -0.003549 0.000000
# 4 0.000000 0.000000 0.000000 0.038781 0.000000 -0.000225
# 5 -0.004485 -0.000791 -0.003549 0.000000 0.031648 0.000000
# 6 0.000000 0.000000 0.000000 -0.000225 0.000000 0.036193
#
#
# Mechanical properties :
#
#
# Convention : Reuss Voigt Hill
#
# Bulk Modulus (GPa) = 52.97902 64.90154 58.94028
# Shear Modulus (GPa) = 29.61903 32.79296 31.20599
#
# Velocity S-wave (km/s) = 3.55802 3.74381 3.65209
# Velocity P-wave (km/s) = 6.28675 6.81379 6.55557
#
# Compressibility (1/GPa) = 0.01887540
#
# Stress axis : x y z
#
# Youngs Moduli (GPa) = 100.86376 57.35340 99.64415
#
# Poissons Ratio (x) = 0.27911 0.09493
# Poissons Ratio (y) = 0.49086 0.34237
# Poissons Ratio (z) = 0.09609 0.19706
#
# Static dielectric constant tensor:
#      x y z
#    x 1.885010 0.000000 -0.001580 
#    y 0.000000 1.932500 0.000000 
#    z -0.001580 0.000000 2.031880 
# 
# From -- ./inp_files/61008.got.cif
#   From: 2010.05.17/outbox.cif.g08.bks.cpg/sg13_31_cif.got.tgz:61008.got - 2010.06.03 16:44:36.
