data_PCOD9233096
_publ_section_title
;
Structure prediction by ZEFSAII (Michael W. Deem and Ramdas Pophale) SiO2 
 PCOD9233096
Probable space group: P 2/C
;
_chemical_formula_sum "Si O2"
_cell_formula_units_Z 14
_cell_length_a 5.245757
_cell_length_b 18.469184
_cell_length_c 8.280557
_cell_angle_alpha 90.000000
_cell_angle_beta 60.424045
_cell_angle_gamma 90.000000
_cell_volume 697.727705
_symmetry_space_group_name_H-M "P 2/C"
_symmetry_group_IT_number 13
_symmetry_cell_setting 'monoclinic'
loop_
_space_group_symop_operation_xyz
x,y,z
-x,y,1/2-z
-x,-y,-z
x,-y,1/2+z
loop_
_atom_site_type_symbol
_atom_site_label
_atom_site_fract_x
_atom_site_fract_y
_atom_site_fract_z
Si Si1 0.228609 0.605705 0.952527
Si Si2 0.784644 0.048420 0.459643
Si Si3 0.000000 0.271628 0.750000
Si Si4 0.500000 0.175026 0.750000
Si Si5 0.000000 0.496819 0.250000
O O1 0.500000 0.622821 0.750000
O O2 0.043394 0.557370 0.885588
O O3 0.088001 0.677278 0.071363
O O4 0.249967 0.552971 0.105507
O O5 0.677036 0.120133 0.581130
O O6 0.000000 0.070408 0.250000
O O7 0.500000 0.000000 0.500000
O O8 0.000000 0.000000 0.500000
O O9 0.274778 0.223478 0.718651
#
# Coordination Sequence:
#
# PCOD9233096 Si02
#       5
#     4   4   2   2   2
#     4  10  21  39  65  93 130 173 230 277 339 385
#     4  12  23  43  75 103 129 169 218 280 333 391
#     4  11  28  42  64  94 141 186 214 272 327 426
#     4  12  26  46  66 100 142 170 228 264 342 402
#     4   9  20  38  64 100 119 170 234 294 323 378
#
# _framework density 20.065135000000001
#
# number of rings (size 3 to 8) (size 9 to 14) (size 15 to 20)
#    0.000    1.143    2.857    2.571    4.000    2.286 
#    5.143    0.000    0.000    0.000    0.000    0.000 
#    0.000    0.000    0.000    0.000    0.000    0.000 
#
# Total GULP energy -77979.990727 kJ/mol
# GULP energy per Si atom -5569.999338 kJ/mol
# Density = 2.001947 g / cm^3
# Si number density = 20.065135 Si / 1000 Ang^3
#
#
#
# Elastic Constant Matrix: (Units=GPa)
#
#
# Indices 1 2 3 4 5 6 
#
# 1 109.4973 64.1272 39.0295 0.0000 -3.2242 0.0000
# 2 64.1272 151.2927 91.1831 0.0000 0.8189 0.0000
# 3 39.0295 91.1831 202.4986 0.0000 -13.0724 0.0000
# 4 0.0000 0.0000 0.0000 31.0287 0.0000 -1.1900
# 5 -3.2242 0.8189 -13.0724 0.0000 28.1850 0.0000
# 6 0.0000 0.0000 0.0000 -1.1900 0.0000 35.8053
#
#
#
# Elastic Compliance Matrix: (Units=1/GPa)
#
#
# Indices 1 2 3 4 5 6 
#
# 1 0.012217 -0.005257 0.000116 0.000000 0.001604 0.000000
# 2 -0.005257 0.011471 -0.004342 0.000000 -0.002949 0.000000
# 3 0.000116 -0.004342 0.007093 0.000000 0.003429 0.000000
# 4 0.000000 0.000000 0.000000 0.032269 0.000000 0.001073
# 5 0.001604 -0.002949 0.003429 0.000000 0.037340 0.000000
# 6 0.000000 0.000000 0.000000 0.001073 0.000000 0.027964
#
#
# Mechanical properties :
#
#
# Convention : Reuss Voigt Hill
#
# Bulk Modulus (GPa) = 84.64461 94.66315 89.65388
# Shear Modulus (GPa) = 33.05579 36.93371 34.99475
#
# Velocity S-wave (km/s) = 4.06325 4.29498 4.18072
# Velocity P-wave (km/s) = 8.01809 8.47798 8.25124
#
# Compressibility (1/GPa) = 0.01181410
#
# Stress axis : x y z
#
# Youngs Moduli (GPa) = 81.85095 87.17579 140.99072
#
# Poissons Ratio (x) = 0.45829 -0.01635
# Poissons Ratio (y) = 0.43029 0.61224
# Poissons Ratio (z) = -0.00949 0.37855
#
# Static dielectric constant tensor:
#      x y z
#    x 1.746890 0.000000 -0.021380 
#    y 0.000000 1.728160 0.000000 
#    z -0.021380 0.000000 1.665690 
# 
# From -- ./inp_files/8758.got.cif
#   From: 2010.05.17/outbox.cif.g08.bks.cpg/sg13_5_cif.got.tgz:8758.got - 2010.06.03 16:44:36.
