data_PCOD9233945
_publ_section_title
;
Structure prediction by ZEFSAII (Michael W. Deem and Ramdas Pophale) SiO2 
 PCOD9233945
Probable space group: P 2/C
;
_chemical_formula_sum "Si O2"
_cell_formula_units_Z 30
_cell_length_a 26.213603
_cell_length_b 8.465710
_cell_length_c 13.771659
_cell_angle_alpha 90.000000
_cell_angle_beta 29.559156
_cell_angle_gamma 90.000000
_cell_volume 1507.671658
_symmetry_space_group_name_H-M "P 2/C"
_symmetry_group_IT_number 13
_symmetry_cell_setting 'monoclinic'
loop_
_space_group_symop_operation_xyz
x,y,z
-x,y,1/2-z
-x,-y,-z
x,-y,1/2+z
loop_
_atom_site_type_symbol
_atom_site_label
_atom_site_fract_x
_atom_site_fract_y
_atom_site_fract_z
Si Si1 0.500000 0.623379 0.750000
Si Si2 0.974365 0.144282 0.684685
Si Si3 0.527985 0.877688 0.369780
Si Si4 0.667607 0.132514 0.049150
Si Si5 0.371235 0.363566 0.047300
Si Si6 0.772453 0.657442 0.535000
Si Si7 0.149534 0.075275 0.257104
Si Si8 0.701037 0.662686 0.055538
O O1 0.402806 0.733093 0.882378
O O2 0.546078 0.508389 0.589790
O O3 0.891981 0.287430 0.832923
O O4 0.000000 0.086901 0.750000
O O5 0.082105 0.166023 0.449179
O O6 0.919143 0.016503 0.707655
O O7 0.432297 0.793180 0.477715
O O8 0.500000 0.000000 0.500000
O O9 0.592862 0.984741 0.188780
O O10 0.604885 0.736144 0.274360
O O11 0.708314 0.206234 0.083687
O O12 0.770722 0.055855 0.830832
O O13 0.275328 0.371275 0.279535
O O14 0.336056 0.359401 0.994101
O O15 0.748048 0.497407 0.517899
O O16 0.213911 0.201914 0.090502
#
# Coordination Sequence:
#
# PCOD9233945 Si02
#       8
#     2   4   4   4   4   4   4   4
#     4  12  24  38  60  94 142 182 214 254 322 396
#     4  10  21  45  69  91 116 164 217 275 340 390
#     4  11  22  37  60  87 129 177 220 258 309 375
#     4  10  22  39  59  95 129 169 217 258 314 392
#     4  12  23  40  61  93 137 181 213 265 314 388
#     4  11  23  41  64  92 130 170 217 266 333 383
#     4   9  22  42  66  92 127 161 210 282 330 383
#     4  11  23  42  58  97 132 169 218 266 325 392
#
# _framework density 19.898230000000002
#
# number of rings (size 3 to 8) (size 9 to 14) (size 15 to 20)
#    0.000    1.333    4.000    0.800    5.600    1.600 
#    2.400    0.667    0.000    0.000    0.000    0.000 
#    0.000    0.000    0.000    0.000    0.000    0.000 
#
# Total GULP energy -167317.072774 kJ/mol
# GULP energy per Si atom -5577.235759 kJ/mol
# Density = 1.985294 g / cm^3
# Si number density = 19.898230 Si / 1000 Ang^3
#
#
#
# Elastic Constant Matrix: (Units=GPa)
#
#
# Indices 1 2 3 4 5 6 
#
# 1 70.8374 33.9744 53.7914 0.0000 -0.5722 0.0000
# 2 33.9744 102.3088 49.1648 0.0000 -1.8961 0.0000
# 3 53.7914 49.1648 123.4365 0.0000 5.7537 0.0000
# 4 0.0000 0.0000 0.0000 11.2641 0.0000 10.9208
# 5 -0.5722 -1.8961 5.7537 0.0000 21.6142 0.0000
# 6 0.0000 0.0000 0.0000 10.9208 0.0000 15.1270
#
#
#
# Elastic Compliance Matrix: (Units=1/GPa)
#
#
# Indices 1 2 3 4 5 6 
#
# 1 0.022119 -0.003226 -0.008473 0.000000 0.002558 0.000000
# 2 -0.003226 0.012680 -0.003739 0.000000 0.002022 0.000000
# 3 -0.008473 -0.003739 0.013476 0.000000 -0.004140 0.000000
# 4 0.000000 0.000000 0.000000 0.295861 0.000000 -0.213593
# 5 0.002558 0.002022 -0.004140 0.000000 0.047613 0.000000
# 6 0.000000 0.000000 0.000000 -0.213593 0.000000 0.220308
#
#
# Mechanical properties :
#
#
# Convention : Reuss Voigt Hill
#
# Bulk Modulus (GPa) = 57.47607 63.38263 60.42935
# Shear Modulus (GPa) = 7.70733 20.24453 13.97593
#
# Velocity S-wave (km/s) = 1.97022 3.19314 2.65310
# Velocity P-wave (km/s) = 5.84153 6.74666 6.31034
#
# Compressibility (1/GPa) = 0.01739855
#
# Stress axis : x y z
#
# Youngs Moduli (GPa) = 45.20972 78.86589 74.20569
#
# Poissons Ratio (x) = 0.25441 0.62878
# Poissons Ratio (y) = 0.14584 0.27744
# Poissons Ratio (z) = 0.38308 0.29487
#
# Static dielectric constant tensor:
#      x y z
#    x 1.710610 0.000000 -0.023870 
#    y 0.000000 1.719680 0.000000 
#    z -0.023870 0.000000 1.773600 
# 
# From -- ./inp_files/59405.got.cif
#   From: 2010.05.17/outbox.cif.g08.bks.cpg/sg13_30_cif.got.tgz:59405.got - 2010.06.03 16:44:36.
