data_PCOD9233492
_publ_section_title
;
Structure prediction by ZEFSAII (Michael W. Deem and Ramdas Pophale) SiO2 
 PCOD9233492
Probable space group: P 2/C
;
_chemical_formula_sum "Si O2"
_cell_formula_units_Z 20
_cell_length_a 23.783123
_cell_length_b 6.777049
_cell_length_c 14.650767
_cell_angle_alpha 90.000000
_cell_angle_beta 160.456568
_cell_angle_gamma 90.000000
_cell_volume 789.939198
_symmetry_space_group_name_H-M "P 2/C"
_symmetry_group_IT_number 13
_symmetry_cell_setting 'monoclinic'
loop_
_space_group_symop_operation_xyz
x,y,z
-x,y,1/2-z
-x,-y,-z
x,-y,1/2+z
loop_
_atom_site_type_symbol
_atom_site_label
_atom_site_fract_x
_atom_site_fract_y
_atom_site_fract_z
Si Si1 0.811912 0.731979 0.486226
Si Si2 0.226732 0.575323 0.426141
Si Si3 0.841434 0.714148 0.838438
Si Si4 0.376271 0.035000 0.395871
Si Si5 0.292977 0.010683 0.513186
O O1 0.727766 0.558801 0.416958
O O2 0.000000 0.672993 0.750000
O O3 0.725041 0.828122 0.264815
O O4 0.813312 0.911000 0.562398
O O5 0.239963 0.447201 0.353903
O O6 0.321113 0.778561 0.560558
O O7 0.031862 0.644477 0.139120
O O8 0.751921 0.780619 0.795066
O O9 0.810007 0.914220 0.731409
O O10 0.500000 0.000000 0.500000
O O11 0.517765 0.089001 0.686039
#
# Coordination Sequence:
#
# PCOD9233492 Si02
#       5
#     4   4   4   4   4
#     4  10  22  39  60  92 127 165 216 268 325 389
#     4  10  22  39  67  93 120 167 223 273 315 385
#     4  10  21  41  64  93 125 164 221 273 323 387
#     4  10  22  40  62  89 130 171 202 261 336 396
#     4  10  21  41  64  90 126 171 212 265 333 391
#
# _framework density 25.318404999999998
#
# number of rings (size 3 to 8) (size 9 to 14) (size 15 to 20)
#    0.000    2.000    0.000    2.400    0.000    8.000 
#    0.000   18.000    0.000    0.000    0.000    0.000 
#    0.000    0.000    0.000    0.000    0.000    0.000 
#
# Total GULP energy -111590.254263 kJ/mol
# GULP energy per Si atom -5579.512713 kJ/mol
# Density = 2.526078 g / cm^3
# Si number density = 25.318405 Si / 1000 Ang^3
#
#
#
# Elastic Constant Matrix: (Units=GPa)
#
#
# Indices 1 2 3 4 5 6 
#
# 1 97.5234 26.1683 4.1914 0.0000 -3.0687 0.0000
# 2 26.1683 127.8430 11.5842 0.0000 1.7458 0.0000
# 3 4.1914 11.5842 55.7891 0.0000 1.7040 0.0000
# 4 0.0000 0.0000 0.0000 8.1692 0.0000 -8.6180
# 5 -3.0687 1.7458 1.7040 0.0000 30.2059 0.0000
# 6 0.0000 0.0000 0.0000 -8.6180 0.0000 60.8221
#
#
#
# Elastic Compliance Matrix: (Units=1/GPa)
#
#
# Indices 1 2 3 4 5 6 
#
# 1 0.010905 -0.002213 -0.000398 0.000000 0.001258 0.000000
# 2 -0.002213 0.008425 -0.001564 0.000000 -0.000624 0.000000
# 3 -0.000398 -0.001564 0.018309 0.000000 -0.000983 0.000000
# 4 0.000000 0.000000 0.000000 0.143924 0.000000 0.020393
# 5 0.001258 -0.000624 -0.000983 0.000000 0.033325 0.000000
# 6 0.000000 0.000000 0.000000 0.020393 0.000000 0.019331
#
#
# Mechanical properties :
#
#
# Convention : Reuss Voigt Hill
#
# Bulk Modulus (GPa) = 34.14327 40.56037 37.35182
# Shear Modulus (GPa) = 19.81511 35.78689 27.80100
#
# Velocity S-wave (km/s) = 2.80060 3.76370 3.31729
# Velocity P-wave (km/s) = 4.89619 5.91119 5.42746
#
# Compressibility (1/GPa) = 0.02928835
#
# Stress axis : x y z
#
# Youngs Moduli (GPa) = 91.70521 118.68941 54.61684
#
# Poissons Ratio (x) = 0.26268 0.02174
# Poissons Ratio (y) = 0.20296 0.08543
# Poissons Ratio (z) = 0.03651 0.18565
#
# Static dielectric constant tensor:
#      x y z
#    x 2.338600 0.000000 -0.016740 
#    y 0.000000 2.030150 0.000000 
#    z -0.016740 0.000000 2.019200 
# 
# From -- ./inp_files/71735.got.cif
#   From: 2010.05.17/outbox.cif.g08.bks.cpg/sg13_36_cif.got.tgz:71735.got - 2010.06.03 16:44:36.
