data_PCOD9233761
_publ_section_title
;
Structure prediction by ZEFSAII (Michael W. Deem and Ramdas Pophale) SiO2 
 PCOD9233761
Probable space group: P 2/C
;
_chemical_formula_sum "Si O2"
_cell_formula_units_Z 24
_cell_length_a 13.930203
_cell_length_b 8.745142
_cell_length_c 14.652957
_cell_angle_alpha 90.000000
_cell_angle_beta 38.187454
_cell_angle_gamma 90.000000
_cell_volume 1103.580680
_symmetry_space_group_name_H-M "P 2/C"
_symmetry_group_IT_number 13
_symmetry_cell_setting 'monoclinic'
loop_
_space_group_symop_operation_xyz
x,y,z
-x,y,1/2-z
-x,-y,-z
x,-y,1/2+z
loop_
_atom_site_type_symbol
_atom_site_label
_atom_site_fract_x
_atom_site_fract_y
_atom_site_fract_z
Si Si1 0.348413 0.351291 0.798317
Si Si2 0.352046 0.191610 0.598848
Si Si3 0.705975 0.151329 0.333622
Si Si4 0.860822 0.380633 0.083548
Si Si5 0.843762 0.183926 0.919556
Si Si6 0.168277 0.837571 0.573569
O O1 0.500000 0.339241 0.750000
O O2 0.358079 0.278407 0.690139
O O3 0.295463 0.523100 0.817639
O O4 0.207948 0.270215 0.959489
O O5 0.528456 0.163286 0.435306
O O6 0.268373 0.259738 0.572232
O O7 0.263875 0.030639 0.685173
O O8 0.822804 0.254334 0.188659
O O9 0.716435 0.204275 0.430242
O O10 0.886028 0.287974 0.972481
O O11 0.000000 0.500000 0.000000
O O12 0.000000 0.154328 0.750000
O O13 0.791426 0.012320 0.985871
O O14 0.000000 0.825322 0.750000
#
# Coordination Sequence:
#
# PCOD9233761 Si02
#       6
#     4   4   4   4   4   4
#     4  12  25  41  63 101 136 176 217 273 344 411
#     4  10  22  43  70  96 130 170 235 287 328 394
#     4  10  22  42  68  98 128 177 227 285 338 389
#     4  12  27  43  64  98 139 181 218 272 347 421
#     4  10  23  43  68  96 126 175 226 278 330 391
#     4  10  21  42  70  97 129 172 229 278 330 394
#
# _framework density 21.747391
#
# number of rings (size 3 to 8) (size 9 to 14) (size 15 to 20)
#    0.000    1.333    1.667    3.000    2.333    4.000 
#    0.000    6.667    0.000    0.000    0.000    0.000 
#    0.000    0.000    0.000    0.000    0.000    0.000 
#
# Total GULP energy -133918.770291 kJ/mol
# GULP energy per Si atom -5579.948762 kJ/mol
# Density = 2.169789 g / cm^3
# Si number density = 21.747391 Si / 1000 Ang^3
#
#
#
# Elastic Constant Matrix: (Units=GPa)
#
#
# Indices 1 2 3 4 5 6 
#
# 1 101.3789 25.1701 13.8389 0.0000 -2.0163 0.0000
# 2 25.1701 73.6032 36.7459 0.0000 16.2795 0.0000
# 3 13.8389 36.7459 50.7146 0.0000 0.2740 0.0000
# 4 0.0000 0.0000 0.0000 47.5930 0.0000 24.5839
# 5 -2.0163 16.2795 0.2740 0.0000 33.3478 0.0000
# 6 0.0000 0.0000 0.0000 24.5839 0.0000 51.6760
#
#
#
# Elastic Compliance Matrix: (Units=1/GPa)
#
#
# Indices 1 2 3 4 5 6 
#
# 1 0.011011 -0.004534 0.000265 0.000000 0.002877 0.000000
# 2 -0.004534 0.027362 -0.018515 0.000000 -0.013479 0.000000
# 3 0.000265 -0.018515 0.033014 0.000000 0.008783 0.000000
# 4 0.000000 0.000000 0.000000 0.027857 0.000000 -0.013252
# 5 0.002877 -0.013479 0.008783 0.000000 0.036669 0.000000
# 6 0.000000 0.000000 0.000000 -0.013252 0.000000 0.025656
#
#
# Mechanical properties :
#
#
# Convention : Reuss Voigt Hill
#
# Bulk Modulus (GPa) = 38.73276 41.91182 40.32229
# Shear Modulus (GPa) = 23.17572 36.51949 29.84761
#
# Velocity S-wave (km/s) = 3.26801 4.10232 3.70870
# Velocity P-wave (km/s) = 5.66470 6.46163 6.07625
#
# Compressibility (1/GPa) = 0.02581794
#
# Stress axis : x y z
#
# Youngs Moduli (GPa) = 90.82067 36.54720 30.29021
#
# Poissons Ratio (x) = 0.16570 -0.00803
# Poissons Ratio (y) = 0.41178 0.56083
# Poissons Ratio (z) = -0.02407 0.67668
#
# Static dielectric constant tensor:
#      x y z
#    x 1.897010 0.000000 0.014560 
#    y 0.000000 1.818610 0.000000 
#    z 0.014560 0.000000 1.828450 
# 
# From -- ./inp_files/52870.got.cif
#   From: 2010.05.17/outbox.cif.g08.bks.cpg/sg13_27_cif.got.tgz:52870.got - 2010.06.03 16:44:36.
