data_PCOD9233410
_publ_section_title
;
Structure prediction by ZEFSAII (Michael W. Deem and Ramdas Pophale) SiO2 
 PCOD9233410
Probable space group: P 2/C
;
_chemical_formula_sum "Si O2"
_cell_formula_units_Z 22
_cell_length_a 9.801667
_cell_length_b 6.377212
_cell_length_c 20.925367
_cell_angle_alpha 90.000000
_cell_angle_beta 43.604278
_cell_angle_gamma 90.000000
_cell_volume 902.085063
_symmetry_space_group_name_H-M "P 2/C"
_symmetry_group_IT_number 13
_symmetry_cell_setting 'monoclinic'
loop_
_space_group_symop_operation_xyz
x,y,z
-x,y,1/2-z
-x,-y,-z
x,-y,1/2+z
loop_
_atom_site_type_symbol
_atom_site_label
_atom_site_fract_x
_atom_site_fract_y
_atom_site_fract_z
Si Si1 0.943790 0.511509 0.430914
Si Si2 0.293005 0.104692 0.521939
Si Si3 0.673960 0.415162 0.272712
Si Si4 0.670556 0.760052 0.097845
Si Si5 0.500000 0.050463 0.250000
Si Si6 0.727992 0.738456 0.891019
O O1 0.863882 0.746852 0.458962
O O2 0.868004 0.368459 0.515015
O O3 0.820883 0.411172 0.412517
O O4 0.168725 0.487178 0.333447
O O5 0.488243 0.236851 0.473676
O O6 0.357117 0.923809 0.450643
O O7 0.207747 0.975632 0.611369
O O8 0.507856 0.592170 0.339339
O O9 0.578018 0.203699 0.278074
O O10 0.772730 0.351605 0.306114
O O11 0.663382 0.899872 0.163605
#
# Coordination Sequence:
#
# PCOD9233410 Si02
#       6
#     4   4   4   4   2   4
#     4  11  24  43  70 106 138 172 221 285 341 408
#     4  10  21  41  72  99 140 179 217 272 350 405
#     4  12  26  46  68 101 140 179 234 280 336 403
#     4  11  24  45  72  96 135 184 223 285 340 398
#     4  12  26  48  70  94 132 188 234 280 340 400
#     4  10  21  40  70 102 138 179 212 273 343 408
#
# _framework density 24.387944999999998
#
# number of rings (size 3 to 8) (size 9 to 14) (size 15 to 20)
#    0.000    1.091    3.636    1.636    5.091    3.636 
#    3.273    6.364    0.000    0.000    0.000    0.000 
#    0.000    0.000    0.000    0.000    0.000    0.000 
#
# Total GULP energy -123186.974090 kJ/mol
# GULP energy per Si atom -5599.407913 kJ/mol
# Density = 2.433244 g / cm^3
# Si number density = 24.387945 Si / 1000 Ang^3
#
#
#
# Elastic Constant Matrix: (Units=GPa)
#
#
# Indices 1 2 3 4 5 6 
#
# 1 54.0154 38.5638 10.0428 0.0000 -4.7143 0.0000
# 2 38.5638 143.2085 72.0289 0.0000 -7.3999 0.0000
# 3 10.0428 72.0289 133.4515 0.0000 -8.3567 0.0000
# 4 0.0000 0.0000 0.0000 43.2334 0.0000 11.2204
# 5 -4.7143 -7.3999 -8.3567 0.0000 35.4782 0.0000
# 6 0.0000 0.0000 0.0000 11.2204 0.0000 42.0171
#
#
#
# Elastic Compliance Matrix: (Units=1/GPa)
#
#
# Indices 1 2 3 4 5 6 
#
# 1 0.023561 -0.007425 0.002369 0.000000 0.002140 0.000000
# 2 -0.007425 0.011947 -0.005882 0.000000 0.000120 0.000000
# 3 0.002369 -0.005882 0.010589 0.000000 0.001582 0.000000
# 4 0.000000 0.000000 0.000000 0.024853 0.000000 -0.006637
# 5 0.002140 0.000120 0.001582 0.000000 0.028868 0.000000
# 6 0.000000 0.000000 0.000000 -0.006637 0.000000 0.025572
#
#
# Mechanical properties :
#
#
# Convention : Reuss Voigt Hill
#
# Bulk Modulus (GPa) = 41.28903 63.54957 52.41930
# Shear Modulus (GPa) = 32.18741 38.14841 35.16791
#
# Velocity S-wave (km/s) = 3.63686 3.95933 3.80151
# Velocity P-wave (km/s) = 5.88239 6.85683 6.38821
#
# Compressibility (1/GPa) = 0.02421951
#
# Stress axis : x y z
#
# Youngs Moduli (GPa) = 42.44324 83.70328 94.43863
#
# Poissons Ratio (x) = 0.62153 -0.22370
# Poissons Ratio (y) = 0.31516 0.55548
# Poissons Ratio (z) = -0.10054 0.49234
#
# Static dielectric constant tensor:
#      x y z
#    x 1.992480 0.000000 0.046980 
#    y 0.000000 1.913780 0.000000 
#    z 0.046980 0.000000 1.972880 
# 
# From -- ./inp_files/85736.got.cif
#   From: 2010.05.17/outbox.cif.g08.bks.cpg/sg13_43_cif.got.tgz:85736.got - 2010.06.03 16:44:36.
