data_PCOD9233994
_publ_section_title
;
Structure prediction by ZEFSAII (Michael W. Deem and Ramdas Pophale) SiO2 
 PCOD9233994
Probable space group: P 2/C
;
_chemical_formula_sum "Si O2"
_cell_formula_units_Z 26
_cell_length_a 22.688756
_cell_length_b 9.551075
_cell_length_c 9.433932
_cell_angle_alpha 90.000000
_cell_angle_beta 34.073228
_cell_angle_gamma 90.000000
_cell_volume 1145.352342
_symmetry_space_group_name_H-M "P 2/C"
_symmetry_group_IT_number 13
_symmetry_cell_setting 'monoclinic'
loop_
_space_group_symop_operation_xyz
x,y,z
-x,y,1/2-z
-x,-y,-z
x,-y,1/2+z
loop_
_atom_site_type_symbol
_atom_site_label
_atom_site_fract_x
_atom_site_fract_y
_atom_site_fract_z
Si Si1 0.393375 0.171908 0.517389
Si Si2 0.199508 0.662016 0.747652
Si Si3 0.000000 0.976015 0.250000
Si Si4 0.670373 0.928780 0.058227
Si Si5 0.137533 0.885091 0.228553
Si Si6 0.007144 0.663056 0.959778
Si Si7 0.207090 0.616867 0.414552
O O1 0.500000 0.242925 0.250000
O O2 0.396200 0.133396 0.678256
O O3 0.291322 0.269810 0.692047
O O4 0.383213 0.028618 0.448645
O O5 0.272413 0.795994 0.628747
O O6 0.080974 0.715669 0.943918
O O7 0.236815 0.600509 0.521188
O O8 0.201744 0.532702 0.849821
O O9 0.093075 0.912645 0.160936
O O10 0.939255 0.057545 0.495784
O O11 0.756127 0.031170 0.961992
O O12 0.089183 0.681563 0.666292
O O13 0.110506 0.721703 0.303594
O O14 0.000000 0.500000 0.000000
#
# Coordination Sequence:
#
# PCOD9233994 Si02
#       7
#     4   4   2   4   4   4   4
#     4  11  25  47  70  97 128 169 222 288 348 392
#     4   9  21  43  61  95 134 172 219 262 314 393
#     4  10  22  34  58  84 134 174 210 256 308 384
#     4  11  24  42  71 100 131 169 226 281 330 399
#     4  11  23  39  58  97 134 174 216 263 316 392
#     4  10  24  38  60  91 138 175 215 250 314 397
#     4   9  23  44  63  91 135 173 217 269 322 393
#
# _framework density 22.70044
#
# number of rings (size 3 to 8) (size 9 to 14) (size 15 to 20)
#    0.923    0.923    0.000    3.231    4.308    5.538 
#    0.000    3.846    0.000    0.000    0.000    0.000 
#    0.000    0.000    0.000    0.000    0.000    0.000 
#
# Total GULP energy -145016.347733 kJ/mol
# GULP energy per Si atom -5577.551836 kJ/mol
# Density = 2.264877 g / cm^3
# Si number density = 22.700440 Si / 1000 Ang^3
#
#
#
# Elastic Constant Matrix: (Units=GPa)
#
#
# Indices 1 2 3 4 5 6 
#
# 1 76.6825 28.5005 15.1285 0.0000 16.7033 0.0000
# 2 28.5005 87.2701 29.4562 0.0000 1.5721 0.0000
# 3 15.1285 29.4562 113.7173 0.0000 8.0594 0.0000
# 4 0.0000 0.0000 0.0000 116.6403 0.0000 505.5476
# 5 16.7033 1.5721 8.0594 0.0000 30.9874 0.0000
# 6 0.0000 0.0000 0.0000 505.5476 0.0000 2870.9961
#
#
#
# Elastic Compliance Matrix: (Units=1/GPa)
#
#
# Indices 1 2 3 4 5 6 
#
# 1 0.016982 -0.005299 -0.000262 0.000000 -0.008817 0.000000
# 2 -0.005299 0.014211 -0.003186 0.000000 0.002964 0.000000
# 3 -0.000262 -0.003186 0.009813 0.000000 -0.002250 0.000000
# 4 0.000000 0.000000 0.000000 0.036206 0.000000 -0.006375
# 5 -0.008817 0.002964 -0.002250 0.000000 0.037459 0.000000
# 6 0.000000 0.000000 0.000000 -0.006375 0.000000 0.001471
#
#
# Mechanical properties :
#
#
# Convention : Reuss Voigt Hill
#
# Bulk Modulus (GPa) = 42.52949 47.09337 44.81143
# Shear Modulus (GPa) = 35.34206 617.36376 326.35291
#
# Velocity S-wave (km/s) = 3.95002 16.50914 12.00321
# Velocity P-wave (km/s) = 6.29121 19.60083 14.55631
#
# Compressibility (1/GPa) = 0.02351309
#
# Stress axis : x y z
#
# Youngs Moduli (GPa) = 58.88430 70.36685 101.90217
#
# Poissons Ratio (x) = 0.37287 0.02668
# Poissons Ratio (y) = 0.31202 0.32469
# Poissons Ratio (z) = 0.01542 0.22421
#
# Static dielectric constant tensor:
#      x y z
#    x 1.955820 0.000000 0.012840 
#    y 0.000000 1.935480 0.000000 
#    z 0.012840 0.000000 1.896200 
# 
# From -- ./inp_files/42175.got.cif
#   From: 2010.05.17/outbox.cif.g08.bks.cpg/sg13_22_cif.got.tgz:42175.got - 2010.06.03 16:44:36.
