data_PCOD9233419
_publ_section_title
;
Structure prediction by ZEFSAII (Michael W. Deem and Ramdas Pophale) SiO2 
 PCOD9233419
Probable space group: P 2/C
;
_chemical_formula_sum "Si O2"
_cell_formula_units_Z 28
_cell_length_a 10.294658
_cell_length_b 12.011722
_cell_length_c 14.976147
_cell_angle_alpha 90.000000
_cell_angle_beta 141.329462
_cell_angle_gamma 90.000000
_cell_volume 1157.142903
_symmetry_space_group_name_H-M "P 2/C"
_symmetry_group_IT_number 13
_symmetry_cell_setting 'monoclinic'
loop_
_space_group_symop_operation_xyz
x,y,z
-x,y,1/2-z
-x,-y,-z
x,-y,1/2+z
loop_
_atom_site_type_symbol
_atom_site_label
_atom_site_fract_x
_atom_site_fract_y
_atom_site_fract_z
Si Si1 0.116813 0.099343 0.612781
Si Si2 0.275899 0.951805 0.393711
Si Si3 0.125738 0.342105 0.232673
Si Si4 0.769276 0.157353 0.008741
Si Si5 0.566029 0.727254 0.047994
Si Si6 0.914299 0.653288 0.361353
Si Si7 0.741485 0.468722 0.373616
O O1 0.187990 0.057249 0.746935
O O2 0.020098 0.220192 0.583065
O O3 0.270904 0.132276 0.615658
O O4 0.000000 0.000000 0.500000
O O5 0.313049 0.823845 0.442031
O O6 0.500000 0.000000 0.500000
O O7 0.187497 0.042266 0.414413
O O8 0.366830 0.320676 0.389525
O O9 0.160718 0.409653 0.161134
O O10 0.000000 0.393548 0.250000
O O11 0.976863 0.234481 0.132646
O O12 0.565970 0.215161 0.942061
O O13 0.749748 0.654343 0.191036
O O14 0.126925 0.581584 0.473714
O O15 0.782394 0.597761 0.372174
O O16 0.500000 0.446444 0.250000
#
# Coordination Sequence:
#
# PCOD9233419 Si02
#       7
#     4   4   4   4   4   4   4
#     4  11  24  39  70 102 142 196 251 292 381 458
#     4   9  21  37  59  98 141 184 236 310 355 434
#     4  10  22  43  75 101 142 202 250 310 379 461
#     4  10  21  40  71  98 147 196 255 304 376 457
#     4   9  21  39  69  97 144 187 253 300 371 450
#     4  10  24  46  70 109 143 190 245 305 373 455
#     4  11  25  46  78 105 151 188 247 322 374 437
#
# _framework density 24.19753
#
# number of rings (size 3 to 8) (size 9 to 14) (size 15 to 20)
#    0.000    2.000    1.429    0.000   10.000    6.286 
#    2.571    0.714    3.143    0.000    0.000    0.000 
#    0.000    0.000    0.000    0.000    0.000    0.000 
#
# Total GULP energy -156042.024432 kJ/mol
# GULP energy per Si atom -5572.929444 kJ/mol
# Density = 2.414246 g / cm^3
# Si number density = 24.197530 Si / 1000 Ang^3
#
#
#
# Elastic Constant Matrix: (Units=GPa)
#
#
# Indices 1 2 3 4 5 6 
#
# 1 93.4256 30.7081 26.5967 0.0000 10.6604 0.0000
# 2 30.7081 112.4554 69.6667 0.0000 7.0126 0.0000
# 3 26.5967 69.6667 169.7516 0.0000 29.7556 0.0000
# 4 0.0000 0.0000 0.0000 36.0611 0.0000 -7.5605
# 5 10.6604 7.0126 29.7556 0.0000 25.2901 0.0000
# 6 0.0000 0.0000 0.0000 -7.5605 0.0000 34.5693
#
#
#
# Elastic Compliance Matrix: (Units=1/GPa)
#
#
# Indices 1 2 3 4 5 6 
#
# 1 0.012203 -0.003157 0.000166 0.000000 -0.004464 0.000000
# 2 -0.003157 0.012935 -0.005567 0.000000 0.004294 0.000000
# 3 0.000166 -0.005567 0.009942 0.000000 -0.010223 0.000000
# 4 0.000000 0.000000 0.000000 0.029063 0.000000 0.006356
# 5 -0.004464 0.004294 -0.010223 0.000000 0.052261 0.000000
# 6 0.000000 0.000000 0.000000 0.006356 0.000000 0.030318
#
#
# Mechanical properties :
#
#
# Convention : Reuss Voigt Hill
#
# Bulk Modulus (GPa) = 55.66282 69.95282 62.80782
# Shear Modulus (GPa) = 29.44198 35.76152 32.60175
#
# Velocity S-wave (km/s) = 3.49196 3.84852 3.67456
# Velocity P-wave (km/s) = 6.26991 6.97997 6.63445
#
# Compressibility (1/GPa) = 0.01796531
#
# Stress axis : x y z
#
# Youngs Moduli (GPa) = 81.94411 77.30773 100.58758
#
# Poissons Ratio (x) = 0.24405 -0.01670
# Poissons Ratio (y) = 0.25869 0.55994
# Poissons Ratio (z) = -0.01361 0.43035
#
# Static dielectric constant tensor:
#      x y z
#    x 1.988110 0.000000 -0.026110 
#    y 0.000000 2.056440 0.000000 
#    z -0.026110 0.000000 2.020290 
# 
# From -- ./inp_files/76285.got.cif
#   From: 2010.05.17/outbox.cif.g08.bks.cpg/sg13_39_cif.got.tgz:76285.got - 2010.06.03 16:44:36.
