data_PCOD9233397
_publ_section_title
;
Structure prediction by ZEFSAII (Michael W. Deem and Ramdas Pophale) SiO2 
 PCOD9233397
Probable space group: P 2/C
;
_chemical_formula_sum "Si O2"
_cell_formula_units_Z 18
_cell_length_a 10.816274
_cell_length_b 6.292215
_cell_length_c 18.227399
_cell_angle_alpha 90.000000
_cell_angle_beta 37.824836
_cell_angle_gamma 90.000000
_cell_volume 760.752066
_symmetry_space_group_name_H-M "P 2/C"
_symmetry_group_IT_number 13
_symmetry_cell_setting 'monoclinic'
loop_
_space_group_symop_operation_xyz
x,y,z
-x,y,1/2-z
-x,-y,-z
x,-y,1/2+z
loop_
_atom_site_type_symbol
_atom_site_label
_atom_site_fract_x
_atom_site_fract_y
_atom_site_fract_z
Si Si1 0.997068 0.788663 0.831762
Si Si2 0.312105 0.151319 0.571944
Si Si3 0.185815 0.594072 0.999929
Si Si4 0.786709 0.834847 0.221503
Si Si5 0.500000 0.406143 0.750000
O O1 0.000000 0.679844 0.750000
O O2 0.852366 0.985847 0.880887
O O3 0.904853 0.630573 0.932784
O O4 0.190126 0.911572 0.774836
O O5 0.326066 0.321911 0.501010
O O6 0.238891 0.250646 0.683114
O O7 0.500000 0.000000 0.500000
O O8 0.324779 0.553348 0.865380
O O9 0.989230 0.745639 0.087389
O O10 0.598606 0.748086 0.264531
#
# Coordination Sequence:
#
# PCOD9233397 Si02
#       5
#     4   4   4   4   2
#     4   9  19  38  66  92 121 165 215 277 333 377
#     4  10  21  40  68  99 124 159 221 280 327 389
#     4  11  23  43  67  95 134 175 219 276 338 398
#     4  10  23  43  63  94 133 172 226 278 335 396
#     4  12  26  40  62  96 136 186 228 266 328 410
#
# _framework density 23.660798
#
# number of rings (size 3 to 8) (size 9 to 14) (size 15 to 20)
#    0.000    1.778    0.000    5.333    0.000    8.000 
#    0.000   13.333    0.000    0.000    0.000    0.000 
#    0.000    0.000    0.000    0.000    0.000    0.000 
#
# Total GULP energy -100536.332721 kJ/mol
# GULP energy per Si atom -5585.351818 kJ/mol
# Density = 2.360694 g / cm^3
# Si number density = 23.660798 Si / 1000 Ang^3
#
#
#
# Elastic Constant Matrix: (Units=GPa)
#
#
# Indices 1 2 3 4 5 6 
#
# 1 66.1973 28.6398 -12.0713 0.0000 -10.5347 0.0000
# 2 28.6398 54.1770 17.3674 0.0000 4.8850 0.0000
# 3 -12.0713 17.3674 88.1512 0.0000 5.3420 0.0000
# 4 0.0000 0.0000 0.0000 29.2981 0.0000 -5.9869
# 5 -10.5347 4.8850 5.3420 0.0000 29.9253 0.0000
# 6 0.0000 0.0000 0.0000 -5.9869 0.0000 -8.0711
#
#
#
# Elastic Compliance Matrix: (Units=1/GPa)
#
#
# Indices 1 2 3 4 5 6 
#
# 1 0.024657 -0.015840 0.005878 0.000000 0.010217 0.000000
# 2 -0.015840 0.030073 -0.007540 0.000000 -0.009139 0.000000
# 3 0.005878 -0.007540 0.013582 0.000000 0.000876 0.000000
# 4 0.000000 0.000000 0.000000 0.029639 0.000000 -0.021985
# 5 0.010217 -0.009139 0.000876 0.000000 0.038349 0.000000
# 6 0.000000 0.000000 0.000000 -0.021985 0.000000 -0.107591
#
#
# Mechanical properties :
#
#
# Convention : Reuss Voigt Hill
#
# Bulk Modulus (GPa) = 30.02340 30.71082 30.36711
# Shear Modulus (GPa) = 66.83015 21.86974 44.34994
#
# Velocity S-wave (km/s) = 5.32038 3.04353 4.33414
# Velocity P-wave (km/s) = 7.10342 5.03573 6.15699
#
# Compressibility (1/GPa) = 0.03330735
#
# Stress axis : x y z
#
# Youngs Moduli (GPa) = 40.55575 33.25240 73.62897
#
# Poissons Ratio (x) = 0.52673 -0.43281
# Poissons Ratio (y) = 0.64242 0.55518
# Poissons Ratio (z) = -0.23840 0.25073
#
# Static dielectric constant tensor:
#      x y z
#    x 2.000690 0.000000 -0.006850 
#    y 0.000000 1.897000 0.000000 
#    z -0.006850 0.000000 1.963110 
# 
# From -- ./inp_files/77090.got.cif
#   From: 2010.05.17/outbox.cif.g08.bks.cpg/sg13_39_cif.got.tgz:77090.got - 2010.06.03 16:44:36.
