data_PCOD9233466
_publ_section_title
;
Structure prediction by ZEFSAII (Michael W. Deem and Ramdas Pophale) SiO2 
 PCOD9233466
Probable space group: P 2/C
;
_chemical_formula_sum "Si O2"
_cell_formula_units_Z 18
_cell_length_a 9.039044
_cell_length_b 10.839535
_cell_length_c 8.594539
_cell_angle_alpha 90.000000
_cell_angle_beta 96.594527
_cell_angle_gamma 90.000000
_cell_volume 836.513176
_symmetry_space_group_name_H-M "P 2/C"
_symmetry_group_IT_number 13
_symmetry_cell_setting 'monoclinic'
loop_
_space_group_symop_operation_xyz
x,y,z
-x,y,1/2-z
-x,-y,-z
x,-y,1/2+z
loop_
_atom_site_type_symbol
_atom_site_label
_atom_site_fract_x
_atom_site_fract_y
_atom_site_fract_z
Si Si1 0.081348 0.894911 0.605325
Si Si2 0.532319 0.786228 0.074577
Si Si3 0.000000 0.478326 0.250000
Si Si4 0.637731 0.941300 0.656620
Si Si5 0.817080 0.651181 0.997255
O O1 0.227258 0.944249 0.708713
O O2 0.108718 0.785248 0.490317
O O3 0.000000 0.847152 0.750000
O O4 0.000000 0.000000 0.500000
O O5 0.500000 0.750784 0.250000
O O6 0.614854 0.920598 0.089626
O O7 0.377928 0.830415 0.971152
O O8 0.641575 0.686044 0.005250
O O9 0.108431 0.562795 0.367753
O O10 0.119058 0.403984 0.157240
O O11 0.500000 0.912312 0.750000
#
# Coordination Sequence:
#
# PCOD9233466 Si02
#       5
#     4   4   2   4   4
#     4  12  26  39  68 109 140 179 229 292 364 428
#     4  10  22  39  70  98 138 184 221 278 355 430
#     4  10  26  46  74  88 140 190 248 296 342 392
#     4  10  21  41  63 102 149 182 216 277 362 437
#     4  11  23  48  66 100 132 189 239 295 342 418
#
# _framework density 21.517892
#
# number of rings (size 3 to 8) (size 9 to 14) (size 15 to 20)
#    0.000    1.333    3.333    1.333   10.889    0.000 
#    0.000    1.111    0.000    0.000    0.000    0.000 
#    0.000    0.000    0.000    0.000    0.000    0.000 
#
# Total GULP energy -100232.982736 kJ/mol
# GULP energy per Si atom -5568.499041 kJ/mol
# Density = 2.146892 g / cm^3
# Si number density = 21.517892 Si / 1000 Ang^3
#
#
#
# Elastic Constant Matrix: (Units=GPa)
#
#
# Indices 1 2 3 4 5 6 
#
# 1 77.2406 25.7897 48.9294 0.0000 9.2272 0.0000
# 2 25.7897 82.0449 43.3440 0.0000 3.8135 0.0000
# 3 48.9294 43.3440 117.0660 0.0000 -0.0050 0.0000
# 4 0.0000 0.0000 0.0000 304.7706 0.0000 130.0803
# 5 9.2272 3.8135 -0.0050 0.0000 48.0243 0.0000
# 6 0.0000 0.0000 0.0000 130.0803 0.0000 101.3989
#
#
#
# Elastic Compliance Matrix: (Units=1/GPa)
#
#
# Indices 1 2 3 4 5 6 
#
# 1 0.018422 -0.001946 -0.006979 0.000000 -0.003386 0.000000
# 2 -0.001946 0.015428 -0.004899 0.000000 -0.000852 0.000000
# 3 -0.006979 -0.004899 0.013273 0.000000 0.001731 0.000000
# 4 0.000000 0.000000 0.000000 0.007252 0.000000 -0.009303
# 5 -0.003386 -0.000852 0.001731 0.000000 0.021541 0.000000
# 6 0.000000 0.000000 0.000000 -0.009303 0.000000 0.021797
#
#
# Mechanical properties :
#
#
# Convention : Reuss Voigt Hill
#
# Bulk Modulus (GPa) = 51.34946 56.94196 54.14571
# Shear Modulus (GPa) = 37.92117 101.39130 69.65624
#
# Velocity S-wave (km/s) = 4.20254 6.87181 5.69575
# Velocity P-wave (km/s) = 6.88940 9.45952 8.27485
#
# Compressibility (1/GPa) = 0.01947440
#
# Stress axis : x y z
#
# Youngs Moduli (GPa) = 54.28292 64.81807 75.34003
#
# Poissons Ratio (x) = 0.12615 0.52582
# Poissons Ratio (y) = 0.10564 0.36907
# Poissons Ratio (z) = 0.37886 0.31753
#
# Static dielectric constant tensor:
#      x y z
#    x 1.796190 0.000000 -0.082180 
#    y 0.000000 1.764340 0.000000 
#    z -0.082180 0.000000 1.816180 
# 
# From -- ./inp_files/11364.got.cif
#   From: 2010.05.17/outbox.cif.g08.bks.cpg/sg13_6_cif.got.tgz:11364.got - 2010.06.03 16:44:36.
