data_PCOD9233248
_publ_section_title
;
Structure prediction by ZEFSAII (Michael W. Deem and Ramdas Pophale) SiO2 
 PCOD9233248
Probable space group: P 2/C
;
_chemical_formula_sum "Si O2"
_cell_formula_units_Z 32
_cell_length_a 6.394229
_cell_length_b 14.219902
_cell_length_c 16.624499
_cell_angle_alpha 90.000000
_cell_angle_beta 84.271879
_cell_angle_gamma 90.000000
_cell_volume 1504.039915
_symmetry_space_group_name_H-M "P 2/C"
_symmetry_group_IT_number 13
_symmetry_cell_setting 'monoclinic'
loop_
_space_group_symop_operation_xyz
x,y,z
-x,y,1/2-z
-x,-y,-z
x,-y,1/2+z
loop_
_atom_site_type_symbol
_atom_site_label
_atom_site_fract_x
_atom_site_fract_y
_atom_site_fract_z
Si Si1 0.000458 0.898331 0.152590
Si Si2 0.874469 0.287330 0.169655
Si Si3 0.544621 0.243639 0.380083
Si Si4 0.915747 0.892831 0.844257
Si Si5 0.315180 0.764136 0.053630
Si Si6 0.156957 0.417447 0.076376
Si Si7 0.980494 0.392511 0.592801
Si Si8 0.656711 0.741502 0.168074
O O1 0.792042 0.836229 0.143296
O O2 0.000000 0.897158 0.250000
O O3 0.203185 0.847514 0.107231
O O4 0.024926 0.006197 0.123136
O O5 0.628528 0.272280 0.178703
O O6 0.000000 0.295483 0.250000
O O7 0.961661 0.194172 0.122037
O O8 0.934545 0.376224 0.115205
O O9 0.683085 0.152108 0.351480
O O10 0.420059 0.214583 0.465024
O O11 0.680615 0.338290 0.396918
O O12 0.000000 0.898242 0.750000
O O13 0.130350 0.689025 0.054068
O O14 0.502547 0.723848 0.100289
O O15 0.138131 0.523151 0.110820
O O16 0.158002 0.423397 0.979549
O O17 0.828552 0.342969 0.664141
O O18 0.500000 0.750690 0.250000
#
# Coordination Sequence:
#
# PCOD9233248 Si02
#       8
#     4   4   4   4   4   4   4   4
#     4  10  21  40  62  92 131 166 215 270 317 383
#     4  10  22  42  63  91 127 165 212 271 319 373
#     4  11  22  40  68  91 129 172 218 261 328 383
#     4   9  22  40  62  90 125 170 217 271 320 377
#     4  11  22  38  63  95 126 171 212 264 320 381
#     4  10  21  40  65  91 124 166 212 266 314 377
#     4  10  22  39  66  93 129 162 215 267 312 380
#     4  11  22  40  64  95 130 170 209 259 324 383
#
# _framework density 21.276031
#
# number of rings (size 3 to 8) (size 9 to 14) (size 15 to 20)
#    0.000    1.750    3.750    0.000    0.000    7.500 
#    2.250    1.250    5.500    0.000    0.000    0.000 
#    0.000    0.000    0.000    0.000    0.000    0.000 
#
# Total GULP energy -178155.028644 kJ/mol
# GULP energy per Si atom -5567.344645 kJ/mol
# Density = 2.122761 g / cm^3
# Si number density = 21.276031 Si / 1000 Ang^3
#
#
#
# Elastic Constant Matrix: (Units=GPa)
#
#
# Indices 1 2 3 4 5 6 
#
# 1 105.4228 19.3266 45.4661 0.0000 -18.7211 0.0000
# 2 19.3266 119.1847 19.9049 0.0000 -23.3241 0.0000
# 3 45.4661 19.9049 66.9965 0.0000 -18.7104 0.0000
# 4 0.0000 0.0000 0.0000 38.3529 0.0000 -5.4468
# 5 -18.7211 -23.3241 -18.7104 0.0000 47.4185 0.0000
# 6 0.0000 0.0000 0.0000 -5.4468 0.0000 11.9353
#
#
#
# Elastic Compliance Matrix: (Units=1/GPa)
#
#
# Indices 1 2 3 4 5 6 
#
# 1 0.013586 -0.000422 -0.008602 0.000000 0.001762 0.000000
# 2 -0.000422 0.009466 -0.001430 0.000000 0.003925 0.000000
# 3 -0.008602 -0.001430 0.022526 0.000000 0.004789 0.000000
# 4 0.000000 0.000000 0.000000 0.027881 0.000000 0.012724
# 5 0.001762 0.003925 0.004789 0.000000 0.025605 0.000000
# 6 0.000000 0.000000 0.000000 0.012724 0.000000 0.089592
#
#
# Mechanical properties :
#
#
# Convention : Reuss Voigt Hill
#
# Bulk Modulus (GPa) = 40.53531 51.22212 45.87872
# Shear Modulus (GPa) = 22.95830 33.33511 28.14671
#
# Velocity S-wave (km/s) = 3.28848 3.96257 3.64116
# Velocity P-wave (km/s) = 5.78898 6.71291 6.26799
#
# Compressibility (1/GPa) = 0.02466985
#
# Stress axis : x y z
#
# Youngs Moduli (GPa) = 73.60620 105.64477 44.39257
#
# Poissons Ratio (x) = 0.04453 0.38189
# Poissons Ratio (y) = 0.03103 0.06348
# Poissons Ratio (z) = 0.63319 0.15107
#
# Static dielectric constant tensor:
#      x y z
#    x 1.810450 0.000000 0.001080 
#    y 0.000000 1.789380 0.000000 
#    z 0.001080 0.000000 1.845980 
# 
# From -- ./inp_files/61613.got.cif
#   From: 2010.05.17/outbox.cif.g08.bks.cpg/sg13_31_cif.got.tgz:61613.got - 2010.06.03 16:44:36.
