data_PCOD9233165
_publ_section_title
;
Structure prediction by ZEFSAII (Michael W. Deem and Ramdas Pophale) SiO2 
 PCOD9233165
Probable space group: P 2/C
;
_chemical_formula_sum "Si O2"
_cell_formula_units_Z 20
_cell_length_a 18.075144
_cell_length_b 5.582169
_cell_length_c 15.308502
_cell_angle_alpha 90.000000
_cell_angle_beta 145.060687
_cell_angle_gamma 90.000000
_cell_volume 884.608391
_symmetry_space_group_name_H-M "P 2/C"
_symmetry_group_IT_number 13
_symmetry_cell_setting 'monoclinic'
loop_
_space_group_symop_operation_xyz
x,y,z
-x,y,1/2-z
-x,-y,-z
x,-y,1/2+z
loop_
_atom_site_type_symbol
_atom_site_label
_atom_site_fract_x
_atom_site_fract_y
_atom_site_fract_z
Si Si1 0.500392 0.678171 0.081112
Si Si2 0.261980 0.075061 0.401179
Si Si3 0.750054 0.299005 0.918380
Si Si4 0.990750 0.750211 0.937107
Si Si5 0.627821 0.321269 0.406316
O O1 0.641045 0.771917 0.242834
O O2 0.446548 0.526484 0.111630
O O3 0.500000 0.500000 0.000000
O O4 0.390206 0.876231 0.968817
O O5 0.265137 0.157541 0.505802
O O6 0.144052 0.211200 0.243477
O O7 0.271749 0.792353 0.427698
O O8 0.712450 0.571192 0.909609
O O9 0.890300 0.263834 0.014930
O O10 0.000000 0.500000 0.000000
O O11 0.000000 0.000000 0.000000
O O12 0.500000 0.172519 0.250000
#
# Coordination Sequence:
#
# PCOD9233165 Si02
#       5
#     4   4   4   4   4
#     4  10  21  39  68 102 143 175 232 298 356 418
#     4  11  23  43  71  99 138 192 239 291 358 440
#     4  10  23  44  69  99 140 188 238 290 355 433
#     4  12  30  49  70 104 145 187 240 303 365 422
#     4   9  20  39  69 104 136 183 243 293 352 434
#
# _framework density 22.608875999999999
#
# number of rings (size 3 to 8) (size 9 to 14) (size 15 to 20)
#    0.000    1.600    0.000    4.800   11.200    0.800 
#    0.000    0.000    0.000    0.000    0.000    0.000 
#    0.000    0.000    0.000    0.000    0.000    0.000 
#
# Total GULP energy -111520.918568 kJ/mol
# GULP energy per Si atom -5576.045928 kJ/mol
# Density = 2.255742 g / cm^3
# Si number density = 22.608876 Si / 1000 Ang^3
#
#
#
# Elastic Constant Matrix: (Units=GPa)
#
#
# Indices 1 2 3 4 5 6 
#
# 1 66.3958 10.5857 -9.6849 0.0000 -0.0957 0.0000
# 2 10.5857 71.7857 22.3472 0.0000 -2.7179 0.0000
# 3 -9.6849 22.3472 100.3353 0.0000 -1.3267 0.0000
# 4 0.0000 0.0000 0.0000 22.9946 0.0000 -8.2361
# 5 -0.0957 -2.7179 -1.3267 0.0000 36.8363 0.0000
# 6 0.0000 0.0000 0.0000 -8.2361 0.0000 36.4702
#
#
#
# Elastic Compliance Matrix: (Units=1/GPa)
#
#
# Indices 1 2 3 4 5 6 
#
# 1 0.015866 -0.003030 0.002205 0.000000 -0.000103 0.000000
# 2 -0.003030 0.015583 -0.003750 0.000000 0.001007 0.000000
# 3 0.002205 -0.003750 0.011016 0.000000 0.000126 0.000000
# 4 0.000000 0.000000 0.000000 0.047316 0.000000 0.010685
# 5 -0.000103 0.001007 0.000126 0.000000 0.027226 0.000000
# 6 0.000000 0.000000 0.000000 0.010685 0.000000 0.029833
#
#
# Mechanical properties :
#
#
# Convention : Reuss Voigt Hill
#
# Bulk Modulus (GPa) = 30.01645 31.66808 30.84226
# Shear Modulus (GPa) = 29.92342 33.61146 31.76744
#
# Velocity S-wave (km/s) = 3.64198 3.85989 3.75252
# Velocity P-wave (km/s) = 5.56691 5.82257 5.69618
#
# Compressibility (1/GPa) = 0.03331506
#
# Stress axis : x y z
#
# Youngs Moduli (GPa) = 63.02886 64.17414 90.77501
#
# Poissons Ratio (x) = 0.19444 -0.20015
# Poissons Ratio (y) = 0.19097 0.34039
# Poissons Ratio (z) = -0.13897 0.24064
#
# Static dielectric constant tensor:
#      x y z
#    x 1.785610 0.000000 -0.056030 
#    y 0.000000 2.099860 0.000000 
#    z -0.056030 0.000000 1.985780 
# 
# From -- ./inp_files/69194.got.cif
#   From: 2010.05.17/outbox.cif.g08.bks.cpg/sg13_35_cif.got.tgz:69194.got - 2010.06.03 16:44:36.
