data_PCOD9233400
_publ_section_title
;
Structure prediction by ZEFSAII (Michael W. Deem and Ramdas Pophale) SiO2 
 PCOD9233400
Probable space group: P 2/C
;
_chemical_formula_sum "Si O2"
_cell_formula_units_Z 30
_cell_length_a 11.526267
_cell_length_b 9.109609
_cell_length_c 27.688230
_cell_angle_alpha 90.000000
_cell_angle_beta 150.089749
_cell_angle_gamma 90.000000
_cell_volume 1449.683467
_symmetry_space_group_name_H-M "P 2/C"
_symmetry_group_IT_number 13
_symmetry_cell_setting 'monoclinic'
loop_
_space_group_symop_operation_xyz
x,y,z
-x,y,1/2-z
-x,-y,-z
x,-y,1/2+z
loop_
_atom_site_type_symbol
_atom_site_label
_atom_site_fract_x
_atom_site_fract_y
_atom_site_fract_z
Si Si1 0.496320 0.660152 0.089003
Si Si2 0.119275 0.394945 0.612662
Si Si3 0.697523 0.837494 0.745499
Si Si4 0.354156 0.574038 0.615734
Si Si5 0.339714 0.042200 0.581045
Si Si6 0.000000 0.406925 0.750000
Si Si7 0.926074 0.599317 0.628507
Si Si8 0.154085 0.070394 0.623193
O O1 0.478346 0.522966 0.119423
O O2 0.380979 0.799940 0.072864
O O3 0.766167 0.683905 0.175326
O O4 0.335600 0.625425 0.984731
O O5 0.297914 0.472664 0.641071
O O6 0.196811 0.234586 0.658096
O O7 0.889306 0.374630 0.495949
O O8 0.049840 0.502781 0.630938
O O9 0.506802 0.711765 0.685903
O O10 0.930360 0.750730 0.815295
O O11 0.572051 0.944728 0.662136
O O12 0.747068 0.940225 0.808873
O O13 0.263771 0.063006 0.609468
O O14 0.121464 0.959778 0.478818
O O15 0.057713 0.509565 0.816514
#
# Coordination Sequence:
#
# PCOD9233400 Si02
#       8
#     4   4   4   4   4   2   4   4
#     4  11  23  48  71 101 137 185 232 294 344 413
#     4  10  22  40  67 102 140 182 221 287 349 427
#     4  12  24  40  65 103 142 185 220 280 346 426
#     4  10  21  40  69 101 140 177 233 279 350 421
#     4  11  24  40  64 103 147 182 218 277 350 426
#     4  12  26  48  74  98 132 186 250 294 336 390
#     4  11  26  44  74 100 132 179 242 296 347 401
#     4  11  23  39  65 102 152 185 215 267 357 434
#
# _framework density 20.694172999999999
#
# number of rings (size 3 to 8) (size 9 to 14) (size 15 to 20)
#    0.000    1.067    5.333    0.800    5.600    0.000 
#    2.400    0.667    0.000    2.400    0.000    0.000 
#    0.000    0.000    0.000    0.000    0.000    0.000 
#
# Total GULP energy -167859.802932 kJ/mol
# GULP energy per Si atom -5595.326764 kJ/mol
# Density = 2.064707 g / cm^3
# Si number density = 20.694173 Si / 1000 Ang^3
#
#
#
# Elastic Constant Matrix: (Units=GPa)
#
#
# Indices 1 2 3 4 5 6 
#
# 1 37.3742 -6.5347 21.3019 0.0000 -4.9286 0.0000
# 2 -6.5347 85.0033 16.9186 0.0000 -10.8972 0.0000
# 3 21.3019 16.9186 108.0227 0.0000 -5.4330 0.0000
# 4 0.0000 0.0000 0.0000 47.1683 0.0000 4.3546
# 5 -4.9286 -10.8972 -5.4330 0.0000 24.9502 0.0000
# 6 0.0000 0.0000 0.0000 4.3546 0.0000 17.3922
#
#
#
# Elastic Compliance Matrix: (Units=1/GPa)
#
#
# Indices 1 2 3 4 5 6 
#
# 1 0.032365 0.004731 -0.006772 0.000000 0.006985 0.000000
# 2 0.004731 0.013469 -0.002730 0.000000 0.006223 0.000000
# 3 -0.006772 -0.002730 0.011014 0.000000 -0.000132 0.000000
# 4 0.000000 0.000000 0.000000 0.021702 0.000000 -0.005434
# 5 0.006985 0.006223 -0.000132 0.000000 0.044149 0.000000
# 6 0.000000 0.000000 0.000000 -0.005434 0.000000 0.058858
#
#
# Mechanical properties :
#
#
# Convention : Reuss Voigt Hill
#
# Bulk Modulus (GPa) = 21.13856 32.64132 26.88994
# Shear Modulus (GPa) = 24.17030 31.14976 27.66003
#
# Velocity S-wave (km/s) = 3.42127 3.88396 3.65993
# Velocity P-wave (km/s) = 5.08367 5.99341 5.55719
#
# Compressibility (1/GPa) = 0.04730692
#
# Stress axis : x y z
#
# Youngs Moduli (GPa) = 30.89795 74.24441 90.79661
#
# Poissons Ratio (x) = -0.35128 0.61487
# Poissons Ratio (y) = -0.14619 0.24784
# Poissons Ratio (z) = 0.20924 0.20266
#
# Static dielectric constant tensor:
#      x y z
#    x 1.698820 0.000000 0.005560 
#    y 0.000000 1.715680 0.000000 
#    z 0.005560 0.000000 1.811040 
# 
# From -- ./inp_files/96639.got.cif
#   From: 2010.05.17/outbox.cif.g08.bks.cpg/sg13_49_cif.got.tgz:96639.got - 2010.06.03 16:44:36.
