data_PCOD9233153
_publ_section_title
;
Structure prediction by ZEFSAII (Michael W. Deem and Ramdas Pophale) SiO2 
 PCOD9233153
Probable space group: P 2/C
;
_chemical_formula_sum "Si O2"
_cell_formula_units_Z 24
_cell_length_a 7.729321
_cell_length_b 12.825698
_cell_length_c 10.249334
_cell_angle_alpha 90.000000
_cell_angle_beta 100.952366
_cell_angle_gamma 90.000000
_cell_volume 997.549840
_symmetry_space_group_name_H-M "P 2/C"
_symmetry_group_IT_number 13
_symmetry_cell_setting 'monoclinic'
loop_
_space_group_symop_operation_xyz
x,y,z
-x,y,1/2-z
-x,-y,-z
x,-y,1/2+z
loop_
_atom_site_type_symbol
_atom_site_label
_atom_site_fract_x
_atom_site_fract_y
_atom_site_fract_z
Si Si1 0.845739 0.259930 0.884893
Si Si2 0.557154 0.717885 0.529107
Si Si3 0.302227 0.445948 0.262440
Si Si4 0.295749 0.074298 0.516061
Si Si5 0.186499 0.602939 0.470173
Si Si6 0.205089 0.074105 0.779913
O O1 0.671360 0.313718 0.917242
O O2 0.989067 0.333128 0.585105
O O3 0.798456 0.199445 0.744260
O O4 0.867721 0.157746 0.984539
O O5 0.663136 0.667316 0.665412
O O6 0.565212 0.842560 0.519837
O O7 0.363401 0.672783 0.501839
O O8 0.500000 0.480588 0.250000
O O9 0.224493 0.519063 0.363400
O O10 0.181965 0.442039 0.116909
O O11 0.311726 0.037774 0.667202
O O12 0.274466 0.980222 0.417233
O O13 0.000000 0.042913 0.750000
#
# Coordination Sequence:
#
# PCOD9233153 Si02
#       6
#     4   4   4   4   4   4
#     4   8  22  37  66  95 126 176 217 266 327 394
#     4   8  19  39  63  93 127 172 219 261 331 394
#     4  10  21  39  67  92 129 177 212 265 339 383
#     4   8  19  36  64  89 128 169 216 265 326 388
#     4  11  21  44  65  92 134 176 215 271 329 389
#     4   9  17  36  61  92 124 169 214 261 334 381
#
# _framework density 24.058949999999999
#
# number of rings (size 3 to 8) (size 9 to 14) (size 15 to 20)
#    2.000    0.667    0.000    2.500    0.000    2.667 
#   12.000    3.333    7.333    1.000    0.000    0.000 
#    0.000    0.000    0.000    0.000    0.000    0.000 
#
# Total GULP energy -133870.948899 kJ/mol
# GULP energy per Si atom -5577.956204 kJ/mol
# Density = 2.400419 g / cm^3
# Si number density = 24.058950 Si / 1000 Ang^3
#
#
#
# Elastic Constant Matrix: (Units=GPa)
#
#
# Indices 1 2 3 4 5 6 
#
# 1 87.3110 62.5946 37.2274 0.0000 -6.2326 0.0000
# 2 62.5946 76.2100 74.4531 0.0000 2.8189 0.0000
# 3 37.2274 74.4531 155.7781 0.0000 -0.5795 0.0000
# 4 0.0000 0.0000 0.0000 45.2682 0.0000 -2.9412
# 5 -6.2326 2.8189 -0.5795 0.0000 17.0668 0.0000
# 6 0.0000 0.0000 0.0000 -2.9412 0.0000 31.3832
#
#
#
# Elastic Compliance Matrix: (Units=1/GPa)
#
#
# Indices 1 2 3 4 5 6 
#
# 1 0.042311 -0.048482 0.013149 0.000000 0.023905 0.000000
# 2 -0.048482 0.080513 -0.027013 0.000000 -0.031920 0.000000
# 3 0.013149 -0.027013 0.016224 0.000000 0.009815 0.000000
# 4 0.000000 0.000000 0.000000 0.022226 0.000000 0.002083
# 5 0.023905 -0.031920 0.009815 0.000000 0.072929 0.000000
# 6 0.000000 0.000000 0.000000 0.002083 0.000000 0.032059
#
#
# Mechanical properties :
#
#
# Convention : Reuss Voigt Hill
#
# Bulk Modulus (GPa) = 69.65654 74.20545 71.93099
# Shear Modulus (GPa) = 12.63455 28.41192 20.52324
#
# Velocity S-wave (km/s) = 2.29410 3.44019 2.92385
# Velocity P-wave (km/s) = 6.00271 6.83301 6.43127
#
# Compressibility (1/GPa) = 0.01435615
#
# Stress axis : x y z
#
# Youngs Moduli (GPa) = 23.63467 12.42030 61.63549
#
# Poissons Ratio (x) = 0.60216 -0.81046
# Poissons Ratio (y) = 1.14586 1.66499
# Poissons Ratio (z) = -0.31078 0.33552
#
# Static dielectric constant tensor:
#      x y z
#    x 1.966600 0.000000 -0.031840 
#    y 0.000000 1.931370 0.000000 
#    z -0.031840 0.000000 1.962550 
# 
# From -- ./inp_files/12492.got.cif
#   From: 2010.05.17/outbox.cif.g08.bks.cpg/sg13_7_cif.got.tgz:12492.got - 2010.06.03 16:44:36.
