data_PCOD9233010
_publ_section_title
;
Structure prediction by ZEFSAII (Michael W. Deem and Ramdas Pophale) SiO2 
 PCOD9233010
Probable space group: P 2/C
;
_chemical_formula_sum "Si O2"
_cell_formula_units_Z 28
_cell_length_a 15.379097
_cell_length_b 19.838048
_cell_length_c 8.758572
_cell_angle_alpha 90.000000
_cell_angle_beta 148.678991
_cell_angle_gamma 90.000000
_cell_volume 1389.077289
_symmetry_space_group_name_H-M "P 2/C"
_symmetry_group_IT_number 13
_symmetry_cell_setting 'monoclinic'
loop_
_space_group_symop_operation_xyz
x,y,z
-x,y,1/2-z
-x,-y,-z
x,-y,1/2+z
loop_
_atom_site_type_symbol
_atom_site_label
_atom_site_fract_x
_atom_site_fract_y
_atom_site_fract_z
Si Si1 0.822413 0.847969 0.417763
Si Si2 0.177588 0.152031 0.950525
Si Si3 0.813880 0.431818 0.040503
Si Si4 0.500000 0.924775 0.066403
Si Si5 0.186120 0.431818 0.098864
Si Si6 0.305306 0.296682 0.781490
Si Si7 0.694693 0.296682 0.365569
O O1 0.818179 0.853453 0.227268
O O2 0.665887 0.887455 0.253595
O O3 0.798285 0.768810 0.421877
O O4 0.000000 0.871568 0.750000
O O5 0.000000 0.128433 0.750000
O O6 0.334113 0.112545 0.255933
O O7 0.201715 0.231191 0.027024
O O8 0.824175 0.439143 0.236262
O O9 0.000000 0.426466 0.250000
O O10 0.736212 0.500000 0.854318
O O11 0.723055 0.363152 0.858979
O O12 0.500000 0.925196 0.250000
O O13 0.500000 0.000000 0.000000
O O14 0.276946 0.363152 0.189814
O O15 0.000000 0.426466 0.750000
O O16 0.500000 0.277116 0.068608
O O17 0.262470 0.312877 0.893706
#
# Coordination Sequence:
#
# PCOD9233010 Si02
#       7
#     4   4   4   4   4   4   4
#     4  11  23  43  69 101 136 176 220 269 325 387
#     4  11  23  43  69 101 136 176 220 269 325 387
#     4  11  22  37  57  82 115 158 208 264 321 384
#     4  12  26  46  72 102 137 176 217 268 322 386
#     4  11  22  37  57  82 115 158 208 264 321 384
#     4  10  21  39  62  89 124 164 208 264 320 377
#     4  10  21  39  62  89 124 164 208 264 320 377
#
# _framework density 20.157264999999999
#
# number of rings (size 3 to 8) (size 9 to 14) (size 15 to 20)
#    0.000    1.143    1.429    6.429    0.000    6.286 
#    0.000    2.857    0.000    0.000    0.000    0.000 
#    0.000    0.000    0.000    0.000    0.000    0.000 
#
# Total GULP energy -156595.610421 kJ/mol
# GULP energy per Si atom -5592.700372 kJ/mol
# Density = 2.011139 g / cm^3
# Si number density = 20.157265 Si / 1000 Ang^3
#
#
#
# Elastic Constant Matrix: (Units=GPa)
#
#
# Indices 1 2 3 4 5 6 
#
# 1 126.3262 70.0452 56.8859 0.0000 -5.4207 0.0000
# 2 70.0452 126.8859 61.9104 0.0000 -6.0954 0.0000
# 3 56.8859 61.9104 121.5606 0.0000 1.8504 0.0000
# 4 0.0000 0.0000 0.0000 11.7866 0.0000 -13.9811
# 5 -5.4207 -6.0954 1.8504 0.0000 36.5513 0.0000
# 6 0.0000 0.0000 0.0000 -13.9811 0.0000 30.4441
#
#
#
# Elastic Compliance Matrix: (Units=1/GPa)
#
#
# Indices 1 2 3 4 5 6 
#
# 1 0.012237 -0.005189 -0.003100 0.000000 0.001106 0.000000
# 2 -0.005189 0.012839 -0.004135 0.000000 0.001581 0.000000
# 3 -0.003100 -0.004135 0.011810 0.000000 -0.001747 0.000000
# 4 0.000000 0.000000 0.000000 0.186361 0.000000 0.085584
# 5 0.001106 0.001581 -0.001747 0.000000 0.027875 0.000000
# 6 0.000000 0.000000 0.000000 0.085584 0.000000 0.072151
#
#
# Mechanical properties :
#
#
# Convention : Reuss Voigt Hill
#
# Bulk Modulus (GPa) = 83.07687 83.60621 83.34154
# Shear Modulus (GPa) = 14.19916 28.15179 21.17548
#
# Velocity S-wave (km/s) = 2.65697 3.74118 3.24468
# Velocity P-wave (km/s) = 7.12155 7.76073 7.44800
#
# Compressibility (1/GPa) = 0.01203704
#
# Stress axis : x y z
#
# Youngs Moduli (GPa) = 81.71934 77.88743 84.67746
#
# Poissons Ratio (x) = 0.40418 0.26253
# Poissons Ratio (y) = 0.42407 0.35010
# Poissons Ratio (z) = 0.25336 0.32203
#
# Static dielectric constant tensor:
#      x y z
#    x 1.693080 0.000000 0.012010 
#    y 0.000000 1.714290 0.000000 
#    z 0.012010 0.000000 1.709100 
# 
# From -- ./inp_files/20208.got.cif
#   From: 2010.05.17/outbox.cif.g08.bks.cpg/sg13_11_cif.got.tgz:20208.got - 2010.06.03 16:44:36.
