data_PCOD9233392
_publ_section_title
;
Structure prediction by ZEFSAII (Michael W. Deem and Ramdas Pophale) SiO2 
 PCOD9233392
Probable space group: P 2/C
;
_chemical_formula_sum "Si O2"
_cell_formula_units_Z 22
_cell_length_a 16.269968
_cell_length_b 5.180664
_cell_length_c 21.968062
_cell_angle_alpha 90.000000
_cell_angle_beta 152.744565
_cell_angle_gamma 90.000000
_cell_volume 847.988089
_symmetry_space_group_name_H-M "P 2/C"
_symmetry_group_IT_number 13
_symmetry_cell_setting 'monoclinic'
loop_
_space_group_symop_operation_xyz
x,y,z
-x,y,1/2-z
-x,-y,-z
x,-y,1/2+z
loop_
_atom_site_type_symbol
_atom_site_label
_atom_site_fract_x
_atom_site_fract_y
_atom_site_fract_z
Si Si1 0.672587 0.870215 0.082131
Si Si2 0.747510 0.374474 0.088138
Si Si3 0.868024 0.548284 0.040001
Si Si4 0.957017 0.045409 0.400604
Si Si5 0.500000 0.755875 0.750000
Si Si6 0.449442 0.977197 0.340240
O O1 0.807788 0.102781 0.158914
O O2 0.587789 0.815301 0.959072
O O3 0.732254 0.581316 0.133266
O O4 0.500000 0.000000 0.000000
O O5 0.864296 0.471407 0.108532
O O6 0.557795 0.278183 0.931704
O O7 0.666117 0.580265 0.880553
O O8 0.972196 0.324865 0.072103
O O9 0.952016 0.826641 0.080740
O O10 0.000000 0.000000 0.500000
O O11 0.743489 0.001823 0.255896
O O12 0.564074 0.947084 0.738455
#
# Coordination Sequence:
#
# PCOD9233392 Si02
#       6
#     4   4   4   4   2   4
#     4  10  21  40  68  95 119 155 219 276 311 371
#     4  10  22  40  65  92 119 167 214 261 314 381
#     4  12  25  39  61  88 133 168 211 263 313 388
#     4  12  26  38  57  92 134 172 205 260 328 377
#     4  12  22  42  64  94 130 178 224 264 310 396
#     4  10  25  39  65  94 127 166 215 258 326 381
#
# _framework density 25.943763000000001
#
# number of rings (size 3 to 8) (size 9 to 14) (size 15 to 20)
#    1.091    0.000    3.636    3.273    5.091    0.727 
#    0.000    0.000    0.000    6.545    0.000    0.000 
#    0.000    0.000    0.000    0.000    0.000    0.000 
#
# Total GULP energy -122946.209909 kJ/mol
# GULP energy per Si atom -5588.464087 kJ/mol
# Density = 2.588471 g / cm^3
# Si number density = 25.943763 Si / 1000 Ang^3
#
#
#
# Elastic Constant Matrix: (Units=GPa)
#
#
# Indices 1 2 3 4 5 6 
#
# 1 103.2290 31.6926 10.4622 0.0000 8.4372 0.0000
# 2 31.6926 178.3129 35.2712 0.0000 8.7958 0.0000
# 3 10.4622 35.2712 128.5105 0.0000 11.2045 0.0000
# 4 0.0000 0.0000 0.0000 40.1916 0.0000 9.4376
# 5 8.4372 8.7958 11.2045 0.0000 43.2087 0.0000
# 6 0.0000 0.0000 0.0000 9.4376 0.0000 54.0533
#
#
#
# Elastic Compliance Matrix: (Units=1/GPa)
#
#
# Indices 1 2 3 4 5 6 
#
# 1 0.010370 -0.001718 -0.000232 0.000000 -0.001615 0.000000
# 2 -0.001718 0.006242 -0.001526 0.000000 -0.000539 0.000000
# 3 -0.000232 -0.001526 0.008378 0.000000 -0.001816 0.000000
# 4 0.000000 0.000000 0.000000 0.025945 0.000000 -0.004530
# 5 -0.001615 -0.000539 -0.001816 0.000000 0.024040 0.000000
# 6 0.000000 0.000000 0.000000 -0.004530 0.000000 0.019291
#
#
# Mechanical properties :
#
#
# Convention : Reuss Voigt Hill
#
# Bulk Modulus (GPa) = 55.43906 62.76716 59.10311
# Shear Modulus (GPa) = 46.62903 49.66581 48.14742
#
# Velocity S-wave (km/s) = 4.24407 4.38009 4.31262
# Velocity P-wave (km/s) = 6.74029 7.05878 6.90137
#
# Compressibility (1/GPa) = 0.01803782
#
# Stress axis : x y z
#
# Youngs Moduli (GPa) = 96.43167 160.20733 119.36545
#
# Poissons Ratio (x) = 0.27517 0.02769
# Poissons Ratio (y) = 0.16563 0.18219
# Poissons Ratio (z) = 0.02237 0.24452
#
# Static dielectric constant tensor:
#      x y z
#    x 2.191980 0.000000 -0.048220 
#    y 0.000000 2.073560 0.000000 
#    z -0.048220 0.000000 2.143240 
# 
# From -- ./inp_files/92682.got.cif
#   From: 2010.05.17/outbox.cif.g08.bks.cpg/sg13_47_cif.got.tgz:92682.got - 2010.06.03 16:44:36.
