data_PCOD9233683
_publ_section_title
;
Structure prediction by ZEFSAII (Michael W. Deem and Ramdas Pophale) SiO2 
 PCOD9233683
Probable space group: P 2/C
;
_chemical_formula_sum "Si O2"
_cell_formula_units_Z 32
_cell_length_a 16.554410
_cell_length_b 10.396798
_cell_length_c 18.576810
_cell_angle_alpha 90.000000
_cell_angle_beta 148.459093
_cell_angle_gamma 90.000000
_cell_volume 1672.534700
_symmetry_space_group_name_H-M "P 2/C"
_symmetry_group_IT_number 13
_symmetry_cell_setting 'monoclinic'
loop_
_space_group_symop_operation_xyz
x,y,z
-x,y,1/2-z
-x,-y,-z
x,-y,1/2+z
loop_
_atom_site_type_symbol
_atom_site_label
_atom_site_fract_x
_atom_site_fract_y
_atom_site_fract_z
Si Si1 0.949454 0.566877 0.295858
Si Si2 0.596709 0.993568 0.688963
Si Si3 0.412931 0.622039 0.464193
Si Si4 0.614725 0.156659 0.056142
Si Si5 0.949680 0.272453 0.295897
Si Si6 0.546706 0.742431 0.860295
Si Si7 0.895380 0.181707 0.599409
Si Si8 0.901794 0.947471 0.493318
O O1 0.977144 0.420394 0.340555
O O2 0.000000 0.565213 0.250000
O O3 0.045128 0.689520 0.396403
O O4 0.770144 0.600485 0.172194
O O5 0.645185 0.939182 0.646753
O O6 0.558286 0.867172 0.705705
O O7 0.442643 0.074454 0.555348
O O8 0.730493 0.070513 0.830528
O O9 0.500000 0.500000 0.500000
O O10 0.471720 0.750294 0.468312
O O11 0.470733 0.644076 0.588854
O O12 0.767507 0.239028 0.159782
O O13 0.000000 0.256424 0.250000
O O14 0.032302 0.175865 0.414432
O O15 0.500000 0.682205 0.750000
O O16 0.722309 0.790090 0.993110
O O17 0.900845 0.060896 0.551473
O O18 0.000000 0.159665 0.750000
O O19 0.000000 0.000000 0.500000
#
# Coordination Sequence:
#
# PCOD9233683 Si02
#       8
#     4   4   4   4   4   4   4   4
#     4  10  21  42  66  93 127 167 221 265 309 388
#     4  10  23  39  61  91 133 158 212 270 323 374
#     4  11  21  39  69  94 125 170 219 262 323 390
#     4  10  22  39  64  94 121 171 212 260 324 394
#     4  11  24  41  66  92 131 172 214 261 332 390
#     4  11  22  40  66  94 126 165 220 276 319 374
#     4  11  23  41  70  96 123 174 223 265 316 390
#     4  12  25  40  62  97 135 165 211 275 327 377
#
# _framework density 19.132638
#
# number of rings (size 3 to 8) (size 9 to 14) (size 15 to 20)
#    0.000    1.250    6.250    0.375    5.250    0.000 
#    0.000    1.875    0.000    0.000    0.000    0.000 
#    0.000    0.000    0.000    0.000    0.000    0.000 
#
# Total GULP energy -178576.636825 kJ/mol
# GULP energy per Si atom -5580.519901 kJ/mol
# Density = 1.908909 g / cm^3
# Si number density = 19.132638 Si / 1000 Ang^3
#
#
#
# Elastic Constant Matrix: (Units=GPa)
#
#
# Indices 1 2 3 4 5 6 
#
# 1 65.9412 21.2090 25.5492 0.0000 0.9658 0.0000
# 2 21.2090 108.5994 29.9688 0.0000 -12.2298 0.0000
# 3 25.5492 29.9688 84.9354 0.0000 1.9495 0.0000
# 4 0.0000 0.0000 0.0000 4.3076 0.0000 17.9330
# 5 0.9658 -12.2298 1.9495 0.0000 30.8460 0.0000
# 6 0.0000 0.0000 0.0000 17.9330 0.0000 17.0088
#
#
#
# Elastic Compliance Matrix: (Units=1/GPa)
#
#
# Indices 1 2 3 4 5 6 
#
# 1 0.017667 -0.002357 -0.004455 0.000000 -0.001206 0.000000
# 2 -0.002357 0.011113 -0.003320 0.000000 0.004690 0.000000
# 3 -0.004455 -0.003320 0.014333 0.000000 -0.002083 0.000000
# 4 0.000000 0.000000 0.000000 -0.068494 0.000000 0.072216
# 5 -0.001206 0.004690 -0.002083 0.000000 0.034448 0.000000
# 6 0.000000 0.000000 0.000000 0.072216 0.000000 -0.017347
#
#
# Mechanical properties :
#
#
# Convention : Reuss Voigt Hill
#
# Bulk Modulus (GPa) = 43.76489 45.88112 44.82300
# Shear Modulus (GPa) = 255.12126 22.61574 138.86850
#
# Velocity S-wave (km/s) = 11.55997 3.44183 8.52875
# Velocity P-wave (km/s) = 14.18102 6.31090 10.97563
#
# Compressibility (1/GPa) = 0.02284937
#
# Stress axis : x y z
#
# Youngs Moduli (GPa) = 56.60328 89.98784 69.76938
#
# Poissons Ratio (x) = 0.21207 0.31083
# Poissons Ratio (y) = 0.13339 0.23162
# Poissons Ratio (z) = 0.25217 0.29874
#
# Static dielectric constant tensor:
#      x y z
#    x 1.675460 0.000000 0.004170 
#    y 0.000000 1.675690 0.000000 
#    z 0.004170 0.000000 1.652360 
# 
# From -- ./inp_files/68685.got.cif
#   From: 2010.05.17/outbox.cif.g08.bks.cpg/sg13_35_cif.got.tgz:68685.got - 2010.06.03 16:44:36.
