data_PCOD9233557
_publ_section_title
;
Structure prediction by ZEFSAII (Michael W. Deem and Ramdas Pophale) SiO2 
 PCOD9233557
Probable space group: P 2/C
;
_chemical_formula_sum "Si O2"
_cell_formula_units_Z 28
_cell_length_a 18.948591
_cell_length_b 13.663642
_cell_length_c 9.359342
_cell_angle_alpha 90.000000
_cell_angle_beta 37.921545
_cell_angle_gamma 90.000000
_cell_volume 1489.252929
_symmetry_space_group_name_H-M "P 2/C"
_symmetry_group_IT_number 13
_symmetry_cell_setting 'monoclinic'
loop_
_space_group_symop_operation_xyz
x,y,z
-x,y,1/2-z
-x,-y,-z
x,-y,1/2+z
loop_
_atom_site_type_symbol
_atom_site_label
_atom_site_fract_x
_atom_site_fract_y
_atom_site_fract_z
Si Si1 0.623804 0.115789 0.122645
Si Si2 0.807960 0.711649 0.318289
Si Si3 0.753400 0.574283 0.644341
Si Si4 0.773369 0.350900 0.560092
Si Si5 0.383737 0.070178 0.032781
Si Si6 0.635226 0.274437 0.538810
Si Si7 0.959500 0.609318 0.520599
O O1 0.500000 0.149445 0.250000
O O2 0.599534 0.075512 0.322760
O O3 0.725089 0.195794 0.978367
O O4 0.668522 0.030444 0.944032
O O5 0.746702 0.622384 0.499553
O O6 0.810530 0.698228 0.145713
O O7 0.940647 0.690975 0.152115
O O8 0.732092 0.460008 0.664736
O O9 0.879966 0.591759 0.509452
O O10 0.675461 0.635634 0.876713
O O11 0.676102 0.291173 0.633918
O O12 0.876257 0.359010 0.282682
O O13 0.500000 0.072257 0.750000
O O14 0.319538 0.170808 0.093281
O O15 0.500000 0.272144 0.750000
O O16 0.000000 0.500000 0.500000
#
# Coordination Sequence:
#
# PCOD9233557 Si02
#       7
#     4   4   4   4   4   4   4
#     4  11  24  40  66  97 123 155 204 262 316 374
#     4  12  23  34  62  97 119 157 211 262 307 362
#     4  11  21  40  59  90 125 166 212 254 306 357
#     4  11  23  36  62  90 124 167 213 252 305 360
#     4  10  21  41  67  89 122 162 204 254 310 370
#     4  10  23  40  60  88 129 169 204 248 314 372
#     4  11  21  39  62  87 121 162 213 262 294 360
#
# _framework density 18.801373000000002
#
# number of rings (size 3 to 8) (size 9 to 14) (size 15 to 20)
#    0.000    1.143    4.286    3.429    6.000    0.571 
#    0.000    1.429    0.000    3.429    0.000    0.000 
#    0.000    0.000    0.000    0.000    0.000    0.000 
#
# Total GULP energy -155988.174638 kJ/mol
# GULP energy per Si atom -5571.006237 kJ/mol
# Density = 1.875858 g / cm^3
# Si number density = 18.801373 Si / 1000 Ang^3
#
#
#
# Elastic Constant Matrix: (Units=GPa)
#
#
# Indices 1 2 3 4 5 6 
#
# 1 120.9413 34.0239 21.1388 0.0000 12.7652 0.0000
# 2 34.0239 87.5453 19.4724 0.0000 -14.3900 0.0000
# 3 21.1388 19.4724 31.4562 0.0000 3.9536 0.0000
# 4 0.0000 0.0000 0.0000 30.1391 0.0000 23.5617
# 5 12.7652 -14.3900 3.9536 0.0000 37.6075 0.0000
# 6 0.0000 0.0000 0.0000 23.5617 0.0000 153.2800
#
#
#
# Elastic Compliance Matrix: (Units=1/GPa)
#
#
# Indices 1 2 3 4 5 6 
#
# 1 0.010595 -0.003986 -0.004063 0.000000 -0.004694 0.000000
# 2 -0.003986 0.016237 -0.008435 0.000000 0.008453 0.000000
# 3 -0.004063 -0.008435 0.040510 0.000000 -0.006107 0.000000
# 4 0.000000 0.000000 0.000000 0.037711 0.000000 -0.005797
# 5 -0.004694 0.008453 -0.006107 0.000000 0.032060 0.000000
# 6 0.000000 0.000000 0.000000 -0.005797 0.000000 0.007415
#
#
# Mechanical properties :
#
#
# Convention : Reuss Voigt Hill
#
# Bulk Modulus (GPa) = 29.09122 43.24590 36.16856
# Shear Modulus (GPa) = 26.46130 55.22582 40.84356
#
# Velocity S-wave (km/s) = 3.75562 5.42559 4.66593
# Velocity P-wave (km/s) = 5.85771 7.89309 6.95031
#
# Compressibility (1/GPa) = 0.03437463
#
# Stress axis : x y z
#
# Youngs Moduli (GPa) = 94.38060 61.58646 24.68539
#
# Poissons Ratio (x) = 0.24547 0.10029
# Poissons Ratio (y) = 0.37618 0.20823
# Poissons Ratio (z) = 0.38345 0.51950
#
# Static dielectric constant tensor:
#      x y z
#    x 1.701330 0.000000 -0.082290 
#    y 0.000000 1.708670 0.000000 
#    z -0.082290 0.000000 1.807800 
# 
# From -- ./inp_files/21938.got.cif
#   From: 2010.05.17/outbox.cif.g08.bks.cpg/sg13_11_cif.got.tgz:21938.got - 2010.06.03 16:44:36.
