data_PCOD9233328
_publ_section_title
;
Structure prediction by ZEFSAII (Michael W. Deem and Ramdas Pophale) SiO2 
 PCOD9233328
Probable space group: P 2/C
;
_chemical_formula_sum "Si O2"
_cell_formula_units_Z 30
_cell_length_a 22.505225
_cell_length_b 12.126691
_cell_length_c 12.500778
_cell_angle_alpha 90.000000
_cell_angle_beta 153.663315
_cell_angle_gamma 90.000000
_cell_volume 1513.555671
_symmetry_space_group_name_H-M "P 2/C"
_symmetry_group_IT_number 13
_symmetry_cell_setting 'monoclinic'
loop_
_space_group_symop_operation_xyz
x,y,z
-x,y,1/2-z
-x,-y,-z
x,-y,1/2+z
loop_
_atom_site_type_symbol
_atom_site_label
_atom_site_fract_x
_atom_site_fract_y
_atom_site_fract_z
Si Si1 0.000000 0.252372 0.750000
Si Si2 0.553825 0.085968 0.999226
Si Si3 0.728852 0.820964 0.503322
Si Si4 0.833007 0.625332 0.263171
Si Si5 0.233834 0.024178 0.815404
Si Si6 0.866574 0.628061 0.841186
Si Si7 0.853848 0.795528 0.475789
Si Si8 0.248940 0.802242 0.527229
O O1 0.907700 0.328458 0.524894
O O2 0.898599 0.182569 0.659144
O O3 0.644992 0.175025 0.208715
O O4 0.645322 0.017954 0.064460
O O5 0.425029 0.143120 0.740094
O O6 0.500000 0.000000 0.000000
O O7 0.762273 0.708901 0.617127
O O8 0.767109 0.815136 0.440974
O O9 0.815563 0.914967 0.704059
O O10 0.813797 0.496449 0.251745
O O11 0.798951 0.699348 0.310930
O O12 0.992545 0.636456 0.496317
O O13 0.758326 0.682951 0.042264
O O14 0.139126 0.094067 0.584698
O O15 0.274286 0.108486 0.974871
O O16 0.000000 0.762545 0.750000
#
# Coordination Sequence:
#
# PCOD9233328 Si02
#       8
#     2   4   4   4   4   4   4   4
#     4  10  22  40  64  96 128 164 206 268 316 388
#     4  12  23  42  63  89 124 172 215 253 311 383
#     4  12  24  39  63  94 126 173 214 256 312 387
#     4   9  21  40  66  91 131 163 210 266 318 379
#     4  11  23  41  59  91 128 171 206 263 313 378
#     4  10  21  40  65  96 124 171 209 259 325 375
#     4  11  22  39  61  97 130 162 209 263 321 376
#     4  10  22  42  63  94 128 166 214 260 320 373
#
# _framework density 19.820875999999998
#
# number of rings (size 3 to 8) (size 9 to 14) (size 15 to 20)
#    0.000    1.333    4.000    1.200    0.933    1.600 
#   10.800    0.667    0.000    3.200    0.000    0.000 
#    0.000    0.000    0.000    0.000    0.000    0.000 
#
# Total GULP energy -167544.882193 kJ/mol
# GULP energy per Si atom -5584.829406 kJ/mol
# Density = 1.977576 g / cm^3
# Si number density = 19.820876 Si / 1000 Ang^3
#
#
#
# Elastic Constant Matrix: (Units=GPa)
#
#
# Indices 1 2 3 4 5 6 
#
# 1 108.8324 43.2343 13.1226 0.0000 -20.3008 0.0000
# 2 43.2343 132.9567 47.4647 0.0000 -13.5862 0.0000
# 3 13.1226 47.4647 74.9570 0.0000 -20.4999 0.0000
# 4 0.0000 0.0000 0.0000 24.8334 0.0000 -2.1139
# 5 -20.3008 -13.5862 -20.4999 0.0000 21.0186 0.0000
# 6 0.0000 0.0000 0.0000 -2.1139 0.0000 16.5122
#
#
#
# Elastic Compliance Matrix: (Units=1/GPa)
#
#
# Indices 1 2 3 4 5 6 
#
# 1 0.012987 -0.004326 0.004271 0.000000 0.013913 0.000000
# 2 -0.004326 0.011161 -0.007473 0.000000 -0.004253 0.000000
# 3 0.004271 -0.007473 0.023365 0.000000 0.022082 0.000000
# 4 0.000000 0.000000 0.000000 0.040712 0.000000 0.005212
# 5 0.013913 -0.004253 0.022082 0.000000 0.079803 0.000000
# 6 0.000000 0.000000 0.000000 0.005212 0.000000 0.061229
#
#
# Mechanical properties :
#
#
# Convention : Reuss Voigt Hill
#
# Bulk Modulus (GPa) = 30.81091 58.26548 44.53819
# Shear Modulus (GPa) = 19.59760 26.66782 23.13271
#
# Velocity S-wave (km/s) = 3.14783 3.67200 3.41997
# Velocity P-wave (km/s) = 5.36565 6.88752 6.17366
#
# Compressibility (1/GPa) = 0.03245604
#
# Stress axis : x y z
#
# Youngs Moduli (GPa) = 76.99875 89.59476 42.79914
#
# Poissons Ratio (x) = 0.38759 -0.18278
# Poissons Ratio (y) = 0.33310 0.31985
# Poissons Ratio (z) = -0.32884 0.66958
#
# Static dielectric constant tensor:
#      x y z
#    x 1.721220 0.000000 -0.023460 
#    y 0.000000 1.686600 0.000000 
#    z -0.023460 0.000000 1.696280 
# 
# From -- ./inp_files/40909.got.cif
#   From: 2010.05.17/outbox.cif.g08.bks.cpg/sg13_21_cif.got.tgz:40909.got - 2010.06.03 16:44:36.
