data_PCOD9233019
_publ_section_title
;
Structure prediction by ZEFSAII (Michael W. Deem and Ramdas Pophale) SiO2 
 PCOD9233019
Probable space group: P 2/C
;
_chemical_formula_sum "Si O2"
_cell_formula_units_Z 22
_cell_length_a 8.273493
_cell_length_b 8.124168
_cell_length_c 19.626931
_cell_angle_alpha 90.000000
_cell_angle_beta 135.164665
_cell_angle_gamma 90.000000
_cell_volume 930.151015
_symmetry_space_group_name_H-M "P 2/C"
_symmetry_group_IT_number 13
_symmetry_cell_setting 'monoclinic'
loop_
_space_group_symop_operation_xyz
x,y,z
-x,y,1/2-z
-x,-y,-z
x,-y,1/2+z
loop_
_atom_site_type_symbol
_atom_site_label
_atom_site_fract_x
_atom_site_fract_y
_atom_site_fract_z
Si Si1 0.495945 0.163893 0.116341
Si Si2 0.338784 0.851878 0.291727
Si Si3 0.828494 0.180613 0.604272
Si Si4 0.641829 0.537815 0.384225
Si Si5 0.956237 0.536533 0.600728
Si Si6 0.000000 0.738393 0.750000
O O1 0.441142 0.349712 0.125831
O O2 0.758635 0.171891 0.169675
O O3 0.498510 0.010463 0.169075
O O4 0.322987 0.120143 0.003737
O O5 0.280586 0.842722 0.354749
O O6 0.455484 0.676484 0.311546
O O7 0.092882 0.877379 0.182357
O O8 0.841531 0.376262 0.598279
O O9 0.828772 0.515794 0.381010
O O10 0.773064 0.604026 0.491293
O O11 0.023888 0.643272 0.685667
#
# Coordination Sequence:
#
# PCOD9233019 Si02
#       6
#     4   4   4   4   4   2
#     4  11  24  41  63  97 129 165 215 267 320 383
#     4  11  22  40  66  94 127 172 214 263 322 383
#     4  10  21  39  62  92 130 167 215 264 315 382
#     4  10  23  44  67  94 133 170 211 266 323 379
#     4  10  22  42  68  97 129 171 215 264 321 380
#     4  12  22  38  68  96 128 170 214 264 320 380
#
# _framework density 23.652073999999999
#
# number of rings (size 3 to 8) (size 9 to 14) (size 15 to 20)
#    0.000    1.455    0.000    6.000    0.000    7.273 
#    0.000   13.636    0.000    0.000    0.000    0.000 
#    0.000    0.000    0.000    0.000    0.000    0.000 
#
# Total GULP energy -123000.161441 kJ/mol
# GULP energy per Si atom -5590.916429 kJ/mol
# Density = 2.359824 g / cm^3
# Si number density = 23.652074 Si / 1000 Ang^3
#
#
#
# Elastic Constant Matrix: (Units=GPa)
#
#
# Indices 1 2 3 4 5 6 
#
# 1 80.8318 39.0624 51.7554 0.0000 -12.1580 0.0000
# 2 39.0624 97.7709 67.5730 0.0000 1.2577 0.0000
# 3 51.7554 67.5730 211.8197 0.0000 1.9872 0.0000
# 4 0.0000 0.0000 0.0000 25.8406 0.0000 9.6819
# 5 -12.1580 1.2577 1.9872 0.0000 33.1345 0.0000
# 6 0.0000 0.0000 0.0000 9.6819 0.0000 -0.3042
#
#
#
# Elastic Compliance Matrix: (Units=1/GPa)
#
#
# Indices 1 2 3 4 5 6 
#
# 1 0.017686 -0.005289 -0.002698 0.000000 0.006852 0.000000
# 2 -0.005289 0.014705 -0.003377 0.000000 -0.002296 0.000000
# 3 -0.002698 -0.003377 0.006469 0.000000 -0.001250 0.000000
# 4 0.000000 0.000000 0.000000 0.002994 0.000000 0.095293
# 5 0.006852 -0.002296 -0.001250 0.000000 0.032856 0.000000
# 6 0.000000 0.000000 0.000000 0.095293 0.000000 -0.254333
#
#
# Mechanical properties :
#
#
# Convention : Reuss Voigt Hill
#
# Bulk Modulus (GPa) = 61.99380 78.57823 70.28602
# Shear Modulus (GPa) = -32.99978 27.20295 -2.89841
#
# Velocity S-wave (km/s) = -3.73931 3.39504 -1.10820
# Velocity P-wave (km/s) = 2.76122 6.97589 5.30506
#
# Compressibility (1/GPa) = 0.01613064
#
# Stress axis : x y z
#
# Youngs Moduli (GPa) = 56.54298 68.00512 154.57565
#
# Poissons Ratio (x) = 0.35970 0.41708
# Poissons Ratio (y) = 0.29907 0.52202
# Poissons Ratio (z) = 0.15256 0.22966
#
# Static dielectric constant tensor:
#      x y z
#    x 1.894880 0.000000 -0.016940 
#    y 0.000000 1.971690 0.000000 
#    z -0.016940 0.000000 1.985750 
# 
# From -- ./inp_files/75858.got.cif
#   From: 2010.05.17/outbox.cif.g08.bks.cpg/sg13_38_cif.got.tgz:75858.got - 2010.06.03 16:44:36.
