data_PCOD9233382
_publ_section_title
;
Structure prediction by ZEFSAII (Michael W. Deem and Ramdas Pophale) SiO2 
 PCOD9233382
Probable space group: P 2/C
;
_chemical_formula_sum "Si O2"
_cell_formula_units_Z 26
_cell_length_a 10.100617
_cell_length_b 8.079976
_cell_length_c 18.830920
_cell_angle_alpha 90.000000
_cell_angle_beta 138.784802
_cell_angle_gamma 90.000000
_cell_volume 1012.608998
_symmetry_space_group_name_H-M "P 2/C"
_symmetry_group_IT_number 13
_symmetry_cell_setting 'monoclinic'
loop_
_space_group_symop_operation_xyz
x,y,z
-x,y,1/2-z
-x,-y,-z
x,-y,1/2+z
loop_
_atom_site_type_symbol
_atom_site_label
_atom_site_fract_x
_atom_site_fract_y
_atom_site_fract_z
Si Si1 0.209247 0.985062 0.041477
Si Si2 0.500000 0.247544 0.750000
Si Si3 0.671437 0.652128 0.877495
Si Si4 0.795052 0.933548 0.123099
Si Si5 0.810938 0.495017 0.311151
Si Si6 0.749450 0.431852 0.561066
Si Si7 0.759618 0.263479 0.163931
O O1 0.358638 0.853730 0.138198
O O2 0.314926 0.160403 0.095625
O O3 0.170132 0.981365 0.940695
O O4 0.000000 0.000000 0.000000
O O5 0.339508 0.354660 0.731351
O O6 0.500000 0.628803 0.750000
O O7 0.859050 0.596182 0.904779
O O8 0.666383 0.551932 0.948002
O O9 0.678240 0.078192 0.119231
O O10 0.000000 0.905702 0.250000
O O11 0.706501 0.749650 0.076108
O O12 0.733975 0.346678 0.229609
O O13 0.008752 0.564757 0.353073
O O14 0.692836 0.591354 0.583732
O O15 0.000000 0.246948 0.250000
#
# Coordination Sequence:
#
# PCOD9233382 Si02
#       7
#     4   2   4   4   4   4   4
#     4  11  26  43  72 104 140 192 243 305 359 434
#     4  12  24  44  70 110 152 186 250 294 364 434
#     4  11  23  43  63  97 143 180 234 295 365 429
#     4  10  21  40  67  99 134 183 239 291 356 425
#     4  11  23  42  70 105 143 190 233 303 356 437
#     4  10  22  42  70 100 138 189 239 297 361 436
#     4   9  21  39  67 100 138 183 239 290 361 429
#
# _framework density 25.676245999999999
#
# number of rings (size 3 to 8) (size 9 to 14) (size 15 to 20)
#    0.000    1.538    1.538    3.692    8.615    0.000 
#    0.000    3.077    0.000    5.538    0.000    0.000 
#    0.000    0.000    0.000    0.000    0.000    0.000 
#
# Total GULP energy -145441.032437 kJ/mol
# GULP energy per Si atom -5593.885863 kJ/mol
# Density = 2.561781 g / cm^3
# Si number density = 25.676246 Si / 1000 Ang^3
#
#
#
# Elastic Constant Matrix: (Units=GPa)
#
#
# Indices 1 2 3 4 5 6 
#
# 1 93.9258 47.3768 48.9644 0.0000 -15.2481 0.0000
# 2 47.3768 161.7401 64.9966 0.0000 -20.0378 0.0000
# 3 48.9644 64.9966 137.9727 0.0000 -32.1629 0.0000
# 4 0.0000 0.0000 0.0000 39.8461 0.0000 -11.3264
# 5 -15.2481 -20.0378 -32.1629 0.0000 56.4381 0.0000
# 6 0.0000 0.0000 0.0000 -11.3264 0.0000 39.8434
#
#
#
# Elastic Compliance Matrix: (Units=1/GPa)
#
#
# Indices 1 2 3 4 5 6 
#
# 1 0.013915 -0.002549 -0.003543 0.000000 0.000836 0.000000
# 2 -0.002549 0.008122 -0.002779 0.000000 0.000611 0.000000
# 3 -0.003543 -0.002779 0.010795 0.000000 0.004208 0.000000
# 4 0.000000 0.000000 0.000000 0.027303 0.000000 0.007761
# 5 0.000836 0.000611 0.004208 0.000000 0.020559 0.000000
# 6 0.000000 0.000000 0.000000 0.007761 0.000000 0.027305
#
#
# Mechanical properties :
#
#
# Convention : Reuss Voigt Hill
#
# Bulk Modulus (GPa) = 66.26536 79.59048 72.92792
# Shear Modulus (GPa) = 38.23506 42.71223 40.47365
#
# Velocity S-wave (km/s) = 3.86310 4.08302 3.97458
# Velocity P-wave (km/s) = 6.76477 7.30021 7.03758
#
# Compressibility (1/GPa) = 0.01509084
#
# Stress axis : x y z
#
# Youngs Moduli (GPa) = 71.86599 123.12465 92.63373
#
# Poissons Ratio (x) = 0.31381 0.32817
# Poissons Ratio (y) = 0.18317 0.25744
# Poissons Ratio (z) = 0.25460 0.34217
#
# Static dielectric constant tensor:
#      x y z
#    x 2.151420 0.000000 0.126890 
#    y 0.000000 2.003750 0.000000 
#    z 0.126890 0.000000 2.166010 
# 
# From -- ./inp_files/78330.got.cif
#   From: 2010.05.17/outbox.cif.g08.bks.cpg/sg13_40_cif.got.tgz:78330.got - 2010.06.03 16:44:36.
