data_PCOD9233488
_publ_section_title
;
Structure prediction by ZEFSAII (Michael W. Deem and Ramdas Pophale) SiO2 
 PCOD9233488
Probable space group: P 2/C
;
_chemical_formula_sum "Si O2"
_cell_formula_units_Z 18
_cell_length_a 7.796084
_cell_length_b 23.315757
_cell_length_c 5.457630
_cell_angle_alpha 90.000000
_cell_angle_beta 58.247830
_cell_angle_gamma 90.000000
_cell_volume 843.565468
_symmetry_space_group_name_H-M "P 2/C"
_symmetry_group_IT_number 13
_symmetry_cell_setting 'monoclinic'
loop_
_space_group_symop_operation_xyz
x,y,z
-x,y,1/2-z
-x,-y,-z
x,-y,1/2+z
loop_
_atom_site_type_symbol
_atom_site_label
_atom_site_fract_x
_atom_site_fract_y
_atom_site_fract_z
Si Si1 0.000000 0.536076 0.250000
Si Si2 0.269088 0.639898 0.147344
Si Si3 0.732005 0.314782 0.350405
Si Si4 0.740465 0.031380 0.058000
Si Si5 0.000000 0.861237 0.250000
Si Si6 0.000000 0.789548 0.750000
O O1 0.199859 0.576715 0.115338
O O2 0.000000 0.500000 0.500000
O O3 0.188259 0.648170 0.481591
O O4 0.188212 0.677351 0.983293
O O5 0.500739 0.662300 0.999220
O O6 0.801125 0.251040 0.372069
O O7 0.500000 0.031535 0.250000
O O8 0.803686 0.007277 0.276350
O O9 0.818185 0.094865 0.942671
O O10 0.026065 0.824991 0.479298
#
# Coordination Sequence:
#
# PCOD9233488 Si02
#       6
#     2   4   4   4   2   2
#     4  12  24  40  64 100 128 154 200 278 328 362
#     4  10  21  41  66  87 123 167 215 249 308 398
#     4  10  21  41  64  88 115 176 217 247 307 399
#     4  10  21  41  67  91 127 179 222 256 322 408
#     4  12  24  40  62 102 132 168 210 292 330 366
#     4  12  24  40  62  94 134 160 218 278 332 358
#
# _framework density 21.337999
#
# number of rings (size 3 to 8) (size 9 to 14) (size 15 to 20)
#    0.000    1.333    0.000    6.000    0.000    0.000 
#   12.000   13.333    0.000    0.000    0.000    0.000 
#    0.000    0.000    0.000    0.000    0.000    0.000 
#
# Total GULP energy -100233.527224 kJ/mol
# GULP energy per Si atom -5568.529290 kJ/mol
# Density = 2.128943 g / cm^3
# Si number density = 21.337999 Si / 1000 Ang^3
#
#
#
# Elastic Constant Matrix: (Units=GPa)
#
#
# Indices 1 2 3 4 5 6 
#
# 1 161.2767 69.6504 89.3740 0.0000 23.7996 0.0000
# 2 69.6504 143.8063 73.1826 0.0000 25.2978 0.0000
# 3 89.3740 73.1826 183.5539 0.0000 34.6701 0.0000
# 4 0.0000 0.0000 0.0000 59.8771 0.0000 20.2531
# 5 23.7996 25.2978 34.6701 0.0000 64.1369 0.0000
# 6 0.0000 0.0000 0.0000 20.2531 0.0000 6.2747
#
#
#
# Elastic Compliance Matrix: (Units=1/GPa)
#
#
# Indices 1 2 3 4 5 6 
#
# 1 0.009307 -0.002704 -0.003344 0.000000 -0.000579 0.000000
# 2 -0.002704 0.009687 -0.002242 0.000000 -0.001605 0.000000
# 3 -0.003344 -0.002242 0.008430 0.000000 -0.002431 0.000000
# 4 0.000000 0.000000 0.000000 -0.181985 0.000000 0.587401
# 5 -0.000579 -0.001605 -0.002431 0.000000 0.017754 0.000000
# 6 0.000000 0.000000 0.000000 0.587401 0.000000 -1.736614
#
#
# Mechanical properties :
#
#
# Convention : Reuss Voigt Hill
#
# Bulk Modulus (GPa) = 92.22946 105.89455 99.06200
# Shear Modulus (GPa) = -2.69800 43.15307 20.22753
#
# Velocity S-wave (km/s) = -1.12568 4.50194 3.08223
# Velocity P-wave (km/s) = 6.45193 8.76118 7.69369
#
# Compressibility (1/GPa) = 0.01084252
#
# Stress axis : x y z
#
# Youngs Moduli (GPa) = 107.44615 103.23151 118.63014
#
# Poissons Ratio (x) = 0.27913 0.39672
# Poissons Ratio (y) = 0.29053 0.26601
# Poissons Ratio (z) = 0.35932 0.23148
#
# Static dielectric constant tensor:
#      x y z
#    x 1.919940 0.000000 -0.117260 
#    y 0.000000 1.768480 0.000000 
#    z -0.117260 0.000000 1.873660 
# 
# From -- ./inp_files/1506.got.cif
#   From: 2010.05.17/outbox.cif.g08.bks.cpg/sg13_1_cif.got.tgz:1506.got - 2010.06.03 16:44:36.
