data_PCOD9233681
_publ_section_title
;
Structure prediction by ZEFSAII (Michael W. Deem and Ramdas Pophale) SiO2 
 PCOD9233681
Probable space group: P 2/C
;
_chemical_formula_sum "Si O2"
_cell_formula_units_Z 28
_cell_length_a 11.429995
_cell_length_b 11.754373
_cell_length_c 23.557526
_cell_angle_alpha 90.000000
_cell_angle_beta 28.456315
_cell_angle_gamma 90.000000
_cell_volume 1508.091440
_symmetry_space_group_name_H-M "P 2/C"
_symmetry_group_IT_number 13
_symmetry_cell_setting 'monoclinic'
loop_
_space_group_symop_operation_xyz
x,y,z
-x,y,1/2-z
-x,-y,-z
x,-y,1/2+z
loop_
_atom_site_type_symbol
_atom_site_label
_atom_site_fract_x
_atom_site_fract_y
_atom_site_fract_z
Si Si1 0.316084 0.330646 0.953536
Si Si2 0.676117 0.549415 0.473470
Si Si3 0.949189 0.167915 0.356959
Si Si4 0.883456 0.094607 0.863111
Si Si5 0.230043 0.432236 0.874032
Si Si6 0.131288 0.314183 0.795340
Si Si7 0.603027 0.224903 0.402922
O O1 0.293659 0.342252 0.895877
O O2 0.600801 0.308601 0.846486
O O3 0.265877 0.450634 0.006276
O O4 0.133664 0.233807 0.052284
O O5 0.500000 0.500000 0.500000
O O6 0.520433 0.656896 0.562561
O O7 0.934347 0.607383 0.345959
O O8 0.788078 0.232581 0.377239
O O9 0.231611 0.179888 0.218803
O O10 0.890970 0.034912 0.380111
O O11 0.000000 0.099015 0.750000
O O12 0.031198 0.185919 0.837886
O O13 0.606543 0.140112 0.985668
O O14 0.500000 0.492992 0.750000
O O15 0.154413 0.373076 0.847266
O O16 0.000000 0.500000 0.000000
#
# Coordination Sequence:
#
# PCOD9233681 Si02
#       7
#     4   4   4   4   4   4   4
#     4  11  23  38  64  88 122 167 202 252 316 370
#     4  11  22  35  56  89 126 153 193 252 309 372
#     4  11  22  36  57  85 120 162 204 250 300 371
#     4  11  22  38  61  84 122 163 202 250 309 372
#     4  10  21  42  66  90 121 165 213 258 309 374
#     4  10  24  39  60  90 120 162 209 254 306 370
#     4  10  22  35  53  86 123 156 200 241 304 371
#
# _framework density 18.566511999999999
#
# number of rings (size 3 to 8) (size 9 to 14) (size 15 to 20)
#    0.000    1.429    4.286    1.286    6.000    0.000 
#    0.000    0.714    0.000    0.000    0.000    0.000 
#    0.000    0.000    0.000    0.000    0.000    0.000 
#
# Total GULP energy -156070.184246 kJ/mol
# GULP energy per Si atom -5573.935152 kJ/mol
# Density = 1.852425 g / cm^3
# Si number density = 18.566512 Si / 1000 Ang^3
#
#
#
# Elastic Constant Matrix: (Units=GPa)
#
#
# Indices 1 2 3 4 5 6 
#
# 1 56.0890 23.4616 18.4745 0.0000 -1.4934 0.0000
# 2 23.4616 99.1930 44.2652 0.0000 -0.5827 0.0000
# 3 18.4745 44.2652 136.8610 0.0000 -8.4539 0.0000
# 4 0.0000 0.0000 0.0000 12.4180 0.0000 -1.8588
# 5 -1.4934 -0.5827 -8.4539 0.0000 24.3652 0.0000
# 6 0.0000 0.0000 0.0000 -1.8588 0.0000 10.3715
#
#
#
# Elastic Compliance Matrix: (Units=1/GPa)
#
#
# Indices 1 2 3 4 5 6 
#
# 1 0.020014 -0.004140 -0.001321 0.000000 0.000669 0.000000
# 2 -0.004140 0.012665 -0.003612 0.000000 -0.001204 0.000000
# 3 -0.001321 -0.003612 0.008832 0.000000 0.002897 0.000000
# 4 0.000000 0.000000 0.000000 0.082748 0.000000 0.014830
# 5 0.000669 -0.001204 0.002897 0.000000 0.042059 0.000000
# 6 0.000000 0.000000 0.000000 0.014830 0.000000 0.099076
#
#
# Mechanical properties :
#
#
# Convention : Reuss Voigt Hill
#
# Bulk Modulus (GPa) = 42.79975 51.61618 47.20797
# Shear Modulus (GPa) = 17.16267 23.16039 20.16153
#
# Velocity S-wave (km/s) = 3.04367 3.53573 3.29889
# Velocity P-wave (km/s) = 5.95434 6.67304 6.32391
#
# Compressibility (1/GPa) = 0.02336462
#
# Stress axis : x y z
#
# Youngs Moduli (GPa) = 49.96602 78.95556 113.22241
#
# Poissons Ratio (x) = 0.32689 0.14959
# Poissons Ratio (y) = 0.20687 0.40895
# Poissons Ratio (z) = 0.06601 0.28518
#
# Static dielectric constant tensor:
#      x y z
#    x 1.665370 0.000000 -0.025440 
#    y 0.000000 1.631210 0.000000 
#    z -0.025440 0.000000 1.712480 
# 
# From -- ./inp_files/33277.got.cif
#   From: 2010.05.17/outbox.cif.g08.bks.cpg/sg13_17_cif.got.tgz:33277.got - 2010.06.03 16:44:36.
