data_PCOD9233577
_publ_section_title
;
Structure prediction by ZEFSAII (Michael W. Deem and Ramdas Pophale) SiO2 
 PCOD9233577
Probable space group: P 2/C
;
_chemical_formula_sum "Si O2"
_cell_formula_units_Z 24
_cell_length_a 22.403115
_cell_length_b 6.801316
_cell_length_c 20.026879
_cell_angle_alpha 90.000000
_cell_angle_beta 159.904123
_cell_angle_gamma 90.000000
_cell_volume 1048.474388
_symmetry_space_group_name_H-M "P 2/C"
_symmetry_group_IT_number 13
_symmetry_cell_setting 'monoclinic'
loop_
_space_group_symop_operation_xyz
x,y,z
-x,y,1/2-z
-x,-y,-z
x,-y,1/2+z
loop_
_atom_site_type_symbol
_atom_site_label
_atom_site_fract_x
_atom_site_fract_y
_atom_site_fract_z
Si Si1 0.414203 0.189802 0.876215
Si Si2 0.162004 0.637279 0.507915
Si Si3 0.047766 0.002760 0.472136
Si Si4 0.915288 0.741468 0.726067
Si Si5 0.441659 0.454346 0.030938
Si Si6 0.694069 0.597732 0.975284
O O1 0.543129 0.309931 0.962837
O O2 0.230773 0.119140 0.654890
O O3 0.383437 0.348664 0.902361
O O4 0.500000 0.000000 0.000000
O O5 0.079125 0.793469 0.470643
O O6 0.357904 0.598297 0.740339
O O7 0.189655 0.699826 0.459104
O O8 0.040668 0.444233 0.376934
O O9 0.000000 0.000000 0.500000
O O10 0.907152 0.116866 0.279946
O O11 0.740772 0.633913 0.519112
O O12 0.000000 0.839431 0.750000
O O13 0.313298 0.375386 0.953229
O O14 0.500000 0.638873 0.750000
#
# Coordination Sequence:
#
# PCOD9233577 Si02
#       6
#     4   4   4   4   4   4
#     4  11  23  40  63  96 134 171 213 269 322 396
#     4  10  21  44  64  93 131 168 219 276 321 392
#     4  12  27  41  65 101 137 175 222 266 339 398
#     4  10  23  44  66  91 132 172 216 276 330 390
#     4  10  21  41  68  91 130 171 216 267 327 387
#     4   9  21  41  72  92 119 174 223 270 333 388
#
# _framework density 22.890402000000002
#
# number of rings (size 3 to 8) (size 9 to 14) (size 15 to 20)
#    0.000    1.667    3.333    0.000    4.667    2.667 
#    0.000    0.000    0.000    0.000    0.000    0.000 
#    0.000    0.000    0.000    0.000    0.000    0.000 
#
# Total GULP energy -133900.108760 kJ/mol
# GULP energy per Si atom -5579.171198 kJ/mol
# Density = 2.283830 g / cm^3
# Si number density = 22.890402 Si / 1000 Ang^3
#
#
#
# Elastic Constant Matrix: (Units=GPa)
#
#
# Indices 1 2 3 4 5 6 
#
# 1 167.6041 48.0190 1.1614 0.0000 -10.7534 0.0000
# 2 48.0190 94.7300 12.5494 0.0000 0.1080 0.0000
# 3 1.1614 12.5494 49.4631 0.0000 9.5479 0.0000
# 4 0.0000 0.0000 0.0000 35.1307 0.0000 -10.4883
# 5 -10.7534 0.1080 9.5479 0.0000 24.3950 0.0000
# 6 0.0000 0.0000 0.0000 -10.4883 0.0000 31.1149
#
#
#
# Elastic Compliance Matrix: (Units=1/GPa)
#
#
# Indices 1 2 3 4 5 6 
#
# 1 0.007223 -0.003686 0.000160 0.000000 0.003137 0.000000
# 2 -0.003686 0.012833 -0.003077 0.000000 -0.000477 0.000000
# 3 0.000160 -0.003077 0.022692 0.000000 -0.008797 0.000000
# 4 0.000000 0.000000 0.000000 0.031650 0.000000 0.010669
# 5 0.003137 -0.000477 -0.008797 0.000000 0.045820 0.000000
# 6 0.000000 0.000000 0.000000 0.010669 0.000000 0.035735
#
#
# Mechanical properties :
#
#
# Convention : Reuss Voigt Hill
#
# Bulk Modulus (GPa) = 33.85081 48.36186 41.10634
# Shear Modulus (GPa) = 27.93182 34.79929 31.36555
#
# Velocity S-wave (km/s) = 3.49699 3.90328 3.70570
# Velocity P-wave (km/s) = 5.57903 6.44108 6.02549
#
# Compressibility (1/GPa) = 0.02954139
#
# Stress axis : x y z
#
# Youngs Moduli (GPa) = 138.45300 77.92448 44.06797
#
# Poissons Ratio (x) = 0.28723 -0.00705
# Poissons Ratio (y) = 0.51033 0.13561
# Poissons Ratio (z) = -0.02215 0.23979
#
# Static dielectric constant tensor:
#      x y z
#    x 1.896670 0.000000 0.003060 
#    y 0.000000 1.857710 0.000000 
#    z 0.003060 0.000000 1.920120 
# 
# From -- ./inp_files/89436.got.cif
#   From: 2010.05.17/outbox.cif.g08.bks.cpg/sg13_45_cif.got.tgz:89436.got - 2010.06.03 16:44:36.
