data_PCOD9233094
_publ_section_title
;
Structure prediction by ZEFSAII (Michael W. Deem and Ramdas Pophale) SiO2 
 PCOD9233094
Probable space group: P 2/C
;
_chemical_formula_sum "Si O2"
_cell_formula_units_Z 32
_cell_length_a 13.592271
_cell_length_b 9.542018
_cell_length_c 20.558761
_cell_angle_alpha 90.000000
_cell_angle_beta 139.736712
_cell_angle_gamma 90.000000
_cell_volume 1723.312358
_symmetry_space_group_name_H-M "P 2/C"
_symmetry_group_IT_number 13
_symmetry_cell_setting 'monoclinic'
loop_
_space_group_symop_operation_xyz
x,y,z
-x,y,1/2-z
-x,-y,-z
x,-y,1/2+z
loop_
_atom_site_type_symbol
_atom_site_label
_atom_site_fract_x
_atom_site_fract_y
_atom_site_fract_z
Si Si1 0.922668 0.386611 0.914699
Si Si2 0.436056 0.082587 0.647440
Si Si3 0.922219 0.113106 0.005632
Si Si4 0.070827 0.480554 0.217931
Si Si5 0.433294 0.577185 0.905107
Si Si6 0.073041 0.149183 0.218717
Si Si7 0.438840 0.394994 0.788832
Si Si8 0.564790 0.093372 0.092619
O O1 0.942167 0.249285 0.969442
O O2 0.978400 0.424272 0.868736
O O3 0.742117 0.395523 0.811505
O O4 0.000000 0.500000 0.000000
O O5 0.500000 0.039475 0.750000
O O6 0.744806 0.094307 0.934065
O O7 0.502124 0.238322 0.665866
O O8 0.494195 0.978074 0.621229
O O9 0.007064 0.098708 0.117350
O O10 0.000000 0.000000 0.000000
O O11 0.253483 0.461159 0.314639
O O12 0.029630 0.315576 0.191053
O O13 0.000000 0.533140 0.250000
O O14 0.492132 0.504686 0.869359
O O15 0.473074 0.741050 0.929673
O O16 0.500000 0.500000 0.000000
O O17 0.250567 0.104646 0.311742
O O18 0.000000 0.100394 0.250000
O O19 0.500000 0.436464 0.750000
O O20 0.500000 0.000000 0.000000
#
# Coordination Sequence:
#
# PCOD9233094 Si02
#       8
#     4   4   4   4   4   4   4   4
#     4  11  21  40  65  95 128 168 217 273 336 393
#     4  11  22  42  66  92 125 178 219 260 333 401
#     4  12  24  42  64  96 132 170 220 276 337 402
#     4   9  20  38  62  91 122 164 212 260 323 386
#     4  10  22  39  60  92 125 159 215 271 318 383
#     4  10  21  39  65  93 126 168 219 270 327 396
#     4  10  21  40  65  92 124 172 217 265 326 396
#     4  11  23  41  65  91 129 175 217 270 333 401
#
# _framework density 18.568891000000001
#
# number of rings (size 3 to 8) (size 9 to 14) (size 15 to 20)
#    0.000    1.500    3.750    2.250    0.000    3.500 
#    4.500    0.625    0.000    0.000    0.000    0.000 
#    0.000    0.000    0.000    0.000    0.000    0.000 
#
# Total GULP energy -178156.039801 kJ/mol
# GULP energy per Si atom -5567.376244 kJ/mol
# Density = 1.852663 g / cm^3
# Si number density = 18.568891 Si / 1000 Ang^3
#
#
#
# Elastic Constant Matrix: (Units=GPa)
#
#
# Indices 1 2 3 4 5 6 
#
# 1 140.3404 94.4171 57.1849 0.0000 -34.1385 0.0000
# 2 94.4171 135.3969 88.7823 0.0000 -21.2955 0.0000
# 3 57.1849 88.7823 123.9501 0.0000 -33.8180 0.0000
# 4 0.0000 0.0000 0.0000 56.4201 0.0000 -33.1897
# 5 -34.1385 -21.2955 -33.8180 0.0000 40.0507 0.0000
# 6 0.0000 0.0000 0.0000 -33.1897 0.0000 56.5234
#
#
#
# Elastic Compliance Matrix: (Units=1/GPa)
#
#
# Indices 1 2 3 4 5 6 
#
# 1 0.016616 -0.012827 0.004581 0.000000 0.011210 0.000000
# 2 -0.012827 0.023883 -0.013913 0.000000 -0.009982 0.000000
# 3 0.004581 -0.013913 0.019447 0.000000 0.012927 0.000000
# 4 0.000000 0.000000 0.000000 0.027077 0.000000 0.015899
# 5 0.011210 -0.009982 0.012927 0.000000 0.040132 0.000000
# 6 0.000000 0.000000 0.000000 0.015899 0.000000 0.027028
#
#
# Mechanical properties :
#
#
# Convention : Reuss Voigt Hill
#
# Bulk Modulus (GPa) = 63.98962 97.82845 80.90903
# Shear Modulus (GPa) = 24.54468 41.21905 32.88187
#
# Velocity S-wave (km/s) = 3.63963 4.71658 4.21266
# Velocity P-wave (km/s) = 7.22482 9.08074 8.20542
#
# Compressibility (1/GPa) = 0.01562753
#
# Stress axis : x y z
#
# Youngs Moduli (GPa) = 60.18353 41.87021 51.42243
#
# Poissons Ratio (x) = 0.53708 -0.23555
# Poissons Ratio (y) = 0.77199 0.71542
# Poissons Ratio (z) = -0.27568 0.58252
#
# Static dielectric constant tensor:
#      x y z
#    x 1.638480 0.000000 0.003640 
#    y 0.000000 0.463440 0.000000 
#    z 0.003640 0.000000 1.593000 
# 
# From -- ./inp_files/79824.got.cif
#   From: 2010.05.17/outbox.cif.g08.bks.cpg/sg13_40_cif.got.tgz:79824.got - 2010.06.03 16:44:36.
