data_PCOD9233095
_publ_section_title
;
Structure prediction by ZEFSAII (Michael W. Deem and Ramdas Pophale) SiO2 
 PCOD9233095
Probable space group: P 2/C
;
_chemical_formula_sum "Si O2"
_cell_formula_units_Z 20
_cell_length_a 12.894443
_cell_length_b 10.635434
_cell_length_c 18.817757
_cell_angle_alpha 90.000000
_cell_angle_beta 159.404995
_cell_angle_gamma 90.000000
_cell_volume 907.762346
_symmetry_space_group_name_H-M "P 2/C"
_symmetry_group_IT_number 13
_symmetry_cell_setting 'monoclinic'
loop_
_space_group_symop_operation_xyz
x,y,z
-x,y,1/2-z
-x,-y,-z
x,-y,1/2+z
loop_
_atom_site_type_symbol
_atom_site_label
_atom_site_fract_x
_atom_site_fract_y
_atom_site_fract_z
Si Si1 0.217719 0.237827 0.023651
Si Si2 0.319310 0.569881 0.467340
Si Si3 0.162953 0.042960 0.530358
Si Si4 0.232049 0.907956 0.846414
Si Si5 0.574398 0.325874 0.620229
O O1 0.500000 0.275882 0.250000
O O2 0.211235 0.087948 0.019232
O O3 0.264914 0.309751 0.980824
O O4 0.899332 0.279350 0.848344
O O5 0.501802 0.453577 0.615810
O O6 0.428533 0.623784 0.462905
O O7 0.000000 0.509049 0.250000
O O8 0.500000 0.096841 0.750000
O O9 0.937476 0.122049 0.336481
O O10 0.000000 0.000000 0.500000
O O11 0.000000 0.972891 0.750000
O O12 0.355999 0.791898 0.973041
O O13 0.500000 0.000000 0.000000
#
# Coordination Sequence:
#
# PCOD9233095 Si02
#       5
#     4   4   4   4   4
#     4  10  22  38  65  94 135 174 227 276 355 400
#     4   9  20  39  64  91 126 170 221 292 330 403
#     4  11  25  43  65 101 145 182 221 282 353 416
#     4  12  25  40  69 100 132 178 230 279 339 411
#     4  10  21  39  65  93 127 171 233 276 336 398
#
# _framework density 22.032198999999999
#
# number of rings (size 3 to 8) (size 9 to 14) (size 15 to 20)
#    0.000    1.600    2.000    1.800    8.400    0.800 
#    0.000    0.000    4.400    0.000    0.000    0.000 
#    0.000    0.000    0.000    0.000    0.000    0.000 
#
# Total GULP energy -111493.038258 kJ/mol
# GULP energy per Si atom -5574.651913 kJ/mol
# Density = 2.198205 g / cm^3
# Si number density = 22.032199 Si / 1000 Ang^3
#
#
#
# Elastic Constant Matrix: (Units=GPa)
#
#
# Indices 1 2 3 4 5 6 
#
# 1 74.6707 -0.1189 19.7613 0.0000 11.2841 0.0000
# 2 -0.1189 67.9887 15.7878 0.0000 4.6426 0.0000
# 3 19.7613 15.7878 140.2583 0.0000 7.1075 0.0000
# 4 0.0000 0.0000 0.0000 16.2362 0.0000 -11.6904
# 5 11.2841 4.6426 7.1075 0.0000 27.1977 0.0000
# 6 0.0000 0.0000 0.0000 -11.6904 0.0000 -0.7591
#
#
#
# Elastic Compliance Matrix: (Units=1/GPa)
#
#
# Indices 1 2 3 4 5 6 
#
# 1 0.014766 0.000858 -0.001884 0.000000 -0.005780 0.000000
# 2 0.000858 0.015279 -0.001713 0.000000 -0.002516 0.000000
# 3 -0.001884 -0.001713 0.007635 0.000000 -0.000921 0.000000
# 4 0.000000 0.000000 0.000000 0.005095 0.000000 -0.078464
# 5 -0.005780 -0.002516 -0.000921 0.000000 0.039836 0.000000
# 6 0.000000 0.000000 0.000000 -0.078464 0.000000 -0.108975
#
#
# Mechanical properties :
#
#
# Convention : Reuss Voigt Hill
#
# Bulk Modulus (GPa) = 31.05471 39.30868 35.18170
# Shear Modulus (GPa) = -492.54230 25.03413 -233.75409
#
# Velocity S-wave (km/s) = -14.96800 3.37449 -10.31149
# Velocity P-wave (km/s) = 16.86996 5.75005 11.21455
#
# Compressibility (1/GPa) = 0.03220123
#
# Stress axis : x y z
#
# Youngs Moduli (GPa) = 67.72499 65.44718 130.98142
#
# Poissons Ratio (x) = -0.05616 0.24677
# Poissons Ratio (y) = -0.05811 0.22441
# Poissons Ratio (z) = 0.12760 0.11213
#
# Static dielectric constant tensor:
#      x y z
#    x 1.839570 0.000000 -0.046210 
#    y 0.000000 1.833440 0.000000 
#    z -0.046210 0.000000 1.783900 
# 
# From -- ./inp_files/79902.got.cif
#   From: 2010.05.17/outbox.cif.g08.bks.cpg/sg13_40_cif.got.tgz:79902.got - 2010.06.03 16:44:36.
