data_PCOD9233373
_publ_section_title
;
Structure prediction by ZEFSAII (Michael W. Deem and Ramdas Pophale) SiO2 
 PCOD9233373
Probable space group: P 2/C
;
_chemical_formula_sum "Si O2"
_cell_formula_units_Z 28
_cell_length_a 15.006636
_cell_length_b 5.212525
_cell_length_c 16.893687
_cell_angle_alpha 90.000000
_cell_angle_beta 121.190669
_cell_angle_gamma 90.000000
_cell_volume 1130.446125
_symmetry_space_group_name_H-M "P 2/C"
_symmetry_group_IT_number 13
_symmetry_cell_setting 'monoclinic'
loop_
_space_group_symop_operation_xyz
x,y,z
-x,y,1/2-z
-x,-y,-z
x,-y,1/2+z
loop_
_atom_site_type_symbol
_atom_site_label
_atom_site_fract_x
_atom_site_fract_y
_atom_site_fract_z
Si Si1 0.513268 0.366703 0.091646
Si Si2 0.882913 0.726726 0.799871
Si Si3 0.211069 0.004860 0.896666
Si Si4 0.078224 0.875902 0.973216
Si Si5 0.258988 0.064595 0.656791
Si Si6 0.601552 0.854593 0.421326
Si Si7 0.716694 0.618172 0.186652
O O1 0.473645 0.077845 0.080289
O O2 0.637447 0.385658 0.160089
O O3 0.452986 0.579894 0.117134
O O4 0.500000 0.500000 0.000000
O O5 0.854445 0.889491 0.707281
O O6 0.835825 0.453824 0.758226
O O7 0.812082 0.840685 0.838708
O O8 0.001551 0.712456 0.882292
O O9 0.135776 0.060545 0.936168
O O10 0.277522 0.241746 0.894079
O O11 0.300348 0.819898 0.973561
O O12 0.172757 0.763879 0.068948
O O13 0.000000 0.000000 0.000000
O O14 0.311747 0.194059 0.755830
O O15 0.347816 0.019986 0.633669
#
# Coordination Sequence:
#
# PCOD9233373 Si02
#       7
#     4   4   4   4   4   4   4
#     4  12  25  43  71 102 138 186 234 288 349 413
#     4  10  21  40  67  96 134 173 230 289 346 419
#     4  10  21  41  67  97 134 176 230 288 350 415
#     4   9  19  42  67  90 131 178 225 285 353 426
#     4   9  23  43  63  97 136 181 221 291 344 418
#     4  11  25  44  71 101 140 183 236 284 349 417
#     4  11  24  40  66  99 138 178 234 291 350 417
#
# _framework density 24.768981
#
# number of rings (size 3 to 8) (size 9 to 14) (size 15 to 20)
#    0.000    1.714    1.429    1.714    6.000    1.143 
#    0.000    8.571    0.000    0.000    0.000    0.000 
#    0.000    0.000    0.000    0.000    0.000    0.000 
#
# Total GULP energy -156249.580780 kJ/mol
# GULP energy per Si atom -5580.342171 kJ/mol
# Density = 2.471261 g / cm^3
# Si number density = 24.768981 Si / 1000 Ang^3
#
#
#
# Elastic Constant Matrix: (Units=GPa)
#
#
# Indices 1 2 3 4 5 6 
#
# 1 122.4909 12.3009 44.1401 0.0000 -20.0912 0.0000
# 2 12.3009 52.4063 21.3960 0.0000 -5.4875 0.0000
# 3 44.1401 21.3960 77.1704 0.0000 2.4889 0.0000
# 4 0.0000 0.0000 0.0000 24.5727 0.0000 15.6771
# 5 -20.0912 -5.4875 2.4889 0.0000 49.5091 0.0000
# 6 0.0000 0.0000 0.0000 15.6771 0.0000 17.2361
#
#
#
# Elastic Compliance Matrix: (Units=1/GPa)
#
#
# Indices 1 2 3 4 5 6 
#
# 1 0.011399 0.000655 -0.006864 0.000000 0.005043 0.000000
# 2 0.000655 0.021919 -0.006549 0.000000 0.003024 0.000000
# 3 -0.006864 -0.006549 0.018844 0.000000 -0.004459 0.000000
# 4 0.000000 0.000000 0.000000 0.096959 0.000000 -0.088189
# 5 0.005043 0.003024 -0.004459 0.000000 0.022804 0.000000
# 6 0.000000 0.000000 0.000000 -0.088189 0.000000 0.138230
#
#
# Mechanical properties :
#
#
# Convention : Reuss Voigt Hill
#
# Bulk Modulus (GPa) = 37.53098 45.30460 41.41779
# Shear Modulus (GPa) = 14.51153 29.87895 22.19524
#
# Velocity S-wave (km/s) = 2.42311 3.47696 2.99672
# Velocity P-wave (km/s) = 4.79728 5.86937 5.36020
#
# Compressibility (1/GPa) = 0.02664465
#
# Stress axis : x y z
#
# Youngs Moduli (GPa) = 87.72798 45.62353 53.06678
#
# Poissons Ratio (x) = -0.02988 0.36426
# Poissons Ratio (y) = -0.05746 0.34755
# Poissons Ratio (z) = 0.60218 0.29880
#
# Static dielectric constant tensor:
#      x y z
#    x 1.971270 0.000000 -0.015000 
#    y 0.000000 2.003090 0.000000 
#    z -0.015000 0.000000 2.067050 
# 
# From -- ./inp_files/67609.got.cif
#   From: 2010.05.17/outbox.cif.g08.bks.cpg/sg13_34_cif.got.tgz:67609.got - 2010.06.03 16:44:36.
