data_PCOD9233036
_publ_section_title
;
Structure prediction by ZEFSAII (Michael W. Deem and Ramdas Pophale) SiO2 
 PCOD9233036
Probable space group: P 2/C
;
_chemical_formula_sum "Si O2"
_cell_formula_units_Z 32
_cell_length_a 21.827090
_cell_length_b 11.860302
_cell_length_c 15.918490
_cell_angle_alpha 90.000000
_cell_angle_beta 156.241525
_cell_angle_gamma 90.000000
_cell_volume 1660.242019
_symmetry_space_group_name_H-M "P 2/C"
_symmetry_group_IT_number 13
_symmetry_cell_setting 'monoclinic'
loop_
_space_group_symop_operation_xyz
x,y,z
-x,y,1/2-z
-x,-y,-z
x,-y,1/2+z
loop_
_atom_site_type_symbol
_atom_site_label
_atom_site_fract_x
_atom_site_fract_y
_atom_site_fract_z
Si Si1 0.453700 0.826892 0.874049
Si Si2 0.502347 0.918487 0.122489
Si Si3 0.755436 0.123735 0.065048
Si Si4 0.940683 0.926167 0.349332
Si Si5 0.880029 0.750236 0.023835
Si Si6 0.948037 0.552981 0.347392
Si Si7 0.986213 0.684565 0.830810
Si Si8 0.236547 0.722896 0.288950
O O1 0.291748 0.765791 0.662021
O O2 0.464533 0.947389 0.840306
O O3 0.477561 0.864508 0.000672
O O4 0.590229 0.746040 0.016840
O O5 0.646072 0.861969 0.348379
O O6 0.354695 0.898735 0.994431
O O7 0.861506 0.230947 0.212434
O O8 0.858609 0.012548 0.183880
O O9 0.826593 0.835283 0.245441
O O10 0.076821 0.858377 0.477825
O O11 0.000000 0.000000 0.500000
O O12 0.000000 0.749586 0.250000
O O13 0.924016 0.638718 0.026521
O O14 0.931715 0.445347 0.267255
O O15 0.801246 0.625897 0.190142
O O16 0.000000 0.500000 0.500000
O O17 0.000000 0.715842 0.750000
O O18 0.135724 0.699916 0.077733
#
# Coordination Sequence:
#
# PCOD9233036 Si02
#       8
#     4   4   4   4   4   4   4   4
#     4  11  22  39  61  90 130 162 202 256 312 373
#     4  10  23  35  57  95 134 163 194 254 316 375
#     4  11  21  37  60  91 130 165 204 248 312 380
#     4  11  20  36  59  89 127 165 208 241 311 384
#     4  11  24  40  65  91 120 162 214 267 313 372
#     4   9  22  43  66  87 119 163 214 261 320 371
#     4  11  22  38  67  89 123 161 212 267 304 369
#     4  10  21  39  63  91 119 169 208 248 315 377
#
# _framework density 19.274298000000002
#
# number of rings (size 3 to 8) (size 9 to 14) (size 15 to 20)
#    0.000    1.500    2.500    2.625    5.250    1.500 
#    0.000    2.500   11.000    0.000    0.000    0.000 
#    0.000    0.000    0.000    0.000    0.000    0.000 
#
# Total GULP energy -178689.408087 kJ/mol
# GULP energy per Si atom -5584.044003 kJ/mol
# Density = 1.923043 g / cm^3
# Si number density = 19.274298 Si / 1000 Ang^3
#
#
#
# Elastic Constant Matrix: (Units=GPa)
#
#
# Indices 1 2 3 4 5 6 
#
# 1 59.7741 25.9615 38.5060 0.0000 23.8132 0.0000
# 2 25.9615 109.3135 43.5133 0.0000 27.6948 0.0000
# 3 38.5060 43.5133 119.7655 0.0000 35.0489 0.0000
# 4 0.0000 0.0000 0.0000 11.8350 0.0000 3.4597
# 5 23.8132 27.6948 35.0489 0.0000 32.1973 0.0000
# 6 0.0000 0.0000 0.0000 3.4597 0.0000 30.0871
#
#
#
# Elastic Compliance Matrix: (Units=1/GPa)
#
#
# Indices 1 2 3 4 5 6 
#
# 1 0.024949 -0.001024 -0.003679 0.000000 -0.013567 0.000000
# 2 -0.001024 0.012046 -0.001815 0.000000 -0.007629 0.000000
# 3 -0.003679 -0.001815 0.013118 0.000000 -0.009997 0.000000
# 4 0.000000 0.000000 0.000000 0.087434 0.000000 -0.010054
# 5 -0.013567 -0.007629 -0.009997 0.000000 0.058537 0.000000
# 6 0.000000 0.000000 0.000000 -0.010054 0.000000 0.034393
#
#
# Mechanical properties :
#
#
# Convention : Reuss Voigt Hill
#
# Bulk Modulus (GPa) = 26.97046 56.09051 41.53049
# Shear Modulus (GPa) = 19.54098 26.88204 23.21151
#
# Velocity S-wave (km/s) = 3.18753 3.73863 3.47403
# Velocity P-wave (km/s) = 5.25076 6.91382 6.13887
#
# Compressibility (1/GPa) = 0.03707760
#
# Stress axis : x y z
#
# Youngs Moduli (GPa) = 40.08128 83.01230 76.23362
#
# Poissons Ratio (x) = 0.08497 0.28048
# Poissons Ratio (y) = 0.04103 0.13837
# Poissons Ratio (z) = 0.14747 0.15067
#
# Static dielectric constant tensor:
#      x y z
#    x 1.699050 0.000000 -0.014140 
#    y 0.000000 1.689900 0.000000 
#    z -0.014140 0.000000 1.672630 
# 
# From -- ./inp_files/68695.got.cif
#   From: 2010.05.17/outbox.cif.g08.bks.cpg/sg13_35_cif.got.tgz:68695.got - 2010.06.03 16:44:36.
