data_PCOD9233020
_publ_section_title
;
Structure prediction by ZEFSAII (Michael W. Deem and Ramdas Pophale) SiO2 
 PCOD9233020
Probable space group: P 2/C
;
_chemical_formula_sum "Si O2"
_cell_formula_units_Z 24
_cell_length_a 24.423692
_cell_length_b 5.199037
_cell_length_c 11.852511
_cell_angle_alpha 90.000000
_cell_angle_beta 135.455846
_cell_angle_gamma 90.000000
_cell_volume 1055.715024
_symmetry_space_group_name_H-M "P 2/C"
_symmetry_group_IT_number 13
_symmetry_cell_setting 'monoclinic'
loop_
_space_group_symop_operation_xyz
x,y,z
-x,y,1/2-z
-x,-y,-z
x,-y,1/2+z
loop_
_atom_site_type_symbol
_atom_site_label
_atom_site_fract_x
_atom_site_fract_y
_atom_site_fract_z
Si Si1 0.561082 0.598818 0.260678
Si Si2 0.441949 0.810410 0.475836
Si Si3 0.053436 0.749553 0.063189
Si Si4 0.313160 0.261168 0.940483
Si Si5 0.822182 0.379560 0.935669
Si Si6 0.808679 0.881050 0.059904
O O1 0.500000 0.761522 0.250000
O O2 0.596188 0.689319 0.192751
O O3 0.633192 0.494539 0.437886
O O4 0.499639 0.381029 0.127191
O O5 0.374699 0.908195 0.459637
O O6 0.500000 0.000000 0.500000
O O7 0.098057 0.698306 0.011046
O O8 0.121648 0.794931 0.254756
O O9 0.000000 0.500000 0.000000
O O10 0.000000 0.000000 0.000000
O O11 0.246573 0.341355 0.755745
O O12 0.271338 0.142156 0.987123
O O13 0.814989 0.670550 0.969563
O O14 0.815129 0.170773 0.024855
#
# Coordination Sequence:
#
# PCOD9233020 Si02
#       6
#     4   4   4   4   4   4
#     4   9  20  40  59  88 124 164 217 278 337 394
#     4  10  21  39  62  93 120 169 221 279 342 395
#     4  11  24  43  71 105 138 176 224 275 329 401
#     4  10  23  42  64  92 133 177 226 283 335 411
#     4  11  25  45  68 102 138 181 226 269 341 402
#     4  11  25  45  67 100 138 181 222 277 335 398
#
# _framework density 22.733409000000002
#
# number of rings (size 3 to 8) (size 9 to 14) (size 15 to 20)
#    0.000    1.667    0.000    3.000    2.333   10.000 
#   12.000    0.000    0.000    0.000    0.000    0.000 
#    0.000    0.000    0.000    0.000    0.000    0.000 
#
# Total GULP energy -134022.069945 kJ/mol
# GULP energy per Si atom -5584.252914 kJ/mol
# Density = 2.268167 g / cm^3
# Si number density = 22.733409 Si / 1000 Ang^3
#
#
#
# Elastic Constant Matrix: (Units=GPa)
#
#
# Indices 1 2 3 4 5 6 
#
# 1 183.7115 22.8184 23.5234 0.0000 16.3010 0.0000
# 2 22.8184 58.9879 8.6613 0.0000 12.0104 0.0000
# 3 23.5234 8.6613 64.2522 0.0000 6.6592 0.0000
# 4 0.0000 0.0000 0.0000 25.2220 0.0000 14.4923
# 5 16.3010 12.0104 6.6592 0.0000 31.2839 0.0000
# 6 0.0000 0.0000 0.0000 14.4923 0.0000 10.1015
#
#
#
# Elastic Compliance Matrix: (Units=1/GPa)
#
#
# Indices 1 2 3 4 5 6 
#
# 1 0.006066 -0.001648 -0.001776 0.000000 -0.002150 0.000000
# 2 -0.001648 0.019041 -0.001324 0.000000 -0.006169 0.000000
# 3 -0.001776 -0.001324 0.016610 0.000000 -0.002102 0.000000
# 4 0.000000 0.000000 0.000000 0.225711 0.000000 -0.323820
# 5 -0.002150 -0.006169 -0.002102 0.000000 0.035902 0.000000
# 6 0.000000 0.000000 0.000000 -0.323820 0.000000 0.563570
#
#
# Mechanical properties :
#
#
# Convention : Reuss Voigt Hill
#
# Bulk Modulus (GPa) = 31.03537 46.32863 38.68200
# Shear Modulus (GPa) = 5.63612 30.11806 17.87709
#
# Velocity S-wave (km/s) = 1.57626 3.64378 2.80729
# Velocity P-wave (km/s) = 4.12242 6.17464 5.24979
#
# Compressibility (1/GPa) = 0.03222130
#
# Stress axis : x y z
#
# Youngs Moduli (GPa) = 164.84792 52.51910 60.20410
#
# Poissons Ratio (x) = 0.08655 0.10692
# Poissons Ratio (y) = 0.27168 0.07971
# Poissons Ratio (z) = 0.29275 0.06953
#
# Static dielectric constant tensor:
#      x y z
#    x 1.894310 0.000000 0.172570 
#    y 0.000000 1.986620 0.000000 
#    z 0.172570 0.000000 1.081710 
# 
# From -- ./inp_files/41093.got.cif
#   From: 2010.05.17/outbox.cif.g08.bks.cpg/sg13_21_cif.got.tgz:41093.got - 2010.06.03 16:44:36.
