data_PCOD9233526
_publ_section_title
;
Structure prediction by ZEFSAII (Michael W. Deem and Ramdas Pophale) SiO2 
 PCOD9233526
Probable space group: P 2/C
;
_chemical_formula_sum "Si O2"
_cell_formula_units_Z 24
_cell_length_a 27.142053
_cell_length_b 4.992978
_cell_length_c 19.861951
_cell_angle_alpha 90.000000
_cell_angle_beta 159.341556
_cell_angle_gamma 90.000000
_cell_volume 949.616505
_symmetry_space_group_name_H-M "P 2/C"
_symmetry_group_IT_number 13
_symmetry_cell_setting 'monoclinic'
loop_
_space_group_symop_operation_xyz
x,y,z
-x,y,1/2-z
-x,-y,-z
x,-y,1/2+z
loop_
_atom_site_type_symbol
_atom_site_label
_atom_site_fract_x
_atom_site_fract_y
_atom_site_fract_z
Si Si1 0.763673 0.215235 0.042065
Si Si2 0.000000 0.516965 0.750000
Si Si3 0.500000 0.450087 0.250000
Si Si4 0.025775 0.756339 0.579110
Si Si5 0.389002 0.987814 0.762325
Si Si6 0.434261 0.496282 0.020667
Si Si7 0.793243 0.388733 0.880114
O O1 0.886217 0.329834 0.151029
O O2 0.826644 0.201844 0.196251
O O3 0.627362 0.394767 0.877580
O O4 0.701355 0.961024 0.922322
O O5 0.885284 0.411950 0.547293
O O6 0.423734 0.357994 0.082044
O O7 0.000000 0.500000 0.500000
O O8 0.914025 0.763296 0.495186
O O9 0.000000 0.000000 0.500000
O O10 0.516341 0.195703 0.912844
O O11 0.294450 0.165108 0.691346
O O12 0.446903 0.701983 0.859652
O O13 0.302859 0.496500 0.803186
#
# Coordination Sequence:
#
# PCOD9233526 Si02
#       7
#     4   2   2   4   4   4   4
#     4   9  20  41  63  92 128 166 211 261 315 376
#     4   8  18  40  66  92 126 170 214 260 312 374
#     4  10  22  38  64  98 130 166 208 262 320 378
#     4  11  25  41  62  91 125 167 213 261 315 376
#     4  10  23  40  64  94 125 165 210 260 316 375
#     4  11  23  39  64  96 129 162 206 260 317 377
#     4  10  21  41  66  90 126 168 213 261 314 374
#
# _framework density 25.273363
#
# number of rings (size 3 to 8) (size 9 to 14) (size 15 to 20)
#    0.000    2.000    0.000    2.000    0.000   12.000 
#    0.000    0.000    0.000   24.000    0.000    0.000 
#    0.000    0.000    0.000    0.000    0.000    0.000 
#
# Total GULP energy -133705.846402 kJ/mol
# GULP energy per Si atom -5571.076933 kJ/mol
# Density = 2.521584 g / cm^3
# Si number density = 25.273363 Si / 1000 Ang^3
#
#
#
# Elastic Constant Matrix: (Units=GPa)
#
#
# Indices 1 2 3 4 5 6 
#
# 1 82.7631 16.1848 36.0706 0.0000 -16.7033 0.0000
# 2 16.1848 108.5837 36.7727 0.0000 -7.9351 0.0000
# 3 36.0706 36.7727 211.2988 0.0000 -50.5442 0.0000
# 4 0.0000 0.0000 0.0000 12.8947 0.0000 -16.9237
# 5 -16.7033 -7.9351 -50.5442 0.0000 64.9321 0.0000
# 6 0.0000 0.0000 0.0000 -16.9237 0.0000 -16.8188
#
#
#
# Elastic Compliance Matrix: (Units=1/GPa)
#
#
# Indices 1 2 3 4 5 6 
#
# 1 0.013444 -0.001321 -0.001568 0.000000 0.002076 0.000000
# 2 -0.001321 0.009917 -0.001587 0.000000 -0.000363 0.000000
# 3 -0.001568 -0.001587 0.006308 0.000000 0.004313 0.000000
# 4 0.000000 0.000000 0.000000 0.033418 0.000000 -0.033626
# 5 0.002076 -0.000363 0.004313 0.000000 0.019248 0.000000
# 6 0.000000 0.000000 0.000000 -0.033626 0.000000 -0.025621
#
#
# Mechanical properties :
#
#
# Convention : Reuss Voigt Hill
#
# Bulk Modulus (GPa) = 48.27256 64.52240 56.39748
# Shear Modulus (GPa) = 68.89631 33.10942 51.00286
#
# Velocity S-wave (km/s) = 5.22682 3.62339 4.49714
# Velocity P-wave (km/s) = 7.45438 6.56434 7.02347
#
# Compressibility (1/GPa) = 0.02071570
#
# Stress axis : x y z
#
# Youngs Moduli (GPa) = 74.38512 100.83289 158.51977
#
# Poissons Ratio (x) = 0.13319 0.24863
# Poissons Ratio (y) = 0.09826 0.25163
# Poissons Ratio (z) = 0.11667 0.16006
#
# Static dielectric constant tensor:
#      x y z
#    x 2.073580 0.000000 -0.066340 
#    y 0.000000 1.931380 0.000000 
#    z -0.066340 0.000000 2.064170 
# 
# From -- ./inp_files/77334.got.cif
#   From: 2010.05.17/outbox.cif.g08.bks.cpg/sg13_39_cif.got.tgz:77334.got - 2010.06.03 16:44:36.
