data_PCOD9233938
_publ_section_title
;
Structure prediction by ZEFSAII (Michael W. Deem and Ramdas Pophale) SiO2 
 PCOD9233938
Probable space group: P 2/C
;
_chemical_formula_sum "Si O2"
_cell_formula_units_Z 22
_cell_length_a 16.726378
_cell_length_b 7.238124
_cell_length_c 22.826394
_cell_angle_alpha 90.000000
_cell_angle_beta 19.941633
_cell_angle_gamma 90.000000
_cell_volume 942.539299
_symmetry_space_group_name_H-M "P 2/C"
_symmetry_group_IT_number 13
_symmetry_cell_setting 'monoclinic'
loop_
_space_group_symop_operation_xyz
x,y,z
-x,y,1/2-z
-x,-y,-z
x,-y,1/2+z
loop_
_atom_site_type_symbol
_atom_site_label
_atom_site_fract_x
_atom_site_fract_y
_atom_site_fract_z
Si Si1 0.554959 0.833032 0.351002
Si Si2 0.616091 0.559181 0.551374
Si Si3 0.003907 0.031802 0.584130
Si Si4 0.270464 0.722224 0.446200
Si Si5 0.500000 0.228269 0.250000
Si Si6 0.779872 0.897234 0.361790
O O1 0.543532 0.609781 0.363249
O O2 0.396095 0.868795 0.402965
O O3 0.814912 0.912349 0.165729
O O4 0.416819 0.945943 0.495380
O O5 0.812040 0.436983 0.451912
O O6 0.514006 0.667535 0.677394
O O7 0.690974 0.704458 0.450964
O O8 0.256274 0.123042 0.409242
O O9 0.876357 0.111642 0.730105
O O10 0.062652 0.815656 0.553824
O O11 0.500000 0.664567 0.250000
O O12 0.000000 0.955151 0.250000
#
# Coordination Sequence:
#
# PCOD9233938 Si02
#       6
#     4   4   4   4   2   4
#     4  10  25  46  69 106 132 183 231 279 342 407
#     4  10  23  44  67  99 138 172 235 274 344 401
#     4  12  25  44  75  99 141 181 230 281 341 408
#     4  10  21  45  65 100 137 180 219 281 342 391
#     4  12  22  44  70 102 136 188 222 282 346 400
#     4  12  22  45  71  99 136 181 225 283 343 403
#
# _framework density 23.341201999999999
#
# number of rings (size 3 to 8) (size 9 to 14) (size 15 to 20)
#    1.091    0.000    5.455    0.545    0.000    4.364 
#    3.273    0.000    0.000    0.000    0.000    0.000 
#    0.000    0.000    0.000    0.000    0.000    0.000 
#
# Total GULP energy -122599.303125 kJ/mol
# GULP energy per Si atom -5572.695597 kJ/mol
# Density = 2.328808 g / cm^3
# Si number density = 23.341202 Si / 1000 Ang^3
#
#
#
# Elastic Constant Matrix: (Units=GPa)
#
#
# Indices 1 2 3 4 5 6 
#
# 1 49.4372 8.7370 12.7066 0.0000 1.8486 0.0000
# 2 8.7370 92.2413 45.7083 0.0000 8.7946 0.0000
# 3 12.7066 45.7083 100.6676 0.0000 -7.4907 0.0000
# 4 0.0000 0.0000 0.0000 23.7299 0.0000 -0.7289
# 5 1.8486 8.7946 -7.4907 0.0000 36.4123 0.0000
# 6 0.0000 0.0000 0.0000 -0.7289 0.0000 -1.8030
#
#
#
# Elastic Compliance Matrix: (Units=1/GPa)
#
#
# Indices 1 2 3 4 5 6 
#
# 1 0.021028 -0.000630 -0.002474 0.000000 -0.001424 0.000000
# 2 -0.000630 0.014869 -0.007045 0.000000 -0.005009 0.000000
# 3 -0.002474 -0.007045 0.013792 0.000000 0.004664 0.000000
# 4 0.000000 0.000000 0.000000 0.041624 0.000000 -0.016829
# 5 -0.001424 -0.005009 0.004664 0.000000 0.029705 0.000000
# 6 0.000000 0.000000 0.000000 -0.016829 0.000000 -0.547841
#
#
# Mechanical properties :
#
#
# Convention : Reuss Voigt Hill
#
# Bulk Modulus (GPa) = 34.02330 41.84999 37.93665
# Shear Modulus (GPa) = -12.60307 23.34748 5.37220
#
# Velocity S-wave (km/s) = -2.32620 3.16613 1.51875
# Velocity P-wave (km/s) = 2.71904 5.59772 4.40043
#
# Compressibility (1/GPa) = 0.02939162
#
# Stress axis : x y z
#
# Youngs Moduli (GPa) = 47.55522 67.25361 72.50772
#
# Poissons Ratio (x) = 0.04236 0.17940
# Poissons Ratio (y) = 0.02996 0.51078
# Poissons Ratio (z) = 0.11766 0.47377
#
# Static dielectric constant tensor:
#      x y z
#    x 1.985030 0.000000 0.054110 
#    y 0.000000 1.990420 0.000000 
#    z 0.054110 0.000000 1.901580 
# 
# From -- ./inp_files/87863.got.cif
#   From: 2010.05.17/outbox.cif.g08.bks.cpg/sg13_44_cif.got.tgz:87863.got - 2010.06.03 16:44:36.
