data_PCOD9233461
_publ_section_title
;
Structure prediction by ZEFSAII (Michael W. Deem and Ramdas Pophale) SiO2 
 PCOD9233461
Probable space group: P 2/C
;
_chemical_formula_sum "Si O2"
_cell_formula_units_Z 16
_cell_length_a 10.074077
_cell_length_b 7.254955
_cell_length_c 18.174097
_cell_angle_alpha 90.000000
_cell_angle_beta 33.873271
_cell_angle_gamma 90.000000
_cell_volume 740.332722
_symmetry_space_group_name_H-M "P 2/C"
_symmetry_group_IT_number 13
_symmetry_cell_setting 'monoclinic'
loop_
_space_group_symop_operation_xyz
x,y,z
-x,y,1/2-z
-x,-y,-z
x,-y,1/2+z
loop_
_atom_site_type_symbol
_atom_site_label
_atom_site_fract_x
_atom_site_fract_y
_atom_site_fract_z
Si Si1 0.383053 0.385015 0.723922
Si Si2 0.737083 0.769954 0.784366
Si Si3 0.725397 0.829085 0.957054
Si Si4 0.959831 0.076792 0.600255
O O1 0.500000 0.372123 0.750000
O O2 0.381803 0.594153 0.696645
O O3 0.535159 0.272243 0.594328
O O4 0.126156 0.285457 0.851837
O O5 0.658534 0.827942 0.902195
O O6 0.020630 0.721603 0.657304
O O7 0.743658 0.950057 0.730531
O O8 0.815521 0.021723 0.951834
O O9 0.000000 0.000000 0.500000
#
# Coordination Sequence:
#
# PCOD9233461 Si02
#       4
#     4   4   4   4
#     4  12  22  38  68  94 122 170 204 250 322 366
#     4   9  22  44  59  92 129 160 207 258 305 372
#     4   9  21  45  59  91 130 154 214 256 300 377
#     4  10  21  41  62  92 129 160 208 258 306 369
#
# _framework density 21.611903999999999
#
# number of rings (size 3 to 8) (size 9 to 14) (size 15 to 20)
#    1.500    0.500    2.500    0.750    0.000    6.000 
#   13.500    0.000    0.000    0.000    0.000    0.000 
#    0.000    0.000    0.000    0.000    0.000    0.000 
#
# Total GULP energy -89185.773272 kJ/mol
# GULP energy per Si atom -5574.110829 kJ/mol
# Density = 2.156271 g / cm^3
# Si number density = 21.611904 Si / 1000 Ang^3
#
#
#
# Elastic Constant Matrix: (Units=GPa)
#
#
# Indices 1 2 3 4 5 6 
#
# 1 82.8623 22.8568 37.8574 0.0000 43.1216 0.0000
# 2 22.8568 76.1561 4.9055 0.0000 15.5485 0.0000
# 3 37.8574 4.9055 79.0611 0.0000 34.9002 0.0000
# 4 0.0000 0.0000 0.0000 19.1236 0.0000 4.1378
# 5 43.1216 15.5485 34.9002 0.0000 45.8778 0.0000
# 6 0.0000 0.0000 0.0000 4.1378 0.0000 47.8141
#
#
#
# Elastic Compliance Matrix: (Units=1/GPa)
#
#
# Indices 1 2 3 4 5 6 
#
# 1 0.024564 -0.003127 -0.002776 0.000000 -0.019916 0.000000
# 2 -0.003127 0.014689 0.002237 0.000000 -0.003741 0.000000
# 3 -0.002776 0.002237 0.019606 0.000000 -0.013063 0.000000
# 4 0.000000 0.000000 0.000000 0.053289 0.000000 -0.004612
# 5 -0.019916 -0.003741 -0.013063 0.000000 0.051722 0.000000
# 6 0.000000 0.000000 0.000000 -0.004612 0.000000 0.021313
#
#
# Mechanical properties :
#
#
# Convention : Reuss Voigt Hill
#
# Bulk Modulus (GPa) = 19.40771 41.03542 30.22156
# Shear Modulus (GPa) = 23.84469 34.06041 28.95255
#
# Velocity S-wave (km/s) = 3.32522 3.97420 3.66410
# Velocity P-wave (km/s) = 4.87261 6.33148 5.64934
#
# Compressibility (1/GPa) = 0.05152592
#
# Stress axis : x y z
#
# Youngs Moduli (GPa) = 40.71076 68.07731 51.00604
#
# Poissons Ratio (x) = 0.21290 0.14161
# Poissons Ratio (y) = 0.12731 -0.11412
# Poissons Ratio (z) = 0.11303 -0.15232
#
# Static dielectric constant tensor:
#      x y z
#    x 1.761390 0.000000 -0.032370 
#    y 0.000000 1.805270 0.000000 
#    z -0.032370 0.000000 1.819640 
# 
# From -- ./inp_files/48476.got.cif
#   From: 2010.05.17/outbox.cif.g08.bks.cpg/sg13_25_cif.got.tgz:48476.got - 2010.06.03 16:44:36.
