data_PCOD9233797
_publ_section_title
;
Structure prediction by ZEFSAII (Michael W. Deem and Ramdas Pophale) SiO2 
 PCOD9233797
Probable space group: P 2/C
;
_chemical_formula_sum "Si O2"
_cell_formula_units_Z 28
_cell_length_a 6.681144
_cell_length_b 14.743762
_cell_length_c 10.698169
_cell_angle_alpha 90.000000
_cell_angle_beta 103.042521
_cell_angle_gamma 90.000000
_cell_volume 1026.639561
_symmetry_space_group_name_H-M "P 2/C"
_symmetry_group_IT_number 13
_symmetry_cell_setting 'monoclinic'
loop_
_space_group_symop_operation_xyz
x,y,z
-x,y,1/2-z
-x,-y,-z
x,-y,1/2+z
loop_
_atom_site_type_symbol
_atom_site_label
_atom_site_fract_x
_atom_site_fract_y
_atom_site_fract_z
Si Si1 0.568356 0.289971 0.890420
Si Si2 0.247704 0.576829 0.654638
Si Si3 0.952995 0.799282 0.369971
Si Si4 0.706039 0.230961 0.423824
Si Si5 0.585601 0.023517 0.395609
Si Si6 0.912833 0.998885 0.106038
Si Si7 0.757874 0.453240 0.070853
O O1 0.500000 0.332221 0.750000
O O2 0.713738 0.206580 0.865885
O O3 0.392439 0.255563 0.956130
O O4 0.689060 0.363280 0.988283
O O5 0.306685 0.682754 0.666487
O O6 0.305011 0.536160 0.527295
O O7 0.682429 0.537619 0.702406
O O8 0.003438 0.557295 0.616715
O O9 0.000000 0.743305 0.250000
O O10 0.051554 0.771820 0.514943
O O11 0.083309 0.890674 0.367699
O O12 0.614166 0.133191 0.381724
O O13 0.500000 0.984406 0.250000
O O14 0.349266 0.018091 0.435604
O O15 0.848182 0.000587 0.431798
O O16 0.000000 0.044508 0.250000
#
# Coordination Sequence:
#
# PCOD9233797 Si02
#       7
#     4   4   4   4   4   4   4
#     4  12  25  40  70 108 137 191 245 297 368 435
#     4  10  23  47  72 104 148 194 245 302 372 439
#     4  10  21  43  63  96 143 179 237 292 361 440
#     4  11  25  43  71 103 147 191 240 309 367 444
#     4  11  26  46  72 107 146 190 244 316 383 445
#     4  10  22  42  68  96 134 187 230 299 372 446
#     4  10  24  44  74 104 145 195 245 303 367 440
#
# _framework density 27.273444999999999
#
# number of rings (size 3 to 8) (size 9 to 14) (size 15 to 20)
#    0.000    1.429    2.857    0.857    6.000    1.143 
#    0.000    0.000    0.000    0.000    0.000    0.000 
#    0.000    0.000    0.000    0.000    0.000    0.000 
#
# Total GULP energy -156144.861827 kJ/mol
# GULP energy per Si atom -5576.602208 kJ/mol
# Density = 2.721137 g / cm^3
# Si number density = 27.273445 Si / 1000 Ang^3
#
#
#
# Elastic Constant Matrix: (Units=GPa)
#
#
# Indices 1 2 3 4 5 6 
#
# 1 153.0990 22.1173 91.2369 0.0000 -0.2923 0.0000
# 2 22.1173 97.8162 22.6705 0.0000 25.9077 0.0000
# 3 91.2369 22.6705 231.9738 0.0000 33.6856 0.0000
# 4 0.0000 0.0000 0.0000 20.0107 0.0000 4.2132
# 5 -0.2923 25.9077 33.6856 0.0000 67.9099 0.0000
# 6 0.0000 0.0000 0.0000 4.2132 0.0000 23.7580
#
#
#
# Elastic Compliance Matrix: (Units=1/GPa)
#
#
# Indices 1 2 3 4 5 6 
#
# 1 0.009043 -0.001867 -0.003754 0.000000 0.002613 0.000000
# 2 -0.001867 0.011816 0.000254 0.000000 -0.004642 0.000000
# 3 -0.003754 0.000254 0.006227 0.000000 -0.003202 0.000000
# 4 0.000000 0.000000 0.000000 0.051911 0.000000 -0.009206
# 5 0.002613 -0.004642 -0.003202 0.000000 0.018096 0.000000
# 6 0.000000 0.000000 0.000000 -0.009206 0.000000 0.043724
#
#
# Mechanical properties :
#
#
# Convention : Reuss Voigt Hill
#
# Bulk Modulus (GPa) = 61.15325 83.88205 72.51765
# Shear Modulus (GPa) = 31.84652 45.46002 38.65327
#
# Velocity S-wave (km/s) = 3.42083 4.08710 3.76872
# Velocity P-wave (km/s) = 6.17039 7.28665 6.75163
#
# Compressibility (1/GPa) = 0.01635236
#
# Stress axis : x y z
#
# Youngs Moduli (GPa) = 110.57689 84.63093 160.57971
#
# Poissons Ratio (x) = 0.15800 0.60280
# Poissons Ratio (y) = 0.20644 -0.04071
# Poissons Ratio (z) = 0.41509 -0.02146
#
# Static dielectric constant tensor:
#      x y z
#    x 2.241870 0.000000 -0.017170 
#    y 0.000000 2.085250 0.000000 
#    z -0.017170 0.000000 2.352610 
# 
# From -- ./inp_files/44317.got.cif
#   From: 2010.05.17/outbox.cif.g08.bks.cpg/sg13_23_cif.got.tgz:44317.got - 2010.06.03 16:44:36.
