data_PCOD9233659
_publ_section_title
;
Structure prediction by ZEFSAII (Michael W. Deem and Ramdas Pophale) SiO2 
 PCOD9233659
Probable space group: P 2/C
;
_chemical_formula_sum "Si O2"
_cell_formula_units_Z 24
_cell_length_a 17.682418
_cell_length_b 6.975241
_cell_length_c 25.252217
_cell_angle_alpha 90.000000
_cell_angle_beta 17.997985
_cell_angle_gamma 90.000000
_cell_volume 962.355953
_symmetry_space_group_name_H-M "P 2/C"
_symmetry_group_IT_number 13
_symmetry_cell_setting 'monoclinic'
loop_
_space_group_symop_operation_xyz
x,y,z
-x,y,1/2-z
-x,-y,-z
x,-y,1/2+z
loop_
_atom_site_type_symbol
_atom_site_label
_atom_site_fract_x
_atom_site_fract_y
_atom_site_fract_z
Si Si1 0.029903 0.151141 0.911277
Si Si2 0.868369 0.487544 0.459300
Si Si3 0.254457 0.802709 0.369829
Si Si4 0.502696 0.070042 0.057911
Si Si5 0.729824 0.190479 0.481013
Si Si6 0.714667 0.574111 0.454057
O O1 0.060537 0.218607 0.951281
O O2 0.259869 0.016716 0.744967
O O3 0.023512 0.333531 0.876990
O O4 0.805436 0.001829 0.060273
O O5 0.770152 0.381340 0.576549
O O6 0.943800 0.301724 0.371532
O O7 0.689888 0.588615 0.534772
O O8 0.513073 0.818462 0.168098
O O9 0.724830 0.998714 0.949243
O O10 0.500000 0.000000 0.000000
O O11 0.530601 0.296409 0.044590
O O12 0.661653 0.349832 0.482379
O O13 0.000000 0.610250 0.250000
#
# Coordination Sequence:
#
# PCOD9233659 Si02
#       6
#     4   4   4   4   4   4
#     4  10  23  40  68  97 135 172 220 268 330 395
#     4  10  22  40  66  93 133 173 213 269 327 388
#     4  10  21  42  63  99 130 172 213 270 327 397
#     4  11  24  44  68  96 132 176 224 280 332 389
#     4   9  24  41  64  98 130 171 221 269 327 400
#     4  10  24  42  64  94 129 174 227 274 325 392
#
# _framework density 24.938797999999998
#
# number of rings (size 3 to 8) (size 9 to 14) (size 15 to 20)
#    1.000    1.000    0.000    2.000    2.333    9.333 
#    0.000    0.000    0.000    0.000    0.000    0.000 
#    0.000    0.000    0.000    0.000    0.000    0.000 
#
# Total GULP energy -133696.256100 kJ/mol
# GULP energy per Si atom -5570.677337 kJ/mol
# Density = 2.488204 g / cm^3
# Si number density = 24.938798 Si / 1000 Ang^3
#
#
#
# Elastic Constant Matrix: (Units=GPa)
#
#
# Indices 1 2 3 4 5 6 
#
# 1 102.2817 28.3537 31.7458 0.0000 16.5121 0.0000
# 2 28.3537 72.9366 38.6210 0.0000 4.4334 0.0000
# 3 31.7458 38.6210 103.7412 0.0000 15.8169 0.0000
# 4 0.0000 0.0000 0.0000 22.1595 0.0000 -3.9182
# 5 16.5121 4.4334 15.8169 0.0000 29.0966 0.0000
# 6 0.0000 0.0000 0.0000 -3.9182 0.0000 66.1148
#
#
#
# Elastic Compliance Matrix: (Units=1/GPa)
#
#
# Indices 1 2 3 4 5 6 
#
# 1 0.012133 -0.003563 -0.001548 0.000000 -0.005501 0.000000
# 2 -0.003563 0.018146 -0.006054 0.000000 0.002548 0.000000
# 3 -0.001548 -0.006054 0.013185 0.000000 -0.005367 0.000000
# 4 0.000000 0.000000 0.000000 0.045605 0.000000 0.002703
# 5 -0.005501 0.002548 -0.005367 0.000000 0.040019 0.000000
# 6 0.000000 0.000000 0.000000 0.002703 0.000000 0.015285
#
#
# Mechanical properties :
#
#
# Convention : Reuss Voigt Hill
#
# Bulk Modulus (GPa) = 47.31312 52.93338 50.12325
# Shear Modulus (GPa) = 28.77737 35.49010 32.13373
#
# Velocity S-wave (km/s) = 3.40062 3.77648 3.59347
# Velocity P-wave (km/s) = 5.86787 6.34721 6.11224
#
# Compressibility (1/GPa) = 0.02113578
#
# Stress axis : x y z
#
# Youngs Moduli (GPa) = 82.41972 55.10800 75.84432
#
# Poissons Ratio (x) = 0.19633 0.11739
# Poissons Ratio (y) = 0.29364 0.45914
# Poissons Ratio (z) = 0.12757 0.33361
#
# Static dielectric constant tensor:
#      x y z
#    x 2.062740 0.000000 -0.045040 
#    y 0.000000 1.984760 0.000000 
#    z -0.045040 0.000000 2.057030 
# 
# From -- ./inp_files/97429.got.cif
#   From: 2010.05.17/outbox.cif.g08.bks.cpg/sg13_49_cif.got.tgz:97429.got - 2010.06.03 16:44:36.
