data_PCOD9233778
_publ_section_title
;
Structure prediction by ZEFSAII (Michael W. Deem and Ramdas Pophale) SiO2 
 PCOD9233778
Probable space group: P 2/C
;
_chemical_formula_sum "Si O2"
_cell_formula_units_Z 18
_cell_length_a 6.905573
_cell_length_b 5.431740
_cell_length_c 25.029048
_cell_angle_alpha 90.000000
_cell_angle_beta 129.264422
_cell_angle_gamma 90.000000
_cell_volume 726.866922
_symmetry_space_group_name_H-M "P 2/C"
_symmetry_group_IT_number 13
_symmetry_cell_setting 'monoclinic'
loop_
_space_group_symop_operation_xyz
x,y,z
-x,y,1/2-z
-x,-y,-z
x,-y,1/2+z
loop_
_atom_site_type_symbol
_atom_site_label
_atom_site_fract_x
_atom_site_fract_y
_atom_site_fract_z
Si Si1 0.310156 0.369741 0.897171
Si Si2 0.280739 0.155275 0.993163
Si Si3 0.033025 0.860452 0.817751
Si Si4 0.689443 0.090072 0.897002
Si Si5 0.500000 0.960560 0.750000
O O1 0.189073 0.615665 0.854290
O O2 0.147345 0.120650 0.857259
O O3 0.987179 0.083695 0.939511
O O4 0.284619 0.394744 0.956995
O O5 0.346083 0.135839 0.067106
O O6 0.500000 0.000000 0.000000
O O7 0.427113 0.307464 0.586370
O O8 0.756792 0.812997 0.792252
O O9 0.000000 0.896643 0.750000
O O10 0.540993 0.095019 0.814743
#
# Coordination Sequence:
#
# PCOD9233778 Si02
#       5
#     4   4   4   4   2
#     4  11  24  46  71 103 141 191 237 297 357 434
#     4   9  20  43  74 103 147 188 246 296 365 431
#     4  12  26  43  70 105 149 186 237 298 368 429
#     4  10  21  42  73 108 143 193 240 301 364 437
#     4  12  24  42  74 108 150 192 248 302 374 436
#
# _framework density 24.763817
#
# number of rings (size 3 to 8) (size 9 to 14) (size 15 to 20)
#    0.000    1.333    4.444    0.667    0.000    2.667 
#    0.000   11.111    0.000    0.000    0.000    0.000 
#    0.000    0.000    0.000    0.000    0.000    0.000 
#
# Total GULP energy -100259.955787 kJ/mol
# GULP energy per Si atom -5569.997544 kJ/mol
# Density = 2.470745 g / cm^3
# Si number density = 24.763817 Si / 1000 Ang^3
#
#
#
# Elastic Constant Matrix: (Units=GPa)
#
#
# Indices 1 2 3 4 5 6 
#
# 1 211.4609 50.9346 58.5247 0.0000 20.9193 0.0000
# 2 50.9346 107.2202 76.9963 0.0000 24.9398 0.0000
# 3 58.5247 76.9963 137.4607 0.0000 -31.2500 0.0000
# 4 0.0000 0.0000 0.0000 -12.1893 0.0000 50.2349
# 5 20.9193 24.9398 -31.2500 0.0000 67.0169 0.0000
# 6 0.0000 0.0000 0.0000 50.2349 0.0000 -48.2436
#
#
#
# Elastic Compliance Matrix: (Units=1/GPa)
#
#
# Indices 1 2 3 4 5 6 
#
# 1 0.006028 0.001079 -0.004127 0.000000 -0.004208 0.000000
# 2 0.001079 0.029585 -0.021936 0.000000 -0.021575 0.000000
# 3 -0.004127 -0.021936 0.026251 0.000000 0.021692 0.000000
# 4 0.000000 0.000000 0.000000 0.024926 0.000000 0.025955
# 5 -0.004208 -0.021575 0.021692 0.000000 0.034379 0.000000
# 6 0.000000 0.000000 0.000000 0.025955 0.000000 0.006298
#
#
# Mechanical properties :
#
#
# Convention : Reuss Voigt Hill
#
# Bulk Modulus (GPa) = 84.06861 92.11699 88.09280
# Shear Modulus (GPa) = 27.56354 19.29587 23.42971
#
# Velocity S-wave (km/s) = 3.33987 2.79444 3.07925
# Velocity P-wave (km/s) = 6.99248 6.90585 6.94930
#
# Compressibility (1/GPa) = 0.01189505
#
# Stress axis : x y z
#
# Youngs Moduli (GPa) = 165.90256 33.80110 38.09435
#
# Poissons Ratio (x) = -0.03648 0.15723
# Poissons Ratio (y) = -0.17907 0.83563
# Poissons Ratio (z) = 0.68476 0.74146
#
# Static dielectric constant tensor:
#      x y z
#    x 2.064630 0.000000 0.044200 
#    y 0.000000 1.966880 0.000000 
#    z 0.044200 0.000000 2.136610 
# 
# From -- ./inp_files/84426.got.cif
#   From: 2010.05.17/outbox.cif.g08.bks.cpg/sg13_43_cif.got.tgz:84426.got - 2010.06.03 16:44:36.
