data_PCOD9233850
_publ_section_title
;
Structure prediction by ZEFSAII (Michael W. Deem and Ramdas Pophale) SiO2 
 PCOD9233850
Probable space group: P 2/C
;
_chemical_formula_sum "Si O2"
_cell_formula_units_Z 30
_cell_length_a 12.986904
_cell_length_b 6.527712
_cell_length_c 17.206169
_cell_angle_alpha 90.000000
_cell_angle_beta 123.349896
_cell_angle_gamma 90.000000
_cell_volume 1218.451709
_symmetry_space_group_name_H-M "P 2/C"
_symmetry_group_IT_number 13
_symmetry_cell_setting 'monoclinic'
loop_
_space_group_symop_operation_xyz
x,y,z
-x,y,1/2-z
-x,-y,-z
x,-y,1/2+z
loop_
_atom_site_type_symbol
_atom_site_label
_atom_site_fract_x
_atom_site_fract_y
_atom_site_fract_z
Si Si1 0.984164 0.954652 0.878340
Si Si2 0.795475 0.927224 0.425658
Si Si3 0.630534 0.644190 0.263654
Si Si4 0.133965 0.687283 0.391470
Si Si5 0.329146 0.082786 0.875655
Si Si6 0.331433 0.684180 0.609723
Si Si7 0.000000 0.663190 0.750000
Si Si8 0.483866 0.697693 0.937932
O O1 0.945489 0.811157 0.792689
O O2 0.884463 0.947764 0.904629
O O3 0.012190 0.190876 0.868618
O O4 0.117596 0.881931 0.965714
O O5 0.742082 0.736153 0.360980
O O6 0.679846 0.071728 0.393362
O O7 0.500000 0.696963 0.250000
O O8 0.643314 0.767316 0.187125
O O9 0.661829 0.408571 0.301385
O O10 0.199775 0.845757 0.359043
O O11 0.219412 0.636278 0.502090
O O12 0.099229 0.485037 0.330879
O O13 0.362759 0.841475 0.877711
O O14 0.418228 0.150967 0.982435
O O15 0.457032 0.622781 0.618096
O O16 0.500000 0.500000 0.000000
#
# Coordination Sequence:
#
# PCOD9233850 Si02
#       8
#     4   4   4   4   4   4   2   4
#     4  10  24  45  69 101 132 184 237 290 356 424
#     4  10  24  45  69  94 141 185 227 289 361 415
#     4  12  25  40  66 100 138 180 231 289 348 419
#     4  10  24  43  66 101 138 178 229 295 357 419
#     4  10  24  40  65  98 135 178 226 286 348 407
#     4  10  23  43  67  97 136 182 230 278 349 426
#     4  12  24  38  72 100 138 176 238 296 350 426
#     4  10  21  43  68  95 135 184 232 278 341 418
#
# _framework density 24.621410000000001
#
# number of rings (size 3 to 8) (size 9 to 14) (size 15 to 20)
#    0.000    1.600    0.000    2.800    5.600    9.067 
#    0.000    4.000    0.000    0.000    0.000    0.000 
#    0.000    0.000    0.000    0.000    0.000    0.000 
#
# Total GULP energy -167349.024391 kJ/mol
# GULP energy per Si atom -5578.300813 kJ/mol
# Density = 2.456537 g / cm^3
# Si number density = 24.621410 Si / 1000 Ang^3
#
#
#
# Elastic Constant Matrix: (Units=GPa)
#
#
# Indices 1 2 3 4 5 6 
#
# 1 61.4182 22.1822 13.5981 0.0000 -17.7414 0.0000
# 2 22.1822 78.0253 57.6125 0.0000 -9.6129 0.0000
# 3 13.5981 57.6125 127.4100 0.0000 -1.1224 0.0000
# 4 0.0000 0.0000 0.0000 46.4181 0.0000 5.6241
# 5 -17.7414 -9.6129 -1.1224 0.0000 36.5360 0.0000
# 6 0.0000 0.0000 0.0000 5.6241 0.0000 15.3276
#
#
#
# Elastic Compliance Matrix: (Units=1/GPa)
#
#
# Indices 1 2 3 4 5 6 
#
# 1 0.020517 -0.004805 0.000060 0.000000 0.008701 0.000000
# 2 -0.004805 0.021244 -0.009067 0.000000 0.002978 0.000000
# 3 0.000060 -0.009067 0.011925 0.000000 -0.001990 0.000000
# 4 0.000000 0.000000 0.000000 0.022546 0.000000 -0.008273
# 5 0.008701 0.002978 -0.001990 0.000000 0.032317 0.000000
# 6 0.000000 0.000000 0.000000 -0.008273 0.000000 0.068277
#
#
# Mechanical properties :
#
#
# Convention : Reuss Voigt Hill
#
# Bulk Modulus (GPa) = 38.37128 50.40434 44.38781
# Shear Modulus (GPa) = 23.45884 31.22038 27.33961
#
# Velocity S-wave (km/s) = 3.09007 3.56479 3.33588
# Velocity P-wave (km/s) = 5.32444 6.12044 5.73627
#
# Compressibility (1/GPa) = 0.02606116
#
# Stress axis : x y z
#
# Youngs Moduli (GPa) = 48.73935 47.07120 83.85863
#
# Poissons Ratio (x) = 0.22618 -0.00500
# Poissons Ratio (y) = 0.23420 0.76037
# Poissons Ratio (z) = -0.00291 0.42681
#
# Static dielectric constant tensor:
#      x y z
#    x 1.997280 0.000000 -0.001030 
#    y 0.000000 2.052770 0.000000 
#    z -0.001030 0.000000 1.977060 
# 
# From -- ./inp_files/67638.got.cif
#   From: 2010.05.17/outbox.cif.g08.bks.cpg/sg13_34_cif.got.tgz:67638.got - 2010.06.03 16:44:36.
