data_PCOD9233599
_publ_section_title
;
Structure prediction by ZEFSAII (Michael W. Deem and Ramdas Pophale) SiO2 
 PCOD9233599
Probable space group: P 2/C
;
_chemical_formula_sum "Si O2"
_cell_formula_units_Z 16
_cell_length_a 5.220004
_cell_length_b 19.146766
_cell_length_c 7.924336
_cell_angle_alpha 90.000000
_cell_angle_beta 60.942057
_cell_angle_gamma 90.000000
_cell_volume 692.316469
_symmetry_space_group_name_H-M "P 2/C"
_symmetry_group_IT_number 13
_symmetry_cell_setting 'monoclinic'
loop_
_space_group_symop_operation_xyz
x,y,z
-x,y,1/2-z
-x,-y,-z
x,-y,1/2+z
loop_
_atom_site_type_symbol
_atom_site_label
_atom_site_fract_x
_atom_site_fract_y
_atom_site_fract_z
Si Si1 0.000000 0.223658 0.250000
Si Si2 0.476080 0.405285 0.927167
Si Si3 0.000000 0.514951 0.750000
Si Si4 0.234587 0.098016 0.965037
Si Si5 0.000000 0.987570 0.250000
Si Si6 0.500000 0.318339 0.250000
O O1 0.231755 0.270912 0.274863
O O2 0.843187 0.172360 0.433419
O O3 0.500000 0.359889 0.750000
O O4 0.715506 0.466329 0.813342
O O5 0.146200 0.433727 0.065515
O O6 0.568180 0.366978 0.067690
O O7 0.500000 0.100969 0.750000
O O8 0.001281 0.062896 0.911883
O O9 0.250141 0.044636 0.119225
#
# Coordination Sequence:
#
# PCOD9233599 Si02
#       6
#     2   4   2   4   2   2
#     4  11  29  50  66 100 147 197 248 294 332 435
#     4  11  26  46  77 105 150 183 239 307 381 434
#     4  10  25  44  76 120 135 180 238 312 384 448
#     4  10  21  41  70 101 140 183 230 304 362 425
#     4   9  20  38  68 112 134 167 242 296 380 419
#     4  12  30  52  70 104 152 196 258 290 342 442
#
# _framework density 23.11082
#
# number of rings (size 3 to 8) (size 9 to 14) (size 15 to 20)
#    0.000    1.500    0.000    2.250   17.500    1.000 
#    4.500    0.000    0.000    0.000    0.000    0.000 
#    0.000    0.000    0.000    0.000    0.000    0.000 
#
# Total GULP energy -89186.209919 kJ/mol
# GULP energy per Si atom -5574.138120 kJ/mol
# Density = 2.305822 g / cm^3
# Si number density = 23.110820 Si / 1000 Ang^3
#
#
#
# Elastic Constant Matrix: (Units=GPa)
#
#
# Indices 1 2 3 4 5 6 
#
# 1 100.1566 56.5711 60.6773 0.0000 -0.7494 0.0000
# 2 56.5711 109.6213 70.8746 0.0000 5.1615 0.0000
# 3 60.6773 70.8746 221.7406 0.0000 10.7494 0.0000
# 4 0.0000 0.0000 0.0000 -32.2287 0.0000 -21.2956
# 5 -0.7494 5.1615 10.7494 0.0000 56.4944 0.0000
# 6 0.0000 0.0000 0.0000 -21.2956 0.0000 63.5047
#
#
#
# Elastic Compliance Matrix: (Units=1/GPa)
#
#
# Indices 1 2 3 4 5 6 
#
# 1 0.014857 -0.006374 -0.002085 0.000000 0.001176 0.000000
# 2 -0.006374 0.014240 -0.002766 0.000000 -0.000859 0.000000
# 3 -0.002085 -0.002766 0.006009 0.000000 -0.000918 0.000000
# 4 0.000000 0.000000 0.000000 -0.025400 0.000000 -0.008518
# 5 0.001176 -0.000859 -0.000918 0.000000 0.017970 0.000000
# 6 0.000000 0.000000 0.000000 -0.008518 0.000000 0.012891
#
#
# Mechanical properties :
#
#
# Convention : Reuss Voigt Hill
#
# Bulk Modulus (GPa) = 79.01429 89.75160 84.38295
# Shear Modulus (GPa) = 74.36624 33.78044 54.07334
#
# Velocity S-wave (km/s) = 5.67873 3.82733 4.84233
# Velocity P-wave (km/s) = 8.78981 7.64532 8.23747
#
# Compressibility (1/GPa) = 0.01265594
#
# Stress axis : x y z
#
# Youngs Moduli (GPa) = 67.30979 70.22258 166.42150
#
# Poissons Ratio (x) = 0.44762 0.34699
# Poissons Ratio (y) = 0.42905 0.46028
# Poissons Ratio (z) = 0.14034 0.19422
#
# Static dielectric constant tensor:
#      x y z
#    x 2.004530 0.000000 0.032740 
#    y 0.000000 1.864650 0.000000 
#    z 0.032740 0.000000 1.906910 
# 
# From -- ./inp_files/9304.got.cif
#   From: 2010.05.17/outbox.cif.g08.bks.cpg/sg13_5_cif.got.tgz:9304.got - 2010.06.03 16:44:36.
