data_PCOD9233449
_publ_section_title
;
Structure prediction by ZEFSAII (Michael W. Deem and Ramdas Pophale) SiO2 
 PCOD9233449
Probable space group: P 2/C
;
_chemical_formula_sum "Si O2"
_cell_formula_units_Z 18
_cell_length_a 6.472270
_cell_length_b 6.866251
_cell_length_c 17.776501
_cell_angle_alpha 90.000000
_cell_angle_beta 94.745772
_cell_angle_gamma 90.000000
_cell_volume 787.283400
_symmetry_space_group_name_H-M "P 2/C"
_symmetry_group_IT_number 13
_symmetry_cell_setting 'monoclinic'
loop_
_space_group_symop_operation_xyz
x,y,z
-x,y,1/2-z
-x,-y,-z
x,-y,1/2+z
loop_
_atom_site_type_symbol
_atom_site_label
_atom_site_fract_x
_atom_site_fract_y
_atom_site_fract_z
Si Si1 0.585496 0.065451 0.085437
Si Si2 0.704365 0.494981 0.611132
Si Si3 0.937927 0.175399 0.552862
Si Si4 0.670720 0.770528 0.347536
Si Si5 0.000000 0.614826 0.250000
O O1 0.631524 0.291469 0.087794
O O2 0.798306 0.947758 0.107441
O O3 0.422914 0.984916 0.141471
O O4 0.500000 0.000000 0.000000
O O5 0.789643 0.365333 0.543186
O O6 0.511548 0.382457 0.643487
O O7 0.892020 0.501425 0.678056
O O8 0.157348 0.257000 0.583384
O O9 0.000000 0.000000 0.500000
O O10 0.808939 0.738053 0.278294
#
# Coordination Sequence:
#
# PCOD9233449 Si02
#       5
#     4   4   4   4   2
#     4  11  23  43  65 106 139 175 227 285 363 417
#     4  10  24  42  69  94 134 184 224 293 346 415
#     4  10  21  41  62 101 137 174 220 273 347 414
#     4  10  22  43  68  95 135 175 226 285 345 404
#     4  10  22  48  64  90 130 180 240 274 348 414
#
# _framework density 22.863432
#
# number of rings (size 3 to 8) (size 9 to 14) (size 15 to 20)
#    0.000    1.778    2.222    0.667    0.000    8.000 
#    0.000   26.667    0.000    0.000    0.000    0.000 
#    0.000    0.000    0.000    0.000    0.000    0.000 
#
# Total GULP energy -100272.595581 kJ/mol
# GULP energy per Si atom -5570.699755 kJ/mol
# Density = 2.281139 g / cm^3
# Si number density = 22.863432 Si / 1000 Ang^3
#
#
#
# Elastic Constant Matrix: (Units=GPa)
#
#
# Indices 1 2 3 4 5 6 
#
# 1 155.1773 69.9890 40.2024 0.0000 -10.0432 0.0000
# 2 69.9890 203.3547 53.5471 0.0000 -10.3770 0.0000
# 3 40.2024 53.5471 83.9904 0.0000 -1.3526 0.0000
# 4 0.0000 0.0000 0.0000 15.9265 0.0000 5.5462
# 5 -10.0432 -10.3770 -1.3526 0.0000 43.9491 0.0000
# 6 0.0000 0.0000 0.0000 5.5462 0.0000 34.0158
#
#
#
# Elastic Compliance Matrix: (Units=1/GPa)
#
#
# Indices 1 2 3 4 5 6 
#
# 1 0.008116 -0.002055 -0.002554 0.000000 0.001291 0.000000
# 2 -0.002055 0.006503 -0.003147 0.000000 0.000969 0.000000
# 3 -0.002554 -0.003147 0.015121 0.000000 -0.000861 0.000000
# 4 0.000000 0.000000 0.000000 0.066568 0.000000 -0.010854
# 5 0.001291 0.000969 -0.000861 0.000000 0.023251 0.000000
# 6 0.000000 0.000000 0.000000 -0.010854 0.000000 0.031168
#
#
# Mechanical properties :
#
#
# Convention : Reuss Voigt Hill
#
# Bulk Modulus (GPa) = 70.27991 85.55551 77.91771
# Shear Modulus (GPa) = 29.24309 37.36388 33.30349
#
# Velocity S-wave (km/s) = 3.58024 4.04693 3.82072
# Velocity P-wave (km/s) = 6.92073 7.70314 7.32239
#
# Compressibility (1/GPa) = 0.01422882
#
# Stress axis : x y z
#
# Youngs Moduli (GPa) = 123.20840 153.78040 66.13434
#
# Poissons Ratio (x) = 0.31602 0.16891
# Poissons Ratio (y) = 0.25320 0.20809
# Poissons Ratio (z) = 0.31467 0.48387
#
# Static dielectric constant tensor:
#      x y z
#    x 1.892530 0.000000 0.022100 
#    y 0.000000 1.853940 0.000000 
#    z 0.022100 0.000000 1.979040 
# 
# From -- ./inp_files/83013.got.cif
#   From: 2010.05.17/outbox.cif.g08.bks.cpg/sg13_42_cif.got.tgz:83013.got - 2010.06.03 16:44:36.
