data_PCOD9233046
_publ_section_title
;
Structure prediction by ZEFSAII (Michael W. Deem and Ramdas Pophale) SiO2 
 PCOD9233046
Probable space group: P 2/C
;
_chemical_formula_sum "Si O2"
_cell_formula_units_Z 32
_cell_length_a 15.396634
_cell_length_b 5.197320
_cell_length_c 18.173931
_cell_angle_alpha 90.000000
_cell_angle_beta 91.822257
_cell_angle_gamma 90.000000
_cell_volume 1453.564918
_symmetry_space_group_name_H-M "P 2/C"
_symmetry_group_IT_number 13
_symmetry_cell_setting 'monoclinic'
loop_
_space_group_symop_operation_xyz
x,y,z
-x,y,1/2-z
-x,-y,-z
x,-y,1/2+z
loop_
_atom_site_type_symbol
_atom_site_label
_atom_site_fract_x
_atom_site_fract_y
_atom_site_fract_z
Si Si1 0.071786 0.238320 0.314790
Si Si2 0.765155 0.379132 0.512495
Si Si3 0.133656 0.225896 0.586235
Si Si4 0.059298 0.255011 0.913575
Si Si5 0.322587 0.612618 0.333621
Si Si6 0.807776 0.478966 0.777699
Si Si7 0.716648 0.843442 0.872282
Si Si8 0.399787 0.910985 0.765521
O O1 0.065556 0.465104 0.375181
O O2 0.159104 0.288759 0.271441
O O3 0.000000 0.262106 0.250000
O O4 0.065094 0.965942 0.352843
O O5 0.804752 0.624110 0.469754
O O6 0.855065 0.227799 0.533643
O O7 0.713884 0.429647 0.585879
O O8 0.700132 0.225993 0.456377
O O9 0.120960 0.371309 0.664940
O O10 0.035873 0.216681 0.552855
O O11 0.190086 0.985754 0.616831
O O12 0.238593 0.698666 0.282527
O O13 0.360249 0.345305 0.302653
O O14 0.387728 0.846743 0.319855
O O15 0.735821 0.574533 0.832640
O O16 0.649060 0.968628 0.814337
O O17 0.500000 0.866732 0.750000
#
# Coordination Sequence:
#
# PCOD9233046 Si02
#       8
#     4   4   4   4   4   4   4   4
#     4  12  24  38  62  93 131 174 246 297 336 376
#     4  11  27  43  65 102 142 191 232 282 344 416
#     4  11  23  44  62  93 139 192 236 284 348 403
#     4  12  27  39  64  94 138 190 238 290 333 396
#     4  11  24  43  75 104 138 177 226 281 344 417
#     4  10  21  39  63  95 126 181 231 287 335 406
#     4  10  24  42  72  94 140 183 226 278 358 418
#     4  11  25  49  78 109 136 173 227 288 354 429
#
# _framework density 22.01484
#
# number of rings (size 3 to 8) (size 9 to 14) (size 15 to 20)
#    0.000    1.000    3.750    1.875   10.500    0.500 
#    0.000    1.250    0.000    0.000    0.000    0.000 
#    0.000    0.000    0.000    0.000    0.000    0.000 
#
# Total GULP energy -178513.140780 kJ/mol
# GULP energy per Si atom -5578.535649 kJ/mol
# Density = 2.196473 g / cm^3
# Si number density = 22.014840 Si / 1000 Ang^3
#
#
#
# Elastic Constant Matrix: (Units=GPa)
#
#
# Indices 1 2 3 4 5 6 
#
# 1 80.9131 16.9578 48.0912 0.0000 -18.9538 0.0000
# 2 16.9578 84.5601 36.6141 0.0000 -12.2723 0.0000
# 3 48.0912 36.6141 142.3634 0.0000 -11.4943 0.0000
# 4 0.0000 0.0000 0.0000 29.7425 0.0000 -2.4574
# 5 -18.9538 -12.2723 -11.4943 0.0000 25.9225 0.0000
# 6 0.0000 0.0000 0.0000 -2.4574 0.0000 23.4046
#
#
#
# Elastic Compliance Matrix: (Units=1/GPa)
#
#
# Indices 1 2 3 4 5 6 
#
# 1 0.017997 0.000258 -0.005262 0.000000 0.010948 0.000000
# 2 0.000258 0.013956 -0.003244 0.000000 0.005358 0.000000
# 3 -0.005262 -0.003244 0.009543 0.000000 -0.001152 0.000000
# 4 0.000000 0.000000 0.000000 0.033916 0.000000 0.003561
# 5 0.010948 0.005358 -0.001152 0.000000 0.048607 0.000000
# 6 0.000000 0.000000 0.000000 0.003561 0.000000 0.043101
#
#
# Mechanical properties :
#
#
# Convention : Reuss Voigt Hill
#
# Bulk Modulus (GPa) = 39.99894 56.79585 48.39739
# Shear Modulus (GPa) = 26.04860 29.55882 27.80371
#
# Velocity S-wave (km/s) = 3.44354 3.66823 3.55766
# Velocity P-wave (km/s) = 5.83259 6.61786 6.23760
#
# Compressibility (1/GPa) = 0.02500066
#
# Stress axis : x y z
#
# Youngs Moduli (GPa) = 55.56559 71.65199 104.78758
#
# Poissons Ratio (x) = -0.01850 0.55138
# Poissons Ratio (y) = -0.01434 0.33993
# Poissons Ratio (z) = 0.29238 0.23244
#
# Static dielectric constant tensor:
#      x y z
#    x 1.843060 0.000000 0.030990 
#    y 0.000000 1.880280 0.000000 
#    z 0.030990 0.000000 1.855790 
# 
# From -- ./inp_files/67576.got.cif
#   From: 2010.05.17/outbox.cif.g08.bks.cpg/sg13_34_cif.got.tgz:67576.got - 2010.06.03 16:44:36.
