data_PCOD9233276
_publ_section_title
;
Structure prediction by ZEFSAII (Michael W. Deem and Ramdas Pophale) SiO2 
 PCOD9233276
Probable space group: P 2/C
;
_chemical_formula_sum "Si O2"
_cell_formula_units_Z 28
_cell_length_a 15.469749
_cell_length_b 5.675963
_cell_length_c 16.768710
_cell_angle_alpha 90.000000
_cell_angle_beta 50.746386
_cell_angle_gamma 90.000000
_cell_volume 1140.148219
_symmetry_space_group_name_H-M "P 2/C"
_symmetry_group_IT_number 13
_symmetry_cell_setting 'monoclinic'
loop_
_space_group_symop_operation_xyz
x,y,z
-x,y,1/2-z
-x,-y,-z
x,-y,1/2+z
loop_
_atom_site_type_symbol
_atom_site_label
_atom_site_fract_x
_atom_site_fract_y
_atom_site_fract_z
Si Si1 0.839715 0.556600 0.624098
Si Si2 0.268798 0.575747 0.957567
Si Si3 0.487561 0.050375 0.600785
Si Si4 0.985003 0.183748 0.578868
Si Si5 0.747989 0.077544 0.471673
Si Si6 0.519539 0.549495 0.832862
Si Si7 0.088675 0.164986 0.259258
O O1 0.725670 0.585851 0.642586
O O2 0.862883 0.293229 0.637372
O O3 0.870430 0.699356 0.685481
O O4 0.925717 0.620294 0.500740
O O5 0.386718 0.567704 0.935482
O O6 0.217112 0.825683 0.013691
O O7 0.214829 0.320832 0.007975
O O8 0.614644 0.073531 0.557869
O O9 0.437223 0.810519 0.667763
O O10 0.500000 0.000000 0.500000
O O11 0.435347 0.307377 0.652853
O O12 0.980880 0.056295 0.665526
O O13 0.000000 0.000000 0.500000
O O14 0.801094 0.096060 0.353410
O O15 0.500000 0.514982 0.750000
O O16 0.000000 0.287235 0.250000
#
# Coordination Sequence:
#
# PCOD9233276 Si02
#       7
#     4   4   4   4   4   4   4
#     4  10  22  38  61  83 113 160 204 249 303 355
#     4  10  23  41  63  86 124 160 198 249 304 358
#     4  10  21  41  64  92 127 166 195 250 317 371
#     4   9  21  38  55  81 112 150 207 244 304 346
#     4  10  24  41  61  90 126 159 201 247 307 359
#     4  10  21  40  63  96 121 160 206 251 300 367
#     4  11  24  37  57  87 121 158 206 254 299 357
#
# _framework density 24.558212000000001
#
# number of rings (size 3 to 8) (size 9 to 14) (size 15 to 20)
#    0.000    2.000    0.000    1.714   12.000    1.714 
#    2.571    0.000    0.000    0.000    0.000    0.000 
#    0.000    0.000    0.000    0.000    0.000    0.000 
#
# Total GULP energy -155963.217088 kJ/mol
# GULP energy per Si atom -5570.114896 kJ/mol
# Density = 2.450232 g / cm^3
# Si number density = 24.558212 Si / 1000 Ang^3
#
#
#
# Elastic Constant Matrix: (Units=GPa)
#
#
# Indices 1 2 3 4 5 6 
#
# 1 47.9574 20.9087 -11.2823 0.0000 18.7111 0.0000
# 2 20.9087 215.3285 59.5322 0.0000 21.8112 0.0000
# 3 -11.2823 59.5322 89.9631 0.0000 22.2290 0.0000
# 4 0.0000 0.0000 0.0000 25.8984 0.0000 13.7085
# 5 18.7111 21.8112 22.2290 0.0000 37.3087 0.0000
# 6 0.0000 0.0000 0.0000 13.7085 0.0000 16.6762
#
#
#
# Elastic Compliance Matrix: (Units=1/GPa)
#
#
# Indices 1 2 3 4 5 6 
#
# 1 0.034689 -0.004691 0.012988 0.000000 -0.022393 0.000000
# 2 -0.004691 0.006370 -0.005235 0.000000 0.001748 0.000000
# 3 0.012988 -0.005235 0.020008 0.000000 -0.015374 0.000000
# 4 0.000000 0.000000 0.000000 0.068355 0.000000 -0.056190
# 5 -0.022393 0.001748 -0.015374 0.000000 0.046172 0.000000
# 6 0.000000 0.000000 0.000000 -0.056190 0.000000 0.106156
#
#
# Mechanical properties :
#
#
# Convention : Reuss Voigt Hill
#
# Bulk Modulus (GPa) = 14.88321 54.61847 34.75084
# Shear Modulus (GPa) = 16.77723 34.91603 25.84663
#
# Velocity S-wave (km/s) = 2.61657 3.77472 3.24769
# Velocity P-wave (km/s) = 3.89899 6.42547 5.31455
#
# Compressibility (1/GPa) = 0.06718981
#
# Stress axis : x y z
#
# Youngs Moduli (GPa) = 28.82728 156.98715 49.98092
#
# Poissons Ratio (x) = 0.73640 -0.64914
# Poissons Ratio (y) = 0.13522 0.26167
# Poissons Ratio (z) = -0.37440 0.82189
#
# Static dielectric constant tensor:
#      x y z
#    x 2.135560 0.000000 -0.219970 
#    y 0.000000 1.970770 0.000000 
#    z -0.219970 0.000000 1.852530 
# 
# From -- ./inp_files/54564.got.cif
#   From: 2010.05.17/outbox.cif.g08.bks.cpg/sg13_28_cif.got.tgz:54564.got - 2010.06.03 16:44:36.
