data_PCOD9233603
_publ_section_title
;
Structure prediction by ZEFSAII (Michael W. Deem and Ramdas Pophale) SiO2 
 PCOD9233603
Probable space group: P 2/C
;
_chemical_formula_sum "Si O2"
_cell_formula_units_Z 22
_cell_length_a 12.862159
_cell_length_b 9.483120
_cell_length_c 7.915654
_cell_angle_alpha 90.000000
_cell_angle_beta 99.909926
_cell_angle_gamma 90.000000
_cell_volume 951.093504
_symmetry_space_group_name_H-M "P 2/C"
_symmetry_group_IT_number 13
_symmetry_cell_setting 'monoclinic'
loop_
_space_group_symop_operation_xyz
x,y,z
-x,y,1/2-z
-x,-y,-z
x,-y,1/2+z
loop_
_atom_site_type_symbol
_atom_site_label
_atom_site_fract_x
_atom_site_fract_y
_atom_site_fract_z
Si Si1 0.500000 0.365204 0.750000
Si Si2 0.293354 0.056689 0.129099
Si Si3 0.365851 0.211502 0.457863
Si Si4 0.716011 0.473920 0.245284
Si Si5 0.060747 0.128696 0.101238
Si Si6 0.198595 0.293493 0.922877
O O1 0.468942 0.271749 0.578871
O O2 0.400110 0.460918 0.767623
O O3 0.374445 0.127841 0.282545
O O4 0.177804 0.073268 0.183594
O O5 0.273622 0.155565 0.957397
O O6 0.318312 0.901601 0.074428
O O7 0.293815 0.347724 0.394958
O O8 0.752133 0.393282 0.420316
O O9 0.792711 0.606118 0.233147
O O10 0.086642 0.242044 0.962934
O O11 0.000000 0.179683 0.250000
O O12 0.000000 0.000000 0.000000
#
# Coordination Sequence:
#
# PCOD9233603 Si02
#       6
#     2   4   4   4   4   4
#     4  12  26  38  72  96 136 190 238 268 332 402
#     4   9  23  41  65  95 132 175 216 284 342 384
#     4  11  23  42  64  95 135 180 229 278 332 393
#     4  11  22  45  65  97 136 187 224 276 336 405
#     4  10  21  41  70  98 128 165 218 273 343 413
#     4   9  23  40  70  92 135 176 221 278 349 395
#
# _framework density 23.131269
#
# number of rings (size 3 to 8) (size 9 to 14) (size 15 to 20)
#    1.091    0.727    1.818    1.636    2.545    0.727 
#    0.000    0.909    0.000    0.000    0.000    0.000 
#    0.000    0.000    0.000    0.000    0.000    0.000 
#
# Total GULP energy -122769.353578 kJ/mol
# GULP energy per Si atom -5580.425163 kJ/mol
# Density = 2.307862 g / cm^3
# Si number density = 23.131269 Si / 1000 Ang^3
#
#
#
# Elastic Constant Matrix: (Units=GPa)
#
#
# Indices 1 2 3 4 5 6 
#
# 1 65.5391 46.0586 -5.8916 0.0000 -15.6735 0.0000
# 2 46.0586 127.4161 17.7883 0.0000 -14.2819 0.0000
# 3 -5.8916 17.7883 47.9578 0.0000 4.0496 0.0000
# 4 0.0000 0.0000 0.0000 218.1419 0.0000 -29.5832
# 5 -15.6735 -14.2819 4.0496 0.0000 31.8548 0.0000
# 6 0.0000 0.0000 0.0000 -29.5832 0.0000 51.8892
#
#
#
# Elastic Compliance Matrix: (Units=1/GPa)
#
#
# Indices 1 2 3 4 5 6 
#
# 1 0.023322 -0.008395 0.005386 0.000000 0.007027 0.000000
# 2 -0.008395 0.011878 -0.005598 0.000000 0.001907 0.000000
# 3 0.005386 -0.005598 0.023834 0.000000 -0.002890 0.000000
# 4 0.000000 0.000000 0.000000 0.004968 0.000000 0.002833
# 5 0.007027 0.001907 -0.002890 0.000000 0.036072 0.000000
# 6 0.000000 0.000000 0.000000 0.002833 0.000000 0.020887
#
#
# Mechanical properties :
#
#
# Convention : Reuss Voigt Hill
#
# Bulk Modulus (GPa) = 23.91234 39.64707 31.77970
# Shear Modulus (GPa) = 32.86972 72.57437 52.72204
#
# Velocity S-wave (km/s) = 3.77372 5.60742 4.77933
# Velocity P-wave (km/s) = 5.41738 7.68774 6.65017
#
# Compressibility (1/GPa) = 0.04181942
#
# Stress axis : x y z
#
# Youngs Moduli (GPa) = 42.87753 84.18833 41.95734
#
# Poissons Ratio (x) = 0.70675 -0.22596
# Poissons Ratio (y) = 0.35995 0.23488
# Poissons Ratio (z) = -0.23092 0.47129
#
# Static dielectric constant tensor:
#      x y z
#    x 1.891370 0.000000 -0.057000 
#    y 0.000000 1.880980 0.000000 
#    z -0.057000 0.000000 1.991360 
# 
# From -- ./inp_files/18170.got.cif
#   From: 2010.05.17/outbox.cif.g08.bks.cpg/sg13_10_cif.got.tgz:18170.got - 2010.06.03 16:44:36.
