data_PCOD9233443
_publ_section_title
;
Structure prediction by ZEFSAII (Michael W. Deem and Ramdas Pophale) SiO2 
 PCOD9233443
Probable space group: P 2/C
;
_chemical_formula_sum "Si O2"
_cell_formula_units_Z 26
_cell_length_a 17.434738
_cell_length_b 6.313561
_cell_length_c 12.251485
_cell_angle_alpha 90.000000
_cell_angle_beta 119.176599
_cell_angle_gamma 90.000000
_cell_volume 1177.478813
_symmetry_space_group_name_H-M "P 2/C"
_symmetry_group_IT_number 13
_symmetry_cell_setting 'monoclinic'
loop_
_space_group_symop_operation_xyz
x,y,z
-x,y,1/2-z
-x,-y,-z
x,-y,1/2+z
loop_
_atom_site_type_symbol
_atom_site_label
_atom_site_fract_x
_atom_site_fract_y
_atom_site_fract_z
Si Si1 0.356577 0.311178 0.811242
Si Si2 0.354483 0.966787 0.517214
Si Si3 0.942421 0.188518 0.007172
Si Si4 0.500000 0.781161 0.250000
Si Si5 0.762451 0.685156 0.684909
Si Si6 0.936947 0.529006 0.293036
Si Si7 0.770818 0.971232 0.893176
O O1 0.438685 0.350561 0.789206
O O2 0.305486 0.517236 0.813177
O O3 0.382613 0.183267 0.938282
O O4 0.290639 0.154439 0.700774
O O5 0.437029 0.069856 0.634258
O O6 0.292642 0.154768 0.427701
O O7 0.290075 0.855258 0.560310
O O8 0.915147 0.329355 0.883287
O O9 0.857000 0.082017 0.000602
O O10 0.000541 0.337356 0.123865
O O11 0.000000 0.000000 0.000000
O O12 0.844269 0.562676 0.687717
O O13 0.798284 0.818905 0.813243
O O14 0.000000 0.646631 0.250000
#
# Coordination Sequence:
#
# PCOD9233443 Si02
#       7
#     4   4   4   2   4   4   4
#     4  10  22  41  65  91 126 158 206 255 309 379
#     4  10  23  40  67  91 121 163 205 255 312 378
#     4  11  22  40  61  90 126 168 211 254 301 360
#     4  10  22  44  66  94 124 160 200 260 324 374
#     4  11  22  41  62  92 126 164 208 252 313 368
#     4  11  24  39  61  93 128 165 213 259 298 361
#     4  10  21  41  61  89 128 168 204 253 308 362
#
# _framework density 22.081078000000002
#
# number of rings (size 3 to 8) (size 9 to 14) (size 15 to 20)
#    0.000    1.538    3.077    1.385    0.000    4.923 
#    0.000    7.692    0.000    0.000    0.000    0.000 
#    0.000    0.000    0.000    0.000    0.000    0.000 
#
# Total GULP energy -145381.974488 kJ/mol
# GULP energy per Si atom -5591.614403 kJ/mol
# Density = 2.203082 g / cm^3
# Si number density = 22.081078 Si / 1000 Ang^3
#
#
#
# Elastic Constant Matrix: (Units=GPa)
#
#
# Indices 1 2 3 4 5 6 
#
# 1 141.7737 5.4714 17.2924 0.0000 4.4344 0.0000
# 2 5.4714 37.1528 8.5252 0.0000 6.6211 0.0000
# 3 17.2924 8.5252 71.2294 0.0000 9.0278 0.0000
# 4 0.0000 0.0000 0.0000 9.0047 0.0000 -1.4867
# 5 4.4344 6.6211 9.0278 0.0000 26.8763 0.0000
# 6 0.0000 0.0000 0.0000 -1.4867 0.0000 27.9031
#
#
#
# Elastic Compliance Matrix: (Units=1/GPa)
#
#
# Indices 1 2 3 4 5 6 
#
# 1 0.007292 -0.000609 -0.001633 0.000000 -0.000504 0.000000
# 2 -0.000609 0.028672 -0.002508 0.000000 -0.006120 0.000000
# 3 -0.001633 -0.002508 0.015274 0.000000 -0.004243 0.000000
# 4 0.000000 0.000000 0.000000 0.112039 0.000000 0.005970
# 5 -0.000504 -0.006120 -0.004243 0.000000 0.040224 0.000000
# 6 0.000000 0.000000 0.000000 0.005970 0.000000 0.036156
#
#
# Mechanical properties :
#
#
# Convention : Reuss Voigt Hill
#
# Bulk Modulus (GPa) = 23.95997 34.74819 29.35408
# Shear Modulus (GPa) = 19.00632 27.34793 23.17712
#
# Velocity S-wave (km/s) = 2.93704 3.52308 3.24333
# Velocity P-wave (km/s) = 4.73033 5.68509 5.22955
#
# Compressibility (1/GPa) = 0.04173629
#
# Stress axis : x y z
#
# Youngs Moduli (GPa) = 137.13635 34.87739 65.47215
#
# Poissons Ratio (x) = 0.02125 0.10695
# Poissons Ratio (y) = 0.08354 0.16421
# Poissons Ratio (z) = 0.22400 0.08747
#
# Static dielectric constant tensor:
#      x y z
#    x 1.823990 0.000000 -0.045290 
#    y 0.000000 1.763360 0.000000 
#    z -0.045290 0.000000 1.832270 
# 
# From -- ./inp_files/54511.got.cif
#   From: 2010.05.17/outbox.cif.g08.bks.cpg/sg13_28_cif.got.tgz:54511.got - 2010.06.03 16:44:36.
