data_PCOD9233190
_publ_section_title
;
Structure prediction by ZEFSAII (Michael W. Deem and Ramdas Pophale) SiO2 
 PCOD9233190
Probable space group: P 2/C
;
_chemical_formula_sum "Si O2"
_cell_formula_units_Z 30
_cell_length_a 14.130057
_cell_length_b 5.112176
_cell_length_c 15.973624
_cell_angle_alpha 90.000000
_cell_angle_beta 80.657450
_cell_angle_gamma 90.000000
_cell_volume 1138.554676
_symmetry_space_group_name_H-M "P 2/C"
_symmetry_group_IT_number 13
_symmetry_cell_setting 'monoclinic'
loop_
_space_group_symop_operation_xyz
x,y,z
-x,y,1/2-z
-x,-y,-z
x,-y,1/2+z
loop_
_atom_site_type_symbol
_atom_site_label
_atom_site_fract_x
_atom_site_fract_y
_atom_site_fract_z
Si Si1 0.033067 0.252909 0.835970
Si Si2 0.243199 0.043039 0.611646
Si Si3 0.536982 0.872527 0.410322
Si Si4 0.066005 0.739384 0.910314
Si Si5 0.631459 0.567428 0.130234
Si Si6 0.805165 0.481806 0.479353
Si Si7 0.770052 0.045632 0.696345
Si Si8 0.500000 0.213348 0.250000
O O1 0.006498 0.550293 0.857956
O O2 0.149223 0.272131 0.813312
O O3 0.000000 0.158201 0.750000
O O4 0.014661 0.025412 0.908114
O O5 0.351206 0.151423 0.590227
O O6 0.185783 0.300783 0.594153
O O7 0.237579 0.953540 0.707870
O O8 0.212533 0.807235 0.555069
O O9 0.468209 0.627754 0.402846
O O10 0.500000 0.000000 0.500000
O O11 0.524117 0.044876 0.328386
O O12 0.100825 0.540846 0.978400
O O13 0.171499 0.833651 0.864060
O O14 0.710078 0.475994 0.051481
O O15 0.678271 0.827460 0.165386
O O16 0.593999 0.383334 0.210558
#
# Coordination Sequence:
#
# PCOD9233190 Si02
#       8
#     4   4   4   4   4   4   4   2
#     4  10  21  39  73 106 129 165 223 277 331 406
#     4  12  27  41  66  97 138 176 233 283 341 400
#     4  12  27  44  61  97 134 185 237 298 349 402
#     4  10  22  42  69  99 130 175 219 269 332 412
#     4  12  25  45  65  94 131 185 235 286 349 406
#     4  12  25  43  68  96 134 183 223 277 344 408
#     4  10  25  41  70  99 132 175 225 283 337 407
#     4  12  28  40  70  88 138 180 242 294 358 398
#
# _framework density 26.349195000000002
#
# number of rings (size 3 to 8) (size 9 to 14) (size 15 to 20)
#    0.800    0.000    2.667    4.800    9.333    1.067 
#    0.000    0.000    0.000    4.800    0.000    0.000 
#    0.000    0.000    0.000    0.000    0.000    0.000 
#
# Total GULP energy -167665.551364 kJ/mol
# GULP energy per Si atom -5588.851712 kJ/mol
# Density = 2.628922 g / cm^3
# Si number density = 26.349195 Si / 1000 Ang^3
#
#
#
# Elastic Constant Matrix: (Units=GPa)
#
#
# Indices 1 2 3 4 5 6 
#
# 1 109.7565 26.7836 13.9086 0.0000 18.0478 0.0000
# 2 26.7836 123.1031 27.5072 0.0000 25.8552 0.0000
# 3 13.9086 27.5072 114.8970 0.0000 12.6954 0.0000
# 4 0.0000 0.0000 0.0000 44.0894 0.0000 14.4482
# 5 18.0478 25.8552 12.6954 0.0000 44.5461 0.0000
# 6 0.0000 0.0000 0.0000 14.4482 0.0000 31.5564
#
#
#
# Elastic Compliance Matrix: (Units=1/GPa)
#
#
# Indices 1 2 3 4 5 6 
#
# 1 0.010032 -0.001414 -0.000534 0.000000 -0.003092 0.000000
# 2 -0.001414 0.009773 -0.001657 0.000000 -0.004627 0.000000
# 3 -0.000534 -0.001657 0.009328 0.000000 -0.001480 0.000000
# 4 0.000000 0.000000 0.000000 0.026685 0.000000 -0.012218
# 5 -0.003092 -0.004627 -0.001480 0.000000 0.026809 0.000000
# 6 0.000000 0.000000 0.000000 -0.012218 0.000000 0.037283
#
#
# Mechanical properties :
#
#
# Convention : Reuss Voigt Hill
#
# Bulk Modulus (GPa) = 45.61519 53.79504 49.70511
# Shear Modulus (GPa) = 37.19425 42.67555 39.93490
#
# Velocity S-wave (km/s) = 3.76119 4.02881 3.89730
# Velocity P-wave (km/s) = 6.01759 6.48863 6.25754
#
# Compressibility (1/GPa) = 0.02192252
#
# Stress axis : x y z
#
# Youngs Moduli (GPa) = 99.67905 102.32182 107.19899
#
# Poissons Ratio (x) = 0.14468 0.05728
# Poissons Ratio (y) = 0.14095 0.17766
# Poissons Ratio (z) = 0.05326 0.16958
#
# Static dielectric constant tensor:
#      x y z
#    x 1.693400 0.000000 -0.222750 
#    y 0.000000 1.940710 0.000000 
#    z -0.222750 0.000000 2.018560 
# 
# From -- ./inp_files/54675.got.cif
#   From: 2010.05.17/outbox.cif.g08.bks.cpg/sg13_28_cif.got.tgz:54675.got - 2010.06.03 16:44:36.
