data_PCOD9233515
_publ_section_title
;
Structure prediction by ZEFSAII (Michael W. Deem and Ramdas Pophale) SiO2 
 PCOD9233515
Probable space group: P 2/C
;
_chemical_formula_sum "Si O2"
_cell_formula_units_Z 20
_cell_length_a 13.103143
_cell_length_b 4.914912
_cell_length_c 12.457323
_cell_angle_alpha 90.000000
_cell_angle_beta 95.341503
_cell_angle_gamma 90.000000
_cell_volume 798.777703
_symmetry_space_group_name_H-M "P 2/C"
_symmetry_group_IT_number 13
_symmetry_cell_setting 'monoclinic'
loop_
_space_group_symop_operation_xyz
x,y,z
-x,y,1/2-z
-x,-y,-z
x,-y,1/2+z
loop_
_atom_site_type_symbol
_atom_site_label
_atom_site_fract_x
_atom_site_fract_y
_atom_site_fract_z
Si Si1 0.133329 0.069843 0.630946
Si Si2 0.926247 0.316509 0.561778
Si Si3 0.672955 0.098933 0.954447
Si Si4 0.741023 0.787569 0.168984
Si Si5 0.604287 0.560564 0.820590
O O1 0.125955 0.845892 0.539364
O O2 0.220304 0.245153 0.575551
O O3 0.189137 0.019564 0.748013
O O4 0.016042 0.157703 0.634302
O O5 0.831893 0.397340 0.626368
O O6 0.000000 0.500000 0.500000
O O7 0.648830 0.837055 0.876672
O O8 0.593206 0.336626 0.916023
O O9 0.684728 0.973227 0.074420
O O10 0.668903 0.599087 0.234213
O O11 0.500000 0.632614 0.750000
#
# Coordination Sequence:
#
# PCOD9233515 Si02
#       5
#     4   4   4   4   4
#     4   9  21  41  59  94 134 170 221 269 329 399
#     4  10  21  41  65  95 132 175 232 274 325 411
#     4  10  24  43  70  99 137 170 231 279 336 415
#     4  10  23  42  66  98 134 182 219 280 346 393
#     4  11  25  47  70 100 135 175 229 287 341 405
#
# _framework density 25.038253999999998
#
# number of rings (size 3 to 8) (size 9 to 14) (size 15 to 20)
#    0.000    2.000    0.000    1.200   11.200    4.800 
#   18.000    0.000    0.000    0.000    0.000    0.000 
#    0.000    0.000    0.000    0.000    0.000    0.000 
#
# Total GULP energy -111364.745275 kJ/mol
# GULP energy per Si atom -5568.237264 kJ/mol
# Density = 2.498127 g / cm^3
# Si number density = 25.038254 Si / 1000 Ang^3
#
#
#
# Elastic Constant Matrix: (Units=GPa)
#
#
# Indices 1 2 3 4 5 6 
#
# 1 86.1435 18.3252 62.6566 0.0000 26.4415 0.0000
# 2 18.3252 66.8521 46.1217 0.0000 19.1757 0.0000
# 3 62.6566 46.1217 162.9759 0.0000 30.7529 0.0000
# 4 0.0000 0.0000 0.0000 102.3758 0.0000 -9.7333
# 5 26.4415 19.1757 30.7529 0.0000 42.4570 0.0000
# 6 0.0000 0.0000 0.0000 -9.7333 0.0000 28.5320
#
#
#
# Elastic Compliance Matrix: (Units=1/GPa)
#
#
# Indices 1 2 3 4 5 6 
#
# 1 0.017866 0.001260 -0.005813 0.000000 -0.007485 0.000000
# 2 0.001260 0.019771 -0.004919 0.000000 -0.006151 0.000000
# 3 -0.005813 -0.004919 0.010031 0.000000 -0.001424 0.000000
# 4 0.000000 0.000000 0.000000 0.010095 0.000000 0.003444
# 5 -0.007485 -0.006151 -0.001424 0.000000 0.032025 0.000000
# 6 0.000000 0.000000 0.000000 0.003444 0.000000 0.036223
#
#
# Mechanical properties :
#
#
# Convention : Reuss Voigt Hill
#
# Bulk Modulus (GPa) = 34.81253 63.35318 49.08285
# Shear Modulus (GPa) = 32.35613 47.26416 39.81014
#
# Velocity S-wave (km/s) = 3.59871 4.34946 3.99177
# Velocity P-wave (km/s) = 5.58584 7.11204 6.39464
#
# Compressibility (1/GPa) = 0.02872529
#
# Stress axis : x y z
#
# Youngs Moduli (GPa) = 55.97209 50.57917 99.68699
#
# Poissons Ratio (x) = -0.06373 0.57946
# Poissons Ratio (y) = -0.07052 0.49034
# Poissons Ratio (z) = 0.32535 0.24879
#
# Static dielectric constant tensor:
#      x y z
#    x 1.386210 0.000000 0.220390 
#    y 0.000000 2.152510 0.000000 
#    z 0.220390 0.000000 1.856770 
# 
# From -- ./inp_files/35499.got.cif
#   From: 2010.05.17/outbox.cif.g08.bks.cpg/sg13_18_cif.got.tgz:35499.got - 2010.06.03 16:44:36.
