data_PCOD9233015
_publ_section_title
;
Structure prediction by ZEFSAII (Michael W. Deem and Ramdas Pophale) SiO2 
 PCOD9233015
Probable space group: P 2/C
;
_chemical_formula_sum "Si O2"
_cell_formula_units_Z 28
_cell_length_a 11.345648
_cell_length_b 8.595971
_cell_length_c 14.626032
_cell_angle_alpha 90.000000
_cell_angle_beta 109.274669
_cell_angle_gamma 90.000000
_cell_volume 1346.475232
_symmetry_space_group_name_H-M "P 2/C"
_symmetry_group_IT_number 13
_symmetry_cell_setting 'monoclinic'
loop_
_space_group_symop_operation_xyz
x,y,z
-x,y,1/2-z
-x,-y,-z
x,-y,1/2+z
loop_
_atom_site_type_symbol
_atom_site_label
_atom_site_fract_x
_atom_site_fract_y
_atom_site_fract_z
Si Si1 0.388888 0.434452 0.096761
Si Si2 0.149486 0.348383 0.540695
Si Si3 0.313974 0.935929 0.263608
Si Si4 0.028393 0.541197 0.358582
Si Si5 0.500000 0.324388 0.750000
Si Si6 0.739084 0.233739 0.563939
Si Si7 0.149751 0.995866 0.052861
Si Si8 0.500000 0.182519 0.250000
O O1 0.258991 0.525970 0.071367
O O2 0.486363 0.563986 0.157810
O O3 0.407800 0.295368 0.172791
O O4 0.377727 0.341595 0.998253
O O5 0.055312 0.403717 0.437071
O O6 0.191264 0.174927 0.529224
O O7 0.079238 0.357162 0.620086
O O8 0.381488 0.788130 0.232152
O O9 0.282174 0.877968 0.356033
O O10 0.200997 0.996185 0.170395
O O11 0.418336 0.070722 0.292902
O O12 0.149649 0.649167 0.382692
O O13 0.000000 0.485022 0.250000
O O14 0.786779 0.130186 0.490737
O O15 0.000000 0.000000 0.000000
#
# Coordination Sequence:
#
# PCOD9233015 Si02
#       8
#     4   4   4   4   2   4   4   2
#     4  10  21  42  67  93 125 170 213 273 325 380
#     4  10  21  40  63  88 130 166 208 266 331 383
#     4  11  24  43  67  96 130 176 217 273 325 392
#     4  10  21  39  62  92 124 168 211 265 319 390
#     4  10  22  42  70  92 130 172 218 266 334 378
#     4  11  24  40  65  97 130 169 223 263 328 396
#     4  12  23  43  64  93 134 171 210 269 327 396
#     4  10  22  44  66  94 130 176 220 274 328 376
#
# _framework density 20.795037000000001
#
# number of rings (size 3 to 8) (size 9 to 14) (size 15 to 20)
#    0.000    1.429    4.286    0.857    0.000    1.143 
#    5.143    1.429    0.000    0.000    0.000    0.000 
#    0.000    0.000    0.000    0.000    0.000    0.000 
#
# Total GULP energy -156146.347353 kJ/mol
# GULP energy per Si atom -5576.655263 kJ/mol
# Density = 2.074771 g / cm^3
# Si number density = 20.795037 Si / 1000 Ang^3
#
#
#
# Elastic Constant Matrix: (Units=GPa)
#
#
# Indices 1 2 3 4 5 6 
#
# 1 39.6356 13.3106 38.0148 0.0000 9.1727 0.0000
# 2 13.3106 81.4957 29.0485 0.0000 10.5373 0.0000
# 3 38.0148 29.0485 133.9504 0.0000 5.0138 0.0000
# 4 0.0000 0.0000 0.0000 30.1610 0.0000 13.7911
# 5 9.1727 10.5373 5.0138 0.0000 26.7557 0.0000
# 6 0.0000 0.0000 0.0000 13.7911 0.0000 15.7932
#
#
#
# Elastic Compliance Matrix: (Units=1/GPa)
#
#
# Indices 1 2 3 4 5 6 
#
# 1 0.037718 -0.001213 -0.010046 0.000000 -0.010571 0.000000
# 2 -0.001213 0.013960 -0.002510 0.000000 -0.004612 0.000000
# 3 -0.010046 -0.002510 0.010770 0.000000 0.002414 0.000000
# 4 0.000000 0.000000 0.000000 0.055193 0.000000 -0.048197
# 5 -0.010571 -0.004612 0.002414 0.000000 0.042363 0.000000
# 6 0.000000 0.000000 0.000000 -0.048197 0.000000 0.105405
#
#
# Mechanical properties :
#
#
# Convention : Reuss Voigt Hill
#
# Bulk Modulus (GPa) = 28.64478 46.20328 37.42403
# Shear Modulus (GPa) = 16.41575 26.18916 21.30246
#
# Velocity S-wave (km/s) = 2.81269 3.55265 3.20410
# Velocity P-wave (km/s) = 4.93488 6.25260 5.63241
#
# Compressibility (1/GPa) = 0.03491037
#
# Stress axis : x y z
#
# Youngs Moduli (GPa) = 26.51226 71.63416 92.84676
#
# Poissons Ratio (x) = 0.08689 0.93271
# Poissons Ratio (y) = 0.03216 0.23309
# Poissons Ratio (z) = 0.26633 0.17984
#
# Static dielectric constant tensor:
#      x y z
#    x 1.762020 0.000000 0.040590 
#    y 0.000000 1.737130 0.000000 
#    z 0.040590 0.000000 1.779780 
# 
# From -- ./inp_files/50133.got.cif
#   From: 2010.05.17/outbox.cif.g08.bks.cpg/sg13_26_cif.got.tgz:50133.got - 2010.06.03 16:44:36.
