data_PCOD9233711
_publ_section_title
;
Structure prediction by ZEFSAII (Michael W. Deem and Ramdas Pophale) SiO2 
 PCOD9233711
Probable space group: P 2/C
;
_chemical_formula_sum "Si O2"
_cell_formula_units_Z 24
_cell_length_a 8.867940
_cell_length_b 5.581655
_cell_length_c 23.911401
_cell_angle_alpha 90.000000
_cell_angle_beta 96.123912
_cell_angle_gamma 90.000000
_cell_volume 1176.807323
_symmetry_space_group_name_H-M "P 2/C"
_symmetry_group_IT_number 13
_symmetry_cell_setting 'monoclinic'
loop_
_space_group_symop_operation_xyz
x,y,z
-x,y,1/2-z
-x,-y,-z
x,-y,1/2+z
loop_
_atom_site_type_symbol
_atom_site_label
_atom_site_fract_x
_atom_site_fract_y
_atom_site_fract_z
Si Si1 0.572224 0.751273 0.479086
Si Si2 0.259454 0.495352 0.279809
Si Si3 0.562626 0.143918 0.643961
Si Si4 0.000000 0.163790 0.750000
Si Si5 0.070501 0.248706 0.479469
Si Si6 0.122305 0.866779 0.856118
Si Si7 0.500000 0.157794 0.250000
O O1 0.500000 0.500000 0.500000
O O2 0.539900 0.781105 0.411808
O O3 0.750308 0.744974 0.499648
O O4 0.500000 0.000000 0.500000
O O5 0.387750 0.620739 0.321224
O O6 0.152302 0.684809 0.246454
O O7 0.156669 0.365302 0.320985
O O8 0.345659 0.309619 0.244821
O O9 0.717400 0.009747 0.629109
O O10 0.497593 0.984685 0.691688
O O11 0.973952 0.021915 0.691441
O O12 0.054994 0.215547 0.411987
O O13 0.000000 0.500000 0.500000
O O14 0.000000 0.000000 0.500000
#
# Coordination Sequence:
#
# PCOD9233711 Si02
#       7
#     4   4   4   2   4   4   2
#     4  12  25  48  80 104 137 201 256 288 366 443
#     4  10  21  42  67  98 139 181 228 293 358 429
#     4  10  22  42  71 101 134 181 242 300 346 440
#     4  10  22  40  70 102 130 192 234 276 362 446
#     4  12  28  50  70 110 152 189 241 316 362 421
#     4  10  22  44  70  97 139 185 239 288 361 433
#     4  10  22  42  66 106 144 170 232 304 366 398
#
# _framework density 20.394161
#
# number of rings (size 3 to 8) (size 9 to 14) (size 15 to 20)
#    0.000    1.333    1.667    3.000    7.000    0.000 
#   15.000    0.000    0.000    0.000    0.000    0.000 
#    0.000    0.000    0.000    0.000    0.000    0.000 
#
# Total GULP energy -133938.526607 kJ/mol
# GULP energy per Si atom -5580.771942 kJ/mol
# Density = 2.034774 g / cm^3
# Si number density = 20.394161 Si / 1000 Ang^3
#
#
#
# Elastic Constant Matrix: (Units=GPa)
#
#
# Indices 1 2 3 4 5 6 
#
# 1 104.9975 69.9525 78.5706 0.0000 9.5782 0.0000
# 2 69.9525 154.9204 84.7083 0.0000 -8.3420 0.0000
# 3 78.5706 84.7083 169.6785 0.0000 2.9708 0.0000
# 4 0.0000 0.0000 0.0000 -435.1567 0.0000 62.4188
# 5 9.5782 -8.3420 2.9708 0.0000 39.9588 0.0000
# 6 0.0000 0.0000 0.0000 62.4188 0.0000 23.8833
#
#
#
# Elastic Compliance Matrix: (Units=1/GPa)
#
#
# Indices 1 2 3 4 5 6 
#
# 1 0.017483 -0.005195 -0.005417 0.000000 -0.004872 0.000000
# 2 -0.005195 0.010617 -0.002959 0.000000 0.003682 0.000000
# 3 -0.005417 -0.002959 0.009880 0.000000 -0.000054 0.000000
# 4 0.000000 0.000000 0.000000 -0.001671 0.000000 0.004368
# 5 -0.004872 0.003682 -0.000054 0.000000 0.026966 0.000000
# 6 0.000000 0.000000 0.000000 0.004368 0.000000 0.030454
#
#
# Mechanical properties :
#
#
# Convention : Reuss Voigt Hill
#
# Bulk Modulus (GPa) = 92.26663 99.56212 95.91438
# Shear Modulus (GPa) = 40.16614 -61.17194 -10.50290
#
# Velocity S-wave (km/s) = 4.44271 -5.48270 -2.27181
# Velocity P-wave (km/s) = 8.46503 2.97405 6.34436
#
# Compressibility (1/GPa) = 0.01083815
#
# Stress axis : x y z
#
# Youngs Moduli (GPa) = 57.19885 94.18993 101.21329
#
# Poissons Ratio (x) = 0.48928 0.54826
# Poissons Ratio (y) = 0.29713 0.29952
# Poissons Ratio (z) = 0.30984 0.27873
#
# Static dielectric constant tensor:
#      x y z
#    x 1.665990 0.000000 0.032650 
#    y 0.000000 1.851260 0.000000 
#    z 0.032650 0.000000 1.706240 
# 
# From -- ./inp_files/84363.got.cif
#   From: 2010.05.17/outbox.cif.g08.bks.cpg/sg13_43_cif.got.tgz:84363.got - 2010.06.03 16:44:36.
