data_PCOD9233652
_publ_section_title
;
Structure prediction by ZEFSAII (Michael W. Deem and Ramdas Pophale) SiO2 
 PCOD9233652
Probable space group: P 2/C
;
_chemical_formula_sum "Si O2"
_cell_formula_units_Z 28
_cell_length_a 8.452292
_cell_length_b 9.219598
_cell_length_c 27.303680
_cell_angle_alpha 90.000000
_cell_angle_beta 40.489639
_cell_angle_gamma 90.000000
_cell_volume 1381.529329
_symmetry_space_group_name_H-M "P 2/C"
_symmetry_group_IT_number 13
_symmetry_cell_setting 'monoclinic'
loop_
_space_group_symop_operation_xyz
x,y,z
-x,y,1/2-z
-x,-y,-z
x,-y,1/2+z
loop_
_atom_site_type_symbol
_atom_site_label
_atom_site_fract_x
_atom_site_fract_y
_atom_site_fract_z
Si Si1 0.663063 0.059271 0.915378
Si Si2 0.004206 0.622778 0.458637
Si Si3 0.218205 0.531276 0.813472
Si Si4 0.067348 0.805862 0.614675
Si Si5 0.529332 0.412906 0.442078
Si Si6 0.134359 0.353054 0.670321
Si Si7 0.804992 0.883370 0.027702
O O1 0.763545 0.223691 0.888113
O O2 0.467825 0.055010 0.916689
O O3 0.900832 0.957686 0.864744
O O4 0.500000 0.000000 0.000000
O O5 0.720817 0.659837 0.516029
O O6 0.000000 0.500000 0.500000
O O7 0.098653 0.543457 0.388555
O O8 0.168170 0.753534 0.439797
O O9 0.500000 0.502386 0.750000
O O10 0.165693 0.703389 0.824762
O O11 0.077146 0.451569 0.803276
O O12 0.278276 0.709659 0.589925
O O13 0.117270 0.826431 0.544855
O O14 0.500000 0.500000 0.500000
O O15 0.641450 0.531725 0.378027
O O16 0.000000 0.291553 0.750000
O O17 0.000000 0.000000 0.000000
#
# Coordination Sequence:
#
# PCOD9233652 Si02
#       7
#     4   4   4   4   4   4   4
#     4  10  22  41  66  91 132 174 225 266 328 411
#     4  12  22  38  68 100 131 165 224 277 329 390
#     4  11  26  43  64  97 135 173 216 283 348 388
#     4  10  21  42  63  90 129 172 217 267 323 403
#     4  11  19  39  67  95 126 175 225 271 326 399
#     4  11  25  42  67  98 134 175 225 279 340 406
#     4  11  23  35  62 104 130 160 214 280 331 383
#
# _framework density 20.267396000000002
#
# number of rings (size 3 to 8) (size 9 to 14) (size 15 to 20)
#    0.000    1.143    4.286    3.429    8.000    0.000 
#    0.000    5.000    0.000    0.000    0.000    0.000 
#    0.000    0.000    0.000    0.000    0.000    0.000 
#
# Total GULP energy -156106.488955 kJ/mol
# GULP energy per Si atom -5575.231748 kJ/mol
# Density = 2.022127 g / cm^3
# Si number density = 20.267396 Si / 1000 Ang^3
#
#
#
# Elastic Constant Matrix: (Units=GPa)
#
#
# Indices 1 2 3 4 5 6 
#
# 1 84.5058 17.5128 9.2645 0.0000 -17.6150 0.0000
# 2 17.5128 99.7676 11.7232 0.0000 1.1092 0.0000
# 3 9.2645 11.7232 51.6008 0.0000 -11.1841 0.0000
# 4 0.0000 0.0000 0.0000 680.4986 0.0000 460.7146
# 5 -17.6150 1.1092 -11.1841 0.0000 27.7205 0.0000
# 6 0.0000 0.0000 0.0000 460.7146 0.0000 366.7080
#
#
#
# Elastic Compliance Matrix: (Units=1/GPa)
#
#
# Indices 1 2 3 4 5 6 
#
# 1 0.014289 -0.002613 0.000021 0.000000 0.009193 0.000000
# 2 -0.002613 0.010832 -0.002680 0.000000 -0.003175 0.000000
# 3 0.000021 -0.002680 0.021928 0.000000 0.008968 0.000000
# 4 0.000000 0.000000 0.000000 0.009835 0.000000 -0.012356
# 5 0.009193 -0.003175 0.008968 0.000000 0.045661 0.000000
# 6 0.000000 0.000000 0.000000 -0.012356 0.000000 0.018251
#
#
# Mechanical properties :
#
#
# Convention : Reuss Voigt Hill
#
# Bulk Modulus (GPa) = 27.39354 34.76393 31.07873
# Shear Modulus (GPa) = 34.84108 228.14367 131.49237
#
# Velocity S-wave (km/s) = 4.15067 10.62126 8.06347
# Velocity P-wave (km/s) = 6.04286 12.94623 10.10250
#
# Compressibility (1/GPa) = 0.03650496
#
# Stress axis : x y z
#
# Youngs Moduli (GPa) = 69.98425 92.31776 45.60308
#
# Poissons Ratio (x) = 0.24121 -0.00094
# Poissons Ratio (y) = 0.18286 0.12222
# Poissons Ratio (z) = -0.00144 0.24741
#
# Static dielectric constant tensor:
#      x y z
#    x 1.699040 0.000000 -0.012860 
#    y 0.000000 2.372110 0.000000 
#    z -0.012860 0.000000 1.751290 
# 
# From -- ./inp_files/91415.got.cif
#   From: 2010.05.17/outbox.cif.g08.bks.cpg/sg13_46_cif.got.tgz:91415.got - 2010.06.03 16:44:36.
