data_PCOD9233770
_publ_section_title
;
Structure prediction by ZEFSAII (Michael W. Deem and Ramdas Pophale) SiO2 
 PCOD9233770
Probable space group: P 2/C
;
_chemical_formula_sum "Si O2"
_cell_formula_units_Z 20
_cell_length_a 5.719539
_cell_length_b 18.894898
_cell_length_c 9.310322
_cell_angle_alpha 90.000000
_cell_angle_beta 52.507044
_cell_angle_gamma 90.000000
_cell_volume 798.321633
_symmetry_space_group_name_H-M "P 2/C"
_symmetry_group_IT_number 13
_symmetry_cell_setting 'monoclinic'
loop_
_space_group_symop_operation_xyz
x,y,z
-x,y,1/2-z
-x,-y,-z
x,-y,1/2+z
loop_
_atom_site_type_symbol
_atom_site_label
_atom_site_fract_x
_atom_site_fract_y
_atom_site_fract_z
Si Si1 0.000000 0.776545 0.750000
Si Si2 0.596159 0.094113 0.442460
Si Si3 0.500000 0.018575 0.750000
Si Si4 0.000000 0.398945 0.750000
Si Si5 0.000000 0.156819 0.750000
Si Si6 0.160281 0.715388 0.392964
Si Si7 0.797334 0.471702 0.206454
O O1 0.268879 0.831969 0.656599
O O2 0.054695 0.730331 0.590881
O O3 0.681140 0.067887 0.571354
O O4 0.249369 0.108708 0.587112
O O5 0.660839 0.034303 0.300802
O O6 0.036764 0.345242 0.605458
O O7 0.736215 0.453607 0.814398
O O8 0.133990 0.210920 0.816220
O O9 0.500000 0.693111 0.250000
O O10 0.500000 0.441732 0.250000
O O11 0.000000 0.432319 0.250000
O O12 0.000000 0.500000 0.000000
#
# Coordination Sequence:
#
# PCOD9233770 Si02
#       7
#     2   4   2   2   2   4   4
#     4  12  24  41  69  89 125 172 224 270 342 426
#     4  11  23  40  60  92 119 165 211 266 343 414
#     4  10  24  38  60  88 128 154 204 280 332 412
#     4   9  24  40  69  95 150 174 231 288 342 390
#     4  11  22  41  68  86 127 172 209 278 340 418
#     4  11  22  44  65  95 130 175 222 284 343 397
#     4  10  21  42  72 105 147 196 236 283 343 405
#
# _framework density 25.052558999999999
#
# number of rings (size 3 to 8) (size 9 to 14) (size 15 to 20)
#    0.600    0.800    2.000    3.600    0.000    4.800 
#    1.800    0.000    0.000    0.000    0.000    0.000 
#    0.000    0.000    0.000    0.000    0.000    0.000 
#
# Total GULP energy -111802.050320 kJ/mol
# GULP energy per Si atom -5590.102516 kJ/mol
# Density = 2.499554 g / cm^3
# Si number density = 25.052559 Si / 1000 Ang^3
#
#
#
# Elastic Constant Matrix: (Units=GPa)
#
#
# Indices 1 2 3 4 5 6 
#
# 1 117.6104 21.7294 57.3327 0.0000 4.2837 0.0000
# 2 21.7294 111.4568 28.4185 0.0000 12.9603 0.0000
# 3 57.3327 28.4185 147.8807 0.0000 17.4602 0.0000
# 4 0.0000 0.0000 0.0000 10.0260 0.0000 10.0588
# 5 4.2837 12.9603 17.4602 0.0000 49.1257 0.0000
# 6 0.0000 0.0000 0.0000 10.0588 0.0000 21.2748
#
#
#
# Elastic Compliance Matrix: (Units=1/GPa)
#
#
# Indices 1 2 3 4 5 6 
#
# 1 0.010634 -0.001147 -0.003996 0.000000 0.000796 0.000000
# 2 -0.001147 0.009736 -0.001185 0.000000 -0.002047 0.000000
# 3 -0.003996 -0.001185 0.008832 0.000000 -0.002478 0.000000
# 4 0.000000 0.000000 0.000000 0.189749 0.000000 -0.089714
# 5 0.000796 -0.002047 -0.002478 0.000000 0.021707 0.000000
# 6 0.000000 0.000000 0.000000 -0.089714 0.000000 0.089421
#
#
# Mechanical properties :
#
#
# Convention : Reuss Voigt Hill
#
# Bulk Modulus (GPa) = 60.43719 65.76765 63.10242
# Shear Modulus (GPa) = 14.35753 34.04978 24.20366
#
# Velocity S-wave (km/s) = 2.39654 3.69064 3.11161
# Velocity P-wave (km/s) = 5.64220 6.66858 6.17675
#
# Compressibility (1/GPa) = 0.01654610
#
# Stress axis : x y z
#
# Youngs Moduli (GPa) = 94.04164 102.71398 113.22807
#
# Poissons Ratio (x) = 0.11778 0.45248
# Poissons Ratio (y) = 0.10784 0.13413
# Poissons Ratio (z) = 0.37581 0.12168
#
# Static dielectric constant tensor:
#      x y z
#    x 2.089290 0.000000 0.014840 
#    y 0.000000 1.939950 0.000000 
#    z 0.014840 0.000000 2.024710 
# 
# From -- ./inp_files/9938.got.cif
#   From: 2010.05.17/outbox.cif.g08.bks.cpg/sg13_5_cif.got.tgz:9938.got - 2010.06.03 16:44:36.
