data_PCOD9233173
_publ_section_title
;
Structure prediction by ZEFSAII (Michael W. Deem and Ramdas Pophale) SiO2 
 PCOD9233173
Probable space group: P 2/C
;
_chemical_formula_sum "Si O2"
_cell_formula_units_Z 16
_cell_length_a 11.337676
_cell_length_b 10.130270
_cell_length_c 8.680118
_cell_angle_alpha 90.000000
_cell_angle_beta 43.284625
_cell_angle_gamma 90.000000
_cell_volume 683.527657
_symmetry_space_group_name_H-M "P 2/C"
_symmetry_group_IT_number 13
_symmetry_cell_setting 'monoclinic'
loop_
_space_group_symop_operation_xyz
x,y,z
-x,y,1/2-z
-x,-y,-z
x,-y,1/2+z
loop_
_atom_site_type_symbol
_atom_site_label
_atom_site_fract_x
_atom_site_fract_y
_atom_site_fract_z
Si Si1 0.318703 0.559061 0.730865
Si Si2 0.285127 0.893902 0.277140
Si Si3 0.698439 0.843505 0.895698
Si Si4 0.823590 0.655014 0.325589
O O1 0.500000 0.500000 0.500000
O O2 0.278797 0.695454 0.682405
O O3 0.185006 0.446377 0.808261
O O4 0.305587 0.596896 0.922156
O O5 0.226885 0.859601 0.504536
O O6 0.224950 0.795191 0.200866
O O7 0.234147 0.042539 0.281272
O O8 0.492442 0.872931 0.089923
O O9 0.000000 0.662111 0.250000
#
# Coordination Sequence:
#
# PCOD9233173 Si02
#       4
#     4   4   4   4
#     4  12  24  41  69  98 132 179 232 279 329 401
#     4  10  21  40  66  98 134 169 223 284 338 392
#     4  10  21  39  68  99 127 170 230 288 323 387
#     4  12  26  44  65  99 142 180 219 280 350 406
#
# _framework density 23.407979000000001
#
# number of rings (size 3 to 8) (size 9 to 14) (size 15 to 20)
#    0.000    1.000    2.500    4.500    3.500    2.000 
#    0.000    6.250    0.000    0.000    0.000    0.000 
#    0.000    0.000    0.000    0.000    0.000    0.000 
#
# Total GULP energy -89517.424175 kJ/mol
# GULP energy per Si atom -5594.839011 kJ/mol
# Density = 2.335470 g / cm^3
# Si number density = 23.407979 Si / 1000 Ang^3
#
#
#
# Elastic Constant Matrix: (Units=GPa)
#
#
# Indices 1 2 3 4 5 6 
#
# 1 130.8341 38.0787 31.3712 0.0000 14.8446 0.0000
# 2 38.0787 161.4470 13.2309 0.0000 24.3326 0.0000
# 3 31.3712 13.2309 50.9299 0.0000 11.2789 0.0000
# 4 0.0000 0.0000 0.0000 25.4679 0.0000 22.2135
# 5 14.8446 24.3326 11.2789 0.0000 41.5776 0.0000
# 6 0.0000 0.0000 0.0000 22.2135 0.0000 25.9316
#
#
#
# Elastic Compliance Matrix: (Units=1/GPa)
#
#
# Indices 1 2 3 4 5 6 
#
# 1 0.009485 -0.001660 -0.005188 0.000000 -0.001008 0.000000
# 2 -0.001660 0.007126 -0.000039 0.000000 -0.003567 0.000000
# 3 -0.005188 -0.000039 0.023859 0.000000 -0.004597 0.000000
# 4 0.000000 0.000000 0.000000 0.155297 0.000000 -0.133030
# 5 -0.001008 -0.003567 -0.004597 0.000000 0.027746 0.000000
# 6 0.000000 0.000000 0.000000 -0.133030 0.000000 0.152520
#
#
# Mechanical properties :
#
#
# Convention : Reuss Voigt Hill
#
# Bulk Modulus (GPa) = 37.45850 56.50808 46.98329
# Shear Modulus (GPa) = 12.54062 35.96408 24.25235
#
# Velocity S-wave (km/s) = 2.31712 3.92395 3.22230
# Velocity P-wave (km/s) = 4.81621 6.68751 5.82746
#
# Compressibility (1/GPa) = 0.02669621
#
# Stress axis : x y z
#
# Youngs Moduli (GPa) = 105.43328 140.32417 41.91364
#
# Poissons Ratio (x) = 0.23294 0.21744
# Poissons Ratio (y) = 0.17502 0.00163
# Poissons Ratio (z) = 0.54698 0.00544
#
# Static dielectric constant tensor:
#      x y z
#    x 1.894810 0.000000 -0.044080 
#    y 0.000000 1.822680 0.000000 
#    z -0.044080 0.000000 2.001230 
# 
# From -- ./inp_files/14423.got.cif
#   From: 2010.05.17/outbox.cif.g08.bks.cpg/sg13_8_cif.got.tgz:14423.got - 2010.06.03 16:44:36.
