data_PCOD9233456
_publ_section_title
;
Structure prediction by ZEFSAII (Michael W. Deem and Ramdas Pophale) SiO2 
 PCOD9233456
Probable space group: P 2/C
;
_chemical_formula_sum "Si O2"
_cell_formula_units_Z 24
_cell_length_a 16.330400
_cell_length_b 5.314075
_cell_length_c 31.203058
_cell_angle_alpha 90.000000
_cell_angle_beta 155.794112
_cell_angle_gamma 90.000000
_cell_volume 1110.256376
_symmetry_space_group_name_H-M "P 2/C"
_symmetry_group_IT_number 13
_symmetry_cell_setting 'monoclinic'
loop_
_space_group_symop_operation_xyz
x,y,z
-x,y,1/2-z
-x,-y,-z
x,-y,1/2+z
loop_
_atom_site_type_symbol
_atom_site_label
_atom_site_fract_x
_atom_site_fract_y
_atom_site_fract_z
Si Si1 0.073850 0.201814 0.569118
Si Si2 0.653115 0.530633 0.853196
Si Si3 0.140537 0.018129 0.277261
Si Si4 0.332274 0.458483 0.546920
Si Si5 0.928274 0.962554 0.085357
Si Si6 0.609115 0.517713 0.097643
O O1 0.275603 0.317568 0.646457
O O2 0.875170 0.377493 0.473548
O O3 0.086177 0.094625 0.622844
O O4 0.000000 0.000000 0.500000
O O5 0.500000 0.687780 0.750000
O O6 0.560070 0.477681 0.855370
O O7 0.234787 0.745602 0.331099
O O8 0.000000 0.084711 0.250000
O O9 0.023818 0.999291 0.177092
O O10 0.297285 0.244889 0.348546
O O11 0.217927 0.721157 0.483306
O O12 0.470423 0.414593 0.571795
O O13 0.187058 0.218183 0.481431
O O14 0.500000 0.500000 0.000000
#
# Coordination Sequence:
#
# PCOD9233456 Si02
#       6
#     4   4   4   4   4   4
#     4  10  21  41  62  91 130 176 216 276 331 382
#     4  10  23  39  63  92 132 172 222 273 329 402
#     4  12  25  43  68  97 126 175 218 266 334 398
#     4  11  23  43  63  95 129 170 212 274 332 377
#     4  11  23  42  67  91 131 170 217 268 326 396
#     4  12  25  43  67  97 133 167 217 275 327 396
#
# _framework density 21.616627999999999
#
# number of rings (size 3 to 8) (size 9 to 14) (size 15 to 20)
#    0.000    1.000    1.667    5.000    2.333    2.000 
#    0.000    0.000    0.000    0.000    0.000    0.000 
#    0.000    0.000    0.000    0.000    0.000    0.000 
#
# Total GULP energy -133958.493518 kJ/mol
# GULP energy per Si atom -5581.603897 kJ/mol
# Density = 2.156743 g / cm^3
# Si number density = 21.616628 Si / 1000 Ang^3
#
#
#
# Elastic Constant Matrix: (Units=GPa)
#
#
# Indices 1 2 3 4 5 6 
#
# 1 316.0865 -255.3588 229.3867 0.0000 -391.0545 0.0000
# 2 -255.3588 464.2682 -301.7176 0.0000 562.0866 0.0000
# 3 229.3867 -301.7176 338.3837 0.0000 -491.9539 0.0000
# 4 0.0000 0.0000 0.0000 10.4914 0.0000 6.1794
# 5 -391.0545 562.0866 -491.9539 0.0000 861.2169 0.0000
# 6 0.0000 0.0000 0.0000 6.1794 0.0000 30.4972
#
#
#
# Elastic Compliance Matrix: (Units=1/GPa)
#
#
# Indices 1 2 3 4 5 6 
#
# 1 0.007255 0.000172 -0.000817 0.000000 0.002715 0.000000
# 2 0.000172 0.011008 -0.003734 0.000000 -0.009239 0.000000
# 3 -0.000817 -0.003734 0.018778 0.000000 0.012793 0.000000
# 4 0.000000 0.000000 0.000000 0.108233 0.000000 -0.021930
# 5 0.002715 -0.009239 0.012793 0.000000 0.015731 0.000000
# 6 0.000000 0.000000 0.000000 -0.021930 0.000000 0.037233
#
#
# Mechanical properties :
#
#
# Convention : Reuss Voigt Hill
#
# Bulk Modulus (GPa) = 35.35696 51.48433 43.42065
# Shear Modulus (GPa) = 23.10268 276.86962 149.98615
#
# Velocity S-wave (km/s) = 3.27271 11.32960 8.33878
# Velocity P-wave (km/s) = 5.53830 13.96478 10.62280
#
# Compressibility (1/GPa) = 0.02828297
#
# Stress axis : x y z
#
# Youngs Moduli (GPa) = 137.83988 90.84337 53.25266
#
# Poissons Ratio (x) = -0.01565 0.04353
# Poissons Ratio (y) = -0.02374 0.19884
# Poissons Ratio (z) = 0.11268 0.33920
#
# Static dielectric constant tensor:
#      x y z
#    x 1.766760 0.000000 0.105970 
#    y 0.000000 -0.781530 0.000000 
#    z 0.105970 0.000000 2.001320 
# 
# From -- ./inp_files/92683.got.cif
#   From: 2010.05.17/outbox.cif.g08.bks.cpg/sg13_47_cif.got.tgz:92683.got - 2010.06.03 16:44:36.
