data_PCOD9233428
_publ_section_title
;
Structure prediction by ZEFSAII (Michael W. Deem and Ramdas Pophale) SiO2 
 PCOD9233428
Probable space group: P 2/C
;
_chemical_formula_sum "Si O2"
_cell_formula_units_Z 18
_cell_length_a 5.741733
_cell_length_b 13.986733
_cell_length_c 10.050504
_cell_angle_alpha 90.000000
_cell_angle_beta 84.062318
_cell_angle_gamma 90.000000
_cell_volume 802.806454
_symmetry_space_group_name_H-M "P 2/C"
_symmetry_group_IT_number 13
_symmetry_cell_setting 'monoclinic'
loop_
_space_group_symop_operation_xyz
x,y,z
-x,y,1/2-z
-x,-y,-z
x,-y,1/2+z
loop_
_atom_site_type_symbol
_atom_site_label
_atom_site_fract_x
_atom_site_fract_y
_atom_site_fract_z
Si Si1 0.106540 0.240613 0.930924
Si Si2 0.179527 0.058414 0.580594
Si Si3 0.126517 0.568629 0.099123
Si Si4 0.500000 0.642703 0.250000
Si Si5 0.389465 0.127024 0.125559
O O1 0.305675 0.287358 0.825672
O O2 0.966914 0.151927 0.879044
O O3 0.925817 0.326677 0.957422
O O4 0.219677 0.198991 0.058708
O O5 0.407119 0.096983 0.489327
O O6 0.267713 0.974615 0.673687
O O7 0.000000 0.000000 0.500000
O O8 0.394195 0.577135 0.136908
O O9 0.000000 0.554222 0.250000
O O10 0.000000 0.500000 0.000000
O O11 0.500000 0.171014 0.250000
#
# Coordination Sequence:
#
# PCOD9233428 Si02
#       5
#     4   4   4   2   4
#     4  10  21  41  63  94 129 170 220 269 327 400
#     4   9  20  40  56  87 126 166 219 263 319 379
#     4  10  23  45  67 101 129 170 220 278 340 407
#     4  10  22  44  68  96 132 170 224 268 334 402
#     4  10  21  41  58  93 129 173 217 272 331 387
#
# _framework density 22.421343
#
# number of rings (size 3 to 8) (size 9 to 14) (size 15 to 20)
#    0.000    2.222    0.000    1.333    0.000    7.111 
#   70.000    0.000    0.000    0.000    0.000    0.000 
#    0.000    0.000    0.000    0.000    0.000    0.000 
#
# Total GULP energy -100324.136677 kJ/mol
# GULP energy per Si atom -5573.563149 kJ/mol
# Density = 2.237031 g / cm^3
# Si number density = 22.421343 Si / 1000 Ang^3
#
#
#
# Elastic Constant Matrix: (Units=GPa)
#
#
# Indices 1 2 3 4 5 6 
#
# 1 93.6108 39.2236 32.4648 0.0000 39.4277 0.0000
# 2 39.2236 133.8442 59.8081 0.0000 44.1625 0.0000
# 3 32.4648 59.8081 111.7970 0.0000 48.4902 0.0000
# 4 0.0000 0.0000 0.0000 20.5555 0.0000 10.6993
# 5 39.4277 44.1625 48.4902 0.0000 39.2498 0.0000
# 6 0.0000 0.0000 0.0000 10.6993 0.0000 25.2597
#
#
#
# Elastic Compliance Matrix: (Units=1/GPa)
#
#
# Indices 1 2 3 4 5 6 
#
# 1 0.020503 0.000857 0.006332 0.000000 -0.029383 0.000000
# 2 0.000857 0.011994 -0.000945 0.000000 -0.013189 0.000000
# 3 0.006332 -0.000945 0.021349 0.000000 -0.031673 0.000000
# 4 0.000000 0.000000 0.000000 0.062408 0.000000 -0.026434
# 5 -0.029383 -0.013189 -0.031673 0.000000 0.108964 0.000000
# 6 0.000000 0.000000 0.000000 -0.026434 0.000000 0.050786
#
#
# Mechanical properties :
#
#
# Convention : Reuss Voigt Hill
#
# Bulk Modulus (GPa) = 15.07492 66.91614 40.99553
# Shear Modulus (GPa) = 17.50535 30.86337 24.18436
#
# Velocity S-wave (km/s) = 2.79721 3.71417 3.28781
# Velocity P-wave (km/s) = 4.14374 6.95004 5.72161
#
# Compressibility (1/GPa) = 0.06633536
#
# Stress axis : x y z
#
# Youngs Moduli (GPa) = 48.77260 83.37341 46.84051
#
# Poissons Ratio (x) = -0.07146 -0.29660
# Poissons Ratio (y) = -0.04181 0.04426
# Poissons Ratio (z) = -0.30883 0.07878
#
# Static dielectric constant tensor:
#      x y z
#    x 1.947780 0.000000 0.004320 
#    y 0.000000 1.878690 0.000000 
#    z 0.004320 0.000000 1.740090 
# 
# From -- ./inp_files/25785.got.cif
#   From: 2010.05.17/outbox.cif.g08.bks.cpg/sg13_13_cif.got.tgz:25785.got - 2010.06.03 16:44:36.
