data_PCOD9233119
_publ_section_title
;
Structure prediction by ZEFSAII (Michael W. Deem and Ramdas Pophale) SiO2 
 PCOD9233119
Probable space group: P 2/C
;
_chemical_formula_sum "Si O2"
_cell_formula_units_Z 32
_cell_length_a 5.655093
_cell_length_b 15.827143
_cell_length_c 16.364502
_cell_angle_alpha 90.000000
_cell_angle_beta 85.867052
_cell_angle_gamma 90.000000
_cell_volume 1460.878908
_symmetry_space_group_name_H-M "P 2/C"
_symmetry_group_IT_number 13
_symmetry_cell_setting 'monoclinic'
loop_
_space_group_symop_operation_xyz
x,y,z
-x,y,1/2-z
-x,-y,-z
x,-y,1/2+z
loop_
_atom_site_type_symbol
_atom_site_label
_atom_site_fract_x
_atom_site_fract_y
_atom_site_fract_z
Si Si1 0.840765 0.767666 0.483828
Si Si2 0.880577 0.516061 0.413679
Si Si3 0.856141 0.337259 0.411957
Si Si4 0.476523 0.638064 0.425823
Si Si5 0.246247 0.045426 0.523002
Si Si6 0.258758 0.998108 0.202001
Si Si7 0.737460 0.805987 0.797467
Si Si8 0.901361 0.688813 0.164254
O O1 0.635176 0.717159 0.445799
O O2 0.772907 0.860707 0.512784
O O3 0.916490 0.711128 0.558818
O O4 0.041614 0.759040 0.407411
O O5 0.906628 0.426450 0.368068
O O6 0.611971 0.549501 0.424389
O O7 0.000000 0.500000 0.500000
O O8 0.989073 0.598007 0.366286
O O9 0.709728 0.363047 0.495825
O O10 0.720920 0.267068 0.364514
O O11 0.370646 0.664027 0.341357
O O12 0.500000 0.000000 0.500000
O O13 0.251509 0.056503 0.620579
O O14 0.000000 0.000000 0.500000
O O15 0.500000 0.984061 0.250000
O O16 0.265529 0.096600 0.173243
O O17 0.000000 0.986986 0.250000
O O18 0.500000 0.798259 0.750000
O O19 0.000000 0.794677 0.750000
O O20 0.000000 0.712300 0.250000
#
# Coordination Sequence:
#
# PCOD9233119 Si02
#       8
#     4   4   4   4   4   4   4   4
#     4  10  24  40  65  98 122 171 223 270 345 403
#     4  11  20  38  59  95 123 168 221 268 327 402
#     4  11  22  38  65  89 131 168 218 273 330 400
#     4  10  21  39  66  88 127 171 218 268 340 393
#     4  12  27  44  71 106 138 170 236 296 344 410
#     4  10  22  45  67  92 133 180 215 269 353 420
#     4  10  24  41  62  93 129 169 215 265 335 402
#     4  10  23  42  63  93 133 175 222 278 336 401
#
# _framework density 21.904620999999999
#
# number of rings (size 3 to 8) (size 9 to 14) (size 15 to 20)
#    0.000    1.500    3.750    1.875    7.000    4.000 
#    4.500    0.000    0.000    0.000    0.000    0.000 
#    0.000    0.000    0.000    0.000    0.000    0.000 
#
# Total GULP energy -178279.706374 kJ/mol
# GULP energy per Si atom -5571.240824 kJ/mol
# Density = 2.185476 g / cm^3
# Si number density = 21.904621 Si / 1000 Ang^3
#
#
#
# Elastic Constant Matrix: (Units=GPa)
#
#
# Indices 1 2 3 4 5 6 
#
# 1 115.7222 39.4409 8.6140 0.0000 17.5595 0.0000
# 2 39.4409 73.0909 -12.3645 0.0000 -3.5418 0.0000
# 3 8.6140 -12.3645 18.0300 0.0000 4.4794 0.0000
# 4 0.0000 0.0000 0.0000 22.1166 0.0000 2.6096
# 5 17.5595 -3.5418 4.4794 0.0000 30.2981 0.0000
# 6 0.0000 0.0000 0.0000 2.6096 0.0000 26.9572
#
#
#
# Elastic Compliance Matrix: (Units=1/GPa)
#
#
# Indices 1 2 3 4 5 6 
#
# 1 0.014029 -0.009902 -0.011612 0.000000 -0.007572 0.000000
# 2 -0.009902 0.022467 0.018749 0.000000 0.005593 0.000000
# 3 -0.011612 0.018749 0.074384 0.000000 -0.002076 0.000000
# 4 0.000000 0.000000 0.000000 0.045737 0.000000 -0.004428
# 5 -0.007572 0.005593 -0.002076 0.000000 0.038354 0.000000
# 6 0.000000 0.000000 0.000000 -0.004428 0.000000 0.037524
#
#
# Mechanical properties :
#
#
# Convention : Reuss Voigt Hill
#
# Bulk Modulus (GPa) = 9.49211 30.91377 20.20294
# Shear Modulus (GPa) = 18.30539 27.28457 22.79498
#
# Velocity S-wave (km/s) = 2.89396 3.53315 3.22941
# Velocity P-wave (km/s) = 3.93821 5.54867 4.81130
#
# Compressibility (1/GPa) = 0.10535063
#
# Stress axis : x y z
#
# Youngs Moduli (GPa) = 71.27896 44.50898 13.44377
#
# Poissons Ratio (x) = 0.44072 0.15611
# Poissons Ratio (y) = 0.70578 -0.25205
# Poissons Ratio (z) = 0.82769 -0.83448
#
# Static dielectric constant tensor:
#      x y z
#    x 2.111520 0.000000 0.017450 
#    y 0.000000 1.834920 0.000000 
#    z 0.017450 0.000000 1.559140 
# 
# From -- ./inp_files/61611.got.cif
#   From: 2010.05.17/outbox.cif.g08.bks.cpg/sg13_31_cif.got.tgz:61611.got - 2010.06.03 16:44:36.
