data_PCOD9233255
_publ_section_title
;
Structure prediction by ZEFSAII (Michael W. Deem and Ramdas Pophale) SiO2 
 PCOD9233255
Probable space group: P 2/C
;
_chemical_formula_sum "Si O2"
_cell_formula_units_Z 16
_cell_length_a 10.999288
_cell_length_b 8.292885
_cell_length_c 15.342545
_cell_angle_alpha 90.000000
_cell_angle_beta 152.570567
_cell_angle_gamma 90.000000
_cell_volume 644.679950
_symmetry_space_group_name_H-M "P 2/C"
_symmetry_group_IT_number 13
_symmetry_cell_setting 'monoclinic'
loop_
_space_group_symop_operation_xyz
x,y,z
-x,y,1/2-z
-x,-y,-z
x,-y,1/2+z
loop_
_atom_site_type_symbol
_atom_site_label
_atom_site_fract_x
_atom_site_fract_y
_atom_site_fract_z
Si Si1 0.290728 0.301697 0.044635
Si Si2 0.128211 0.381967 0.507735
Si Si3 0.740655 0.844291 0.257570
Si Si4 0.663374 0.802798 0.636366
O O1 0.500000 0.237757 0.250000
O O2 0.300006 0.495158 0.060301
O O3 0.405878 0.248518 0.026754
O O4 0.999322 0.236280 0.877617
O O5 0.242808 0.230519 0.634927
O O6 0.000000 0.500000 0.500000
O O7 0.892097 0.322745 0.297105
O O8 0.762315 0.032271 0.245043
O O9 0.449512 0.811456 0.032535
#
# Coordination Sequence:
#
# PCOD9233255 Si02
#       4
#     4   4   4   4
#     4  11  22  41  64  95 128 170 213 257 324 381
#     4  10  21  40  62  96 125 167 209 258 323 379
#     4  10  23  42  69  94 128 167 217 266 322 375
#     4  11  22  44  66  95 131 167 213 271 314 379
#
# _framework density 24.818515000000001
#
# number of rings (size 3 to 8) (size 9 to 14) (size 15 to 20)
#    0.000    1.500    5.000    1.500    0.000    4.000 
#    9.000    0.000    0.000    0.000    0.000    0.000 
#    0.000    0.000    0.000    0.000    0.000    0.000 
#
# Total GULP energy -89416.084272 kJ/mol
# GULP energy per Si atom -5588.505267 kJ/mol
# Density = 2.476203 g / cm^3
# Si number density = 24.818515 Si / 1000 Ang^3
#
#
#
# Elastic Constant Matrix: (Units=GPa)
#
#
# Indices 1 2 3 4 5 6 
#
# 1 24.9406 5.6429 11.8247 0.0000 5.2219 0.0000
# 2 5.6429 100.7127 64.4417 0.0000 2.5347 0.0000
# 3 11.8247 64.4417 138.7167 0.0000 -14.7660 0.0000
# 4 0.0000 0.0000 0.0000 36.2025 0.0000 23.4836
# 5 5.2219 2.5347 -14.7660 0.0000 30.1747 0.0000
# 6 0.0000 0.0000 0.0000 23.4836 0.0000 7.1691
#
#
#
# Elastic Compliance Matrix: (Units=1/GPa)
#
#
# Indices 1 2 3 4 5 6 
#
# 1 0.044630 0.001305 -0.005533 0.000000 -0.010540 0.000000
# 2 0.001305 0.014811 -0.007541 0.000000 -0.005160 0.000000
# 3 -0.005533 -0.007541 0.011977 0.000000 0.007452 0.000000
# 4 0.000000 0.000000 0.000000 -0.024557 0.000000 0.080440
# 5 -0.010540 -0.005160 0.007452 0.000000 0.039044 0.000000
# 6 0.000000 0.000000 0.000000 0.080440 0.000000 -0.124007
#
#
# Mechanical properties :
#
#
# Convention : Reuss Voigt Hill
#
# Bulk Modulus (GPa) = 20.88542 47.57652 34.23097
# Shear Modulus (GPa) = 3578.76658 26.87331 1802.81994
#
# Velocity S-wave (km/s) = 38.01454 3.29415 26.98107
# Velocity P-wave (km/s) = 43.99136 5.80344 31.37611
#
# Compressibility (1/GPa) = 0.04788029
#
# Stress axis : x y z
#
# Youngs Moduli (GPa) = 22.40649 67.51615 83.49291
#
# Poissons Ratio (x) = -0.08809 0.46193
# Poissons Ratio (y) = -0.02923 0.62963
# Poissons Ratio (z) = 0.12396 0.50915
#
# Static dielectric constant tensor:
#      x y z
#    x 2.268650 0.000000 -0.246680 
#    y 0.000000 1.991450 0.000000 
#    z -0.246680 0.000000 2.204100 
# 
# From -- ./inp_files/79617.got.cif
#   From: 2010.05.17/outbox.cif.g08.bks.cpg/sg13_40_cif.got.tgz:79617.got - 2010.06.03 16:44:36.
