data_PCOD9233630
_publ_section_title
;
Structure prediction by ZEFSAII (Michael W. Deem and Ramdas Pophale) SiO2 
 PCOD9233630
Probable space group: P 2/C
;
_chemical_formula_sum "Si O2"
_cell_formula_units_Z 18
_cell_length_a 12.057769
_cell_length_b 7.509604
_cell_length_c 12.321143
_cell_angle_alpha 90.000000
_cell_angle_beta 44.193576
_cell_angle_gamma 90.000000
_cell_volume 777.715144
_symmetry_space_group_name_H-M "P 2/C"
_symmetry_group_IT_number 13
_symmetry_cell_setting 'monoclinic'
loop_
_space_group_symop_operation_xyz
x,y,z
-x,y,1/2-z
-x,-y,-z
x,-y,1/2+z
loop_
_atom_site_type_symbol
_atom_site_label
_atom_site_fract_x
_atom_site_fract_y
_atom_site_fract_z
Si Si1 0.500000 0.195710 0.750000
Si Si2 0.823029 0.307602 0.911054
Si Si3 0.694793 0.969092 0.930529
Si Si4 0.115080 0.170741 0.397839
Si Si5 0.829916 0.688605 0.979154
O O1 0.543337 0.089521 0.608896
O O2 0.337636 0.302325 0.839734
O O3 0.000000 0.261164 0.750000
O O4 0.708882 0.180837 0.922834
O O5 0.811475 0.248600 0.044281
O O6 0.809207 0.519381 0.915940
O O7 0.743876 0.887167 0.781569
O O8 0.828380 0.873518 0.913565
O O9 0.991333 0.312949 0.433330
O O10 0.000000 0.000000 0.500000
#
# Coordination Sequence:
#
# PCOD9233630 Si02
#       5
#     2   4   4   4   4
#     4   8  22  42  62  80 132 170 182 250 304 360
#     4  12  22  36  67  94 115 161 203 257 308 341
#     4  10  21  42  60  88 124 159 198 248 301 356
#     4  12  20  38  65  93 122 153 208 257 295 356
#     4  10  22  40  60  92 124 158 201 248 297 363
#
# _framework density 23.144721000000001
#
# number of rings (size 3 to 8) (size 9 to 14) (size 15 to 20)
#    1.333    0.000    4.444    2.667    0.000    0.889 
#    0.000    5.556    0.000    0.000    0.000    0.000 
#    0.000    0.000    0.000    0.000    0.000    0.000 
#
# Total GULP energy -100345.152798 kJ/mol
# GULP energy per Si atom -5574.730711 kJ/mol
# Density = 2.309204 g / cm^3
# Si number density = 23.144721 Si / 1000 Ang^3
#
#
#
# Elastic Constant Matrix: (Units=GPa)
#
#
# Indices 1 2 3 4 5 6 
#
# 1 52.7772 7.8362 25.9213 0.0000 -4.7362 0.0000
# 2 7.8362 108.6542 20.9270 0.0000 -3.1976 0.0000
# 3 25.9213 20.9270 182.0324 0.0000 -0.7714 0.0000
# 4 0.0000 0.0000 0.0000 82.8618 0.0000 -22.3045
# 5 -4.7362 -3.1976 -0.7714 0.0000 22.7284 0.0000
# 6 0.0000 0.0000 0.0000 -22.3045 0.0000 27.6138
#
#
#
# Elastic Compliance Matrix: (Units=1/GPa)
#
#
# Indices 1 2 3 4 5 6 
#
# 1 0.020844 -0.000832 -0.002855 0.000000 0.004130 0.000000
# 2 -0.000832 0.009483 -0.000967 0.000000 0.001128 0.000000
# 3 -0.002855 -0.000967 0.006009 0.000000 -0.000527 0.000000
# 4 0.000000 0.000000 0.000000 0.015421 0.000000 0.012456
# 5 0.004130 0.001128 -0.000527 0.000000 0.044999 0.000000
# 6 0.000000 0.000000 0.000000 0.012456 0.000000 0.046275
#
#
# Mechanical properties :
#
#
# Convention : Reuss Voigt Hill
#
# Bulk Modulus (GPa) = 36.99843 50.31476 43.65659
# Shear Modulus (GPa) = 30.98886 45.89273 38.44080
#
# Velocity S-wave (km/s) = 3.66309 4.45776 4.07982
# Velocity P-wave (km/s) = 5.82335 6.94852 6.41067
#
# Compressibility (1/GPa) = 0.02702817
#
# Stress axis : x y z
#
# Youngs Moduli (GPa) = 47.97565 105.45255 166.41667
#
# Poissons Ratio (x) = 0.08772 0.47512
# Poissons Ratio (y) = 0.03991 0.16092
# Poissons Ratio (z) = 0.13697 0.10197
#
# Static dielectric constant tensor:
#      x y z
#    x 1.929760 0.000000 0.028750 
#    y 0.000000 1.877640 0.000000 
#    z 0.028750 0.000000 1.909070 
# 
# From -- ./inp_files/52528.got.cif
#   From: 2010.05.17/outbox.cif.g08.bks.cpg/sg13_27_cif.got.tgz:52528.got - 2010.06.03 16:44:36.
