data_PCOD9233083
_publ_section_title
;
Structure prediction by ZEFSAII (Michael W. Deem and Ramdas Pophale) SiO2 
 PCOD9233083
Probable space group: P 2/C
;
_chemical_formula_sum "Si O2"
_cell_formula_units_Z 20
_cell_length_a 9.957833
_cell_length_b 5.339554
_cell_length_c 16.216021
_cell_angle_alpha 90.000000
_cell_angle_beta 98.581814
_cell_angle_gamma 90.000000
_cell_volume 852.558609
_symmetry_space_group_name_H-M "P 2/C"
_symmetry_group_IT_number 13
_symmetry_cell_setting 'monoclinic'
loop_
_space_group_symop_operation_xyz
x,y,z
-x,y,1/2-z
-x,-y,-z
x,-y,1/2+z
loop_
_atom_site_type_symbol
_atom_site_label
_atom_site_fract_x
_atom_site_fract_y
_atom_site_fract_z
Si Si1 0.006269 0.629337 0.654599
Si Si2 0.463203 0.507541 0.342281
Si Si3 0.093203 0.111832 0.935396
Si Si4 0.286631 0.744026 0.590783
Si Si5 0.541912 0.990303 0.599188
O O1 0.959415 0.378590 0.602359
O O2 0.000000 0.573728 0.750000
O O3 0.159934 0.688195 0.637362
O O4 0.918822 0.881727 0.628940
O O5 0.500000 0.491690 0.250000
O O6 0.608004 0.487933 0.404670
O O7 0.384967 0.265648 0.368708
O O8 0.392413 0.763268 0.359035
O O9 0.230515 0.170677 0.997425
O O10 0.000000 0.000000 0.000000
O O11 0.394660 0.950966 0.632120
O O12 0.500000 0.000000 0.500000
#
# Coordination Sequence:
#
# PCOD9233083 Si02
#       5
#     4   4   4   4   4
#     4  11  23  40  60  94 127 154 206 257 304 370
#     4  10  22  40  62  87 123 159 202 257 308 351
#     4  10  21  39  65  87 122 164 201 246 303 376
#     4   9  23  38  64  84 122 165 200 242 317 358
#     4  10  22  40  62  86 122 155 211 250 297 364
#
# _framework density 23.458797000000001
#
# number of rings (size 3 to 8) (size 9 to 14) (size 15 to 20)
#    1.200    0.800    0.000    4.200    8.400    0.000 
#    7.200    0.000    0.000    0.000    0.000    0.000 
#    0.000    0.000    0.000    0.000    0.000    0.000 
#
# Total GULP energy -111508.909965 kJ/mol
# GULP energy per Si atom -5575.445498 kJ/mol
# Density = 2.340540 g / cm^3
# Si number density = 23.458797 Si / 1000 Ang^3
#
#
#
# Elastic Constant Matrix: (Units=GPa)
#
#
# Indices 1 2 3 4 5 6 
#
# 1 98.2610 -3.4533 -8.8322 0.0000 -7.9343 0.0000
# 2 -3.4533 181.0985 25.9242 0.0000 3.1374 0.0000
# 3 -8.8322 25.9242 78.3412 0.0000 -3.3754 0.0000
# 4 0.0000 0.0000 0.0000 37.4754 0.0000 4.1933
# 5 -7.9343 3.1374 -3.3754 0.0000 24.9125 0.0000
# 6 0.0000 0.0000 0.0000 4.1933 0.0000 0.7442
#
#
#
# Elastic Compliance Matrix: (Units=1/GPa)
#
#
# Indices 1 2 3 4 5 6 
#
# 1 0.010585 -0.000055 0.001365 0.000000 0.003563 0.000000
# 2 -0.000055 0.005821 -0.001977 0.000000 -0.001019 0.000000
# 3 0.001365 -0.001977 0.013682 0.000000 0.002537 0.000000
# 4 0.000000 0.000000 0.000000 0.072215 0.000000 -0.406904
# 5 0.003563 -0.001019 0.002537 0.000000 0.041747 0.000000
# 6 0.000000 0.000000 0.000000 -0.406904 0.000000 3.636483
#
#
# Mechanical properties :
#
#
# Convention : Reuss Voigt Hill
#
# Bulk Modulus (GPa) = 34.77577 42.77537 38.77557
# Shear Modulus (GPa) = 1.31876 35.56389 18.44132
#
# Velocity S-wave (km/s) = 0.75059 3.89783 2.80682
# Velocity P-wave (km/s) = 3.95064 6.20736 5.20283
#
# Compressibility (1/GPa) = 0.02875566
#
# Stress axis : x y z
#
# Youngs Moduli (GPa) = 94.46912 171.78046 73.08889
#
# Poissons Ratio (x) = 0.00950 -0.09978
# Poissons Ratio (y) = 0.00523 0.14446
# Poissons Ratio (z) = -0.12897 0.33952
#
# Static dielectric constant tensor:
#      x y z
#    x 1.949960 0.000000 -0.041840 
#    y 0.000000 2.080450 0.000000 
#    z -0.041840 0.000000 1.876350 
# 
# From -- ./inp_files/48802.got.cif
#   From: 2010.05.17/outbox.cif.g08.bks.cpg/sg13_25_cif.got.tgz:48802.got - 2010.06.03 16:44:36.
