data_PCOD9233352
_publ_section_title
;
Structure prediction by ZEFSAII (Michael W. Deem and Ramdas Pophale) SiO2 
 PCOD9233352
Probable space group: P 2/C
;
_chemical_formula_sum "Si O2"
_cell_formula_units_Z 30
_cell_length_a 7.956937
_cell_length_b 5.683658
_cell_length_c 28.245884
_cell_angle_alpha 90.000000
_cell_angle_beta 107.530243
_cell_angle_gamma 90.000000
_cell_volume 1218.081044
_symmetry_space_group_name_H-M "P 2/C"
_symmetry_group_IT_number 13
_symmetry_cell_setting 'monoclinic'
loop_
_space_group_symop_operation_xyz
x,y,z
-x,y,1/2-z
-x,-y,-z
x,-y,1/2+z
loop_
_atom_site_type_symbol
_atom_site_label
_atom_site_fract_x
_atom_site_fract_y
_atom_site_fract_z
Si Si1 0.959531 0.757941 0.386595
Si Si2 0.801039 0.376562 0.428616
Si Si3 0.204718 0.604042 0.780279
Si Si4 0.857754 0.888374 0.195045
Si Si5 0.596545 0.981469 0.356914
Si Si6 0.531844 0.755449 0.446118
Si Si7 0.500000 0.180855 0.250000
Si Si8 0.785539 0.116539 0.520113
O O1 0.957157 0.513328 0.415042
O O2 0.045260 0.800378 0.343656
O O3 0.058508 0.935861 0.430304
O O4 0.752467 0.795602 0.363978
O O5 0.700529 0.212821 0.382876
O O6 0.643275 0.535765 0.437537
O O7 0.864143 0.241128 0.480704
O O8 0.259826 0.344669 0.803093
O O9 0.326582 0.666697 0.745932
O O10 0.000000 0.581078 0.750000
O O11 0.212753 0.840189 0.814182
O O12 0.000000 0.910106 0.250000
O O13 0.522854 0.029043 0.298960
O O14 0.487982 0.901266 0.394146
O O15 0.354329 0.726371 0.461188
O O16 0.667837 0.905725 0.489604
#
# Coordination Sequence:
#
# PCOD9233352 Si02
#       8
#     4   4   4   4   4   4   2   4
#     4  11  24  39  68  96 134 184 229 300 360 437
#     4  10  22  40  64  97 134 173 233 290 362 435
#     4  10  24  46  71 102 141 188 241 299 365 434
#     4  10  23  43  69 100 143 184 240 300 361 438
#     4  10  24  43  62  97 133 177 238 291 363 441
#     4   9  21  42  64  97 132 177 227 289 360 439
#     4  12  26  46  74  98 142 196 236 312 366 436
#     4  10  21  40  66  95 137 175 228 291 362 432
#
# _framework density 24.628905
#
# number of rings (size 3 to 8) (size 9 to 14) (size 15 to 20)
#    0.000    1.867    0.000    2.400    7.467    7.467 
#    2.400    0.000    0.000    0.000    0.000    0.000 
#    0.000    0.000    0.000    0.000    0.000    0.000 
#
# Total GULP energy -167533.886803 kJ/mol
# GULP energy per Si atom -5584.462893 kJ/mol
# Density = 2.457285 g / cm^3
# Si number density = 24.628905 Si / 1000 Ang^3
#
#
#
# Elastic Constant Matrix: (Units=GPa)
#
#
# Indices 1 2 3 4 5 6 
#
# 1 82.2103 3.1855 24.0138 0.0000 -26.1501 0.0000
# 2 3.1855 91.7022 15.4326 0.0000 -17.0071 0.0000
# 3 24.0138 15.4326 165.6764 0.0000 -14.6340 0.0000
# 4 0.0000 0.0000 0.0000 29.3666 0.0000 -9.4255
# 5 -26.1501 -17.0071 -14.6340 0.0000 44.7159 0.0000
# 6 0.0000 0.0000 0.0000 -9.4255 0.0000 31.4205
#
#
#
# Elastic Compliance Matrix: (Units=1/GPa)
#
#
# Indices 1 2 3 4 5 6 
#
# 1 0.015449 0.001407 -0.001570 0.000000 0.009056 0.000000
# 2 0.001407 0.011944 -0.000868 0.000000 0.005082 0.000000
# 3 -0.001570 -0.000868 0.006420 0.000000 0.000853 0.000000
# 4 0.000000 0.000000 0.000000 0.037680 0.000000 0.011303
# 5 0.009056 0.005082 0.000853 0.000000 0.029871 0.000000
# 6 0.000000 0.000000 0.000000 0.011303 0.000000 0.035217
#
#
# Mechanical properties :
#
#
# Convention : Reuss Voigt Hill
#
# Bulk Modulus (GPa) = 31.49532 47.20586 39.35059
# Shear Modulus (GPa) = 33.50611 40.89774 37.20192
#
# Velocity S-wave (km/s) = 3.69241 4.07942 3.89073
# Velocity P-wave (km/s) = 5.56725 6.43407 6.01629
#
# Compressibility (1/GPa) = 0.03175075
#
# Stress axis : x y z
#
# Youngs Moduli (GPa) = 64.73079 83.72065 155.77272
#
# Poissons Ratio (x) = -0.11780 0.24462
# Poissons Ratio (y) = -0.09108 0.13516
# Poissons Ratio (z) = 0.10165 0.07264
#
# Static dielectric constant tensor:
#      x y z
#    x 1.945490 0.000000 0.018850 
#    y 0.000000 2.065250 0.000000 
#    z 0.018850 0.000000 1.917480 
# 
# From -- ./inp_files/95692.got.cif
#   From: 2010.05.17/outbox.cif.g08.bks.cpg/sg13_48_cif.got.tgz:95692.got - 2010.06.03 16:44:36.
