data_PCOD9233489
_publ_section_title
;
Structure prediction by ZEFSAII (Michael W. Deem and Ramdas Pophale) SiO2 
 PCOD9233489
Probable space group: P 2/C
;
_chemical_formula_sum "Si O2"
_cell_formula_units_Z 14
_cell_length_a 10.238957
_cell_length_b 14.191692
_cell_length_c 5.519403
_cell_angle_alpha 90.000000
_cell_angle_beta 55.682048
_cell_angle_gamma 90.000000
_cell_volume 662.400837
_symmetry_space_group_name_H-M "P 2/C"
_symmetry_group_IT_number 13
_symmetry_cell_setting 'monoclinic'
loop_
_space_group_symop_operation_xyz
x,y,z
-x,y,1/2-z
-x,-y,-z
x,-y,1/2+z
loop_
_atom_site_type_symbol
_atom_site_label
_atom_site_fract_x
_atom_site_fract_y
_atom_site_fract_z
Si Si1 0.821222 0.439761 0.952941
Si Si2 0.571698 0.134893 0.926968
Si Si3 0.059412 0.891366 0.439177
Si Si4 0.500000 0.319267 0.250000
O O1 0.813652 0.503091 0.715405
O O2 0.000000 0.395706 0.750000
O O3 0.662406 0.376357 0.117425
O O4 0.500000 0.104036 0.750000
O O5 0.754293 0.112017 0.745429
O O6 0.500000 0.094862 0.250000
O O7 0.535698 0.246376 0.994568
O O8 0.000000 0.847949 0.250000
O O9 0.000000 0.000000 0.500000
O O10 0.000000 0.845637 0.750000
#
# Coordination Sequence:
#
# PCOD9233489 Si02
#       4
#     4   4   4   2
#     4  10  22  39  61  92 123 161 212 254 305 374
#     4  10  23  40  60  92 126 158 214 256 318 380
#     4  10  21  41  64  89 119 163 205 260 322 372
#     4  10  24  38  66  86 128 168 204 256 326 358
#
# _framework density 21.135237
#
# number of rings (size 3 to 8) (size 9 to 14) (size 15 to 20)
#    0.857    1.143    0.000    2.571    4.000    1.143 
#    0.000   17.143    0.000    0.000    0.000    0.000 
#    0.000    0.000    0.000    0.000    0.000    0.000 
#
# Total GULP energy -78019.339565 kJ/mol
# GULP energy per Si atom -5572.809969 kJ/mol
# Density = 2.108713 g / cm^3
# Si number density = 21.135237 Si / 1000 Ang^3
#
#
#
# Elastic Constant Matrix: (Units=GPa)
#
#
# Indices 1 2 3 4 5 6 
#
# 1 223.7574 51.6198 126.1269 0.0000 -10.6176 0.0000
# 2 51.6198 74.6462 28.5367 0.0000 -20.3327 0.0000
# 3 126.1269 28.5367 187.8199 0.0000 -2.2392 0.0000
# 4 0.0000 0.0000 0.0000 116.8214 0.0000 12.0722
# 5 -10.6176 -20.3327 -2.2392 0.0000 78.0009 0.0000
# 6 0.0000 0.0000 0.0000 12.0722 0.0000 18.3449
#
#
#
# Elastic Compliance Matrix: (Units=1/GPa)
#
#
# Indices 1 2 3 4 5 6 
#
# 1 0.008060 -0.003724 -0.004847 0.000000 -0.000013 0.000000
# 2 -0.003724 0.017062 -0.000045 0.000000 0.003939 0.000000
# 3 -0.004847 -0.000045 0.008581 0.000000 -0.000425 0.000000
# 4 0.000000 0.000000 0.000000 0.009185 0.000000 -0.006044
# 5 -0.000013 0.003939 -0.000425 0.000000 0.013833 0.000000
# 6 0.000000 0.000000 0.000000 -0.006044 0.000000 0.058488
#
#
# Mechanical properties :
#
#
# Convention : Reuss Voigt Hill
#
# Bulk Modulus (GPa) = 60.71034 99.86557 80.28795
# Shear Modulus (GPa) = 36.25046 61.29612 48.77329
#
# Velocity S-wave (km/s) = 4.14595 5.39118 4.80904
# Velocity P-wave (km/s) = 7.19066 9.27935 8.30096
#
# Compressibility (1/GPa) = 0.01647166
#
# Stress axis : x y z
#
# Youngs Moduli (GPa) = 124.07661 58.61019 116.54244
#
# Poissons Ratio (x) = 0.21827 0.56483
# Poissons Ratio (y) = 0.46207 0.00519
# Poissons Ratio (z) = 0.60134 0.00261
#
# Static dielectric constant tensor:
#      x y z
#    x 1.722530 0.000000 0.034040 
#    y 0.000000 1.772110 0.000000 
#    z 0.034040 0.000000 1.760570 
# 
# From -- ./inp_files/971.got.cif
#   From: 2010.05.17/outbox.cif.g08.bks.cpg/sg13_1_cif.got.tgz:971.got - 2010.06.03 16:44:36.
