data_PCOD9233238
_publ_section_title
;
Structure prediction by ZEFSAII (Michael W. Deem and Ramdas Pophale) SiO2 
 PCOD9233238
Probable space group: P 2/C
;
_chemical_formula_sum "Si O2"
_cell_formula_units_Z 30
_cell_length_a 11.571058
_cell_length_b 6.479301
_cell_length_c 19.869076
_cell_angle_alpha 90.000000
_cell_angle_beta 68.387774
_cell_angle_gamma 90.000000
_cell_volume 1384.907456
_symmetry_space_group_name_H-M "P 2/C"
_symmetry_group_IT_number 13
_symmetry_cell_setting 'monoclinic'
loop_
_space_group_symop_operation_xyz
x,y,z
-x,y,1/2-z
-x,-y,-z
x,-y,1/2+z
loop_
_atom_site_type_symbol
_atom_site_label
_atom_site_fract_x
_atom_site_fract_y
_atom_site_fract_z
Si Si1 0.048599 0.424690 0.309639
Si Si2 0.597329 0.814475 0.983833
Si Si3 0.102810 0.810434 0.380924
Si Si4 0.500000 0.576434 0.250000
Si Si5 0.124274 0.941464 0.606558
Si Si6 0.790373 0.950722 0.768685
Si Si7 0.466421 0.230608 0.146624
Si Si8 0.355046 0.851347 0.383285
O O1 0.086274 0.577929 0.360215
O O2 0.000000 0.523390 0.250000
O O3 0.159228 0.277519 0.260153
O O4 0.945130 0.273631 0.363493
O O5 0.563909 0.692652 0.922924
O O6 0.737230 0.900940 0.947793
O O7 0.592723 0.736996 0.061210
O O8 0.500000 0.000000 0.000000
O O9 0.166572 0.918565 0.303081
O O10 0.205335 0.842686 0.415923
O O11 0.968180 0.916970 0.416765
O O12 0.459089 0.417990 0.200153
O O13 0.401850 0.726381 0.307935
O O14 0.143823 0.031018 0.677791
O O15 0.644609 0.930039 0.812349
O O16 0.589823 0.086075 0.127135
#
# Coordination Sequence:
#
# PCOD9233238 Si02
#       8
#     4   4   4   2   4   4   4   4
#     4   9  17  30  51  83 117 149 189 236 288 344
#     4   9  21  44  64  82 117 158 196 241 293 354
#     4  11  19  31  53  83 118 150 188 240 288 336
#     4  12  22  36  62  92 118 150 192 246 302 340
#     4   9  19  35  56  80 110 152 193 234 289 348
#     4   9  17  32  55  82 112 148 193 242 289 337
#     4  10  21  40  62  86 120 157 195 245 296 340
#     4  11  24  38  58  90 120 153 200 241 287 357
#
# _framework density 21.662098
#
# number of rings (size 3 to 8) (size 9 to 14) (size 15 to 20)
#    0.000    2.133    0.000    4.800    0.000    2.133 
#    0.000   11.333    0.000    0.000    0.000    0.000 
#    0.000    0.000    0.000    0.000    0.000    0.000 
#
# Total GULP energy -167297.959732 kJ/mol
# GULP energy per Si atom -5576.598658 kJ/mol
# Density = 2.161279 g / cm^3
# Si number density = 21.662098 Si / 1000 Ang^3
#
#
#
# Elastic Constant Matrix: (Units=GPa)
#
#
# Indices 1 2 3 4 5 6 
#
# 1 139.6387 35.1673 28.4861 0.0000 6.2564 0.0000
# 2 35.1673 36.6263 20.4487 0.0000 11.0210 0.0000
# 3 28.4861 20.4487 76.7176 0.0000 21.7981 0.0000
# 4 0.0000 0.0000 0.0000 81.0645 0.0000 0.2177
# 5 6.2564 11.0210 21.7981 0.0000 41.5270 0.0000
# 6 0.0000 0.0000 0.0000 0.2177 0.0000 18.1656
#
#
#
# Elastic Compliance Matrix: (Units=1/GPa)
#
#
# Indices 1 2 3 4 5 6 
#
# 1 0.009665 -0.008851 -0.001743 0.000000 0.001808 0.000000
# 2 -0.008851 0.040992 -0.005791 0.000000 -0.006506 0.000000
# 3 -0.001743 -0.005791 0.017294 0.000000 -0.007278 0.000000
# 4 0.000000 0.000000 0.000000 0.012336 0.000000 -0.000148
# 5 0.001808 -0.006506 -0.007278 0.000000 0.029355 0.000000
# 6 0.000000 0.000000 0.000000 -0.000148 0.000000 0.055051
#
#
# Mechanical properties :
#
#
# Convention : Reuss Voigt Hill
#
# Bulk Modulus (GPa) = 28.42535 46.79852 37.61194
# Shear Modulus (GPa) = 23.90168 39.41011 31.65590
#
# Velocity S-wave (km/s) = 3.32533 4.26997 3.82691
# Velocity P-wave (km/s) = 5.28152 6.77945 6.07681
#
# Compressibility (1/GPa) = 0.03517987
#
# Stress axis : x y z
#
# Youngs Moduli (GPa) = 103.46651 24.39510 57.82446
#
# Poissons Ratio (x) = 0.21591 0.10080
# Poissons Ratio (y) = 0.91575 0.33488
# Poissons Ratio (z) = 0.18037 0.14128
#
# Static dielectric constant tensor:
#      x y z
#    x 1.801090 0.000000 0.019980 
#    y 0.000000 1.810280 0.000000 
#    z 0.019980 0.000000 1.822040 
# 
# From -- ./inp_files/85815.got.cif
#   From: 2010.05.17/outbox.cif.g08.bks.cpg/sg13_43_cif.got.tgz:85815.got - 2010.06.03 16:44:36.
