data_PCOD9233728
_publ_section_title
;
Structure prediction by ZEFSAII (Michael W. Deem and Ramdas Pophale) SiO2 
 PCOD9233728
Probable space group: P 2/C
;
_chemical_formula_sum "Si O2"
_cell_formula_units_Z 24
_cell_length_a 10.541331
_cell_length_b 9.726378
_cell_length_c 10.707278
_cell_angle_alpha 90.000000
_cell_angle_beta 82.657908
_cell_angle_gamma 90.000000
_cell_volume 1088.805082
_symmetry_space_group_name_H-M "P 2/C"
_symmetry_group_IT_number 13
_symmetry_cell_setting 'monoclinic'
loop_
_space_group_symop_operation_xyz
x,y,z
-x,y,1/2-z
-x,-y,-z
x,-y,1/2+z
loop_
_atom_site_type_symbol
_atom_site_label
_atom_site_fract_x
_atom_site_fract_y
_atom_site_fract_z
Si Si1 0.520396 0.344898 0.948342
Si Si2 0.145520 0.769951 0.686550
Si Si3 0.855444 0.549492 0.022586
Si Si4 0.701925 0.728584 0.201876
Si Si5 0.263898 0.255372 0.435356
Si Si6 0.138111 0.920633 0.165357
O O1 0.393813 0.277744 0.903738
O O2 0.622878 0.343797 0.822194
O O3 0.500000 0.500000 0.000000
O O4 0.588371 0.248163 0.042401
O O5 0.174617 0.645682 0.591109
O O6 0.234166 0.775763 0.796627
O O7 0.000000 0.748387 0.750000
O O8 0.149554 0.920522 0.625245
O O9 0.824688 0.639645 0.148227
O O10 0.769932 0.414973 0.039958
O O11 0.000000 0.500000 0.000000
O O12 0.754713 0.872051 0.247619
O O13 0.170433 0.170274 0.539374
O O14 0.000000 0.902254 0.250000
#
# Coordination Sequence:
#
# PCOD9233728 Si02
#       6
#     4   4   4   4   4   4
#     4  10  21  42  68  95 131 178 226 287 344 405
#     4  11  26  41  65  98 141 184 226 280 352 430
#     4  12  24  40  67 105 139 169 223 293 350 405
#     4  10  23  41  69  95 136 180 227 282 352 411
#     4  11  24  41  67  98 132 177 236 278 350 414
#     4  10  24  43  66  94 137 186 229 283 350 420
#
# _framework density 22.042511999999999
#
# number of rings (size 3 to 8) (size 9 to 14) (size 15 to 20)
#    0.000    1.333    3.333    1.000    7.000    2.000 
#    0.000    0.833    7.333    0.000    0.000    0.000 
#    0.000    0.000    0.000    0.000    0.000    0.000 
#
# Total GULP energy -134130.932937 kJ/mol
# GULP energy per Si atom -5588.788872 kJ/mol
# Density = 2.199234 g / cm^3
# Si number density = 22.042512 Si / 1000 Ang^3
#
#
#
# Elastic Constant Matrix: (Units=GPa)
#
#
# Indices 1 2 3 4 5 6 
#
# 1 72.4511 -20.4514 13.3064 0.0000 9.7335 0.0000
# 2 -20.4514 85.9263 14.9994 0.0000 -6.3780 0.0000
# 3 13.3064 14.9994 63.1379 0.0000 11.4392 0.0000
# 4 0.0000 0.0000 0.0000 8.7644 0.0000 20.0901
# 5 9.7335 -6.3780 11.4392 0.0000 33.0120 0.0000
# 6 0.0000 0.0000 0.0000 20.0901 0.0000 1.4386
#
#
#
# Elastic Compliance Matrix: (Units=1/GPa)
#
#
# Indices 1 2 3 4 5 6 
#
# 1 0.016094 0.004334 -0.003962 0.000000 -0.002535 0.000000
# 2 0.004334 0.013716 -0.004717 0.000000 0.003006 0.000000
# 3 -0.003962 -0.004717 0.018936 0.000000 -0.006305 0.000000
# 4 0.000000 0.000000 0.000000 -0.003679 0.000000 0.051381
# 5 -0.002535 0.003006 -0.006305 0.000000 0.033805 0.000000
# 6 0.000000 0.000000 0.000000 0.051381 0.000000 -0.022415
#
#
# Mechanical properties :
#
#
# Convention : Reuss Voigt Hill
#
# Bulk Modulus (GPa) = 24.96454 26.35823 25.66139
# Shear Modulus (GPa) = 63.69560 22.88705 43.29132
#
# Velocity S-wave (km/s) = 5.38140 3.22578 4.43650
# Velocity P-wave (km/s) = 7.06844 5.08509 6.15715
#
# Compressibility (1/GPa) = 0.04005681
#
# Stress axis : x y z
#
# Youngs Moduli (GPa) = 62.13455 72.90790 52.80903
#
# Poissons Ratio (x) = -0.31599 0.20924
# Poissons Ratio (y) = -0.26930 0.24908
# Poissons Ratio (z) = 0.24619 0.34387
#
# Static dielectric constant tensor:
#      x y z
#    x 1.881860 0.000000 0.052600 
#    y 0.000000 1.762860 0.000000 
#    z 0.052600 0.000000 1.839920 
# 
# From -- ./inp_files/32587.got.cif
#   From: 2010.05.17/outbox.cif.g08.bks.cpg/sg13_17_cif.got.tgz:32587.got - 2010.06.03 16:44:36.
