data_PCOD9233546
_publ_section_title
;
Structure prediction by ZEFSAII (Michael W. Deem and Ramdas Pophale) SiO2 
 PCOD9233546
Probable space group: P 2/C
;
_chemical_formula_sum "Si O2"
_cell_formula_units_Z 26
_cell_length_a 15.095788
_cell_length_b 14.296361
_cell_length_c 9.494790
_cell_angle_alpha 90.000000
_cell_angle_beta 41.191177
_cell_angle_gamma 90.000000
_cell_volume 1349.494028
_symmetry_space_group_name_H-M "P 2/C"
_symmetry_group_IT_number 13
_symmetry_cell_setting 'monoclinic'
loop_
_space_group_symop_operation_xyz
x,y,z
-x,y,1/2-z
-x,-y,-z
x,-y,1/2+z
loop_
_atom_site_type_symbol
_atom_site_label
_atom_site_fract_x
_atom_site_fract_y
_atom_site_fract_z
Si Si1 0.645913 0.738587 0.599886
Si Si2 0.732518 0.713256 0.184008
Si Si3 0.865226 0.913878 0.007647
Si Si4 0.095615 0.531929 0.512079
Si Si5 0.500000 0.334947 0.750000
Si Si6 0.624582 0.572501 0.853584
Si Si7 0.146341 0.905683 0.140396
O O1 0.500000 0.784144 0.750000
O O2 0.691017 0.696995 0.396046
O O3 0.624932 0.656754 0.739677
O O4 0.755835 0.817788 0.500567
O O5 0.787474 0.816714 0.091809
O O6 0.596387 0.708454 0.253940
O O7 0.853056 0.638276 0.020312
O O8 0.875459 0.927450 0.166091
O O9 0.000000 0.903948 0.750000
O O10 0.799928 0.004380 0.010632
O O11 0.236442 0.479247 0.334379
O O12 0.000000 0.500653 0.750000
O O13 0.000000 0.500000 0.500000
O O14 0.611223 0.389510 0.527037
O O15 0.500000 0.500000 0.000000
O O16 0.000000 0.884350 0.250000
#
# Coordination Sequence:
#
# PCOD9233546 Si02
#       7
#     4   4   4   4   2   4   4
#     4  11  23  44  63  93 130 169 222 274 330 395
#     4  11  24  42  64  97 133 173 221 277 333 397
#     4  10  21  41  66  96 133 172 218 273 338 402
#     4  12  25  42  64  99 132 168 221 279 333 388
#     4  12  24  40  66  96 124 184 228 266 332 402
#     4  12  26  42  70  90 135 181 223 271 337 414
#     4  10  22  40  68  96 128 176 216 267 340 405
#
# _framework density 19.266480999999999
#
# number of rings (size 3 to 8) (size 9 to 14) (size 15 to 20)
#    0.000    0.923    3.077    4.154    3.231    5.538 
#    1.385    1.538    0.000    0.000    0.000    0.000 
#    0.000    0.000    0.000    0.000    0.000    0.000 
#
# Total GULP energy -144817.256157 kJ/mol
# GULP energy per Si atom -5569.894468 kJ/mol
# Density = 1.922263 g / cm^3
# Si number density = 19.266481 Si / 1000 Ang^3
#
#
#
# Elastic Constant Matrix: (Units=GPa)
#
#
# Indices 1 2 3 4 5 6 
#
# 1 123.8270 75.3523 61.3561 0.0000 1.1890 0.0000
# 2 75.3523 123.7912 57.8312 0.0000 -4.1299 0.0000
# 3 61.3561 57.8312 148.6354 0.0000 8.4998 0.0000
# 4 0.0000 0.0000 0.0000 36.3217 0.0000 -7.4535
# 5 1.1890 -4.1299 8.4998 0.0000 44.7788 0.0000
# 6 0.0000 0.0000 0.0000 -7.4535 0.0000 25.8523
#
#
#
# Elastic Compliance Matrix: (Units=1/GPa)
#
#
# Indices 1 2 3 4 5 6 
#
# 1 0.013834 -0.007065 -0.002935 0.000000 -0.000462 0.000000
# 2 -0.007065 0.013604 -0.002486 0.000000 0.001914 0.000000
# 3 -0.002935 -0.002486 0.009013 0.000000 -0.001862 0.000000
# 4 0.000000 0.000000 0.000000 0.029263 0.000000 0.008437
# 5 -0.000462 0.001914 -0.001862 0.000000 0.022874 0.000000
# 6 0.000000 0.000000 0.000000 0.008437 0.000000 0.041114
#
#
# Mechanical properties :
#
#
# Convention : Reuss Voigt Hill
#
# Bulk Modulus (GPa) = 87.12004 87.25921 87.18962
# Shear Modulus (GPa) = 31.54560 34.83816 33.19188
#
# Velocity S-wave (km/s) = 4.05078 4.25694 4.15514
# Velocity P-wave (km/s) = 8.19726 8.33973 8.26880
#
# Compressibility (1/GPa) = 0.01147842
#
# Stress axis : x y z
#
# Youngs Moduli (GPa) = 72.28662 73.50895 110.94623
#
# Poissons Ratio (x) = 0.51933 0.32567
# Poissons Ratio (y) = 0.51069 0.27583
# Poissons Ratio (z) = 0.21219 0.18275
#
# Static dielectric constant tensor:
#      x y z
#    x 0.386030 0.000000 -0.763180 
#    y 0.000000 1.708910 0.000000 
#    z -0.763180 0.000000 1.216220 
# 
# From -- ./inp_files/19849.got.cif
#   From: 2010.05.17/outbox.cif.g08.bks.cpg/sg13_10_cif.got.tgz:19849.got - 2010.06.03 16:44:36.
