data_PCOD9233437
_publ_section_title
;
Structure prediction by ZEFSAII (Michael W. Deem and Ramdas Pophale) SiO2 
 PCOD9233437
Probable space group: P 2/C
;
_chemical_formula_sum "Si O2"
_cell_formula_units_Z 20
_cell_length_a 5.349192
_cell_length_b 17.403661
_cell_length_c 9.947155
_cell_angle_alpha 90.000000
_cell_angle_beta 101.171427
_cell_angle_gamma 90.000000
_cell_volume 908.488991
_symmetry_space_group_name_H-M "P 2/C"
_symmetry_group_IT_number 13
_symmetry_cell_setting 'monoclinic'
loop_
_space_group_symop_operation_xyz
x,y,z
-x,y,1/2-z
-x,-y,-z
x,-y,1/2+z
loop_
_atom_site_type_symbol
_atom_site_label
_atom_site_fract_x
_atom_site_fract_y
_atom_site_fract_z
Si Si1 0.716871 0.048460 0.888854
Si Si2 0.432584 0.428434 0.088470
Si Si3 0.969014 0.799100 0.100709
Si Si4 0.075421 0.332034 0.410888
Si Si5 0.590197 0.887138 0.904273
O O1 0.500000 0.052069 0.750000
O O2 0.901040 0.117776 0.872855
O O3 0.787640 0.958117 0.896479
O O4 0.620082 0.070507 0.027798
O O5 0.500000 0.449228 0.250000
O O6 0.643242 0.366690 0.066081
O O7 0.146627 0.391586 0.059281
O O8 0.500000 0.500000 0.000000
O O9 0.000000 0.762319 0.250000
O O10 0.695819 0.820867 0.010753
O O11 0.083561 0.742662 0.003389
O O12 0.000000 0.312617 0.250000
O O13 0.500000 0.858781 0.750000
#
# Coordination Sequence:
#
# PCOD9233437 Si02
#       5
#     4   4   4   4   4
#     4  10  21  41  60  86 122 162 221 282 332 389
#     4  10  22  44  71 100 133 168 212 261 313 385
#     4  12  25  39  61  90 129 168 217 276 332 388
#     4  10  25  42  65  99 136 173 214 262 321 391
#     4  10  23  39  62  86 118 168 220 276 339 392
#
# _framework density 22.014576999999999
#
# number of rings (size 3 to 8) (size 9 to 14) (size 15 to 20)
#    0.000    1.600    2.000    1.200    5.600    2.400 
#    0.000    0.000    0.000    0.000    0.000    0.000 
#    0.000    0.000    0.000    0.000    0.000    0.000 
#
# Total GULP energy -111610.663420 kJ/mol
# GULP energy per Si atom -5580.533171 kJ/mol
# Density = 2.196447 g / cm^3
# Si number density = 22.014577 Si / 1000 Ang^3
#
#
#
# Elastic Constant Matrix: (Units=GPa)
#
#
# Indices 1 2 3 4 5 6 
#
# 1 67.7112 14.4558 41.7011 0.0000 -13.5109 0.0000
# 2 14.4558 63.2120 49.6037 0.0000 -2.1315 0.0000
# 3 41.7011 49.6037 126.7156 0.0000 -2.1401 0.0000
# 4 0.0000 0.0000 0.0000 28.1234 0.0000 -23.5310
# 5 -13.5109 -2.1315 -2.1401 0.0000 24.3580 0.0000
# 6 0.0000 0.0000 0.0000 -23.5310 0.0000 22.5734
#
#
#
# Elastic Compliance Matrix: (Units=1/GPa)
#
#
# Indices 1 2 3 4 5 6 
#
# 1 0.021233 0.001238 -0.007282 0.000000 0.011246 0.000000
# 2 0.001238 0.022942 -0.009357 0.000000 0.001872 0.000000
# 3 -0.007282 -0.009357 0.013890 0.000000 -0.003638 0.000000
# 4 0.000000 0.000000 0.000000 0.278236 0.000000 0.290040
# 5 0.011246 0.001872 -0.003638 0.000000 0.047137 0.000000
# 6 0.000000 0.000000 0.000000 0.290040 0.000000 0.346645
#
#
# Mechanical properties :
#
#
# Convention : Reuss Voigt Hill
#
# Bulk Modulus (GPa) = 36.67977 52.12888 44.40432
# Shear Modulus (GPa) = 6.49374 25.13618 15.81496
#
# Velocity S-wave (km/s) = 1.71935 3.38271 2.68318
# Velocity P-wave (km/s) = 4.54305 6.24401 5.46017
#
# Compressibility (1/GPa) = 0.02726298
#
# Stress axis : x y z
#
# Youngs Moduli (GPa) = 47.09584 43.58793 71.99642
#
# Poissons Ratio (x) = -0.05397 0.52431
# Poissons Ratio (y) = -0.05831 0.67365
# Poissons Ratio (z) = 0.34297 0.40784
#
# Static dielectric constant tensor:
#      x y z
#    x 1.824790 0.000000 -0.019180 
#    y 0.000000 1.832260 0.000000 
#    z -0.019180 0.000000 1.850930 
# 
# From -- ./inp_files/9436.got.cif
#   From: 2010.05.17/outbox.cif.g08.bks.cpg/sg13_5_cif.got.tgz:9436.got - 2010.06.03 16:44:36.
