data_PCOD9233638
_publ_section_title
;
Structure prediction by ZEFSAII (Michael W. Deem and Ramdas Pophale) SiO2 
 PCOD9233638
Probable space group: P 2/C
;
_chemical_formula_sum "Si O2"
_cell_formula_units_Z 24
_cell_length_a 14.933638
_cell_length_b 7.400472
_cell_length_c 9.975226
_cell_angle_alpha 90.000000
_cell_angle_beta 107.069506
_cell_angle_gamma 90.000000
_cell_volume 1053.859407
_symmetry_space_group_name_H-M "P 2/C"
_symmetry_group_IT_number 13
_symmetry_cell_setting 'monoclinic'
loop_
_space_group_symop_operation_xyz
x,y,z
-x,y,1/2-z
-x,-y,-z
x,-y,1/2+z
loop_
_atom_site_type_symbol
_atom_site_label
_atom_site_fract_x
_atom_site_fract_y
_atom_site_fract_z
Si Si1 0.965721 0.253383 0.377343
Si Si2 0.076244 0.312516 0.674914
Si Si3 0.764990 0.280391 0.335182
Si Si4 0.572245 0.157006 0.172230
Si Si5 0.532400 0.733895 0.118353
Si Si6 0.263847 0.404345 0.880310
O O1 0.943286 0.470369 0.353065
O O2 0.864612 0.182336 0.377963
O O3 0.000000 0.186649 0.250000
O O4 0.046510 0.228873 0.521239
O O5 0.181058 0.285531 0.774386
O O6 0.000000 0.253068 0.750000
O O7 0.674109 0.158866 0.281875
O O8 0.754593 0.394619 0.468436
O O9 0.755241 0.404121 0.198239
O O10 0.500000 0.229422 0.250000
O O11 0.549932 0.948106 0.138716
O O12 0.550058 0.272444 0.028844
O O13 0.500000 0.665250 0.250000
O O14 0.631220 0.655200 0.111106
#
# Coordination Sequence:
#
# PCOD9233638 Si02
#       6
#     4   4   4   4   4   4
#     4   9  18  30  51  79 113 150 184 223 271 334
#     4   9  16  30  50  76 111 150 183 218 271 332
#     4  11  23  36  57  88 118 147 184 235 286 328
#     4  10  21  42  62  78 110 152 191 231 279 339
#     4  10  23  40  61  82 106 151 197 229 276 340
#     4  11  23  36  56  88 118 147 186 236 283 329
#
# _framework density 22.773436
#
# number of rings (size 3 to 8) (size 9 to 14) (size 15 to 20)
#    0.000    2.000    3.333    0.000    9.333    1.333 
#    0.000    0.000    0.000    2.000    0.000    0.000 
#    0.000    0.000    0.000    0.000    0.000    0.000 
#
# Total GULP energy -134013.733439 kJ/mol
# GULP energy per Si atom -5583.905560 kJ/mol
# Density = 2.272160 g / cm^3
# Si number density = 22.773436 Si / 1000 Ang^3
#
#
#
# Elastic Constant Matrix: (Units=GPa)
#
#
# Indices 1 2 3 4 5 6 
#
# 1 109.9961 15.1603 22.8570 0.0000 8.6093 0.0000
# 2 15.1603 40.5806 19.3917 0.0000 6.6009 0.0000
# 3 22.8570 19.3917 104.3555 0.0000 10.7132 0.0000
# 4 0.0000 0.0000 0.0000 -9.4451 0.0000 25.8519
# 5 8.6093 6.6009 10.7132 0.0000 40.5550 0.0000
# 6 0.0000 0.0000 0.0000 25.8519 0.0000 -38.1696
#
#
#
# Elastic Compliance Matrix: (Units=1/GPa)
#
#
# Indices 1 2 3 4 5 6 
#
# 1 0.009886 -0.002762 -0.001524 0.000000 -0.001247 0.000000
# 2 -0.002762 0.028215 -0.004345 0.000000 -0.002858 0.000000
# 3 -0.001524 -0.004345 0.010914 0.000000 -0.001852 0.000000
# 4 0.000000 0.000000 0.000000 0.124006 0.000000 0.083988
# 5 -0.001247 -0.002858 -0.001852 0.000000 0.025877 0.000000
# 6 0.000000 0.000000 0.000000 0.083988 0.000000 0.030686
#
#
# Mechanical properties :
#
#
# Convention : Reuss Voigt Hill
#
# Bulk Modulus (GPa) = 31.49263 41.08337 36.28800
# Shear Modulus (GPa) = 19.42272 11.75627 15.58949
#
# Velocity S-wave (km/s) = 2.92356 2.27453 2.61922
# Velocity P-wave (km/s) = 5.02543 4.99772 5.01159
#
# Compressibility (1/GPa) = 0.03175346
#
# Stress axis : x y z
#
# Youngs Moduli (GPa) = 101.15088 35.44179 91.62589
#
# Poissons Ratio (x) = 0.09790 0.13965
# Poissons Ratio (y) = 0.27941 0.39808
# Poissons Ratio (z) = 0.15417 0.15398
#
# Static dielectric constant tensor:
#      x y z
#    x 1.843680 0.000000 0.014970 
#    y 0.000000 1.892980 0.000000 
#    z 0.014970 0.000000 1.846630 
# 
# From -- ./inp_files/18169.got.cif
#   From: 2010.05.17/outbox.cif.g08.bks.cpg/sg13_10_cif.got.tgz:18169.got - 2010.06.03 16:44:36.
