data_PCOD9233864
_publ_section_title
;
Structure prediction by ZEFSAII (Michael W. Deem and Ramdas Pophale) SiO2 
 PCOD9233864
Probable space group: P 2/C
;
_chemical_formula_sum "Si O2"
_cell_formula_units_Z 32
_cell_length_a 14.276115
_cell_length_b 5.415256
_cell_length_c 16.243660
_cell_angle_alpha 90.000000
_cell_angle_beta 92.197268
_cell_angle_gamma 90.000000
_cell_volume 1254.854829
_symmetry_space_group_name_H-M "P 2/C"
_symmetry_group_IT_number 13
_symmetry_cell_setting 'monoclinic'
loop_
_space_group_symop_operation_xyz
x,y,z
-x,y,1/2-z
-x,-y,-z
x,-y,1/2+z
loop_
_atom_site_type_symbol
_atom_site_label
_atom_site_fract_x
_atom_site_fract_y
_atom_site_fract_z
Si Si1 0.924000 0.714442 0.701877
Si Si2 0.777435 0.775889 0.049032
Si Si3 0.879722 0.274810 0.024115
Si Si4 0.153241 0.394434 0.657296
Si Si5 0.354733 0.347474 0.188132
Si Si6 0.406884 0.932014 0.451681
Si Si7 0.751301 0.026282 0.726293
Si Si8 0.560349 0.577327 0.638705
O O1 0.945253 0.678326 0.606055
O O2 0.912260 0.516725 0.775445
O O3 0.816657 0.806485 0.694903
O O4 0.000000 0.889369 0.750000
O O5 0.802399 0.493787 0.034693
O O6 0.686304 0.880723 0.999214
O O7 0.854651 0.983136 0.030436
O O8 0.750524 0.803293 0.145172
O O9 0.899168 0.331924 0.929303
O O10 0.253829 0.547934 0.653562
O O11 0.188133 0.146409 0.700085
O O12 0.337004 0.076269 0.226480
O O13 0.392230 0.485040 0.271928
O O14 0.448909 0.362416 0.137975
O O15 0.427908 0.667771 0.412827
O O16 0.500000 0.000000 0.500000
O O17 0.390015 0.175357 0.394816
#
# Coordination Sequence:
#
# PCOD9233864 Si02
#       8
#     4   4   4   4   4   4   4   4
#     4  10  24  47  71 104 143 178 223 287 359 425
#     4  11  23  45  67  94 144 184 242 282 351 412
#     4  11  26  43  73 108 135 189 231 290 343 428
#     4  11  24  42  74 101 137 180 238 278 353 421
#     4  10  24  39  65  92 135 177 237 291 344 413
#     4  12  26  39  62  91 137 184 234 292 348 398
#     4  10  21  43  69  96 131 189 231 283 349 425
#     4  11  25  41  59  95 131 185 234 291 347 402
#
# _framework density 25.500958000000001
#
# number of rings (size 3 to 8) (size 9 to 14) (size 15 to 20)
#    0.000    1.250    2.500    1.875   10.500    2.000 
#    0.000    0.625    0.000    0.000    0.000    0.000 
#    0.000    0.000    0.000    0.000    0.000    0.000 
#
# Total GULP energy -178341.191913 kJ/mol
# GULP energy per Si atom -5573.162247 kJ/mol
# Density = 2.544292 g / cm^3
# Si number density = 25.500958 Si / 1000 Ang^3
#
#
#
# Elastic Constant Matrix: (Units=GPa)
#
#
# Indices 1 2 3 4 5 6 
#
# 1 51.3204 -14.0671 3.6417 0.0000 2.9710 0.0000
# 2 -14.0671 87.4056 9.4988 0.0000 -22.8239 0.0000
# 3 3.6417 9.4988 109.9646 0.0000 14.6104 0.0000
# 4 0.0000 0.0000 0.0000 27.9360 0.0000 0.5506
# 5 2.9710 -22.8239 14.6104 0.0000 39.5338 0.0000
# 6 0.0000 0.0000 0.0000 0.5506 0.0000 24.9423
#
#
#
# Elastic Compliance Matrix: (Units=1/GPa)
#
#
# Indices 1 2 3 4 5 6 
#
# 1 0.020518 0.003688 -0.001132 0.000000 0.001005 0.000000
# 2 0.003688 0.014717 -0.002614 0.000000 0.009185 0.000000
# 3 -0.001132 -0.002614 0.010039 0.000000 -0.005134 0.000000
# 4 0.000000 0.000000 0.000000 0.035812 0.000000 -0.000791
# 5 0.001005 0.009185 -0.005134 0.000000 0.032420 0.000000
# 6 0.000000 0.000000 0.000000 -0.000791 0.000000 0.040110
#
#
# Mechanical properties :
#
#
# Convention : Reuss Voigt Hill
#
# Bulk Modulus (GPa) = 22.14387 27.42636 24.78512
# Shear Modulus (GPa) = 29.62359 35.12357 32.37358
#
# Velocity S-wave (km/s) = 3.41202 3.71528 3.56688
# Velocity P-wave (km/s) = 4.92188 5.40211 5.16758
#
# Compressibility (1/GPa) = 0.04515922
#
# Stress axis : x y z
#
# Youngs Moduli (GPa) = 48.73682 67.94855 99.60910
#
# Poissons Ratio (x) = -0.25057 0.11272
# Poissons Ratio (y) = -0.17973 0.26036
# Poissons Ratio (z) = 0.05515 0.17760
#
# Static dielectric constant tensor:
#      x y z
#    x 3.566490 0.000000 0.200670 
#    y 0.000000 2.117120 0.000000 
#    z 0.200670 0.000000 2.135970 
# 
# From -- ./inp_files/67563.got.cif
#   From: 2010.05.17/outbox.cif.g08.bks.cpg/sg13_34_cif.got.tgz:67563.got - 2010.06.03 16:44:36.
