data_PCOD9233717
_publ_section_title
;
Structure prediction by ZEFSAII (Michael W. Deem and Ramdas Pophale) SiO2 
 PCOD9233717
Probable space group: P 2/C
;
_chemical_formula_sum "Si O2"
_cell_formula_units_Z 26
_cell_length_a 10.064495
_cell_length_b 13.452740
_cell_length_c 20.681600
_cell_angle_alpha 90.000000
_cell_angle_beta 151.259035
_cell_angle_gamma 90.000000
_cell_volume 1346.470844
_symmetry_space_group_name_H-M "P 2/C"
_symmetry_group_IT_number 13
_symmetry_cell_setting 'monoclinic'
loop_
_space_group_symop_operation_xyz
x,y,z
-x,y,1/2-z
-x,-y,-z
x,-y,1/2+z
loop_
_atom_site_type_symbol
_atom_site_label
_atom_site_fract_x
_atom_site_fract_y
_atom_site_fract_z
Si Si1 0.794894 0.252206 0.223101
Si Si2 0.635559 0.516658 0.668421
Si Si3 0.000000 0.625961 0.250000
Si Si4 0.156422 0.752122 0.441436
Si Si5 0.796632 0.898944 0.353944
Si Si6 0.972589 0.554941 0.055799
Si Si7 0.202649 0.870172 0.649070
O O1 0.752860 0.371351 0.212909
O O2 0.888935 0.197815 0.329632
O O3 0.000000 0.233744 0.250000
O O4 0.476405 0.216570 0.077433
O O5 0.306624 0.515783 0.529529
O O6 0.749798 0.446320 0.661528
O O7 0.762487 0.470824 0.788177
O O8 0.912407 0.692384 0.152565
O O9 0.086107 0.673181 0.469159
O O10 0.946025 0.841311 0.360516
O O11 0.500000 0.860415 0.250000
O O12 0.994116 0.880878 0.500082
O O13 0.759329 0.013503 0.316628
O O14 0.000000 0.500000 0.000000
O O15 0.500000 0.832602 0.750000
#
# Coordination Sequence:
#
# PCOD9233717 Si02
#       7
#     4   4   2   4   4   4   4
#     4  11  23  38  64  94 120 167 212 254 304 376
#     4  10  22  37  60  82 122 164 201 241 313 361
#     4  10  22  40  58  86 128 168 196 254 302 372
#     4  10  23  39  60  89 127 164 210 252 316 371
#     4  10  22  41  67  93 120 162 204 257 325 371
#     4  10  22  36  56  88 118 155 203 263 296 359
#     4  10  21  42  68  91 126 158 208 262 315 375
#
# _framework density 19.309737999999999
#
# number of rings (size 3 to 8) (size 9 to 14) (size 15 to 20)
#    0.000    1.846    2.308    0.462    4.308    5.538 
#    1.385    0.769    0.000    0.000    0.000    0.000 
#    0.000    0.000    0.000    0.000    0.000    0.000 
#
# Total GULP energy -145061.080740 kJ/mol
# GULP energy per Si atom -5579.272336 kJ/mol
# Density = 1.926579 g / cm^3
# Si number density = 19.309738 Si / 1000 Ang^3
#
#
#
# Elastic Constant Matrix: (Units=GPa)
#
#
# Indices 1 2 3 4 5 6 
#
# 1 96.2704 43.9152 -5.3066 0.0000 -1.2913 0.0000
# 2 43.9152 58.7844 0.6066 0.0000 2.1357 0.0000
# 3 -5.3066 0.6066 50.0946 0.0000 6.0082 0.0000
# 4 0.0000 0.0000 0.0000 13.5598 0.0000 8.5429
# 5 -1.2913 2.1357 6.0082 0.0000 27.7340 0.0000
# 6 0.0000 0.0000 0.0000 8.5429 0.0000 25.4883
#
#
#
# Elastic Compliance Matrix: (Units=1/GPa)
#
#
# Indices 1 2 3 4 5 6 
#
# 1 0.015969 -0.011994 0.001681 0.000000 0.001303 0.000000
# 2 -0.011994 0.026068 -0.001313 0.000000 -0.002281 0.000000
# 3 0.001681 -0.001313 0.020672 0.000000 -0.004299 0.000000
# 4 0.000000 0.000000 0.000000 0.093489 0.000000 -0.031335
# 5 0.001303 -0.002281 -0.004299 0.000000 0.037224 0.000000
# 6 0.000000 0.000000 0.000000 -0.031335 0.000000 0.049736
#
#
# Mechanical properties :
#
#
# Convention : Reuss Voigt Hill
#
# Bulk Modulus (GPa) = 25.34463 31.50886 28.42674
# Shear Modulus (GPa) = 17.88508 24.41872 21.15190
#
# Velocity S-wave (km/s) = 3.04669 3.55995 3.31327
# Velocity P-wave (km/s) = 5.05274 5.76634 5.42130
#
# Compressibility (1/GPa) = 0.03945609
#
# Stress axis : x y z
#
# Youngs Moduli (GPa) = 62.62165 38.36093 48.37522
#
# Poissons Ratio (x) = 0.46011 -0.08130
# Poissons Ratio (y) = 0.75111 0.06350
# Poissons Ratio (z) = -0.10524 0.05035
#
# Static dielectric constant tensor:
#      x y z
#    x 1.687740 0.000000 0.003640 
#    y 0.000000 1.694670 0.000000 
#    z 0.003640 0.000000 1.690710 
# 
# From -- ./inp_files/76643.got.cif
#   From: 2010.05.17/outbox.cif.g08.bks.cpg/sg13_39_cif.got.tgz:76643.got - 2010.06.03 16:44:36.
