data_PCOD9233983
_publ_section_title
;
Structure prediction by ZEFSAII (Michael W. Deem and Ramdas Pophale) SiO2 
 PCOD9233983
Probable space group: P 2/C
;
_chemical_formula_sum "Si O2"
_cell_formula_units_Z 22
_cell_length_a 16.683055
_cell_length_b 9.582235
_cell_length_c 8.411269
_cell_angle_alpha 90.000000
_cell_angle_beta 46.798250
_cell_angle_gamma 90.000000
_cell_volume 980.167510
_symmetry_space_group_name_H-M "P 2/C"
_symmetry_group_IT_number 13
_symmetry_cell_setting 'monoclinic'
loop_
_space_group_symop_operation_xyz
x,y,z
-x,y,1/2-z
-x,-y,-z
x,-y,1/2+z
loop_
_atom_site_type_symbol
_atom_site_label
_atom_site_fract_x
_atom_site_fract_y
_atom_site_fract_z
Si Si1 0.850776 0.089687 0.569878
Si Si2 0.090734 0.180650 0.354276
Si Si3 0.747067 0.326268 0.860270
Si Si4 0.500000 0.706587 0.750000
Si Si5 0.453513 0.351537 0.989972
Si Si6 0.200564 0.589237 0.874133
O O1 0.849872 0.135481 0.389011
O O2 0.755834 0.166452 0.796473
O O3 0.963170 0.150245 0.495191
O O4 0.862313 0.924701 0.575858
O O5 0.114221 0.336000 0.377782
O O6 0.791884 0.423968 0.659260
O O7 0.621055 0.363098 0.072026
O O8 0.814949 0.364812 0.924405
O O9 0.487852 0.758992 0.582546
O O10 0.500000 0.329141 0.750000
O O11 0.500000 0.500000 0.000000
O O12 0.321809 0.356376 0.158900
#
# Coordination Sequence:
#
# PCOD9233983 Si02
#       6
#     4   4   4   2   4   4
#     4  10  22  41  65  84 120 162 197 258 303 376
#     4  10  22  41  63  90 115 157 210 243 315 368
#     4  11  22  36  60  88 123 161 197 257 303 356
#     4  10  22  34  54  86 122 158 208 236 304 368
#     4  11  18  31  53  80 117 158 194 240 294 355
#     4  11  22  34  59  92 120 155 204 251 300 363
#
# _framework density 22.445145
#
# number of rings (size 3 to 8) (size 9 to 14) (size 15 to 20)
#    0.000    1.455    2.727    3.273    2.545    2.909 
#    0.000    0.000    2.000    3.273    0.000    0.000 
#    0.000    0.000    0.000    0.000    0.000    0.000 
#
# Total GULP energy -122645.003246 kJ/mol
# GULP energy per Si atom -5574.772875 kJ/mol
# Density = 2.239406 g / cm^3
# Si number density = 22.445145 Si / 1000 Ang^3
#
#
#
# Elastic Constant Matrix: (Units=GPa)
#
#
# Indices 1 2 3 4 5 6 
#
# 1 56.1841 1.3831 10.6772 0.0000 19.3478 0.0000
# 2 1.3831 38.7274 -2.0127 0.0000 -9.0412 0.0000
# 3 10.6772 -2.0127 79.5946 0.0000 23.9865 0.0000
# 4 0.0000 0.0000 0.0000 19.6700 0.0000 5.3897
# 5 19.3478 -9.0412 23.9865 0.0000 32.3420 0.0000
# 6 0.0000 0.0000 0.0000 5.3897 0.0000 11.7202
#
#
#
# Elastic Compliance Matrix: (Units=1/GPa)
#
#
# Indices 1 2 3 4 5 6 
#
# 1 0.023258 -0.004588 0.001730 0.000000 -0.016479 0.000000
# 2 -0.004588 0.028804 -0.002460 0.000000 0.012621 0.000000
# 3 0.001730 -0.002460 0.016469 0.000000 -0.013937 0.000000
# 4 0.000000 0.000000 0.000000 0.058168 0.000000 -0.026750
# 5 -0.016479 0.012621 -0.013937 0.000000 0.054642 0.000000
# 6 0.000000 0.000000 0.000000 -0.026750 0.000000 0.097624
#
#
# Mechanical properties :
#
#
# Convention : Reuss Voigt Hill
#
# Bulk Modulus (GPa) = 17.27219 21.62235 19.44727
# Shear Modulus (GPa) = 16.18650 23.71033 19.94841
#
# Velocity S-wave (km/s) = 2.68835 3.25371 2.98445
# Velocity P-wave (km/s) = 4.16513 4.87543 4.53421
#
# Compressibility (1/GPa) = 0.05789653
#
# Stress axis : x y z
#
# Youngs Moduli (GPa) = 42.99676 34.71745 60.71842
#
# Poissons Ratio (x) = 0.15928 -0.10505
# Poissons Ratio (y) = 0.19726 0.14934
# Poissons Ratio (z) = -0.07439 0.08539
#
# Static dielectric constant tensor:
#      x y z
#    x 1.853020 0.000000 0.036310 
#    y 0.000000 1.852250 0.000000 
#    z 0.036310 0.000000 1.846860 
# 
# From -- ./inp_files/18109.got.cif
#   From: 2010.05.17/outbox.cif.g08.bks.cpg/sg13_10_cif.got.tgz:18109.got - 2010.06.03 16:44:36.
