data_PCOD9233269
_publ_section_title
;
Structure prediction by ZEFSAII (Michael W. Deem and Ramdas Pophale) SiO2 
 PCOD9233269
Probable space group: P 2/C
;
_chemical_formula_sum "Si O2"
_cell_formula_units_Z 28
_cell_length_a 20.983646
_cell_length_b 15.356976
_cell_length_c 8.796556
_cell_angle_alpha 90.000000
_cell_angle_beta 29.673982
_cell_angle_gamma 90.000000
_cell_volume 1403.333284
_symmetry_space_group_name_H-M "P 2/C"
_symmetry_group_IT_number 13
_symmetry_cell_setting 'monoclinic'
loop_
_space_group_symop_operation_xyz
x,y,z
-x,y,1/2-z
-x,-y,-z
x,-y,1/2+z
loop_
_atom_site_type_symbol
_atom_site_label
_atom_site_fract_x
_atom_site_fract_y
_atom_site_fract_z
Si Si1 0.314967 0.693240 0.378013
Si Si2 0.875651 0.441193 0.735028
Si Si3 0.946603 0.085453 0.186557
Si Si4 0.345810 0.895761 0.330489
Si Si5 0.500000 0.992752 0.750000
Si Si6 0.288033 0.527411 0.647560
Si Si7 0.500000 0.394633 0.250000
Si Si8 0.977617 0.723941 0.615555
O O1 0.351434 0.791899 0.348762
O O2 0.308957 0.619281 0.520635
O O3 0.169457 0.697782 0.613927
O O4 0.416109 0.661707 0.040769
O O5 0.832798 0.470876 0.658579
O O6 0.000000 0.500000 0.500000
O O7 0.922905 0.343562 0.660611
O O8 0.751471 0.458381 0.096765
O O9 0.795172 0.087407 0.453645
O O10 0.998388 0.177733 0.017170
O O11 0.000000 0.083182 0.250000
O O12 0.000000 0.000000 0.000000
O O13 0.391422 0.947916 0.388331
O O14 0.441019 0.931092 0.002403
O O15 0.403818 0.462969 0.373136
O O16 0.000000 0.721733 0.750000
#
# Coordination Sequence:
#
# PCOD9233269 Si02
#       8
#     4   4   4   4   2   4   2   4
#     4  11  23  40  63  91 124 166 210 262 307 381
#     4  12  22  40  63  89 120 159 208 254 310 366
#     4  10  21  40  64  94 129 163 202 261 318 383
#     4  10  22  41  67  93 127 161 214 257 320 382
#     4  10  21  43  66  94 122 168 204 267 315 374
#     4  12  25  40  61  88 125 167 206 263 304 368
#     4  12  23  43  60  86 128 170 212 247 323 364
#     4  10  21  40  63  92 123 161 210 252 316 380
#
# _framework density 19.952494999999999
#
# number of rings (size 3 to 8) (size 9 to 14) (size 15 to 20)
#    0.000    1.143    2.857    3.857    0.000    0.571 
#    7.714    1.429    0.000    0.000    0.000    0.000 
#    0.000    0.000    0.000    0.000    0.000    0.000 
#
# Total GULP energy -156060.656876 kJ/mol
# GULP energy per Si atom -5573.594888 kJ/mol
# Density = 1.990708 g / cm^3
# Si number density = 19.952495 Si / 1000 Ang^3
#
#
#
# Elastic Constant Matrix: (Units=GPa)
#
#
# Indices 1 2 3 4 5 6 
#
# 1 72.9932 19.0462 7.5353 0.0000 -15.4314 0.0000
# 2 19.0462 143.2065 34.3246 0.0000 -5.3320 0.0000
# 3 7.5353 34.3246 47.9532 0.0000 -0.8819 0.0000
# 4 0.0000 0.0000 0.0000 27.4982 0.0000 -10.2582
# 5 -15.4314 -5.3320 -0.8819 0.0000 33.5896 0.0000
# 6 0.0000 0.0000 0.0000 -10.2582 0.0000 29.1756
#
#
#
# Elastic Compliance Matrix: (Units=1/GPa)
#
#
# Indices 1 2 3 4 5 6 
#
# 1 0.015694 -0.001531 -0.001242 0.000000 0.006934 0.000000
# 2 -0.001531 0.008625 -0.005924 0.000000 0.000510 0.000000
# 3 -0.001242 -0.005924 0.025274 0.000000 -0.000848 0.000000
# 4 0.000000 0.000000 0.000000 0.041856 0.000000 0.014717
# 5 0.006934 0.000510 -0.000848 0.000000 0.033015 0.000000
# 6 0.000000 0.000000 0.000000 0.014717 0.000000 0.039450
#
#
# Mechanical properties :
#
#
# Convention : Reuss Voigt Hill
#
# Bulk Modulus (GPa) = 31.05854 42.88500 36.97177
# Shear Modulus (GPa) = 26.03598 31.60248 28.81923
#
# Velocity S-wave (km/s) = 3.61626 3.98412 3.80464
# Velocity P-wave (km/s) = 5.74773 6.53487 6.15390
#
# Compressibility (1/GPa) = 0.03219727
#
# Stress axis : x y z
#
# Youngs Moduli (GPa) = 63.72010 115.93545 39.56674
#
# Poissons Ratio (x) = 0.17752 0.04916
# Poissons Ratio (y) = 0.09757 0.23440
# Poissons Ratio (z) = 0.07917 0.68681
#
# Static dielectric constant tensor:
#      x y z
#    x 1.746380 0.000000 -0.009600 
#    y 0.000000 1.715030 0.000000 
#    z -0.009600 0.000000 1.658270 
# 
# From -- ./inp_files/23527.got.cif
#   From: 2010.05.17/outbox.cif.g08.bks.cpg/sg13_12_cif.got.tgz:23527.got - 2010.06.03 16:44:36.
