data_PCOD9233329
_publ_section_title
;
Structure prediction by ZEFSAII (Michael W. Deem and Ramdas Pophale) SiO2 
 PCOD9233329
Probable space group: P 2/C
;
_chemical_formula_sum "Si O2"
_cell_formula_units_Z 32
_cell_length_a 14.291571
_cell_length_b 8.840971
_cell_length_c 23.950294
_cell_angle_alpha 90.000000
_cell_angle_beta 149.566828
_cell_angle_gamma 90.000000
_cell_volume 1532.846143
_symmetry_space_group_name_H-M "P 2/C"
_symmetry_group_IT_number 13
_symmetry_cell_setting 'monoclinic'
loop_
_space_group_symop_operation_xyz
x,y,z
-x,y,1/2-z
-x,-y,-z
x,-y,1/2+z
loop_
_atom_site_type_symbol
_atom_site_label
_atom_site_fract_x
_atom_site_fract_y
_atom_site_fract_z
Si Si1 0.401994 0.044409 0.311904
Si Si2 0.985947 0.944522 0.556278
Si Si3 0.283186 0.792121 0.579213
Si Si4 0.819839 0.493565 0.252055
Si Si5 0.755735 0.453499 0.537008
Si Si6 0.493068 0.734209 0.404807
Si Si7 0.914257 0.363687 0.419975
Si Si8 0.458303 0.737099 0.943869
O O1 0.184340 0.044044 0.187873
O O2 0.513886 0.138653 0.323279
O O3 0.443000 0.129512 0.391186
O O4 0.475630 0.874316 0.354641
O O5 0.943920 0.765584 0.529622
O O6 0.000000 0.000000 0.500000
O O7 0.844457 0.067225 0.507346
O O8 0.259337 0.653503 0.524612
O O9 0.217362 0.725922 0.604518
O O10 0.702463 0.646964 0.193456
O O11 0.820930 0.428669 0.316138
O O12 0.711333 0.375296 0.157390
O O13 0.029958 0.517259 0.341577
O O14 0.645279 0.607957 0.469208
O O15 0.641755 0.362398 0.525506
O O16 0.539878 0.787770 0.491610
O O17 0.000000 0.500000 0.500000
#
# Coordination Sequence:
#
# PCOD9233329 Si02
#       8
#     4   4   4   4   4   4   4   4
#     4  11  23  42  66  93 129 178 211 264 332 386
#     4  10  23  42  64  91 131 169 209 260 323 387
#     4  10  23  41  65  93 134 167 214 265 321 394
#     4  11  21  41  67  90 132 166 212 271 325 379
#     4  10  21  40  65  97 124 167 217 272 320 387
#     4  11  25  40  66  94 129 168 226 266 321 389
#     4  11  22  39  67  94 126 167 212 260 326 380
#     4  10  23  43  61  95 129 169 215 276 326 377
#
# _framework density 20.876199
#
# number of rings (size 3 to 8) (size 9 to 14) (size 15 to 20)
#    0.000    1.500    2.500    2.625    3.500    4.000 
#    0.000    0.000    5.500    4.500    0.000    0.000 
#    0.000    0.000    0.000    0.000    0.000    0.000 
#
# Total GULP energy -178756.347246 kJ/mol
# GULP energy per Si atom -5586.135851 kJ/mol
# Density = 2.082868 g / cm^3
# Si number density = 20.876199 Si / 1000 Ang^3
#
#
#
# Elastic Constant Matrix: (Units=GPa)
#
#
# Indices 1 2 3 4 5 6 
#
# 1 57.0252 29.8506 45.0319 0.0000 6.9784 0.0000
# 2 29.8506 122.5286 48.0255 0.0000 6.9383 0.0000
# 3 45.0319 48.0255 103.5417 0.0000 19.8043 0.0000
# 4 0.0000 0.0000 0.0000 26.0195 0.0000 3.6583
# 5 6.9784 6.9383 19.8043 0.0000 45.7839 0.0000
# 6 0.0000 0.0000 0.0000 3.6583 0.0000 25.5678
#
#
#
# Elastic Compliance Matrix: (Units=1/GPa)
#
#
# Indices 1 2 3 4 5 6 
#
# 1 0.027330 -0.002423 -0.010941 0.000000 0.000934 0.000000
# 2 -0.002423 0.010201 -0.003764 0.000000 0.000452 0.000000
# 3 -0.010941 -0.003764 0.017154 0.000000 -0.005182 0.000000
# 4 0.000000 0.000000 0.000000 0.039222 0.000000 -0.005612
# 5 0.000934 0.000452 -0.005182 0.000000 0.023872 0.000000
# 6 0.000000 0.000000 0.000000 -0.005612 0.000000 0.039915
#
#
# Mechanical properties :
#
#
# Convention : Reuss Voigt Hill
#
# Bulk Modulus (GPa) = 48.95132 58.76796 53.85964
# Shear Modulus (GPa) = 25.15592 30.15341 27.65466
#
# Velocity S-wave (km/s) = 3.47508 3.80464 3.64359
# Velocity P-wave (km/s) = 6.29292 6.89291 6.59974
#
# Compressibility (1/GPa) = 0.02042846
#
# Stress axis : x y z
#
# Youngs Moduli (GPa) = 36.58971 98.02490 58.29652
#
# Poissons Ratio (x) = 0.23748 0.63784
# Poissons Ratio (y) = 0.08864 0.21946
# Poissons Ratio (z) = 0.40034 0.36901
#
# Static dielectric constant tensor:
#      x y z
#    x 1.785970 0.000000 0.024350 
#    y 0.000000 1.763100 0.000000 
#    z 0.024350 0.000000 1.727090 
# 
# From -- ./inp_files/87448.got.cif
#   From: 2010.05.17/outbox.cif.g08.bks.cpg/sg13_44_cif.got.tgz:87448.got - 2010.06.03 16:44:36.
