data_PCOD9233856
_publ_section_title
;
Structure prediction by ZEFSAII (Michael W. Deem and Ramdas Pophale) SiO2 
 PCOD9233856
Probable space group: P 2/C
;
_chemical_formula_sum "Si O2"
_cell_formula_units_Z 16
_cell_length_a 7.239941
_cell_length_b 5.186324
_cell_length_c 18.143152
_cell_angle_alpha 90.000000
_cell_angle_beta 126.457137
_cell_angle_gamma 90.000000
_cell_volume 547.931610
_symmetry_space_group_name_H-M "P 2/C"
_symmetry_group_IT_number 13
_symmetry_cell_setting 'monoclinic'
loop_
_space_group_symop_operation_xyz
x,y,z
-x,y,1/2-z
-x,-y,-z
x,-y,1/2+z
loop_
_atom_site_type_symbol
_atom_site_label
_atom_site_fract_x
_atom_site_fract_y
_atom_site_fract_z
Si Si1 0.027404 0.308284 0.838565
Si Si2 0.730614 0.693075 0.406600
Si Si3 0.657805 0.808484 0.969950
Si Si4 0.652409 0.659585 0.719171
O O1 0.873300 0.208689 0.870331
O O2 0.910455 0.593665 0.802400
O O3 0.000000 0.197896 0.750000
O O4 0.280919 0.280600 0.933516
O O5 0.787160 0.406246 0.450509
O O6 0.469087 0.623547 0.320647
O O7 0.738156 0.905798 0.471103
O O8 0.406617 0.789340 0.872658
O O9 0.500000 0.774739 0.750000
#
# Coordination Sequence:
#
# PCOD9233856 Si02
#       4
#     4   4   4   4
#     4  11  22  40  65 102 133 163 209 270 327 369
#     4   9  21  43  65  88 124 171 220 252 308 378
#     4  10  21  43  69  89 126 172 216 259 304 386
#     4   8  20  38  65  94 119 170 218 251 304 384
#
# _framework density 29.200728000000002
#
# number of rings (size 3 to 8) (size 9 to 14) (size 15 to 20)
#    1.500    1.000    0.000    1.500    0.000    4.000 
#    4.500    6.250    0.000    0.000    0.000    0.000 
#    0.000    0.000    0.000    0.000    0.000    0.000 
#
# Total GULP energy -89220.891620 kJ/mol
# GULP energy per Si atom -5576.305726 kJ/mol
# Density = 2.913427 g / cm^3
# Si number density = 29.200728 Si / 1000 Ang^3
#
#
#
# Elastic Constant Matrix: (Units=GPa)
#
#
# Indices 1 2 3 4 5 6 
#
# 1 100.7404 31.4407 45.9987 0.0000 -17.4253 0.0000
# 2 31.4407 123.0393 38.3960 0.0000 -5.6845 0.0000
# 3 45.9987 38.3960 266.5035 0.0000 -15.8259 0.0000
# 4 0.0000 0.0000 0.0000 39.4011 0.0000 7.7881
# 5 -17.4253 -5.6845 -15.8259 0.0000 42.0529 0.0000
# 6 0.0000 0.0000 0.0000 7.7881 0.0000 14.7258
#
#
#
# Elastic Compliance Matrix: (Units=1/GPa)
#
#
# Indices 1 2 3 4 5 6 
#
# 1 0.012077 -0.002431 -0.001490 0.000000 0.004115 0.000000
# 2 -0.002431 0.009020 -0.000887 0.000000 -0.000122 0.000000
# 3 -0.001490 -0.000887 0.004187 0.000000 0.000838 0.000000
# 4 0.000000 0.000000 0.000000 0.028343 0.000000 -0.014990
# 5 0.004115 -0.000122 0.000838 0.000000 0.025784 0.000000
# 6 0.000000 0.000000 0.000000 -0.014990 0.000000 0.075836
#
#
# Mechanical properties :
#
#
# Convention : Reuss Voigt Hill
#
# Bulk Modulus (GPa) = 63.82454 80.21710 72.02082
# Shear Modulus (GPa) = 29.39690 44.19916 36.79803
#
# Velocity S-wave (km/s) = 3.17632 3.89476 3.55375
# Velocity P-wave (km/s) = 5.94615 6.91058 6.44643
#
# Compressibility (1/GPa) = 0.01566796
#
# Stress axis : x y z
#
# Youngs Moduli (GPa) = 82.79961 110.86565 238.83078
#
# Poissons Ratio (x) = 0.26952 0.35584
# Poissons Ratio (y) = 0.20129 0.21188
# Poissons Ratio (z) = 0.12337 0.09836
#
# Static dielectric constant tensor:
#      x y z
#    x 2.438210 0.000000 0.189960 
#    y 0.000000 2.178330 0.000000 
#    z 0.189960 0.000000 2.417010 
# 
# From -- ./inp_files/62523.got.cif
#   From: 2010.05.17/outbox.cif.g08.bks.cpg/sg13_32_cif.got.tgz:62523.got - 2010.06.03 16:44:36.
