data_PCOD9233264
_publ_section_title
;
Structure prediction by ZEFSAII (Michael W. Deem and Ramdas Pophale) SiO2 
 PCOD9233264
Probable space group: P 2/C
;
_chemical_formula_sum "Si O2"
_cell_formula_units_Z 20
_cell_length_a 5.297814
_cell_length_b 19.781196
_cell_length_c 9.848240
_cell_angle_alpha 90.000000
_cell_angle_beta 121.348599
_cell_angle_gamma 90.000000
_cell_volume 881.403620
_symmetry_space_group_name_H-M "P 2/C"
_symmetry_group_IT_number 13
_symmetry_cell_setting 'monoclinic'
loop_
_space_group_symop_operation_xyz
x,y,z
-x,y,1/2-z
-x,-y,-z
x,-y,1/2+z
loop_
_atom_site_type_symbol
_atom_site_label
_atom_site_fract_x
_atom_site_fract_y
_atom_site_fract_z
Si Si1 0.865189 0.230818 0.564733
Si Si2 0.765640 0.694526 0.560441
Si Si3 0.195156 0.462262 0.440127
Si Si4 0.173102 0.868512 0.664567
Si Si5 0.311211 0.017627 0.810244
O O1 0.533337 0.263108 0.487537
O O2 0.922507 0.157752 0.507503
O O3 0.000000 0.229355 0.750000
O O4 0.060105 0.276219 0.519152
O O5 0.715641 0.615905 0.511435
O O6 0.000000 0.696665 0.750000
O O7 0.500000 0.500000 0.500000
O O8 0.000000 0.463537 0.250000
O O9 0.000000 0.500000 0.500000
O O10 0.500000 0.838901 0.750000
O O11 0.209742 0.948488 0.701485
O O12 0.000000 0.845086 0.750000
O O13 0.500000 0.055648 0.750000
O O14 0.000000 0.051344 0.750000
O O15 0.500000 0.000000 0.000000
#
# Coordination Sequence:
#
# PCOD9233264 Si02
#       5
#     4   4   4   4   4
#     4  12  24  39  63  94 124 160 214 270 322 380
#     4  11  24  42  64  89 125 172 213 258 325 391
#     4  11  24  41  63  91 125 167 213 265 323 384
#     4  10  21  40  63  89 125 169 206 255 320 384
#     4  10  21  40  66  95 128 168 212 258 315 381
#
# _framework density 22.691079999999999
#
# number of rings (size 3 to 8) (size 9 to 14) (size 15 to 20)
#    0.000    1.200    0.000    6.600    0.000    8.000 
#    0.000   12.000    0.000    4.800    0.000    0.000 
#    0.000    0.000    0.000    0.000    0.000    0.000 
#
# Total GULP energy -111594.293872 kJ/mol
# GULP energy per Si atom -5579.714694 kJ/mol
# Density = 2.263943 g / cm^3
# Si number density = 22.691080 Si / 1000 Ang^3
#
#
#
# Elastic Constant Matrix: (Units=GPa)
#
#
# Indices 1 2 3 4 5 6 
#
# 1 239.0899 51.9085 73.5114 0.0000 -25.0667 0.0000
# 2 51.9085 112.2827 63.1602 0.0000 -2.9921 0.0000
# 3 73.5114 63.1602 155.9827 0.0000 -25.8993 0.0000
# 4 0.0000 0.0000 0.0000 34.8561 0.0000 -2.5686
# 5 -25.0667 -2.9921 -25.8993 0.0000 43.7990 0.0000
# 6 0.0000 0.0000 0.0000 -2.5686 0.0000 430.6423
#
#
#
# Elastic Compliance Matrix: (Units=1/GPa)
#
#
# Indices 1 2 3 4 5 6 
#
# 1 0.005177 -0.001492 -0.001509 0.000000 0.001969 0.000000
# 2 -0.001492 0.012155 -0.004682 0.000000 -0.002792 0.000000
# 3 -0.001509 -0.004682 0.009782 0.000000 0.004601 0.000000
# 4 0.000000 0.000000 0.000000 0.028702 0.000000 0.000171
# 5 0.001969 -0.002792 0.004601 0.000000 0.026488 0.000000
# 6 0.000000 0.000000 0.000000 0.000171 0.000000 0.002323
#
#
# Mechanical properties :
#
#
# Convention : Reuss Voigt Hill
#
# Bulk Modulus (GPa) = 85.12271 98.27950 91.70111
# Shear Modulus (GPa) = 48.11883 123.11116 85.61499
#
# Velocity S-wave (km/s) = 4.61000 7.37381 6.14919
# Velocity P-wave (km/s) = 8.11981 10.76585 9.53506
#
# Compressibility (1/GPa) = 0.01174775
#
# Stress axis : x y z
#
# Youngs Moduli (GPa) = 193.17218 82.26812 102.23007
#
# Poissons Ratio (x) = 0.12276 0.15423
# Poissons Ratio (y) = 0.28824 0.47868
# Poissons Ratio (z) = 0.29142 0.38521
#
# Static dielectric constant tensor:
#      x y z
#    x 1.818830 0.000000 -0.075530 
#    y 0.000000 1.919530 0.000000 
#    z -0.075530 0.000000 1.872070 
# 
# From -- ./inp_files/10048.got.cif
#   From: 2010.05.17/outbox.cif.g08.bks.cpg/sg13_6_cif.got.tgz:10048.got - 2010.06.03 16:44:36.
