data_PCOD9233435
_publ_section_title
;
Structure prediction by ZEFSAII (Michael W. Deem and Ramdas Pophale) SiO2 
 PCOD9233435
Probable space group: P 2/C
;
_chemical_formula_sum "Si O2"
_cell_formula_units_Z 30
_cell_length_a 27.857363
_cell_length_b 10.878188
_cell_length_c 25.025806
_cell_angle_alpha 90.000000
_cell_angle_beta 10.222860
_cell_angle_gamma 90.000000
_cell_volume 1345.946203
_symmetry_space_group_name_H-M "P 2/C"
_symmetry_group_IT_number 13
_symmetry_cell_setting 'monoclinic'
loop_
_space_group_symop_operation_xyz
x,y,z
-x,y,1/2-z
-x,-y,-z
x,-y,1/2+z
loop_
_atom_site_type_symbol
_atom_site_label
_atom_site_fract_x
_atom_site_fract_y
_atom_site_fract_z
Si Si1 0.000000 0.921263 0.750000
Si Si2 0.698640 0.256245 0.905469
Si Si3 0.611393 0.129216 0.899748
Si Si4 0.292977 0.253540 0.858602
Si Si5 0.240805 0.924362 0.072668
Si Si6 0.246470 0.639417 0.767135
Si Si7 0.570354 0.495187 0.329629
Si Si8 0.870969 0.851643 0.732633
O O1 0.230656 0.822624 0.481147
O O2 0.014721 0.016683 0.782585
O O3 0.566524 0.152803 0.011816
O O4 0.787152 0.202466 0.865272
O O5 0.955758 0.299736 0.589583
O O6 0.511303 0.375474 0.114061
O O7 0.923820 0.124596 0.540173
O O8 0.467175 0.250668 0.032675
O O9 0.500000 0.000000 0.000000
O O10 0.288368 0.400995 0.860766
O O11 0.605334 0.220041 0.505480
O O12 0.064792 0.210789 0.065647
O O13 0.244778 0.024833 0.114905
O O14 0.500000 0.922308 0.750000
O O15 0.316238 0.558660 0.638954
O O16 0.263187 0.552426 0.801341
#
# Coordination Sequence:
#
# PCOD9233435 Si02
#       8
#     2   4   4   4   4   4   4   4
#     4  10  24  46  72 104 130 182 246 318 364 410
#     4  11  25  40  68  99 142 189 231 283 359 431
#     4  11  24  38  64 105 146 179 230 287 353 429
#     4  11  23  42  73 102 132 183 237 295 351 416
#     4  11  24  45  69  95 135 181 239 295 364 420
#     4  10  21  41  60 101 139 190 218 282 349 430
#     4  10  22  39  66  97 142 182 234 273 349 433
#     4  11  24  41  71 104 136 182 228 294 355 416
#
# _framework density 22.289152000000001
#
# number of rings (size 3 to 8) (size 9 to 14) (size 15 to 20)
#    0.000    1.333    2.667    2.000    3.733    3.200 
#    0.000    1.333    0.000    0.000    0.000    0.000 
#    0.000    0.000    0.000    0.000    0.000    0.000 
#
# Total GULP energy -167359.758424 kJ/mol
# GULP energy per Si atom -5578.658614 kJ/mol
# Density = 2.223842 g / cm^3
# Si number density = 22.289152 Si / 1000 Ang^3
#
#
#
# Elastic Constant Matrix: (Units=GPa)
#
#
# Indices 1 2 3 4 5 6 
#
# 1 73.8661 65.1705 1.3188 0.0000 -7.2619 0.0000
# 2 65.1705 142.3992 23.0686 0.0000 -0.3079 0.0000
# 3 1.3188 23.0686 76.4407 0.0000 -2.9173 0.0000
# 4 0.0000 0.0000 0.0000 16.5012 0.0000 39.1759
# 5 -7.2619 -0.3079 -2.9173 0.0000 17.5503 0.0000
# 6 0.0000 0.0000 0.0000 39.1759 0.0000 -155.0415
#
#
#
# Elastic Compliance Matrix: (Units=1/GPa)
#
#
# Indices 1 2 3 4 5 6 
#
# 1 0.025219 -0.012107 0.003632 0.000000 0.010826 0.000000
# 2 -0.012107 0.013196 -0.003981 0.000000 -0.005440 0.000000
# 3 0.003632 -0.003981 0.014367 0.000000 0.003821 0.000000
# 4 0.000000 0.000000 0.000000 0.037879 0.000000 0.009571
# 5 0.010826 -0.005440 0.003821 0.000000 0.061998 0.000000
# 6 0.000000 0.000000 0.000000 0.009571 0.000000 -0.004031
#
#
# Mechanical properties :
#
#
# Convention : Reuss Voigt Hill
#
# Bulk Modulus (GPa) = 35.88123 52.42464 44.15293
# Shear Modulus (GPa) = 27.34785 -10.65478 8.34653
#
# Velocity S-wave (km/s) = 3.50660 -2.18875 1.93721
# Velocity P-wave (km/s) = 5.70333 4.14533 4.98557
#
# Compressibility (1/GPa) = 0.02786973
#
# Stress axis : x y z
#
# Youngs Moduli (GPa) = 39.65274 75.77814 69.60555
#
# Poissons Ratio (x) = 0.91742 -0.25278
# Poissons Ratio (y) = 0.48006 0.27711
# Poissons Ratio (z) = -0.14401 0.30169
#
# Static dielectric constant tensor:
#      x y z
#    x 1.887540 0.000000 -0.035980 
#    y 0.000000 1.850660 0.000000 
#    z -0.035980 0.000000 1.874010 
# 
# From -- ./inp_files/94431.got.cif
#   From: 2010.05.17/outbox.cif.g08.bks.cpg/sg13_48_cif.got.tgz:94431.got - 2010.06.03 16:44:36.
