data_PCOD9233765
_publ_section_title
;
Structure prediction by ZEFSAII (Michael W. Deem and Ramdas Pophale) SiO2 
 PCOD9233765
Probable space group: P 2/C
;
_chemical_formula_sum "Si O2"
_cell_formula_units_Z 16
_cell_length_a 13.437498
_cell_length_b 4.903234
_cell_length_c 13.481304
_cell_angle_alpha 90.000000
_cell_angle_beta 42.656900
_cell_angle_gamma 90.000000
_cell_volume 601.880943
_symmetry_space_group_name_H-M "P 2/C"
_symmetry_group_IT_number 13
_symmetry_cell_setting 'monoclinic'
loop_
_space_group_symop_operation_xyz
x,y,z
-x,y,1/2-z
-x,-y,-z
x,-y,1/2+z
loop_
_atom_site_type_symbol
_atom_site_label
_atom_site_fract_x
_atom_site_fract_y
_atom_site_fract_z
Si Si1 0.172045 0.263479 0.834384
Si Si2 0.082284 0.585225 0.093918
Si Si3 0.344327 0.475391 0.534074
Si Si4 0.524576 0.006231 0.344742
O O1 0.249706 0.484615 0.704070
O O2 0.305071 0.061160 0.760320
O O3 0.027504 0.190960 0.874687
O O4 0.119139 0.389326 0.976019
O O5 0.235193 0.660780 0.032449
O O6 0.000000 0.457999 0.250000
O O7 0.417133 0.745661 0.437370
O O8 0.469697 0.249079 0.454690
O O9 0.500000 0.097068 0.250000
#
# Coordination Sequence:
#
# PCOD9233765 Si02
#       4
#     4   4   4   4
#     4  10  21  42  71 103 137 185 227 283 346 408
#     4   9  20  43  72 102 142 182 232 282 342 410
#     4  11  24  45  69 103 140 178 230 284 342 410
#     4  12  24  43  70 102 139 182 228 284 344 406
#
# _framework density 26.583333
#
# number of rings (size 3 to 8) (size 9 to 14) (size 15 to 20)
#    0.000    1.500    2.500    2.250    0.000    0.000 
#    0.000   15.000    0.000    0.000    0.000    0.000 
#    0.000    0.000    0.000    0.000    0.000    0.000 
#
# Total GULP energy -89517.167833 kJ/mol
# GULP energy per Si atom -5594.822990 kJ/mol
# Density = 2.652283 g / cm^3
# Si number density = 26.583333 Si / 1000 Ang^3
#
#
#
# Elastic Constant Matrix: (Units=GPa)
#
#
# Indices 1 2 3 4 5 6 
#
# 1 162.9527 -10.2007 60.1734 0.0000 6.0020 0.0000
# 2 -10.2007 71.6444 51.3266 0.0000 -7.9568 0.0000
# 3 60.1734 51.3266 183.9226 0.0000 17.5826 0.0000
# 4 0.0000 0.0000 0.0000 9.3265 0.0000 4.0074
# 5 6.0020 -7.9568 17.5826 0.0000 48.3235 0.0000
# 6 0.0000 0.0000 0.0000 4.0074 0.0000 18.9954
#
#
#
# Elastic Compliance Matrix: (Units=1/GPa)
#
#
# Indices 1 2 3 4 5 6 
#
# 1 0.007705 0.003858 -0.003695 0.000000 0.001023 0.000000
# 2 0.003858 0.020528 -0.007530 0.000000 0.005641 0.000000
# 3 -0.003695 -0.007530 0.009140 0.000000 -0.004107 0.000000
# 4 0.000000 0.000000 0.000000 0.117910 0.000000 -0.024875
# 5 0.001023 0.005641 -0.004107 0.000000 0.022990 0.000000
# 6 0.000000 0.000000 0.000000 -0.024875 0.000000 0.057892
#
#
# Mechanical properties :
#
#
# Convention : Reuss Voigt Hill
#
# Bulk Modulus (GPa) = 44.17265 69.01316 56.59290
# Shear Modulus (GPa) = 19.34639 36.47709 27.91174
#
# Velocity S-wave (km/s) = 2.70064 3.70831 3.24384
# Velocity P-wave (km/s) = 5.13589 6.65979 5.94686
#
# Compressibility (1/GPa) = 0.02263844
#
# Stress axis : x y z
#
# Youngs Moduli (GPa) = 129.78365 48.71326 109.40867
#
# Poissons Ratio (x) = -0.18793 0.40429
# Poissons Ratio (y) = -0.50070 0.82387
# Poissons Ratio (z) = 0.47958 0.36682
#
# Static dielectric constant tensor:
#      x y z
#    x 2.177640 0.000000 -0.054230 
#    y 0.000000 2.053870 0.000000 
#    z -0.054230 0.000000 2.104650 
# 
# From -- ./inp_files/51965.got.cif
#   From: 2010.05.17/outbox.cif.g08.bks.cpg/sg13_26_cif.got.tgz:51965.got - 2010.06.03 16:44:36.
