data_PCOD9233838
_publ_section_title
;
Structure prediction by ZEFSAII (Michael W. Deem and Ramdas Pophale) SiO2 
 PCOD9233838
Probable space group: P 2/C
;
_chemical_formula_sum "Si O2"
_cell_formula_units_Z 24
_cell_length_a 9.883220
_cell_length_b 5.202087
_cell_length_c 20.315560
_cell_angle_alpha 90.000000
_cell_angle_beta 94.490237
_cell_angle_gamma 90.000000
_cell_volume 1041.285539
_symmetry_space_group_name_H-M "P 2/C"
_symmetry_group_IT_number 13
_symmetry_cell_setting 'monoclinic'
loop_
_space_group_symop_operation_xyz
x,y,z
-x,y,1/2-z
-x,-y,-z
x,-y,1/2+z
loop_
_atom_site_type_symbol
_atom_site_label
_atom_site_fract_x
_atom_site_fract_y
_atom_site_fract_z
Si Si1 0.393516 0.345000 0.325384
Si Si2 0.123336 0.120135 0.155190
Si Si3 0.825378 0.051063 0.640223
Si Si4 0.383914 0.857557 0.587883
Si Si5 0.803087 0.618379 0.259051
Si Si6 0.402183 0.282035 0.947184
O O1 0.278892 0.125790 0.322015
O O2 0.541427 0.224833 0.341127
O O3 0.350981 0.541573 0.267071
O O4 0.381071 0.491373 0.394678
O O5 0.226426 0.136784 0.098375
O O6 0.137013 0.370090 0.202198
O O7 0.966539 0.084119 0.130994
O O8 0.174063 0.864028 0.194720
O O9 0.859659 0.292519 0.689606
O O10 0.734564 0.117162 0.573609
O O11 0.403215 0.674075 0.525023
O O12 0.466393 0.113304 0.569347
#
# Coordination Sequence:
#
# PCOD9233838 Si02
#       6
#     4   4   4   4   4   4
#     4  10  21  43  67  96 131 182 225 266 341 402
#     4  12  27  41  69 102 137 174 227 280 333 397
#     4  10  23  42  69  98 130 181 227 269 338 399
#     4  10  23  44  65 103 135 176 225 284 332 399
#     4  11  25  43  64  96 139 178 218 272 337 402
#     4   9  21  44  73  92 137 181 225 274 344 396
#
# _framework density 23.048434
#
# number of rings (size 3 to 8) (size 9 to 14) (size 15 to 20)
#    0.000    1.667    1.667    1.000    9.333    1.333 
#    6.000    0.833    0.000    0.000    0.000    0.000 
#    0.000    0.000    0.000    0.000    0.000    0.000 
#
# Total GULP energy -133935.932744 kJ/mol
# GULP energy per Si atom -5580.663864 kJ/mol
# Density = 2.299598 g / cm^3
# Si number density = 23.048434 Si / 1000 Ang^3
#
#
#
# Elastic Constant Matrix: (Units=GPa)
#
#
# Indices 1 2 3 4 5 6 
#
# 1 125.6150 19.9546 27.8840 0.0000 -16.3152 0.0000
# 2 19.9546 101.6525 18.3059 0.0000 8.2118 0.0000
# 3 27.8840 18.3059 42.3464 0.0000 0.6204 0.0000
# 4 0.0000 0.0000 0.0000 32.6195 0.0000 14.3516
# 5 -16.3152 8.2118 0.6204 0.0000 22.7233 0.0000
# 6 0.0000 0.0000 0.0000 14.3516 0.0000 27.7880
#
#
#
# Elastic Compliance Matrix: (Units=1/GPa)
#
#
# Indices 1 2 3 4 5 6 
#
# 1 0.010769 -0.001628 -0.006512 0.000000 0.008498 0.000000
# 2 -0.001628 0.011240 -0.003712 0.000000 -0.005129 0.000000
# 3 -0.006512 -0.003712 0.029568 0.000000 -0.004141 0.000000
# 4 0.000000 0.000000 0.000000 0.039671 0.000000 -0.020489
# 5 0.008498 -0.005129 -0.004141 0.000000 0.052076 0.000000
# 6 0.000000 0.000000 0.000000 -0.020489 0.000000 0.046568
#
#
# Mechanical properties :
#
#
# Convention : Reuss Voigt Hill
#
# Bulk Modulus (GPa) = 35.87623 44.65587 40.26605
# Shear Modulus (GPa) = 22.43307 30.19077 26.31192
#
# Velocity S-wave (km/s) = 3.12316 3.62316 3.38241
# Velocity P-wave (km/s) = 5.34835 6.07617 5.72384
#
# Compressibility (1/GPa) = 0.02787361
#
# Stress axis : x y z
#
# Youngs Moduli (GPa) = 92.86260 88.96986 33.82056
#
# Poissons Ratio (x) = 0.14482 0.22023
# Poissons Ratio (y) = 0.15116 0.12554
# Poissons Ratio (z) = 0.60469 0.33024
#
# Static dielectric constant tensor:
#      x y z
#    x 1.934790 0.000000 0.014370 
#    y 0.000000 1.967720 0.000000 
#    z 0.014370 0.000000 1.846910 
# 
# From -- ./inp_files/84362.got.cif
#   From: 2010.05.17/outbox.cif.g08.bks.cpg/sg13_43_cif.got.tgz:84362.got - 2010.06.03 16:44:36.
