data_PCOD9233747
_publ_section_title
;
Structure prediction by ZEFSAII (Michael W. Deem and Ramdas Pophale) SiO2 
 PCOD9233747
Probable space group: P 2/C
;
_chemical_formula_sum "Si O2"
_cell_formula_units_Z 14
_cell_length_a 7.417645
_cell_length_b 16.921743
_cell_length_c 5.266099
_cell_angle_alpha 90.000000
_cell_angle_beta 118.316308
_cell_angle_gamma 90.000000
_cell_volume 581.904570
_symmetry_space_group_name_H-M "P 2/C"
_symmetry_group_IT_number 13
_symmetry_cell_setting 'monoclinic'
loop_
_space_group_symop_operation_xyz
x,y,z
-x,y,1/2-z
-x,-y,-z
x,-y,1/2+z
loop_
_atom_site_type_symbol
_atom_site_label
_atom_site_fract_x
_atom_site_fract_y
_atom_site_fract_z
Si Si1 0.731632 0.968887 0.201941
Si Si2 0.139424 0.204726 0.595105
Si Si3 0.500000 0.324865 0.750000
Si Si4 0.778742 0.552904 0.674547
O O1 0.752488 0.881118 0.321320
O O2 0.819099 0.026937 0.475964
O O3 0.500000 0.000000 0.000000
O O4 0.316956 0.269865 0.722380
O O5 0.000000 0.213099 0.750000
O O6 0.000000 0.210058 0.250000
O O7 0.397229 0.383359 0.478472
O O8 0.767083 0.486477 0.443413
O O9 0.000000 0.590162 0.750000
#
# Coordination Sequence:
#
# PCOD9233747 Si02
#       4
#     4   4   2   4
#     4  10  21  42  69  96 130 177 231 287 339 402
#     4  12  29  47  69 105 144 185 233 288 352 418
#     4  12  26  48  74 102 146 190 228 282 354 418
#     4  10  23  44  72 105 137 178 234 286 339 409
#
# _framework density 24.058928999999999
#
# number of rings (size 3 to 8) (size 9 to 14) (size 15 to 20)
#    0.000    1.143    0.000    5.143    0.000   14.857 
#    0.000    0.000    0.000    0.000    0.000    0.000 
#    0.000    0.000    0.000    0.000    0.000    0.000 
#
# Total GULP energy -78394.597812 kJ/mol
# GULP energy per Si atom -5599.614129 kJ/mol
# Density = 2.400417 g / cm^3
# Si number density = 24.058929 Si / 1000 Ang^3
#
#
#
# Elastic Constant Matrix: (Units=GPa)
#
#
# Indices 1 2 3 4 5 6 
#
# 1 134.3088 38.1424 61.3579 0.0000 11.4227 0.0000
# 2 38.1424 85.3798 41.7779 0.0000 23.1593 0.0000
# 3 61.3579 41.7779 172.8839 0.0000 -1.8490 0.0000
# 4 0.0000 0.0000 0.0000 19.2090 0.0000 36.2039
# 5 11.4227 23.1593 -1.8490 0.0000 52.5040 0.0000
# 6 0.0000 0.0000 0.0000 36.2039 0.0000 33.6569
#
#
#
# Elastic Compliance Matrix: (Units=1/GPa)
#
#
# Indices 1 2 3 4 5 6 
#
# 1 0.009541 -0.002638 -0.002759 0.000000 -0.001009 0.000000
# 2 -0.002638 0.016194 -0.003048 0.000000 -0.006676 0.000000
# 3 -0.002759 -0.003048 0.007524 0.000000 0.002210 0.000000
# 4 0.000000 0.000000 0.000000 -0.050673 0.000000 0.054507
# 5 -0.001009 -0.006676 0.002210 0.000000 0.022288 0.000000
# 6 0.000000 0.000000 0.000000 0.054507 0.000000 -0.028920
#
#
# Mechanical properties :
#
#
# Convention : Reuss Voigt Hill
#
# Bulk Modulus (GPa) = 61.10092 75.01435 68.05763
# Shear Modulus (GPa) = -2944.70371 37.82692 -1453.43839
#
# Velocity S-wave (km/s) = -35.02302 3.96948 -24.60544
# Velocity P-wave (km/s) = 40.12519 7.22884 27.90855
#
# Compressibility (1/GPa) = 0.01636637
#
# Stress axis : x y z
#
# Youngs Moduli (GPa) = 104.80752 61.75301 132.91089
#
# Poissons Ratio (x) = 0.16293 0.36677
# Poissons Ratio (y) = 0.27653 0.40514
# Poissons Ratio (z) = 0.28922 0.18824
#
# Static dielectric constant tensor:
#      x y z
#    x 3.256220 0.000000 0.106020 
#    y 0.000000 1.892090 0.000000 
#    z 0.106020 0.000000 1.926270 
# 
# From -- ./inp_files/1000.got.cif
#   From: 2010.05.17/outbox.cif.g08.bks.cpg/sg13_1_cif.got.tgz:1000.got - 2010.06.03 16:44:36.
