data_PCOD9233712
_publ_section_title
;
Structure prediction by ZEFSAII (Michael W. Deem and Ramdas Pophale) SiO2 
 PCOD9233712
Probable space group: P 2/C
;
_chemical_formula_sum "Si O2"
_cell_formula_units_Z 30
_cell_length_a 11.106599
_cell_length_b 15.699397
_cell_length_c 13.163814
_cell_angle_alpha 90.000000
_cell_angle_beta 32.198379
_cell_angle_gamma 90.000000
_cell_volume 1223.073833
_symmetry_space_group_name_H-M "P 2/C"
_symmetry_group_IT_number 13
_symmetry_cell_setting 'monoclinic'
loop_
_space_group_symop_operation_xyz
x,y,z
-x,y,1/2-z
-x,-y,-z
x,-y,1/2+z
loop_
_atom_site_type_symbol
_atom_site_label
_atom_site_fract_x
_atom_site_fract_y
_atom_site_fract_z
Si Si1 0.114275 0.341075 0.475607
Si Si2 0.486522 0.829386 0.141592
Si Si3 0.218834 0.694929 0.663085
Si Si4 0.128285 0.994576 0.750839
Si Si5 0.020652 0.170428 0.855906
Si Si6 0.623438 0.570256 0.339076
Si Si7 0.500000 0.546924 0.750000
Si Si8 0.464366 0.963353 0.664084
O O1 0.167278 0.337443 0.315423
O O2 0.294652 0.389064 0.419173
O O3 0.137692 0.241746 0.484925
O O4 0.870912 0.386016 0.673860
O O5 0.500000 0.798298 0.250000
O O6 0.254434 0.808731 0.248736
O O7 0.478006 0.932651 0.158252
O O8 0.691143 0.790434 0.928809
O O9 0.435843 0.642987 0.469647
O O10 0.000000 0.678804 0.750000
O O11 0.976613 0.069686 0.904632
O O12 0.247743 0.941514 0.751489
O O13 0.000000 0.950610 0.750000
O O14 0.321680 0.052803 0.560054
O O15 0.000000 0.185166 0.750000
O O16 0.500000 0.500000 0.500000
O O17 0.626710 0.516096 0.234960
O O18 0.500000 0.928389 0.750000
#
# Coordination Sequence:
#
# PCOD9233712 Si02
#       8
#     4   4   4   4   4   4   2   4
#     4  12  27  47  69 104 136 180 232 284 355 420
#     4  10  21  42  67  99 137 189 230 285 348 410
#     4  12  26  43  70 100 134 181 229 285 347 415
#     4   9  19  38  61  95 128 180 220 276 343 396
#     4  10  22  41  69  92 139 184 222 282 351 413
#     4  12  27  47  68  95 138 177 219 290 341 415
#     4  12  28  44  72 104 132 172 240 282 348 424
#     4   9  19  37  64  94 135 178 231 281 333 408
#
# _framework density 24.528362999999999
#
# number of rings (size 3 to 8) (size 9 to 14) (size 15 to 20)
#    0.000    1.333    2.667    2.000    6.533    1.067 
#    0.000    8.000    0.000    0.000    0.000    0.000 
#    0.000    0.000    0.000    0.000    0.000    0.000 
#
# Total GULP energy -167185.774422 kJ/mol
# GULP energy per Si atom -5572.859147 kJ/mol
# Density = 2.447254 g / cm^3
# Si number density = 24.528363 Si / 1000 Ang^3
#
#
#
# Elastic Constant Matrix: (Units=GPa)
#
#
# Indices 1 2 3 4 5 6 
#
# 1 153.1504 13.3684 42.8258 0.0000 -12.3629 0.0000
# 2 13.3684 85.1146 7.3856 0.0000 -11.1096 0.0000
# 3 42.8258 7.3856 80.7177 0.0000 -10.5192 0.0000
# 4 0.0000 0.0000 0.0000 34.8863 0.0000 5.6429
# 5 -12.3629 -11.1096 -10.5192 0.0000 47.1749 0.0000
# 6 0.0000 0.0000 0.0000 5.6429 0.0000 16.0127
#
#
#
# Elastic Compliance Matrix: (Units=1/GPa)
#
#
# Indices 1 2 3 4 5 6 
#
# 1 0.007773 -0.000752 -0.003927 0.000000 0.000984 0.000000
# 2 -0.000752 0.012239 -0.000382 0.000000 0.002600 0.000000
# 3 -0.003927 -0.000382 0.014791 0.000000 0.002179 0.000000
# 4 0.000000 0.000000 0.000000 0.030397 0.000000 -0.010712
# 5 0.000984 0.002600 0.002179 0.000000 0.022554 0.000000
# 6 0.000000 0.000000 0.000000 -0.010712 0.000000 0.066225
#
#
# Mechanical properties :
#
#
# Convention : Reuss Voigt Hill
#
# Bulk Modulus (GPa) = 40.51542 49.57138 45.04340
# Shear Modulus (GPa) = 29.01433 36.64163 32.82798
#
# Velocity S-wave (km/s) = 3.44305 3.86922 3.66234
# Velocity P-wave (km/s) = 5.68856 6.34152 6.02390
#
# Compressibility (1/GPa) = 0.02468196
#
# Stress axis : x y z
#
# Youngs Moduli (GPa) = 128.65599 81.70293 67.60758
#
# Poissons Ratio (x) = 0.06141 0.26548
# Poissons Ratio (y) = 0.09670 0.02585
# Poissons Ratio (z) = 0.50521 0.03123
#
# Static dielectric constant tensor:
#      x y z
#    x 1.963270 0.000000 0.034830 
#    y 0.000000 2.004850 0.000000 
#    z 0.034830 0.000000 2.040820 
# 
# From -- ./inp_files/51601.got.cif
#   From: 2010.05.17/outbox.cif.g08.bks.cpg/sg13_26_cif.got.tgz:51601.got - 2010.06.03 16:44:36.
