data_PCOD9233232
_publ_section_title
;
Structure prediction by ZEFSAII (Michael W. Deem and Ramdas Pophale) SiO2 
 PCOD9233232
Probable space group: P 2/C
;
_chemical_formula_sum "Si O2"
_cell_formula_units_Z 32
_cell_length_a 11.880753
_cell_length_b 8.706412
_cell_length_c 15.379972
_cell_angle_alpha 90.000000
_cell_angle_beta 125.794137
_cell_angle_gamma 90.000000
_cell_volume 1290.404304
_symmetry_space_group_name_H-M "P 2/C"
_symmetry_group_IT_number 13
_symmetry_cell_setting 'monoclinic'
loop_
_space_group_symop_operation_xyz
x,y,z
-x,y,1/2-z
-x,-y,-z
x,-y,1/2+z
loop_
_atom_site_type_symbol
_atom_site_label
_atom_site_fract_x
_atom_site_fract_y
_atom_site_fract_z
Si Si1 0.901929 0.898638 0.620593
Si Si2 0.352397 0.897585 0.652651
Si Si3 0.650746 0.931095 0.091328
Si Si4 0.153734 0.944503 0.160303
Si Si5 0.633479 0.412172 0.248818
Si Si6 0.886915 0.406519 0.814331
Si Si7 0.836626 0.542882 0.595753
Si Si8 0.584064 0.660175 0.971390
O O1 0.846416 0.725216 0.593531
O O2 0.000000 0.907989 0.750000
O O3 0.773574 0.011302 0.582683
O O4 0.019176 0.947421 0.604316
O O5 0.500000 0.962660 0.750000
O O6 0.311713 0.754625 0.697300
O O7 0.386193 0.800972 0.581574
O O8 0.235074 0.026006 0.607083
O O9 0.720698 0.977216 0.214088
O O10 0.619912 0.747851 0.076276
O O11 0.500000 0.000000 0.000000
O O12 0.106089 0.775387 0.167980
O O13 0.500000 0.445706 0.250000
O O14 0.757200 0.530359 0.309483
O O15 0.569075 0.394695 0.122430
O O16 0.860238 0.473486 0.704229
O O17 0.037129 0.475050 0.903779
O O18 0.691131 0.473815 0.501074
#
# Coordination Sequence:
#
# PCOD9233232 Si02
#       8
#     4   4   4   4   4   4   4   4
#     4  10  22  38  60  85 125 162 202 247 313 376
#     4   9  20  40  63  85 123 170 204 246 310 376
#     4  11  22  35  59  91 121 153 202 260 303 360
#     4  11  22  39  62  88 120 168 203 249 307 375
#     4   9  21  41  61  86 125 171 203 246 312 376
#     4  11  22  37  63  91 122 161 208 257 310 368
#     4  11  22  38  60  94 122 157 208 262 312 364
#     4  10  21  40  61  92 128 155 207 260 307 360
#
# _framework density 24.798431000000001
#
# number of rings (size 3 to 8) (size 9 to 14) (size 15 to 20)
#    0.000    2.000    2.500    3.000    7.000    2.000 
#    0.000   10.625    0.000    0.000    0.000    0.000 
#    0.000    0.000    0.000    0.000    0.000    0.000 
#
# Total GULP energy -178731.113518 kJ/mol
# GULP energy per Si atom -5585.347297 kJ/mol
# Density = 2.474199 g / cm^3
# Si number density = 24.798431 Si / 1000 Ang^3
#
#
#
# Elastic Constant Matrix: (Units=GPa)
#
#
# Indices 1 2 3 4 5 6 
#
# 1 89.1369 39.1605 5.3133 0.0000 10.0264 0.0000
# 2 39.1605 91.2976 11.6951 0.0000 30.9850 0.0000
# 3 5.3133 11.6951 78.0256 0.0000 25.4952 0.0000
# 4 0.0000 0.0000 0.0000 22.6605 0.0000 16.1787
# 5 10.0264 30.9850 25.4952 0.0000 37.2807 0.0000
# 6 0.0000 0.0000 0.0000 16.1787 0.0000 42.3060
#
#
#
# Elastic Compliance Matrix: (Units=1/GPa)
#
#
# Indices 1 2 3 4 5 6 
#
# 1 0.013928 -0.006650 -0.000687 0.000000 0.002251 0.000000
# 2 -0.006650 0.018786 0.002774 0.000000 -0.015723 0.000000
# 3 -0.000687 0.002774 0.016922 0.000000 -0.013693 0.000000
# 4 0.000000 0.000000 0.000000 0.060704 0.000000 -0.023214
# 5 0.002251 -0.015723 -0.013693 0.000000 0.048650 0.000000
# 6 0.000000 0.000000 0.000000 -0.023214 0.000000 0.032515
#
#
# Mechanical properties :
#
#
# Convention : Reuss Voigt Hill
#
# Bulk Modulus (GPa) = 24.68537 41.19978 32.94258
# Shear Modulus (GPa) = 23.34984 33.93552 28.64268
#
# Velocity S-wave (km/s) = 3.07186 3.70328 3.40225
# Velocity P-wave (km/s) = 4.74950 5.91063 5.36159
#
# Compressibility (1/GPa) = 0.04050982
#
# Stress axis : x y z
#
# Youngs Moduli (GPa) = 71.79743 53.23017 59.09610
#
# Poissons Ratio (x) = 0.35399 0.04062
# Poissons Ratio (y) = 0.47747 -0.16396
# Poissons Ratio (z) = 0.04935 -0.14768
#
# Static dielectric constant tensor:
#      x y z
#    x 2.021650 0.000000 -0.130940 
#    y 0.000000 2.019360 0.000000 
#    z -0.130940 0.000000 2.064120 
# 
# From -- ./inp_files/78311.got.cif
#   From: 2010.05.17/outbox.cif.g08.bks.cpg/sg13_40_cif.got.tgz:78311.got - 2010.06.03 16:44:36.
