data_PCOD9233341
_publ_section_title
;
Structure prediction by ZEFSAII (Michael W. Deem and Ramdas Pophale) SiO2 
 PCOD9233341
Probable space group: P 2/C
;
_chemical_formula_sum "Si O2"
_cell_formula_units_Z 30
_cell_length_a 10.917651
_cell_length_b 13.366868
_cell_length_c 19.297631
_cell_angle_alpha 90.000000
_cell_angle_beta 149.391549
_cell_angle_gamma 90.000000
_cell_volume 1433.917878
_symmetry_space_group_name_H-M "P 2/C"
_symmetry_group_IT_number 13
_symmetry_cell_setting 'monoclinic'
loop_
_space_group_symop_operation_xyz
x,y,z
-x,y,1/2-z
-x,-y,-z
x,-y,1/2+z
loop_
_atom_site_type_symbol
_atom_site_label
_atom_site_fract_x
_atom_site_fract_y
_atom_site_fract_z
Si Si1 0.000000 0.799644 0.250000
Si Si2 0.286445 0.612578 0.701866
Si Si3 0.756532 0.892378 0.000589
Si Si4 0.963250 0.750587 0.458790
Si Si5 0.508856 0.734809 0.449140
Si Si6 0.615519 0.390307 0.729054
Si Si7 0.276604 0.212445 0.304973
Si Si8 0.206387 0.875143 0.998731
O O1 0.928970 0.866802 0.149328
O O2 0.758764 0.736755 0.149057
O O3 0.500000 0.613011 0.750000
O O4 0.271550 0.499991 0.722428
O O5 0.331842 0.692306 0.783681
O O6 0.059243 0.657402 0.550675
O O7 0.828295 0.817304 0.973422
O O8 0.787964 0.006319 0.993726
O O9 0.486978 0.868145 0.893937
O O10 0.810540 0.698020 0.325121
O O11 0.813642 0.822139 0.436507
O O12 0.547882 0.641262 0.415956
O O13 0.693228 0.746836 0.602627
O O14 0.562574 0.832660 0.428814
O O15 0.500000 0.385532 0.750000
O O16 0.027540 0.163731 0.158120
#
# Coordination Sequence:
#
# PCOD9233341 Si02
#       8
#     2   4   4   4   4   4   4   4
#     4  10  24  38  64  88 126 166 208 252 310 368
#     4  10  21  40  66  92 123 166 206 259 322 375
#     4  11  23  39  64  92 124 172 210 251 313 376
#     4  11  21  42  61  96 128 163 205 267 311 370
#     4  11  23  43  63  94 129 163 208 266 307 371
#     4  11  22  40  67  94 121 163 210 262 320 378
#     4  10  24  42  62  92 130 169 206 262 313 373
#     4  11  25  39  66  93 128 168 211 262 311 372
#
# _framework density 20.921700999999999
#
# number of rings (size 3 to 8) (size 9 to 14) (size 15 to 20)
#    0.000    1.333    4.000    1.200    3.733    1.600 
#    0.000    1.333    5.867    0.000    0.000    0.000 
#    0.000    0.000    0.000    0.000    0.000    0.000 
#
# Total GULP energy -167518.065087 kJ/mol
# GULP energy per Si atom -5583.935503 kJ/mol
# Density = 2.087408 g / cm^3
# Si number density = 20.921701 Si / 1000 Ang^3
#
#
#
# Elastic Constant Matrix: (Units=GPa)
#
#
# Indices 1 2 3 4 5 6 
#
# 1 59.3064 29.7644 7.4981 0.0000 4.6894 0.0000
# 2 29.7644 146.7289 46.3230 0.0000 -9.9904 0.0000
# 3 7.4981 46.3230 48.0111 0.0000 3.6348 0.0000
# 4 0.0000 0.0000 0.0000 14.7169 0.0000 5.5390
# 5 4.6894 -9.9904 3.6348 0.0000 25.6212 0.0000
# 6 0.0000 0.0000 0.0000 5.5390 0.0000 8.7123
#
#
#
# Elastic Compliance Matrix: (Units=1/GPa)
#
#
# Indices 1 2 3 4 5 6 
#
# 1 0.019600 -0.005109 0.002316 0.000000 -0.005908 0.000000
# 2 -0.005109 0.011875 -0.011201 0.000000 0.007155 0.000000
# 3 0.002316 -0.011201 0.031981 0.000000 -0.009329 0.000000
# 4 0.000000 0.000000 0.000000 0.089322 0.000000 -0.056788
# 5 -0.005908 0.007155 -0.009329 0.000000 0.044225 0.000000
# 6 0.000000 0.000000 0.000000 -0.056788 0.000000 0.150885
#
#
# Mechanical properties :
#
#
# Convention : Reuss Voigt Hill
#
# Bulk Modulus (GPa) = 28.19563 46.80196 37.49879
# Shear Modulus (GPa) = 12.89657 21.17413 17.03535
#
# Velocity S-wave (km/s) = 2.48548 3.18475 2.85659
# Velocity P-wave (km/s) = 4.66292 5.99517 5.37052
#
# Compressibility (1/GPa) = 0.03546649
#
# Stress axis : x y z
#
# Youngs Moduli (GPa) = 51.01979 84.20865 31.26887
#
# Poissons Ratio (x) = 0.43026 -0.07242
# Poissons Ratio (y) = 0.26068 0.35026
# Poissons Ratio (z) = -0.11816 0.94326
#
# Static dielectric constant tensor:
#      x y z
#    x 1.774920 0.000000 -0.005780 
#    y 0.000000 1.696310 0.000000 
#    z -0.005780 0.000000 1.811350 
# 
# From -- ./inp_files/78637.got.cif
#   From: 2010.05.17/outbox.cif.g08.bks.cpg/sg13_40_cif.got.tgz:78637.got - 2010.06.03 16:44:36.
