data_PCOD9233128
_publ_section_title
;
Structure prediction by ZEFSAII (Michael W. Deem and Ramdas Pophale) SiO2 
 PCOD9233128
Probable space group: P 2/C
;
_chemical_formula_sum "Si O2"
_cell_formula_units_Z 22
_cell_length_a 8.675030
_cell_length_b 7.332606
_cell_length_c 16.783154
_cell_angle_alpha 90.000000
_cell_angle_beta 71.971067
_cell_angle_gamma 90.000000
_cell_volume 1015.168005
_symmetry_space_group_name_H-M "P 2/C"
_symmetry_group_IT_number 13
_symmetry_cell_setting 'monoclinic'
loop_
_space_group_symop_operation_xyz
x,y,z
-x,y,1/2-z
-x,-y,-z
x,-y,1/2+z
loop_
_atom_site_type_symbol
_atom_site_label
_atom_site_fract_x
_atom_site_fract_y
_atom_site_fract_z
Si Si1 0.012045 0.889970 0.414966
Si Si2 0.690103 0.337496 0.961238
Si Si3 0.500000 0.630284 0.750000
Si Si4 0.795717 0.475637 0.608139
Si Si5 0.019551 0.759983 0.656636
Si Si6 0.382914 0.293204 0.101940
O O1 0.140339 0.728320 0.401437
O O2 0.840157 0.794739 0.421124
O O3 0.000000 0.000000 0.500000
O O4 0.061419 0.044132 0.343838
O O5 0.646535 0.486516 0.901325
O O6 0.741113 0.458074 0.030126
O O7 0.524847 0.242959 0.017724
O O8 0.648533 0.512677 0.692015
O O9 0.562604 0.743534 0.816335
O O10 0.939807 0.610728 0.612588
O O11 0.209097 0.787965 0.609853
O O12 0.000000 0.695602 0.750000
#
# Coordination Sequence:
#
# PCOD9233128 Si02
#       6
#     4   4   2   4   4   4
#     4  12  24  39  67 101 128 169 215 265 323 384
#     4  10  21  40  67  94 126 166 215 263 316 381
#     4  10  22  40  70  88 126 180 210 262 324 374
#     4  11  22  44  67  92 132 170 214 263 321 388
#     4  12  24  40  66  96 130 171 213 264 321 388
#     4  10  21  39  66  93 124 171 214 259 321 373
#
# _framework density 21.671289000000002
#
# number of rings (size 3 to 8) (size 9 to 14) (size 15 to 20)
#    0.000    1.091    5.455    1.636    0.000    2.909 
#    0.000    2.727    0.000    0.000    0.000    0.000 
#    0.000    0.000    0.000    0.000    0.000    0.000 
#
# Total GULP energy -123014.300476 kJ/mol
# GULP energy per Si atom -5591.559113 kJ/mol
# Density = 2.162196 g / cm^3
# Si number density = 21.671289 Si / 1000 Ang^3
#
#
#
# Elastic Constant Matrix: (Units=GPa)
#
#
# Indices 1 2 3 4 5 6 
#
# 1 83.2828 5.1633 -0.9145 0.0000 -1.3268 0.0000
# 2 5.1633 73.0555 -11.2150 0.0000 1.5102 0.0000
# 3 -0.9145 -11.2150 33.4239 0.0000 4.2908 0.0000
# 4 0.0000 0.0000 0.0000 14.3416 0.0000 1.1101
# 5 -1.3268 1.5102 4.2908 0.0000 42.3042 0.0000
# 6 0.0000 0.0000 0.0000 1.1101 0.0000 25.6712
#
#
#
# Elastic Compliance Matrix: (Units=1/GPa)
#
#
# Indices 1 2 3 4 5 6 
#
# 1 0.012067 -0.000863 -0.000012 0.000000 0.000411 0.000000
# 2 -0.000863 0.014537 0.004989 0.000000 -0.001052 0.000000
# 3 -0.000012 0.004989 0.032032 0.000000 -0.003427 0.000000
# 4 0.000000 0.000000 0.000000 0.069962 0.000000 -0.003025
# 5 0.000411 -0.001052 -0.003427 0.000000 0.024036 0.000000
# 6 0.000000 0.000000 0.000000 -0.003025 0.000000 0.039085
#
#
# Mechanical properties :
#
#
# Convention : Reuss Voigt Hill
#
# Bulk Modulus (GPa) = 14.95574 19.53663 17.24619
# Shear Modulus (GPa) = 24.29782 29.57864 26.93823
#
# Velocity S-wave (km/s) = 3.35206 3.69843 3.52950
# Velocity P-wave (km/s) = 4.67952 5.22230 4.95834
#
# Compressibility (1/GPa) = 0.06686394
#
# Stress axis : x y z
#
# Youngs Moduli (GPa) = 82.86925 68.79054 31.21841
#
# Poissons Ratio (x) = 0.05938 0.00038
# Poissons Ratio (y) = 0.07153 -0.15575
# Poissons Ratio (z) = 0.00101 -0.34320
#
# Static dielectric constant tensor:
#      x y z
#    x 1.825960 0.000000 -0.008130 
#    y 0.000000 1.742370 0.000000 
#    z -0.008130 0.000000 1.809100 
# 
# From -- ./inp_files/62871.got.cif
#   From: 2010.05.17/outbox.cif.g08.bks.cpg/sg13_32_cif.got.tgz:62871.got - 2010.06.03 16:44:36.
