data_PCOD9233534
_publ_section_title
;
Structure prediction by ZEFSAII (Michael W. Deem and Ramdas Pophale) SiO2 
 PCOD9233534
Probable space group: P 2/C
;
_chemical_formula_sum "Si O2"
_cell_formula_units_Z 18
_cell_length_a 11.385917
_cell_length_b 8.046682
_cell_length_c 16.561557
_cell_angle_alpha 90.000000
_cell_angle_beta 145.830979
_cell_angle_gamma 90.000000
_cell_volume 852.199029
_symmetry_space_group_name_H-M "P 2/C"
_symmetry_group_IT_number 13
_symmetry_cell_setting 'monoclinic'
loop_
_space_group_symop_operation_xyz
x,y,z
-x,y,1/2-z
-x,-y,-z
x,-y,1/2+z
loop_
_atom_site_type_symbol
_atom_site_label
_atom_site_fract_x
_atom_site_fract_y
_atom_site_fract_z
Si Si1 0.697634 0.216466 0.720875
Si Si2 0.128345 0.636045 0.480263
Si Si3 0.552032 0.330742 0.479956
Si Si4 0.688856 0.865300 0.791905
Si Si5 0.500000 0.600431 0.250000
O O1 0.598196 0.199896 0.576394
O O2 0.532388 0.290772 0.689505
O O3 0.883136 0.354066 0.821605
O O4 0.753018 0.035756 0.786600
O O5 0.243998 0.656386 0.460589
O O6 0.141335 0.781713 0.554436
O O7 0.284560 0.501453 0.611134
O O8 0.500000 0.500000 0.500000
O O9 0.383066 0.262615 0.319404
O O10 0.500000 0.890128 0.750000
#
# Coordination Sequence:
#
# PCOD9233534 Si02
#       5
#     4   4   4   4   2
#     4  12  23  38  66  96 123 167 217 260 317 379
#     4  11  22  42  64  89 127 168 212 260 318 382
#     4  11  21  40  66  90 130 167 203 264 321 370
#     4  10  21  41  66  91 130 166 205 266 325 370
#     4  12  22  40  64  90 128 172 212 264 318 372
#
# _framework density 21.121825999999999
#
# number of rings (size 3 to 8) (size 9 to 14) (size 15 to 20)
#    0.000    0.889    6.667    2.667    0.000    0.000 
#    0.000    0.000    0.000    0.000    0.000    0.000 
#    0.000    0.000    0.000    0.000    0.000    0.000 
#
# Total GULP energy -100247.087286 kJ/mol
# GULP energy per Si atom -5569.282627 kJ/mol
# Density = 2.107375 g / cm^3
# Si number density = 21.121826 Si / 1000 Ang^3
#
#
#
# Elastic Constant Matrix: (Units=GPa)
#
#
# Indices 1 2 3 4 5 6 
#
# 1 134.3300 45.9916 41.3918 0.0000 -43.2848 0.0000
# 2 45.9916 91.7489 23.6534 0.0000 -6.4072 0.0000
# 3 41.3918 23.6534 82.8327 0.0000 -15.7447 0.0000
# 4 0.0000 0.0000 0.0000 96.3427 0.0000 -32.5013
# 5 -43.2848 -6.4072 -15.7447 0.0000 36.2054 0.0000
# 6 0.0000 0.0000 0.0000 -32.5013 0.0000 46.0604
#
#
#
# Elastic Compliance Matrix: (Units=1/GPa)
#
#
# Indices 1 2 3 4 5 6 
#
# 1 0.015695 -0.005942 -0.003030 0.000000 0.016395 0.000000
# 2 -0.005942 0.014030 -0.002088 0.000000 -0.005529 0.000000
# 3 -0.003030 -0.002088 0.014634 0.000000 0.002372 0.000000
# 4 0.000000 0.000000 0.000000 0.013622 0.000000 0.009612
# 5 0.016395 -0.005529 0.002372 0.000000 0.047274 0.000000
# 6 0.000000 0.000000 0.000000 0.009612 0.000000 0.028493
#
#
# Mechanical properties :
#
#
# Convention : Reuss Voigt Hill
#
# Bulk Modulus (GPa) = 44.96510 58.99837 51.98173
# Shear Modulus (GPa) = 30.62203 48.91333 39.76768
#
# Velocity S-wave (km/s) = 3.81173 4.81747 4.34380
# Velocity P-wave (km/s) = 6.38021 7.67705 7.05847
#
# Compressibility (1/GPa) = 0.02223947
#
# Stress axis : x y z
#
# Youngs Moduli (GPa) = 63.71384 71.27608 68.33526
#
# Poissons Ratio (x) = 0.42349 0.20705
# Poissons Ratio (y) = 0.37856 0.14270
# Poissons Ratio (z) = 0.19305 0.14884
#
# Static dielectric constant tensor:
#      x y z
#    x 1.717350 0.000000 0.003860 
#    y 0.000000 1.829360 0.000000 
#    z 0.003860 0.000000 1.804610 
# 
# From -- ./inp_files/49422.got.cif
#   From: 2010.05.17/outbox.cif.g08.bks.cpg/sg13_25_cif.got.tgz:49422.got - 2010.06.03 16:44:36.
