data_PCOD9233614
_publ_section_title
;
Structure prediction by ZEFSAII (Michael W. Deem and Ramdas Pophale) SiO2 
 PCOD9233614
Probable space group: P 2/C
;
_chemical_formula_sum "Si O2"
_cell_formula_units_Z 28
_cell_length_a 8.569554
_cell_length_b 5.614979
_cell_length_c 27.715802
_cell_angle_alpha 90.000000
_cell_angle_beta 120.594419
_cell_angle_gamma 90.000000
_cell_volume 1147.973413
_symmetry_space_group_name_H-M "P 2/C"
_symmetry_group_IT_number 13
_symmetry_cell_setting 'monoclinic'
loop_
_space_group_symop_operation_xyz
x,y,z
-x,y,1/2-z
-x,-y,-z
x,-y,1/2+z
loop_
_atom_site_type_symbol
_atom_site_label
_atom_site_fract_x
_atom_site_fract_y
_atom_site_fract_z
Si Si1 0.960653 0.309239 0.453094
Si Si2 0.861499 0.549711 0.193899
Si Si3 0.635862 0.082512 0.816666
Si Si4 0.318878 0.846785 0.419488
Si Si5 0.003128 0.195548 0.144518
Si Si6 0.498415 0.421593 0.191298
Si Si7 0.711449 0.057935 0.480191
O O1 0.956609 0.362381 0.395668
O O2 0.775208 0.198794 0.443705
O O3 0.000000 0.500000 0.500000
O O4 0.121762 0.117709 0.483017
O O5 0.766951 0.671037 0.132858
O O6 0.694231 0.465707 0.199700
O O7 0.000000 0.696951 0.250000
O O8 0.987762 0.344474 0.190712
O O9 0.500000 0.108203 0.750000
O O10 0.839364 0.005801 0.832895
O O11 0.560163 0.846647 0.830835
O O12 0.618119 0.339144 0.839803
O O13 0.307228 0.779936 0.474467
O O14 0.526630 0.915415 0.443687
O O15 0.193094 0.078688 0.393318
O O16 0.500000 0.411790 0.250000
#
# Coordination Sequence:
#
# PCOD9233614 Si02
#       7
#     4   4   4   4   4   4   4
#     4  10  21  41  71  99 134 176 229 294 374 439
#     4  12  27  43  68 101 144 191 247 303 374 447
#     4  10  23  44  69  96 140 186 244 298 362 435
#     4  10  24  43  68  98 142 184 231 303 377 439
#     4  11  26  41  67 101 141 181 242 301 368 443
#     4  10  24  44  68  96 136 194 243 305 360 440
#     4   9  21  44  67 103 136 175 236 299 366 451
#
# _framework density 24.390809999999998
#
# number of rings (size 3 to 8) (size 9 to 14) (size 15 to 20)
#    0.000    1.714    0.000    2.571   10.000    2.857 
#    0.000    4.286    0.000    0.000    0.000    0.000 
#    0.000    0.000    0.000    0.000    0.000    0.000 
#
# Total GULP energy -156406.590360 kJ/mol
# GULP energy per Si atom -5585.949656 kJ/mol
# Density = 2.433530 g / cm^3
# Si number density = 24.390810 Si / 1000 Ang^3
#
#
#
# Elastic Constant Matrix: (Units=GPa)
#
#
# Indices 1 2 3 4 5 6 
#
# 1 168.2611 26.7315 41.9406 0.0000 -12.9212 0.0000
# 2 26.7315 78.9072 2.2034 0.0000 -9.0366 0.0000
# 3 41.9406 2.2034 93.7367 0.0000 -5.3672 0.0000
# 4 0.0000 0.0000 0.0000 25.7465 0.0000 7.8277
# 5 -12.9212 -9.0366 -5.3672 0.0000 36.4914 0.0000
# 6 0.0000 0.0000 0.0000 7.8277 0.0000 33.1962
#
#
#
# Elastic Compliance Matrix: (Units=1/GPa)
#
#
# Indices 1 2 3 4 5 6 
#
# 1 0.007171 -0.002166 -0.003069 0.000000 0.001552 0.000000
# 2 -0.002166 0.013699 0.000804 0.000000 0.002744 0.000000
# 3 -0.003069 0.000804 0.012073 0.000000 0.000888 0.000000
# 4 0.000000 0.000000 0.000000 0.041840 0.000000 -0.009866
# 5 0.001552 0.002744 0.000888 0.000000 0.028763 0.000000
# 6 0.000000 0.000000 0.000000 -0.009866 0.000000 0.032450
#
#
# Mechanical properties :
#
#
# Convention : Reuss Voigt Hill
#
# Bulk Modulus (GPa) = 41.52514 53.62846 47.57680
# Shear Modulus (GPa) = 32.70427 37.08879 34.89653
#
# Velocity S-wave (km/s) = 3.66573 3.90372 3.78660
# Velocity P-wave (km/s) = 5.91427 6.50797 6.21821
#
# Compressibility (1/GPa) = 0.02408180
#
# Stress axis : x y z
#
# Youngs Moduli (GPa) = 139.44332 72.99986 82.82766
#
# Poissons Ratio (x) = 0.15812 0.25419
# Poissons Ratio (y) = 0.30205 -0.06662
# Poissons Ratio (z) = 0.42794 -0.05871
#
# Static dielectric constant tensor:
#      x y z
#    x 1.914610 0.000000 -0.002100 
#    y 0.000000 2.043060 0.000000 
#    z -0.002100 0.000000 1.919470 
# 
# From -- ./inp_files/95723.got.cif
#   From: 2010.05.17/outbox.cif.g08.bks.cpg/sg13_48_cif.got.tgz:95723.got - 2010.06.03 16:44:36.
