data_PCOD9233146
_publ_section_title
;
Structure prediction by ZEFSAII (Michael W. Deem and Ramdas Pophale) SiO2 
 PCOD9233146
Probable space group: P 2/C
;
_chemical_formula_sum "Si O2"
_cell_formula_units_Z 20
_cell_length_a 9.820441
_cell_length_b 18.502279
_cell_length_c 5.471356
_cell_angle_alpha 90.000000
_cell_angle_beta 54.162723
_cell_angle_gamma 90.000000
_cell_volume 805.939225
_symmetry_space_group_name_H-M "P 2/C"
_symmetry_group_IT_number 13
_symmetry_cell_setting 'monoclinic'
loop_
_space_group_symop_operation_xyz
x,y,z
-x,y,1/2-z
-x,-y,-z
x,-y,1/2+z
loop_
_atom_site_type_symbol
_atom_site_label
_atom_site_fract_x
_atom_site_fract_y
_atom_site_fract_z
Si Si1 0.000000 0.689607 0.750000
Si Si2 0.000000 0.778282 0.250000
Si Si3 0.695286 0.469122 0.020460
Si Si4 0.328281 0.169864 0.563661
Si Si5 0.805112 0.972081 0.163539
Si Si6 0.655236 0.666938 0.260137
O O1 0.177917 0.651631 0.571521
O O2 0.013870 0.733795 0.483885
O O3 0.827708 0.821727 0.458641
O O4 0.500000 0.492506 0.250000
O O5 0.771150 0.492600 0.199577
O O6 0.681872 0.384151 0.967655
O O7 0.244225 0.111281 0.833650
O O8 0.360992 0.248781 0.648371
O O9 0.500000 0.149050 0.250000
O O10 0.732714 0.986565 0.508064
O O11 0.000000 0.000000 0.000000
O O12 0.500000 0.648920 0.250000
#
# Coordination Sequence:
#
# PCOD9233146 Si02
#       6
#     2   2   4   4   4   4
#     4  10  24  40  62  96 134 176 220 274 344 400
#     4  10  22  42  62  92 136 170 212 276 340 402
#     4  10  21  39  66  98 136 186 231 272 337 408
#     4  11  24  41  70 103 133 175 229 284 341 401
#     4  10  23  43  66  92 128 173 215 267 336 405
#     4  11  23  42  70 103 140 179 230 288 338 397
#
# _framework density 24.815767999999998
#
# number of rings (size 3 to 8) (size 9 to 14) (size 15 to 20)
#    0.000    1.600    0.000    4.800    0.000   16.800 
#    0.000    1.000    0.000    0.000    0.000    1.400 
#    0.000    0.000    0.000    0.000    0.000    0.000 
#
# Total GULP energy -111577.034570 kJ/mol
# GULP energy per Si atom -5578.851728 kJ/mol
# Density = 2.475929 g / cm^3
# Si number density = 24.815768 Si / 1000 Ang^3
#
#
#
# Elastic Constant Matrix: (Units=GPa)
#
#
# Indices 1 2 3 4 5 6 
#
# 1 99.6856 16.6984 67.3423 0.0000 -20.5490 0.0000
# 2 16.6984 170.1764 38.8517 0.0000 10.4900 0.0000
# 3 67.3423 38.8517 127.5397 0.0000 7.8871 0.0000
# 4 0.0000 0.0000 0.0000 21.6006 0.0000 18.4371
# 5 -20.5490 10.4900 7.8871 0.0000 69.2851 0.0000
# 6 0.0000 0.0000 0.0000 18.4371 0.0000 -6.2846
#
#
#
# Elastic Compliance Matrix: (Units=1/GPa)
#
#
# Indices 1 2 3 4 5 6 
#
# 1 0.018101 0.000105 -0.009991 0.000000 0.006490 0.000000
# 2 0.000105 0.006354 -0.001947 0.000000 -0.000709 0.000000
# 3 -0.009991 -0.001947 0.013972 0.000000 -0.004259 0.000000
# 4 0.000000 0.000000 0.000000 0.013212 0.000000 0.038760
# 5 0.006490 -0.000709 -0.004259 0.000000 0.016950 0.000000
# 6 0.000000 0.000000 0.000000 0.038760 0.000000 -0.045410
#
#
# Mechanical properties :
#
#
# Convention : Reuss Voigt Hill
#
# Bulk Modulus (GPa) = 67.74412 71.46517 69.60465
# Shear Modulus (GPa) = 96.58777 35.22085 65.90431
#
# Velocity S-wave (km/s) = 6.24551 3.77144 5.15898
# Velocity P-wave (km/s) = 8.90880 6.91562 7.97472
#
# Compressibility (1/GPa) = 0.01476143
#
# Stress axis : x y z
#
# Youngs Moduli (GPa) = 55.24531 157.37557 71.56946
#
# Poissons Ratio (x) = -0.01648 0.71504
# Poissons Ratio (y) = -0.00579 0.13935
# Poissons Ratio (z) = 0.55195 0.30642
#
# Static dielectric constant tensor:
#      x y z
#    x 1.804410 0.000000 -0.219510 
#    y 0.000000 2.169630 0.000000 
#    z -0.219510 0.000000 1.888930 
# 
# From -- ./inp_files/3570.got.cif
#   From: 2010.05.17/outbox.cif.g08.bks.cpg/sg13_2_cif.got.tgz:3570.got - 2010.06.03 16:44:36.
