data_PCOD9233562
_publ_section_title
;
Structure prediction by ZEFSAII (Michael W. Deem and Ramdas Pophale) SiO2 
 PCOD9233562
Probable space group: P 2/C
;
_chemical_formula_sum "Si O2"
_cell_formula_units_Z 18
_cell_length_a 8.721800
_cell_length_b 7.468394
_cell_length_c 23.384409
_cell_angle_alpha 90.000000
_cell_angle_beta 38.108416
_cell_angle_gamma 90.000000
_cell_volume 940.051190
_symmetry_space_group_name_H-M "P 2/C"
_symmetry_group_IT_number 13
_symmetry_cell_setting 'monoclinic'
loop_
_space_group_symop_operation_xyz
x,y,z
-x,y,1/2-z
-x,-y,-z
x,-y,1/2+z
loop_
_atom_site_type_symbol
_atom_site_label
_atom_site_fract_x
_atom_site_fract_y
_atom_site_fract_z
Si Si1 0.004802 0.492703 0.567173
Si Si2 0.609420 0.820538 0.538479
Si Si3 0.500000 0.699210 0.250000
Si Si4 0.406827 0.052580 0.216382
Si Si5 0.137527 0.845317 0.598319
O O1 0.217703 0.350272 0.520127
O O2 0.071024 0.680507 0.576785
O O3 0.000000 0.500000 0.500000
O O4 0.742165 0.417565 0.666993
O O5 0.350524 0.796868 0.581139
O O6 0.552379 0.863098 0.621237
O O7 0.754014 0.990478 0.470140
O O8 0.456106 0.839602 0.210378
O O9 0.500000 0.129247 0.250000
O O10 0.115516 0.090844 0.297284
#
# Coordination Sequence:
#
# PCOD9233562 Si02
#       5
#     4   4   2   4   4
#     4  12  25  41  67  98 129 172 217 268 317 385
#     4  11  23  45  65  97 130 173 212 265 328 387
#     4  10  24  40  66  96 130 160 226 266 314 382
#     4  10  21  41  67  92 127 168 213 265 317 382
#     4  11  24  41  69  94 134 168 214 266 327 384
#
# _framework density 19.147894000000001
#
# number of rings (size 3 to 8) (size 9 to 14) (size 15 to 20)
#    0.667    0.444    2.222    4.000    4.667    2.667 
#    0.000    0.000    0.000    0.000    0.000    0.000 
#    0.000    0.000    0.000    0.000    0.000    0.000 
#
# Total GULP energy -100587.703282 kJ/mol
# GULP energy per Si atom -5588.205738 kJ/mol
# Density = 1.910431 g / cm^3
# Si number density = 19.147894 Si / 1000 Ang^3
#
#
#
# Elastic Constant Matrix: (Units=GPa)
#
#
# Indices 1 2 3 4 5 6 
#
# 1 45.9020 22.5983 -7.2259 0.0000 -18.5254 0.0000
# 2 22.5983 73.4327 -19.9222 0.0000 -13.3720 0.0000
# 3 -7.2259 -19.9222 45.5269 0.0000 -16.3791 0.0000
# 4 0.0000 0.0000 0.0000 20.8001 0.0000 1.9355
# 5 -18.5254 -13.3720 -16.3791 0.0000 43.3052 0.0000
# 6 0.0000 0.0000 0.0000 1.9355 0.0000 23.0923
#
#
#
# Elastic Compliance Matrix: (Units=1/GPa)
#
#
# Indices 1 2 3 4 5 6 
#
# 1 0.031569 -0.004631 0.008482 0.000000 0.015283 0.000000
# 2 -0.004631 0.019392 0.010640 0.000000 0.008032 0.000000
# 3 0.008482 0.010640 0.035252 0.000000 0.020247 0.000000
# 4 0.000000 0.000000 0.000000 0.048455 0.000000 -0.004061
# 5 0.015283 0.008032 0.020247 0.000000 0.039768 0.000000
# 6 0.000000 0.000000 0.000000 -0.004061 0.000000 0.043645
#
#
# Mechanical properties :
#
#
# Convention : Reuss Voigt Hill
#
# Bulk Modulus (GPa) = 8.68078 17.30689 12.99384
# Shear Modulus (GPa) = 21.97852 28.73360 25.35606
#
# Velocity S-wave (km/s) = 3.39164 3.87798 3.64293
# Velocity P-wave (km/s) = 4.45881 5.39535 4.94928
#
# Compressibility (1/GPa) = 0.11519703
#
# Stress axis : x y z
#
# Youngs Moduli (GPa) = 31.67697 51.56711 28.36731
#
# Poissons Ratio (x) = 0.23879 -0.24062
# Poissons Ratio (y) = 0.14669 -0.30184
# Poissons Ratio (z) = -0.26870 -0.54869
#
# Static dielectric constant tensor:
#      x y z
#    x 1.662610 0.000000 -0.005030 
#    y 0.000000 1.648900 0.000000 
#    z -0.005030 0.000000 1.632490 
# 
# From -- ./inp_files/75153.got.cif
#   From: 2010.05.17/outbox.cif.g08.bks.cpg/sg13_38_cif.got.tgz:75153.got - 2010.06.03 16:44:36.
