data_PCOD9233935
_publ_section_title
;
Structure prediction by ZEFSAII (Michael W. Deem and Ramdas Pophale) SiO2 
 PCOD9233935
Probable space group: P 2/C
;
_chemical_formula_sum "Si O2"
_cell_formula_units_Z 16
_cell_length_a 5.150333
_cell_length_b 5.139752
_cell_length_c 23.696562
_cell_angle_alpha 90.000000
_cell_angle_beta 107.188039
_cell_angle_gamma 90.000000
_cell_volume 599.267617
_symmetry_space_group_name_H-M "P 2/C"
_symmetry_group_IT_number 13
_symmetry_cell_setting 'monoclinic'
loop_
_space_group_symop_operation_xyz
x,y,z
-x,y,1/2-z
-x,-y,-z
x,-y,1/2+z
loop_
_atom_site_type_symbol
_atom_site_label
_atom_site_fract_x
_atom_site_fract_y
_atom_site_fract_z
Si Si1 0.186567 0.865161 0.211729
Si Si2 0.775767 0.205578 0.136153
Si Si3 0.762659 0.820101 0.507964
Si Si4 0.412722 0.675119 0.118172
O O1 0.500000 0.882150 0.250000
O O2 0.187066 0.722208 0.151254
O O3 0.000000 0.756379 0.250000
O O4 0.953676 0.139421 0.312473
O O5 0.595410 0.435665 0.148277
O O6 0.592122 0.940775 0.126767
O O7 0.836646 0.274517 0.074895
O O8 0.695813 0.625341 0.452396
O O9 0.500000 0.000000 0.500000
O O10 0.000000 0.000000 0.500000
#
# Coordination Sequence:
#
# PCOD9233935 Si02
#       4
#     4   4   4   4
#     4  12  26  53  74 113 154 214 270 330 390 474
#     4  11  25  50  77 114 154 203 258 326 399 472
#     4  10  21  44  76 115 155 195 250 322 398 476
#     4  11  25  50  77 114 154 203 258 326 399 472
#
# _framework density 26.699258
#
# number of rings (size 3 to 8) (size 9 to 14) (size 15 to 20)
#    0.000    1.000    5.000    0.750    0.000    2.000 
#    9.000    5.000    0.000    0.000    0.000    0.000 
#    0.000    0.000    0.000    0.250    0.000    0.000 
#
# Total GULP energy -89766.939906 kJ/mol
# GULP energy per Si atom -5610.433744 kJ/mol
# Density = 2.663849 g / cm^3
# Si number density = 26.699258 Si / 1000 Ang^3
#
#
#
# Elastic Constant Matrix: (Units=GPa)
#
#
# Indices 1 2 3 4 5 6 
#
# 1 169.1924 41.5660 55.2318 0.0000 -28.4078 0.0000
# 2 41.5660 121.9347 17.5776 0.0000 -6.9007 0.0000
# 3 55.2318 17.5776 189.6664 0.0000 -23.8466 0.0000
# 4 0.0000 0.0000 0.0000 20.8202 0.0000 8.4297
# 5 -28.4078 -6.9007 -23.8466 0.0000 56.6179 0.0000
# 6 0.0000 0.0000 0.0000 8.4297 0.0000 54.8733
#
#
#
# Elastic Compliance Matrix: (Units=1/GPa)
#
#
# Indices 1 2 3 4 5 6 
#
# 1 0.007432 -0.002143 -0.001615 0.000000 0.002788 0.000000
# 2 -0.002143 0.008958 -0.000216 0.000000 -0.000074 0.000000
# 3 -0.001615 -0.000216 0.005974 0.000000 0.001679 0.000000
# 4 0.000000 0.000000 0.000000 0.051216 0.000000 -0.007868
# 5 0.002788 -0.000074 0.001679 0.000000 0.019759 0.000000
# 6 0.000000 0.000000 0.000000 -0.007868 0.000000 0.019432
#
#
# Mechanical properties :
#
#
# Convention : Reuss Voigt Hill
#
# Bulk Modulus (GPa) = 69.36142 78.83827 74.09985
# Shear Modulus (GPa) = 39.83266 50.89016 45.36141
#
# Velocity S-wave (km/s) = 3.86670 4.37057 4.12634
# Velocity P-wave (km/s) = 6.78015 7.42035 7.10746
#
# Compressibility (1/GPa) = 0.01441724
#
# Stress axis : x y z
#
# Youngs Moduli (GPa) = 134.54933 111.62593 167.39479
#
# Poissons Ratio (x) = 0.23921 0.27038
# Poissons Ratio (y) = 0.28833 0.03608
# Poissons Ratio (z) = 0.21733 0.02406
#
# Static dielectric constant tensor:
#      x y z
#    x 2.067760 0.000000 0.058450 
#    y 0.000000 2.053330 0.000000 
#    z 0.058450 0.000000 2.143480 
# 
# From -- ./inp_files/82875.got.cif
#   From: 2010.05.17/outbox.cif.g08.bks.cpg/sg13_42_cif.got.tgz:82875.got - 2010.06.03 16:44:36.
