data_PCOD9233066
_publ_section_title
;
Structure prediction by ZEFSAII (Michael W. Deem and Ramdas Pophale) SiO2 
 PCOD9233066
Probable space group: P 2/C
;
_chemical_formula_sum "Si O2"
_cell_formula_units_Z 16
_cell_length_a 17.342273
_cell_length_b 6.027377
_cell_length_c 9.243712
_cell_angle_alpha 90.000000
_cell_angle_beta 35.876634
_cell_angle_gamma 90.000000
_cell_volume 566.251669
_symmetry_space_group_name_H-M "P 2/C"
_symmetry_group_IT_number 13
_symmetry_cell_setting 'monoclinic'
loop_
_space_group_symop_operation_xyz
x,y,z
-x,y,1/2-z
-x,-y,-z
x,-y,1/2+z
loop_
_atom_site_type_symbol
_atom_site_label
_atom_site_fract_x
_atom_site_fract_y
_atom_site_fract_z
Si Si1 0.431039 0.634239 0.510955
Si Si2 0.644926 0.154971 0.852347
Si Si3 0.122569 0.323809 0.503377
Si Si4 0.185314 0.014317 0.158119
O O1 0.500000 0.609540 0.250000
O O2 0.466532 0.345457 0.496049
O O3 0.411402 0.908804 0.540060
O O4 0.270901 0.579906 0.773360
O O5 0.713979 0.153861 0.592097
O O6 0.743748 0.155162 0.838374
O O7 0.108424 0.193686 0.372066
O O8 0.000000 0.470220 0.750000
O O9 0.124189 0.136675 0.626418
#
# Coordination Sequence:
#
# PCOD9233066 Si02
#       4
#     4   4   4   4
#     4   8  21  43  59  92 124 163 203 259 303 370
#     4   8  20  40  63  89 120 157 209 263 294 363
#     4  11  23  40  61  91 129 164 204 253 310 368
#     4  10  21  39  64  92 119 165 206 254 307 363
#
# _framework density 28.255989
#
# number of rings (size 3 to 8) (size 9 to 14) (size 15 to 20)
#    1.500    1.000    0.000    0.750    0.000   10.000 
#    9.000   10.000    0.000    0.000    0.000    0.000 
#    0.000    0.000    0.000    0.000    0.000    0.000 
#
# Total GULP energy -89419.668103 kJ/mol
# GULP energy per Si atom -5588.729256 kJ/mol
# Density = 2.819168 g / cm^3
# Si number density = 28.255989 Si / 1000 Ang^3
#
#
#
# Elastic Constant Matrix: (Units=GPa)
#
#
# Indices 1 2 3 4 5 6 
#
# 1 106.1210 14.8719 73.4767 0.0000 16.5303 0.0000
# 2 14.8719 97.7826 33.9150 0.0000 11.0631 0.0000
# 3 73.4767 33.9150 285.8929 0.0000 17.7137 0.0000
# 4 0.0000 0.0000 0.0000 39.0251 0.0000 18.0523
# 5 16.5303 11.0631 17.7137 0.0000 55.4058 0.0000
# 6 0.0000 0.0000 0.0000 18.0523 0.0000 36.8920
#
#
#
# Elastic Compliance Matrix: (Units=1/GPa)
#
#
# Indices 1 2 3 4 5 6 
#
# 1 0.011848 -0.000537 -0.002825 0.000000 -0.002524 0.000000
# 2 -0.000537 0.010861 -0.001047 0.000000 -0.001674 0.000000
# 3 -0.002825 -0.001047 0.004369 0.000000 -0.000345 0.000000
# 4 0.000000 0.000000 0.000000 0.033122 0.000000 -0.016207
# 5 -0.002524 -0.001674 -0.000345 0.000000 0.019246 0.000000
# 6 0.000000 0.000000 0.000000 -0.016207 0.000000 0.035037
#
#
# Mechanical properties :
#
#
# Convention : Reuss Voigt Hill
#
# Bulk Modulus (GPa) = 54.76034 81.59153 68.17593
# Shear Modulus (GPa) = 38.64401 50.76678 44.70539
#
# Velocity S-wave (km/s) = 3.70217 4.24332 3.98195
# Velocity P-wave (km/s) = 6.13978 7.27641 6.73213
#
# Compressibility (1/GPa) = 0.01826139
#
# Stress axis : x y z
#
# Youngs Moduli (GPa) = 84.40594 92.07406 228.86522
#
# Poissons Ratio (x) = 0.04940 0.64651
# Poissons Ratio (y) = 0.04529 0.23958
# Poissons Ratio (z) = 0.23843 0.09638
#
# Static dielectric constant tensor:
#      x y z
#    x 2.433520 0.000000 -0.250530 
#    y 0.000000 2.233650 0.000000 
#    z -0.250530 0.000000 2.132040 
# 
# From -- ./inp_files/22154.got.cif
#   From: 2010.05.17/outbox.cif.g08.bks.cpg/sg13_12_cif.got.tgz:22154.got - 2010.06.03 16:44:36.
