data_PCOD9233322
_publ_section_title
;
Structure prediction by ZEFSAII (Michael W. Deem and Ramdas Pophale) SiO2 
 PCOD9233322
Probable space group: P 2/C
;
_chemical_formula_sum "Si O2"
_cell_formula_units_Z 30
_cell_length_a 18.565542
_cell_length_b 6.129538
_cell_length_c 24.343855
_cell_angle_alpha 90.000000
_cell_angle_beta 148.795988
_cell_angle_gamma 90.000000
_cell_volume 1435.249289
_symmetry_space_group_name_H-M "P 2/C"
_symmetry_group_IT_number 13
_symmetry_cell_setting 'monoclinic'
loop_
_space_group_symop_operation_xyz
x,y,z
-x,y,1/2-z
-x,-y,-z
x,-y,1/2+z
loop_
_atom_site_type_symbol
_atom_site_label
_atom_site_fract_x
_atom_site_fract_y
_atom_site_fract_z
Si Si1 0.791232 0.165385 0.791743
Si Si2 0.654581 0.426801 0.612747
Si Si3 0.267691 0.759762 0.128654
Si Si4 0.275360 0.861921 0.545679
Si Si5 0.129020 0.203540 0.237194
Si Si6 0.500000 0.420920 0.250000
Si Si7 0.956993 0.524952 0.066026
Si Si8 0.842173 0.152419 0.651832
O O1 0.670014 0.257714 0.673275
O O2 0.737559 0.115120 0.817218
O O3 0.905574 0.358477 0.866432
O O4 0.864850 0.964990 0.809336
O O5 0.500000 0.500000 0.500000
O O6 0.736086 0.647581 0.678945
O O7 0.740369 0.311803 0.619393
O O8 0.388764 0.579624 0.206412
O O9 0.283567 0.919972 0.087323
O O10 0.123286 0.631342 0.027691
O O11 0.415791 0.727420 0.651376
O O12 0.150026 0.710897 0.486072
O O13 0.232432 0.898580 0.454537
O O14 0.001827 0.369278 0.145900
O O15 0.133580 0.062287 0.295113
O O16 0.000000 0.245564 0.750000
#
# Coordination Sequence:
#
# PCOD9233322 Si02
#       8
#     4   4   4   4   4   2   4   4
#     4  10  22  39  65  95 127 166 214 270 321 394
#     4  10  24  44  63  96 132 176 228 270 337 402
#     4  11  23  42  64  91 130 172 217 263 328 383
#     4  11  24  43  65  95 132 173 222 270 326 402
#     4  10  22  41  65  96 130 165 219 274 337 391
#     4  10  26  44  58  90 130 176 218 262 322 398
#     4  10  21  40  65  94 132 165 214 265 330 395
#     4  11  23  41  68 100 133 172 227 286 341 401
#
# _framework density 20.902293
#
# number of rings (size 3 to 8) (size 9 to 14) (size 15 to 20)
#    0.000    1.600    0.000    4.800    1.867   12.267 
#    4.800    1.333    0.000    0.000    0.000    0.000 
#    0.000    0.000    0.000    0.000    0.000    0.000 
#
# Total GULP energy -167582.609122 kJ/mol
# GULP energy per Si atom -5586.086971 kJ/mol
# Density = 2.085472 g / cm^3
# Si number density = 20.902293 Si / 1000 Ang^3
#
#
#
# Elastic Constant Matrix: (Units=GPa)
#
#
# Indices 1 2 3 4 5 6 
#
# 1 65.8679 24.1774 52.2293 0.0000 -22.9441 0.0000
# 2 24.1774 74.7455 26.2054 0.0000 0.7842 0.0000
# 3 52.2293 26.2054 118.6844 0.0000 9.1513 0.0000
# 4 0.0000 0.0000 0.0000 35.9131 0.0000 3.0937
# 5 -22.9441 0.7842 9.1513 0.0000 41.5281 0.0000
# 6 0.0000 0.0000 0.0000 3.0937 0.0000 12.1961
#
#
#
# Elastic Compliance Matrix: (Units=1/GPa)
#
#
# Indices 1 2 3 4 5 6 
#
# 1 0.043415 -0.007451 -0.019655 0.000000 0.028458 0.000000
# 2 -0.007451 0.015788 0.000136 0.000000 -0.004445 0.000000
# 3 -0.019655 0.000136 0.018192 0.000000 -0.014870 0.000000
# 4 0.000000 0.000000 0.000000 0.028467 0.000000 -0.007221
# 5 0.028458 -0.004445 -0.014870 0.000000 0.043164 0.000000
# 6 0.000000 0.000000 0.000000 -0.007221 0.000000 0.083825
#
#
# Mechanical properties :
#
#
# Convention : Reuss Voigt Hill
#
# Bulk Modulus (GPa) = 42.63536 51.61356 47.12446
# Shear Modulus (GPa) = 16.97167 28.37318 22.67243
#
# Velocity S-wave (km/s) = 2.85257 3.68831 3.29703
# Velocity P-wave (km/s) = 5.59386 6.54863 6.08999
#
# Compressibility (1/GPa) = 0.02345471
#
# Stress axis : x y z
#
# Youngs Moduli (GPa) = 23.03365 63.33981 54.96988
#
# Poissons Ratio (x) = 0.47193 1.08041
# Poissons Ratio (y) = 0.17162 -0.00745
# Poissons Ratio (z) = 0.45272 -0.00859
#
# Static dielectric constant tensor:
#      x y z
#    x 1.739080 0.000000 -0.012110 
#    y 0.000000 1.743250 0.000000 
#    z -0.012110 0.000000 1.789730 
# 
# From -- ./inp_files/88367.got.cif
#   From: 2010.05.17/outbox.cif.g08.bks.cpg/sg13_45_cif.got.tgz:88367.got - 2010.06.03 16:44:36.
