data_PCOD9233623
_publ_section_title
;
Structure prediction by ZEFSAII (Michael W. Deem and Ramdas Pophale) SiO2 
 PCOD9233623
Probable space group: P 2/C
;
_chemical_formula_sum "Si O2"
_cell_formula_units_Z 30
_cell_length_a 6.146136
_cell_length_b 14.654991
_cell_length_c 18.836262
_cell_angle_alpha 90.000000
_cell_angle_beta 126.714422
_cell_angle_gamma 90.000000
_cell_volume 1360.046635
_symmetry_space_group_name_H-M "P 2/C"
_symmetry_group_IT_number 13
_symmetry_cell_setting 'monoclinic'
loop_
_space_group_symop_operation_xyz
x,y,z
-x,y,1/2-z
-x,-y,-z
x,-y,1/2+z
loop_
_atom_site_type_symbol
_atom_site_label
_atom_site_fract_x
_atom_site_fract_y
_atom_site_fract_z
Si Si1 0.950854 0.676524 0.890137
Si Si2 0.673383 0.944539 0.653618
Si Si3 0.935909 0.879866 0.159635
Si Si4 0.151392 0.499897 0.352107
Si Si5 0.231051 0.570199 0.518014
Si Si6 0.500000 0.818726 0.750000
Si Si7 0.810634 0.920345 0.432335
Si Si8 0.604713 0.807346 0.511028
O O1 0.844091 0.656921 0.948809
O O2 0.746400 0.752344 0.820509
O O3 0.965974 0.583591 0.846932
O O4 0.262805 0.711354 0.945684
O O5 0.636123 0.882057 0.715714
O O6 0.599002 0.875083 0.576489
O O7 0.909774 0.008380 0.665185
O O8 0.472622 0.028397 0.626641
O O9 0.000000 0.844830 0.250000
O O10 0.137298 0.876599 0.133137
O O11 0.681861 0.822150 0.081488
O O12 0.187185 0.571688 0.424328
O O13 0.463936 0.464444 0.403388
O O14 0.000000 0.529968 0.250000
O O15 0.000000 0.500000 0.500000
O O16 0.814613 0.845746 0.493988
O O17 0.000000 0.000000 0.500000
#
# Coordination Sequence:
#
# PCOD9233623 Si02
#       8
#     4   4   4   4   4   2   4   4
#     4  11  25  39  61  98 139 165 201 262 339 392
#     4  11  23  37  54  92 123 166 223 270 341 389
#     4  11  23  39  62  82 118 172 240 279 318 382
#     4  10  21  41  74 103 133 168 214 256 312 398
#     4   9  21  43  66  98 137 174 207 252 317 394
#     4  12  26  38  62 100 134 164 200 280 340 394
#     4  11  18  39  59  79 115 169 219 269 324 384
#     4  11  24  36  60  87 124 171 210 271 334 391
#
# _framework density 22.058067000000001
#
# number of rings (size 3 to 8) (size 9 to 14) (size 15 to 20)
#    0.000    1.333    2.667    3.200    5.600    3.200 
#    0.000    0.000    0.000   19.200    0.000    0.000 
#    0.000    0.000    0.000    0.000    0.000    0.000 
#
# Total GULP energy -167172.100079 kJ/mol
# GULP energy per Si atom -5572.403336 kJ/mol
# Density = 2.200786 g / cm^3
# Si number density = 22.058067 Si / 1000 Ang^3
#
#
#
# Elastic Constant Matrix: (Units=GPa)
#
#
# Indices 1 2 3 4 5 6 
#
# 1 87.8622 6.9801 43.8080 0.0000 -10.4334 0.0000
# 2 6.9801 34.2006 18.9558 0.0000 0.8530 0.0000
# 3 43.8080 18.9558 145.2737 0.0000 -16.2542 0.0000
# 4 0.0000 0.0000 0.0000 3.4472 0.0000 -270.9249
# 5 -10.4334 0.8530 -16.2542 0.0000 31.9845 0.0000
# 6 0.0000 0.0000 0.0000 -270.9249 0.0000-2609.4780
#
#
#
# Elastic Compliance Matrix: (Units=1/GPa)
#
#
# Indices 1 2 3 4 5 6 
#
# 1 0.013599 -0.000783 -0.003711 0.000000 0.002571 0.000000
# 2 -0.000783 0.031858 -0.004288 0.000000 -0.003284 0.000000
# 3 -0.003711 -0.004288 0.008948 0.000000 0.003451 0.000000
# 4 0.000000 0.000000 0.000000 0.031670 0.000000 -0.003288
# 5 0.002571 -0.003284 0.003451 0.000000 0.033945 0.000000
# 6 0.000000 0.000000 0.000000 -0.003288 0.000000 -0.000042
#
#
# Mechanical properties :
#
#
# Convention : Reuss Voigt Hill
#
# Bulk Modulus (GPa) = 27.14365 45.20272 36.17318
# Shear Modulus (GPa) = 33.37254 -501.63643 -234.13195
#
# Velocity S-wave (km/s) = 3.89387 -15.09669 -10.31377
# Velocity P-wave (km/s) = 5.70514 16.83279 11.19809
#
# Compressibility (1/GPa) = 0.03684104
#
# Stress axis : x y z
#
# Youngs Moduli (GPa) = 73.53311 31.38954 111.75212
#
# Poissons Ratio (x) = 0.02457 0.41473
# Poissons Ratio (y) = 0.05756 0.47923
# Poissons Ratio (z) = 0.27289 0.13461
#
# Static dielectric constant tensor:
#      x y z
#    x 1.908790 0.000000 0.115080 
#    y 0.000000 1.819210 0.000000 
#    z 0.115080 0.000000 1.854580 
# 
# From -- ./inp_files/61709.got.cif
#   From: 2010.05.17/outbox.cif.g08.bks.cpg/sg13_31_cif.got.tgz:61709.got - 2010.06.03 16:44:36.
