data_PCOD9233102
_publ_section_title
;
Structure prediction by ZEFSAII (Michael W. Deem and Ramdas Pophale) SiO2 
 PCOD9233102
Probable space group: P 2/C
;
_chemical_formula_sum "Si O2"
_cell_formula_units_Z 16
_cell_length_a 7.174500
_cell_length_b 7.514479
_cell_length_c 11.763274
_cell_angle_alpha 90.000000
_cell_angle_beta 70.797796
_cell_angle_gamma 90.000000
_cell_volume 598.905115
_symmetry_space_group_name_H-M "P 2/C"
_symmetry_group_IT_number 13
_symmetry_cell_setting 'monoclinic'
loop_
_space_group_symop_operation_xyz
x,y,z
-x,y,1/2-z
-x,-y,-z
x,-y,1/2+z
loop_
_atom_site_type_symbol
_atom_site_label
_atom_site_fract_x
_atom_site_fract_y
_atom_site_fract_z
Si Si1 0.064869 0.166442 0.118338
Si Si2 0.176939 0.356435 0.871646
Si Si3 0.244044 0.786904 0.125025
Si Si4 0.664150 0.246469 0.126229
O O1 0.000000 0.261042 0.250000
O O2 0.853032 0.118508 0.104290
O O3 0.178069 0.991265 0.134599
O O4 0.177438 0.273429 0.997817
O O5 0.292151 0.268549 0.742722
O O6 0.253113 0.556663 0.865482
O O7 0.947884 0.327967 0.878043
O O8 0.398772 0.760642 0.992402
O O9 0.500000 0.202094 0.250000
#
# Coordination Sequence:
#
# PCOD9233102 Si02
#       4
#     4   4   4   4
#     4  11  22  41  72  93 121 171 221 260 306 378
#     4  10  21  39  65  95 125 165 216 254 308 384
#     4  10  21  41  69  92 123 169 224 256 300 388
#     4  11  25  41  63  97 136 163 203 268 331 367
#
# _framework density 26.715416999999999
#
# number of rings (size 3 to 8) (size 9 to 14) (size 15 to 20)
#    0.000    1.500    2.500    6.000    7.000    1.000 
#    0.000    6.250    0.000    0.000    0.000    0.000 
#    0.000    0.000    0.000    0.000    0.000    0.000 
#
# Total GULP energy -89597.069605 kJ/mol
# GULP energy per Si atom -5599.816850 kJ/mol
# Density = 2.665461 g / cm^3
# Si number density = 26.715417 Si / 1000 Ang^3
#
#
#
# Elastic Constant Matrix: (Units=GPa)
#
#
# Indices 1 2 3 4 5 6 
#
# 1 98.8930 23.8138 38.7676 0.0000 -2.0235 0.0000
# 2 23.8138 120.8673 57.7718 0.0000 8.2968 0.0000
# 3 38.7676 57.7718 323.5725 0.0000 23.1417 0.0000
# 4 0.0000 0.0000 0.0000 44.2360 0.0000 6.7006
# 5 -2.0235 8.2968 23.1417 0.0000 33.1179 0.0000
# 6 0.0000 0.0000 0.0000 6.7006 0.0000 6.6577
#
#
#
# Elastic Compliance Matrix: (Units=1/GPa)
#
#
# Indices 1 2 3 4 5 6 
#
# 1 0.011022 -0.001756 -0.001144 0.000000 0.001913 0.000000
# 2 -0.001756 0.009371 -0.001355 0.000000 -0.001508 0.000000
# 3 -0.001144 -0.001355 0.003632 0.000000 -0.002268 0.000000
# 4 0.000000 0.000000 0.000000 0.026672 0.000000 -0.026844
# 5 0.001913 -0.001508 -0.002268 0.000000 0.032275 0.000000
# 6 0.000000 0.000000 0.000000 -0.026844 0.000000 0.177220
#
#
# Mechanical properties :
#
#
# Convention : Reuss Voigt Hill
#
# Bulk Modulus (GPa) = 64.45397 87.11545 75.78471
# Shear Modulus (GPa) = 18.25665 45.00095 31.62880
#
# Velocity S-wave (km/s) = 2.61698 4.10867 3.44454
# Velocity P-wave (km/s) = 5.77148 7.42884 6.65198
#
# Compressibility (1/GPa) = 0.01551495
#
# Stress axis : x y z
#
# Youngs Moduli (GPa) = 90.72447 106.71627 275.35715
#
# Poissons Ratio (x) = 0.18742 0.31496
# Poissons Ratio (y) = 0.15933 0.37305
# Poissons Ratio (z) = 0.10377 0.14458
#
# Static dielectric constant tensor:
#      x y z
#    x 2.164280 0.000000 -0.003650 
#    y 0.000000 2.054200 0.000000 
#    z -0.003650 0.000000 2.190050 
# 
# From -- ./inp_files/27510.got.cif
#   From: 2010.05.17/outbox.cif.g08.bks.cpg/sg13_14_cif.got.tgz:27510.got - 2010.06.03 16:44:36.
