data_PCOD9233542
_publ_section_title
;
Structure prediction by ZEFSAII (Michael W. Deem and Ramdas Pophale) SiO2 
 PCOD9233542
Probable space group: P 2/C
;
_chemical_formula_sum "Si O2"
_cell_formula_units_Z 16
_cell_length_a 9.165540
_cell_length_b 7.428281
_cell_length_c 19.675619
_cell_angle_alpha 90.000000
_cell_angle_beta 149.857021
_cell_angle_gamma 90.000000
_cell_volume 672.692409
_symmetry_space_group_name_H-M "P 2/C"
_symmetry_group_IT_number 13
_symmetry_cell_setting 'monoclinic'
loop_
_space_group_symop_operation_xyz
x,y,z
-x,y,1/2-z
-x,-y,-z
x,-y,1/2+z
loop_
_atom_site_type_symbol
_atom_site_label
_atom_site_fract_x
_atom_site_fract_y
_atom_site_fract_z
Si Si1 0.616736 0.956739 0.472121
Si Si2 0.814256 0.540231 0.859221
Si Si3 0.190921 0.416438 0.394159
Si Si4 0.754881 0.032634 0.304722
O O1 0.708776 0.750793 0.519286
O O2 0.915824 0.042207 0.562290
O O3 0.500000 0.000000 0.500000
O O4 0.362965 0.003704 0.318379
O O5 0.500000 0.463148 0.750000
O O6 0.770816 0.754723 0.828869
O O7 0.977587 0.470651 0.857441
O O8 0.000000 0.500000 0.000000
O O9 0.500000 0.500000 0.500000
O O10 0.000000 0.371208 0.250000
O O11 0.500000 0.955457 0.250000
#
# Coordination Sequence:
#
# PCOD9233542 Si02
#       4
#     4   4   4   4
#     4  11  22  41  67  95 129 170 214 265 320 383
#     4  10  21  41  66  95 129 169 214 267 322 382
#     4  11  24  43  65  97 132 170 215 266 322 384
#     4  10  22  41  64  95 128 169 216 266 321 383
#
# _framework density 23.785018000000001
#
# number of rings (size 3 to 8) (size 9 to 14) (size 15 to 20)
#    0.000    1.500    0.000    6.000    0.000    4.000 
#    0.000   20.000    0.000    0.000    0.000    0.000 
#    0.000    0.000    0.000    0.000    0.000    0.000 
#
# Total GULP energy -89327.703013 kJ/mol
# GULP energy per Si atom -5582.981438 kJ/mol
# Density = 2.373088 g / cm^3
# Si number density = 23.785018 Si / 1000 Ang^3
#
#
#
# Elastic Constant Matrix: (Units=GPa)
#
#
# Indices 1 2 3 4 5 6 
#
# 1 163.5344 2.9167 11.6224 0.0000 28.7855 0.0000
# 2 2.9167 75.2267 16.9163 0.0000 -2.2819 0.0000
# 3 11.6224 16.9163 150.1557 0.0000 -3.9771 0.0000
# 4 0.0000 0.0000 0.0000 31.1148 0.0000 -12.8140
# 5 28.7855 -2.2819 -3.9771 0.0000 73.3207 0.0000
# 6 0.0000 0.0000 0.0000 -12.8140 0.0000 16.8150
#
#
#
# Elastic Compliance Matrix: (Units=1/GPa)
#
#
# Indices 1 2 3 4 5 6 
#
# 1 0.006623 -0.000211 -0.000559 0.000000 -0.002637 0.000000
# 2 -0.000211 0.013654 -0.001511 0.000000 0.000426 0.000000
# 3 -0.000559 -0.001511 0.006888 0.000000 0.000546 0.000000
# 4 0.000000 0.000000 0.000000 0.046839 0.000000 0.035694
# 5 -0.002637 0.000426 0.000546 0.000000 0.014717 0.000000
# 6 0.000000 0.000000 0.000000 0.035694 0.000000 0.086671
#
#
# Mechanical properties :
#
#
# Convention : Reuss Voigt Hill
#
# Bulk Modulus (GPa) = 44.24128 50.20307 47.22218
# Shear Modulus (GPa) = 26.66864 48.08087 37.37475
#
# Velocity S-wave (km/s) = 3.35212 4.50096 3.96834
# Velocity P-wave (km/s) = 5.79855 6.94006 6.39482
#
# Compressibility (1/GPa) = 0.02260333
#
# Stress axis : x y z
#
# Youngs Moduli (GPa) = 150.99967 73.23893 145.18768
#
# Poissons Ratio (x) = 0.01546 0.08111
# Poissons Ratio (y) = 0.03188 0.21932
# Poissons Ratio (z) = 0.08436 0.11064
#
# Static dielectric constant tensor:
#      x y z
#    x 2.038170 0.000000 0.100710 
#    y 0.000000 2.020420 0.000000 
#    z 0.100710 0.000000 1.854520 
# 
# From -- ./inp_files/10851.got.cif
#   From: 2010.05.17/outbox.cif.g08.bks.cpg/sg13_6_cif.got.tgz:10851.got - 2010.06.03 16:44:36.
