data_PCOD9233804
_publ_section_title
;
Structure prediction by ZEFSAII (Michael W. Deem and Ramdas Pophale) SiO2 
 PCOD9233804
Probable space group: P 2/C
;
_chemical_formula_sum "Si O2"
_cell_formula_units_Z 32
_cell_length_a 21.223414
_cell_length_b 5.631129
_cell_length_c 14.049857
_cell_angle_alpha 90.000000
_cell_angle_beta 126.890521
_cell_angle_gamma 90.000000
_cell_volume 1342.936035
_symmetry_space_group_name_H-M "P 2/C"
_symmetry_group_IT_number 13
_symmetry_cell_setting 'monoclinic'
loop_
_space_group_symop_operation_xyz
x,y,z
-x,y,1/2-z
-x,-y,-z
x,-y,1/2+z
loop_
_atom_site_type_symbol
_atom_site_label
_atom_site_fract_x
_atom_site_fract_y
_atom_site_fract_z
Si Si1 0.123550 0.877259 0.631594
Si Si2 0.254390 0.673338 0.488394
Si Si3 0.377500 0.686949 0.085995
Si Si4 0.499621 0.360132 0.400785
Si Si5 0.005747 0.110552 0.867907
Si Si6 0.645314 0.936991 0.785638
Si Si7 0.641428 0.940061 0.072420
Si Si8 0.139441 0.622589 0.225481
O O1 0.161545 0.625221 0.695005
O O2 0.090418 0.879614 0.494395
O O3 0.045257 0.902452 0.627829
O O4 0.164892 0.128969 0.696026
O O5 0.300062 0.436443 0.558377
O O6 0.273770 0.851623 0.591688
O O7 0.305988 0.771555 0.445559
O O8 0.171848 0.631493 0.363236
O O9 0.448599 0.514816 0.124758
O O10 0.397794 0.896143 0.176889
O O11 0.348336 0.798132 0.959815
O O12 0.500000 0.500000 0.500000
O O13 0.413597 0.282203 0.289320
O O14 0.551283 0.126716 0.468084
O O15 0.954752 0.341259 0.852653
O O16 0.000000 0.083708 0.750000
O O17 0.656268 0.069875 0.696785
#
# Coordination Sequence:
#
# PCOD9233804 Si02
#       8
#     4   4   4   4   4   4   4   4
#     4   9  21  39  66  93 135 171 210 266 326 365
#     4  10  25  41  63  90 122 174 213 254 319 385
#     4  10  24  41  62  85 125 158 211 259 321 388
#     4  11  23  41  63  91 118 158 207 269 335 387
#     4   9  20  39  68 102 134 167 219 266 321 378
#     4  11  24  41  64  90 125 157 214 263 330 385
#     4  10  23  43  61  86 120 163 205 268 321 384
#     4  10  21  43  64  93 135 176 216 265 318 385
#
# _framework density 23.828385999999998
#
# number of rings (size 3 to 8) (size 9 to 14) (size 15 to 20)
#    0.750    1.250    1.250    0.750    5.250    6.000 
#    2.250    1.250    0.000    0.000    0.000    0.000 
#    0.000    0.000    0.000    0.000    0.000    0.000 
#
# Total GULP energy -178604.377552 kJ/mol
# GULP energy per Si atom -5581.386799 kJ/mol
# Density = 2.377415 g / cm^3
# Si number density = 23.828386 Si / 1000 Ang^3
#
#
#
# Elastic Constant Matrix: (Units=GPa)
#
#
# Indices 1 2 3 4 5 6 
#
# 1 34.9689 2.1273 16.9208 0.0000 -6.1102 0.0000
# 2 2.1273 111.2706 41.3380 0.0000 -0.1695 0.0000
# 3 16.9208 41.3380 166.9996 0.0000 -13.0393 0.0000
# 4 0.0000 0.0000 0.0000 24.1709 0.0000 -5.2107
# 5 -6.1102 -0.1695 -13.0393 0.0000 42.7971 0.0000
# 6 0.0000 0.0000 0.0000 -5.2107 0.0000 8.4390
#
#
#
# Elastic Compliance Matrix: (Units=1/GPa)
#
#
# Indices 1 2 3 4 5 6 
#
# 1 0.030603 0.000519 -0.002958 0.000000 0.003470 0.000000
# 2 0.000519 0.009928 -0.002562 0.000000 -0.000667 0.000000
# 3 -0.002958 -0.002562 0.007056 0.000000 0.001717 0.000000
# 4 0.000000 0.000000 0.000000 0.047725 0.000000 0.029468
# 5 0.003470 -0.000667 0.001717 0.000000 0.024382 0.000000
# 6 0.000000 0.000000 0.000000 0.029468 0.000000 0.136692
#
#
# Mechanical properties :
#
#
# Convention : Reuss Voigt Hill
#
# Bulk Modulus (GPa) = 26.60670 48.22348 37.41509
# Shear Modulus (GPa) = 17.92651 31.93829 24.93240
#
# Velocity S-wave (km/s) = 2.74582 3.66505 3.23821
# Velocity P-wave (km/s) = 4.60900 6.17996 5.45136
#
# Compressibility (1/GPa) = 0.03758451
#
# Stress axis : x y z
#
# Youngs Moduli (GPa) = 32.67649 100.72474 141.72113
#
# Poissons Ratio (x) = -0.05230 0.41927
# Poissons Ratio (y) = -0.01697 0.36312
# Poissons Ratio (z) = 0.09667 0.25808
#
# Static dielectric constant tensor:
#      x y z
#    x 1.930080 0.000000 0.014160 
#    y 0.000000 1.965290 0.000000 
#    z 0.014160 0.000000 1.919660 
# 
# From -- ./inp_files/59767.got.cif
#   From: 2010.05.17/outbox.cif.g08.bks.cpg/sg13_30_cif.got.tgz:59767.got - 2010.06.03 16:44:36.
