data_PCOD9233426
_publ_section_title
;
Structure prediction by ZEFSAII (Michael W. Deem and Ramdas Pophale) SiO2 
 PCOD9233426
Probable space group: P 2/C
;
_chemical_formula_sum "Si O2"
_cell_formula_units_Z 14
_cell_length_a 8.678189
_cell_length_b 7.736909
_cell_length_c 8.398795
_cell_angle_alpha 90.000000
_cell_angle_beta 82.043149
_cell_angle_gamma 90.000000
_cell_volume 558.485870
_symmetry_space_group_name_H-M "P 2/C"
_symmetry_group_IT_number 13
_symmetry_cell_setting 'monoclinic'
loop_
_space_group_symop_operation_xyz
x,y,z
-x,y,1/2-z
-x,-y,-z
x,-y,1/2+z
loop_
_atom_site_type_symbol
_atom_site_label
_atom_site_fract_x
_atom_site_fract_y
_atom_site_fract_z
Si Si1 0.657852 0.088977 0.326388
Si Si2 0.467878 0.283727 0.582070
Si Si3 0.000000 0.599185 0.250000
Si Si4 0.809745 0.672278 0.576427
O O1 0.500000 0.120299 0.250000
O O2 0.626833 0.209023 0.483649
O O3 0.789461 0.159737 0.191803
O O4 0.640269 0.889896 0.374590
O O5 0.500000 0.357041 0.750000
O O6 0.355981 0.384496 0.478067
O O7 0.925015 0.696642 0.410614
O O8 0.873236 0.475410 0.184115
#
# Coordination Sequence:
#
# PCOD9233426 Si02
#       4
#     4   4   2   4
#     4   8  16  34  60  88 113 137 177 243 305 340
#     4   9  17  33  62  92 112 132 174 246 312 343
#     4  10  24  42  56  72 116 174 206 222 246 322
#     4  10  21  41  58  78 116 157 196 233 273 330
#
# _framework density 25.067775000000001
#
# number of rings (size 3 to 8) (size 9 to 14) (size 15 to 20)
#    0.000    2.857    0.000    1.714    0.000    4.571 
#    0.000   22.857    0.000    0.000    0.000    0.000 
#    0.000    0.000    0.000    0.000    0.000    0.000 
#
# Total GULP energy -78210.177157 kJ/mol
# GULP energy per Si atom -5586.441226 kJ/mol
# Density = 2.501072 g / cm^3
# Si number density = 25.067775 Si / 1000 Ang^3
#
#
#
# Elastic Constant Matrix: (Units=GPa)
#
#
# Indices 1 2 3 4 5 6 
#
# 1 67.3199 20.5892 40.9313 0.0000 12.6999 0.0000
# 2 20.5892 74.6707 69.1800 0.0000 -24.3360 0.0000
# 3 40.9313 69.1800 205.6626 0.0000 -23.1821 0.0000
# 4 0.0000 0.0000 0.0000 47.4762 0.0000 -10.7545
# 5 12.6999 -24.3360 -23.1821 0.0000 56.3435 0.0000
# 6 0.0000 0.0000 0.0000 -10.7545 0.0000 22.6940
#
#
#
# Elastic Compliance Matrix: (Units=1/GPa)
#
#
# Indices 1 2 3 4 5 6 
#
# 1 0.019839 -0.005205 -0.003099 0.000000 -0.007995 0.000000
# 2 -0.005205 0.022959 -0.005701 0.000000 0.008744 0.000000
# 3 -0.003099 -0.005701 0.007548 0.000000 0.001341 0.000000
# 4 0.000000 0.000000 0.000000 0.023596 0.000000 0.011182
# 5 -0.007995 0.008744 0.001341 0.000000 0.023879 0.000000
# 6 0.000000 0.000000 0.000000 0.011182 0.000000 0.049364
#
#
# Mechanical properties :
#
#
# Convention : Reuss Voigt Hill
#
# Bulk Modulus (GPa) = 44.77099 67.67269 56.22184
# Shear Modulus (GPa) = 27.37629 39.76625 33.57127
#
# Velocity S-wave (km/s) = 3.30827 3.98722 3.66351
# Velocity P-wave (km/s) = 5.70014 6.94635 6.35387
#
# Compressibility (1/GPa) = 0.02233589
#
# Stress axis : x y z
#
# Youngs Moduli (GPa) = 50.40699 43.55543 132.48429
#
# Poissons Ratio (x) = 0.22670 0.41052
# Poissons Ratio (y) = 0.26236 0.75535
# Poissons Ratio (z) = 0.15619 0.24833
#
# Static dielectric constant tensor:
#      x y z
#    x 2.000060 0.000000 -0.034630 
#    y 0.000000 2.123170 0.000000 
#    z -0.034630 0.000000 2.055920 
# 
# From -- ./inp_files/10571.got.cif
#   From: 2010.05.17/outbox.cif.g08.bks.cpg/sg13_6_cif.got.tgz:10571.got - 2010.06.03 16:44:36.
