data_PCOD9233977
_publ_section_title
;
Structure prediction by ZEFSAII (Michael W. Deem and Ramdas Pophale) SiO2 
 PCOD9233977
Probable space group: P 2/C
;
_chemical_formula_sum "Si O2"
_cell_formula_units_Z 30
_cell_length_a 15.913572
_cell_length_b 5.642454
_cell_length_c 20.226016
_cell_angle_alpha 90.000000
_cell_angle_beta 136.224283
_cell_angle_gamma 90.000000
_cell_volume 1256.463763
_symmetry_space_group_name_H-M "P 2/C"
_symmetry_group_IT_number 13
_symmetry_cell_setting 'monoclinic'
loop_
_space_group_symop_operation_xyz
x,y,z
-x,y,1/2-z
-x,-y,-z
x,-y,1/2+z
loop_
_atom_site_type_symbol
_atom_site_label
_atom_site_fract_x
_atom_site_fract_y
_atom_site_fract_z
Si Si1 0.000000 0.481682 0.750000
Si Si2 0.235476 0.511402 0.214589
Si Si3 0.425499 0.773534 0.581887
Si Si4 0.253965 0.552604 0.581184
Si Si5 0.996934 0.190398 0.557264
Si Si6 0.096941 0.145210 0.210588
Si Si7 0.452726 0.270621 0.647632
Si Si8 0.247632 0.230407 0.860650
O O1 0.981216 0.649513 0.801937
O O2 0.871913 0.348690 0.674358
O O3 0.301660 0.474760 0.182859
O O4 0.123466 0.674425 0.128046
O O5 0.178875 0.257728 0.200290
O O6 0.274546 0.633097 0.306382
O O7 0.325349 0.760204 0.583654
O O8 0.488695 0.515876 0.629184
O O9 0.359111 0.770355 0.473790
O O10 0.487520 0.028493 0.629658
O O11 0.306068 0.322443 0.571959
O O12 0.114752 0.629209 0.505153
O O13 0.006032 0.049778 0.631305
O O14 0.000000 0.000000 0.500000
O O15 0.195419 0.029395 0.314948
O O16 0.500000 0.253381 0.750000
#
# Coordination Sequence:
#
# PCOD9233977 Si02
#       8
#     2   4   4   4   4   4   4   4
#     4  10  22  32  48  72 120 168 218 248 294 350
#     4  10  22  38  54  85 131 173 200 256 302 373
#     4  10  25  39  71  93 123 158 215 266 321 386
#     4  10  24  36  64  92 122 167 215 260 315 372
#     4  11  22  34  54  87 127 169 212 253 301 369
#     4  10  22  33  51  73 131 170 209 257 301 354
#     4  10  24  45  70  97 121 153 209 282 338 373
#     4  10  23  37  52  86 120 174 209 251 309 376
#
# _framework density 23.876535000000001
#
# number of rings (size 3 to 8) (size 9 to 14) (size 15 to 20)
#    0.800    1.067    1.333    1.200   13.067    0.000 
#    0.000    0.000    0.000    1.600    0.000    0.000 
#    0.000    0.000    0.000    0.000    0.000    0.000 
#
# Total GULP energy -167282.048626 kJ/mol
# GULP energy per Si atom -5576.068288 kJ/mol
# Density = 2.382219 g / cm^3
# Si number density = 23.876535 Si / 1000 Ang^3
#
#
#
# Elastic Constant Matrix: (Units=GPa)
#
#
# Indices 1 2 3 4 5 6 
#
# 1 18.0770 -24.9004 62.7908 0.0000 -66.2397 0.0000
# 2 -24.9004 112.6968 75.2639 0.0000 -32.1178 0.0000
# 3 62.7908 75.2639 -49.7926 0.0000 153.8265 0.0000
# 4 0.0000 0.0000 0.0000 34.5813 0.0000 -8.9508
# 5 -66.2397 -32.1178 153.8265 0.0000 -109.9372 0.0000
# 6 0.0000 0.0000 0.0000 -8.9508 0.0000 14.8050
#
#
#
# Elastic Compliance Matrix: (Units=1/GPa)
#
#
# Indices 1 2 3 4 5 6 
#
# 1 0.019016 0.000011 0.003434 0.000000 -0.006656 0.000000
# 2 0.000011 0.008582 -0.001571 0.000000 -0.004712 0.000000
# 3 0.003434 -0.001571 0.006953 0.000000 0.008118 0.000000
# 4 0.000000 0.000000 0.000000 0.034282 0.000000 0.020726
# 5 -0.006656 -0.004712 0.008118 0.000000 0.007650 0.000000
# 6 0.000000 0.000000 0.000000 0.020726 0.000000 0.080076
#
#
# Mechanical properties :
#
#
# Convention : Reuss Voigt Hill
#
# Bulk Modulus (GPa) = 26.10997 34.14331 30.12664
# Shear Modulus (GPa) = 30.19739 -14.25505 7.97117
#
# Velocity S-wave (km/s) = 3.56016 -2.44607 1.82914
# Velocity P-wave (km/s) = 5.27815 2.52057 4.13595
#
# Compressibility (1/GPa) = 0.03829955
#
# Stress axis : x y z
#
# Youngs Moduli (GPa) = 52.58664 116.52185 143.82937
#
# Poissons Ratio (x) = -0.00132 -0.49389
# Poissons Ratio (y) = -0.00060 0.22595
# Poissons Ratio (z) = -0.18057 0.18305
#
# Static dielectric constant tensor:
#      x y z
#    x 1.684130 0.000000 -0.141980 
#    y 0.000000 1.958310 0.000000 
#    z -0.141980 0.000000 1.840870 
# 
# From -- ./inp_files/81394.got.cif
#   From: 2010.05.17/outbox.cif.g08.bks.cpg/sg13_41_cif.got.tgz:81394.got - 2010.06.03 16:44:36.
