data_PCOD9233250
_publ_section_title
;
Structure prediction by ZEFSAII (Michael W. Deem and Ramdas Pophale) SiO2 
 PCOD9233250
Probable space group: P 2/C
;
_chemical_formula_sum "Si O2"
_cell_formula_units_Z 22
_cell_length_a 8.787824
_cell_length_b 12.814955
_cell_length_c 9.918986
_cell_angle_alpha 90.000000
_cell_angle_beta 86.126920
_cell_angle_gamma 90.000000
_cell_volume 1114.481092
_symmetry_space_group_name_H-M "P 2/C"
_symmetry_group_IT_number 13
_symmetry_cell_setting 'monoclinic'
loop_
_space_group_symop_operation_xyz
x,y,z
-x,y,1/2-z
-x,-y,-z
x,-y,1/2+z
loop_
_atom_site_type_symbol
_atom_site_label
_atom_site_fract_x
_atom_site_fract_y
_atom_site_fract_z
Si Si1 0.000000 0.718980 0.250000
Si Si2 0.215280 0.120779 0.669686
Si Si3 0.149760 0.537843 0.069008
Si Si4 0.676006 0.409154 0.209506
Si Si5 0.000000 0.053412 0.250000
Si Si6 0.726212 0.174227 0.126467
Si Si7 0.500000 0.010657 0.250000
O O1 0.865185 0.800985 0.218217
O O2 0.915079 0.641551 0.356177
O O3 0.243993 0.184736 0.533019
O O4 0.369498 0.064894 0.703005
O O5 0.097744 0.025520 0.651238
O O6 0.782279 0.462446 0.318200
O O7 0.272877 0.553644 0.942642
O O8 0.000000 0.500000 0.000000
O O9 0.500000 0.435388 0.250000
O O10 0.693408 0.283432 0.201604
O O11 0.123279 0.123034 0.318352
O O12 0.588925 0.090842 0.147473
#
# Coordination Sequence:
#
# PCOD9233250 Si02
#       7
#     2   4   4   4   2   4   2
#     4  11  22  41  64  98 128 181 230 277 330 412
#     4  10  21  40  62  92 136 174 224 277 337 397
#     4  12  25  48  72  99 140 178 233 289 347 409
#     4  12  26  46  71 103 139 181 225 292 349 412
#     4   9  22  35  62  94 124 175 224 277 334 390
#     4  11  21  39  65  94 132 173 230 271 340 404
#     4  10  22  42  60  96 136 176 222 276 342 400
#
# _framework density 19.740130000000001
#
# number of rings (size 3 to 8) (size 9 to 14) (size 15 to 20)
#    0.000    1.091    4.545    1.636    2.545    0.000 
#    4.909    0.000    0.000    0.000    0.000    0.000 
#    0.000    0.000    0.000    0.000    0.000    0.000 
#
# Total GULP energy -122570.195306 kJ/mol
# GULP energy per Si atom -5571.372514 kJ/mol
# Density = 1.969520 g / cm^3
# Si number density = 19.740130 Si / 1000 Ang^3
#
#
#
# Elastic Constant Matrix: (Units=GPa)
#
#
# Indices 1 2 3 4 5 6 
#
# 1 122.2783 72.2837 52.3205 0.0000 -21.1425 0.0000
# 2 72.2837 137.1542 58.8845 0.0000 1.7095 0.0000
# 3 52.3205 58.8845 112.1910 0.0000 -17.5839 0.0000
# 4 0.0000 0.0000 0.0000 42.0196 0.0000 -5.1326
# 5 -21.1425 1.7095 -17.5839 0.0000 27.7504 0.0000
# 6 0.0000 0.0000 0.0000 -5.1326 0.0000 31.8345
#
#
#
# Elastic Compliance Matrix: (Units=1/GPa)
#
#
# Indices 1 2 3 4 5 6 
#
# 1 0.015139 -0.007533 -0.001361 0.000000 0.011136 0.000000
# 2 -0.007533 0.013604 -0.005172 0.000000 -0.009855 0.000000
# 3 -0.001361 -0.005172 0.013490 0.000000 0.007829 0.000000
# 4 0.000000 0.000000 0.000000 0.024276 0.000000 0.003914
# 5 0.011136 -0.009855 0.007829 0.000000 0.050088 0.000000
# 6 0.000000 0.000000 0.000000 0.003914 0.000000 0.032044
#
#
# Mechanical properties :
#
#
# Convention : Reuss Voigt Hill
#
# Bulk Modulus (GPa) = 70.91561 82.06677 76.49119
# Shear Modulus (GPa) = 27.55229 32.86322 30.20775
#
# Velocity S-wave (km/s) = 3.74003 4.08461 3.91611
# Velocity P-wave (km/s) = 7.39277 7.99433 7.69942
#
# Compressibility (1/GPa) = 0.01410127
#
# Stress axis : x y z
#
# Youngs Moduli (GPa) = 66.05487 73.50519 74.13081
#
# Poissons Ratio (x) = 0.55372 0.10089
# Poissons Ratio (y) = 0.49760 0.38340
# Poissons Ratio (z) = 0.08989 0.38016
#
# Static dielectric constant tensor:
#      x y z
#    x 1.685530 0.000000 -0.037430 
#    y 0.000000 1.731220 0.000000 
#    z -0.037430 0.000000 1.738250 
# 
# From -- ./inp_files/29382.got.cif
#   From: 2010.05.17/outbox.cif.g08.bks.cpg/sg13_15_cif.got.tgz:29382.got - 2010.06.03 16:44:36.
