data_PCOD9233289
_publ_section_title
;
Structure prediction by ZEFSAII (Michael W. Deem and Ramdas Pophale) SiO2 
 PCOD9233289
Probable space group: P 2/C
;
_chemical_formula_sum "Si O2"
_cell_formula_units_Z 26
_cell_length_a 9.242977
_cell_length_b 9.533584
_cell_length_c 18.034692
_cell_angle_alpha 90.000000
_cell_angle_beta 51.138995
_cell_angle_gamma 90.000000
_cell_volume 1237.457921
_symmetry_space_group_name_H-M "P 2/C"
_symmetry_group_IT_number 13
_symmetry_cell_setting 'monoclinic'
loop_
_space_group_symop_operation_xyz
x,y,z
-x,y,1/2-z
-x,-y,-z
x,-y,1/2+z
loop_
_atom_site_type_symbol
_atom_site_label
_atom_site_fract_x
_atom_site_fract_y
_atom_site_fract_z
Si Si1 0.222875 0.772494 0.600211
Si Si2 0.764909 0.998679 0.144161
Si Si3 0.803031 0.941727 0.468640
Si Si4 0.500000 0.249029 0.750000
Si Si5 0.811796 0.280568 0.214694
Si Si6 0.371686 0.657521 0.027915
Si Si7 0.433632 0.478763 0.652464
O O1 0.201312 0.759832 0.694875
O O2 0.418573 0.703915 0.517211
O O3 0.033277 0.709054 0.625736
O O4 0.239646 0.934624 0.574184
O O5 0.665614 0.861225 0.206568
O O6 0.980455 0.958975 0.082834
O O7 0.735743 0.147594 0.193882
O O8 0.705449 0.024322 0.078260
O O9 0.747541 0.792145 0.454379
O O10 0.509594 0.350233 0.675913
O O11 0.689073 0.421720 0.253681
O O12 0.309006 0.574617 0.121921
O O13 0.407144 0.568056 0.941461
#
# Coordination Sequence:
#
# PCOD9233289 Si02
#       7
#     4   4   4   2   4   4   4
#     4   9  18  36  65  93 117 155 204 256 297 360
#     4  10  24  40  62  93 123 163 208 254 301 358
#     4  10  21  40  65  92 122 159 208 251 303 364
#     4  12  26  40  58  94 126 162 208 262 298 368
#     4   9  20  39  63  90 122 160 200 254 313 354
#     4  10  21  40  64  91 121 165 203 247 305 378
#     4  10  24  41  59  92 125 162 207 245 313 372
#
# _framework density 21.010815999999998
#
# number of rings (size 3 to 8) (size 9 to 14) (size 15 to 20)
#    0.000    2.154    0.000    1.385    8.615    0.000 
#   13.846    0.769    0.000    0.000    0.000    0.000 
#    0.000    0.000    0.000    0.000    0.000    0.000 
#
# Total GULP energy -145015.384346 kJ/mol
# GULP energy per Si atom -5577.514783 kJ/mol
# Density = 2.096299 g / cm^3
# Si number density = 21.010816 Si / 1000 Ang^3
#
#
#
# Elastic Constant Matrix: (Units=GPa)
#
#
# Indices 1 2 3 4 5 6 
#
# 1 34.3643 27.2235 13.0409 0.0000 -1.8565 0.0000
# 2 27.2235 112.5989 30.2103 0.0000 -10.6693 0.0000
# 3 13.0409 30.2103 46.0948 0.0000 -6.0464 0.0000
# 4 0.0000 0.0000 0.0000 46.0956 0.0000 6.3626
# 5 -1.8565 -10.6693 -6.0464 0.0000 12.2228 0.0000
# 6 0.0000 0.0000 0.0000 6.3626 0.0000 32.1790
#
#
#
# Elastic Compliance Matrix: (Units=1/GPa)
#
#
# Indices 1 2 3 4 5 6 
#
# 1 0.037336 -0.007811 -0.005982 0.000000 -0.004107 0.000000
# 2 -0.007811 0.012887 -0.005258 0.000000 0.007462 0.000000
# 3 -0.005982 -0.005258 0.027923 0.000000 0.008315 0.000000
# 4 0.000000 0.000000 0.000000 0.022303 0.000000 -0.004410
# 5 -0.004107 0.007462 0.008315 0.000000 0.091818 0.000000
# 6 0.000000 0.000000 0.000000 -0.004410 0.000000 0.031948
#
#
# Mechanical properties :
#
#
# Convention : Reuss Voigt Hill
#
# Bulk Modulus (GPa) = 24.97181 37.11193 31.04187
# Shear Modulus (GPa) = 18.13790 26.27171 22.20481
#
# Velocity S-wave (km/s) = 2.94132 3.53992 3.25441
# Velocity P-wave (km/s) = 4.84213 5.86597 5.37847
#
# Compressibility (1/GPa) = 0.04004516
#
# Stress axis : x y z
#
# Youngs Moduli (GPa) = 26.78359 77.59602 35.81219
#
# Poissons Ratio (x) = 0.60610 0.21424
# Poissons Ratio (y) = 0.20921 0.18829
# Poissons Ratio (z) = 0.16023 0.40797
#
# Static dielectric constant tensor:
#      x y z
#    x 1.788540 0.000000 -0.034420 
#    y 0.000000 1.771100 0.000000 
#    z -0.034420 0.000000 1.843590 
# 
# From -- ./inp_files/77978.got.cif
#   From: 2010.05.17/outbox.cif.g08.bks.cpg/sg13_39_cif.got.tgz:77978.got - 2010.06.03 16:44:36.
