data_PCOD9233385
_publ_section_title
;
Structure prediction by ZEFSAII (Michael W. Deem and Ramdas Pophale) SiO2 
 PCOD9233385
Probable space group: P 2/C
;
_chemical_formula_sum "Si O2"
_cell_formula_units_Z 32
_cell_length_a 30.078448
_cell_length_b 7.485433
_cell_length_c 19.142633
_cell_angle_alpha 90.000000
_cell_angle_beta 15.739226
_cell_angle_gamma 90.000000
_cell_volume 1169.119549
_symmetry_space_group_name_H-M "P 2/C"
_symmetry_group_IT_number 13
_symmetry_cell_setting 'monoclinic'
loop_
_space_group_symop_operation_xyz
x,y,z
-x,y,1/2-z
-x,-y,-z
x,-y,1/2+z
loop_
_atom_site_type_symbol
_atom_site_label
_atom_site_fract_x
_atom_site_fract_y
_atom_site_fract_z
Si Si1 0.471515 0.626037 0.610243
Si Si2 0.191946 0.122348 0.570342
Si Si3 0.945798 0.234672 0.259689
Si Si4 0.882588 0.293790 0.995250
Si Si5 0.103107 0.333356 0.314432
Si Si6 0.707093 0.044430 0.784435
Si Si7 0.321514 0.486414 0.088558
Si Si8 0.224141 0.133814 0.676678
O O1 0.500000 0.500000 0.500000
O O2 0.294565 0.713803 0.884724
O O3 0.582819 0.807922 0.442804
O O4 0.513740 0.511087 0.615990
O O5 0.000000 0.304754 0.750000
O O6 0.260631 0.076914 0.542817
O O7 0.174316 0.939078 0.552716
O O8 0.009920 0.200073 0.855452
O O9 0.000000 0.325924 0.250000
O O10 0.875181 0.345826 0.302097
O O11 0.118376 0.143247 0.981638
O O12 0.805413 0.458515 0.153772
O O13 0.734320 0.150623 0.210718
O O14 0.266237 0.341429 0.114635
O O15 0.000000 0.500000 0.500000
O O16 0.972834 0.171603 0.518558
O O17 0.689396 0.018243 0.894313
O O18 0.298758 0.671291 0.081919
#
# Coordination Sequence:
#
# PCOD9233385 Si02
#       8
#     4   4   4   4   4   4   4   4
#     4  11  25  47  67 102 150 209 245 314 391 456
#     4  11  22  39  72 101 140 191 258 310 381 447
#     4  10  22  42  71 116 147 190 252 320 376 457
#     4  11  22  40  69 103 137 185 251 323 371 453
#     4   9  18  38  68 108 145 186 240 303 378 448
#     4   9  21  40  67  94 145 189 242 300 390 452
#     4  10  21  40  68 101 146 197 251 300 383 457
#     4   9  19  37  66 100 133 187 241 309 367 445
#
# _framework density 27.371023999999998
#
# number of rings (size 3 to 8) (size 9 to 14) (size 15 to 20)
#    0.000    2.000    1.250    3.000    1.750    3.500 
#    4.500   19.375    2.750    0.000    0.000    0.000 
#    0.000    0.000    0.000    0.000    0.000    0.000 
#
# Total GULP energy -178732.465724 kJ/mol
# GULP energy per Si atom -5585.389554 kJ/mol
# Density = 2.730873 g / cm^3
# Si number density = 27.371024 Si / 1000 Ang^3
#
#
#
# Elastic Constant Matrix: (Units=GPa)
#
#
# Indices 1 2 3 4 5 6 
#
# 1 224.7976 49.2379 24.6778 0.0000 -10.0532 0.0000
# 2 49.2379 140.7509 31.5704 0.0000 -3.2425 0.0000
# 3 24.6778 31.5704 75.2691 0.0000 -16.0211 0.0000
# 4 0.0000 0.0000 0.0000 36.5477 0.0000 3.0370
# 5 -10.0532 -3.2425 -16.0211 0.0000 41.8646 0.0000
# 6 0.0000 0.0000 0.0000 3.0370 0.0000 46.0960
#
#
#
# Elastic Compliance Matrix: (Units=1/GPa)
#
#
# Indices 1 2 3 4 5 6 
#
# 1 0.004903 -0.001516 -0.000812 0.000000 0.000749 0.000000
# 2 -0.001516 0.008331 -0.003198 0.000000 -0.000943 0.000000
# 3 -0.000812 -0.003198 0.016111 0.000000 0.005723 0.000000
# 4 0.000000 0.000000 0.000000 0.027512 0.000000 -0.001813
# 5 0.000749 -0.000943 0.005723 0.000000 0.026184 0.000000
# 6 0.000000 0.000000 0.000000 -0.001813 0.000000 0.021813
#
#
# Mechanical properties :
#
#
# Convention : Reuss Voigt Hill
#
# Bulk Modulus (GPa) = 54.66477 72.42111 63.54294
# Shear Modulus (GPa) = 40.98246 47.25710 44.11978
#
# Velocity S-wave (km/s) = 3.87369 4.15967 4.01922
# Velocity P-wave (km/s) = 6.32632 7.04180 6.69363
#
# Compressibility (1/GPa) = 0.01829332
#
# Stress axis : x y z
#
# Youngs Moduli (GPa) = 203.95152 120.04009 62.06798
#
# Poissons Ratio (x) = 0.18195 0.05042
# Poissons Ratio (y) = 0.30914 0.19848
# Poissons Ratio (z) = 0.16568 0.38386
#
# Static dielectric constant tensor:
#      x y z
#    x 2.320660 0.000000 0.056990 
#    y 0.000000 2.147910 0.000000 
#    z 0.056990 0.000000 2.176160 
# 
# From -- ./inp_files/71126.got.cif
#   From: 2010.05.17/outbox.cif.g08.bks.cpg/sg13_36_cif.got.tgz:71126.got - 2010.06.03 16:44:36.
