data_PCOD9233499
_publ_section_title
;
Structure prediction by ZEFSAII (Michael W. Deem and Ramdas Pophale) SiO2 
 PCOD9233499
Probable space group: P 2/C
;
_chemical_formula_sum "Si O2"
_cell_formula_units_Z 26
_cell_length_a 21.632567
_cell_length_b 8.379705
_cell_length_c 9.296334
_cell_angle_alpha 90.000000
_cell_angle_beta 42.394034
_cell_angle_gamma 90.000000
_cell_volume 1136.197095
_symmetry_space_group_name_H-M "P 2/C"
_symmetry_group_IT_number 13
_symmetry_cell_setting 'monoclinic'
loop_
_space_group_symop_operation_xyz
x,y,z
-x,y,1/2-z
-x,-y,-z
x,-y,1/2+z
loop_
_atom_site_type_symbol
_atom_site_label
_atom_site_fract_x
_atom_site_fract_y
_atom_site_fract_z
Si Si1 0.931851 0.804074 0.149667
Si Si2 0.691471 0.304433 0.421862
Si Si3 0.342636 0.218818 0.718860
Si Si4 0.881297 0.122770 0.067516
Si Si5 0.773948 0.345534 0.798703
Si Si6 0.356666 0.858251 0.769065
Si Si7 0.500000 0.204115 0.250000
O O1 0.898649 0.856383 0.366888
O O2 0.875854 0.655490 0.184707
O O3 0.904029 0.945590 0.086538
O O4 0.040005 0.779595 0.982467
O O5 0.634034 0.269748 0.661851
O O6 0.779229 0.184348 0.272784
O O7 0.731176 0.480288 0.370315
O O8 0.636137 0.268838 0.371920
O O9 0.245367 0.281727 0.828616
O O10 0.419237 0.286980 0.478276
O O11 0.337479 0.027565 0.728574
O O12 0.720748 0.219062 0.994521
O O13 0.444055 0.884913 0.721412
#
# Coordination Sequence:
#
# PCOD9233499 Si02
#       7
#     4   4   4   4   4   4   2
#     4  10  21  41  64  97 135 169 223 266 315 375
#     4  12  24  40  65  98 132 173 215 261 324 382
#     4  11  24  42  69  95 126 168 214 267 321 386
#     4  10  22  39  67  97 130 175 217 271 315 372
#     4  11  24  41  62  96 136 173 213 262 320 386
#     4  11  22  44  67  94 126 164 217 265 322 385
#     4  10  24  44  70 100 122 158 216 276 322 376
#
# _framework density 22.883351999999999
#
# number of rings (size 3 to 8) (size 9 to 14) (size 15 to 20)
#    0.000    1.231    1.538    5.077    2.154    1.231 
#    0.000   12.308    0.000    1.846    0.000    0.000 
#    0.000    0.000    0.000    0.000    0.000    0.000 
#
# Total GULP energy -145159.291751 kJ/mol
# GULP energy per Si atom -5583.049683 kJ/mol
# Density = 2.283127 g / cm^3
# Si number density = 22.883352 Si / 1000 Ang^3
#
#
#
# Elastic Constant Matrix: (Units=GPa)
#
#
# Indices 1 2 3 4 5 6 
#
# 1 132.0816 34.6797 25.2326 0.0000 5.7128 0.0000
# 2 34.6797 80.1300 -9.0049 0.0000 -3.0343 0.0000
# 3 25.2326 -9.0049 51.0960 0.0000 15.3788 0.0000
# 4 0.0000 0.0000 0.0000 10.2347 0.0000 3.4320
# 5 5.7128 -3.0343 15.3788 0.0000 27.0812 0.0000
# 6 0.0000 0.0000 0.0000 3.4320 0.0000 10.2424
#
#
#
# Elastic Compliance Matrix: (Units=1/GPa)
#
#
# Indices 1 2 3 4 5 6 
#
# 1 0.010000 -0.004978 -0.006046 0.000000 0.000766 0.000000
# 2 -0.004978 0.015211 0.005199 0.000000 -0.000198 0.000000
# 3 -0.006046 0.005199 0.027638 0.000000 -0.013837 0.000000
# 4 0.000000 0.000000 0.000000 0.110075 0.000000 -0.036883
# 5 0.000766 -0.000198 -0.013837 0.000000 0.044600 0.000000
# 6 0.000000 0.000000 0.000000 -0.036883 0.000000 0.109992
#
#
# Mechanical properties :
#
#
# Convention : Reuss Voigt Hill
#
# Bulk Modulus (GPa) = 24.27371 40.56913 32.42142
# Shear Modulus (GPa) = 14.58151 23.67168 19.12660
#
# Velocity S-wave (km/s) = 2.52704 3.21978 2.89421
# Velocity P-wave (km/s) = 4.37552 5.62048 5.03661
#
# Compressibility (1/GPa) = 0.04119683
#
# Stress axis : x y z
#
# Youngs Moduli (GPa) = 99.99815 65.74138 36.18245
#
# Poissons Ratio (x) = 0.32729 0.21877
# Poissons Ratio (y) = 0.49784 -0.18810
# Poissons Ratio (z) = 0.60463 -0.34177
#
# Static dielectric constant tensor:
#      x y z
#    x 1.916910 0.000000 -0.044700 
#    y 0.000000 1.841830 0.000000 
#    z -0.044700 0.000000 1.910850 
# 
# From -- ./inp_files/22946.got.cif
#   From: 2010.05.17/outbox.cif.g08.bks.cpg/sg13_12_cif.got.tgz:22946.got - 2010.06.03 16:44:36.
