data_PCOD9233814
_publ_section_title
;
Structure prediction by ZEFSAII (Michael W. Deem and Ramdas Pophale) SiO2 
 PCOD9233814
Probable space group: P 2/C
;
_chemical_formula_sum "Si O2"
_cell_formula_units_Z 28
_cell_length_a 19.080085
_cell_length_b 5.518309
_cell_length_c 13.858836
_cell_angle_alpha 90.000000
_cell_angle_beta 130.983737
_cell_angle_gamma 90.000000
_cell_volume 1101.539478
_symmetry_space_group_name_H-M "P 2/C"
_symmetry_group_IT_number 13
_symmetry_cell_setting 'monoclinic'
loop_
_space_group_symop_operation_xyz
x,y,z
-x,y,1/2-z
-x,-y,-z
x,-y,1/2+z
loop_
_atom_site_type_symbol
_atom_site_label
_atom_site_fract_x
_atom_site_fract_y
_atom_site_fract_z
Si Si1 0.537445 0.748307 0.988777
Si Si2 0.753649 0.217118 0.252080
Si Si3 0.727101 0.141250 0.585835
Si Si4 0.000000 0.703234 0.750000
Si Si5 0.500000 0.438167 0.250000
Si Si6 0.861055 0.815425 0.474186
Si Si7 0.307804 0.541471 0.628894
Si Si8 0.902142 0.394034 0.823256
O O1 0.514067 0.731728 0.854722
O O2 0.500000 0.500000 0.000000
O O3 0.650342 0.743575 0.088573
O O4 0.500000 0.000000 0.000000
O O5 0.679471 0.337922 0.255084
O O6 0.835467 0.397826 0.302711
O O7 0.718008 0.133423 0.114753
O O8 0.799942 0.014945 0.363727
O O9 0.709625 0.245794 0.464915
O O10 0.831738 0.211084 0.706996
O O11 0.923814 0.864581 0.624747
O O12 0.965283 0.518999 0.801319
O O13 0.595717 0.582171 0.316769
O O14 0.783797 0.623113 0.443049
O O15 0.930881 0.730910 0.449945
#
# Coordination Sequence:
#
# PCOD9233814 Si02
#       8
#     4   4   4   2   2   4   4   4
#     4  11  26  44  70 108 146 193 244 301 362 433
#     4  10  23  40  66  92 133 171 225 280 348 413
#     4  10  22  41  67  96 132 182 222 278 351 417
#     4  12  22  42  70  94 132 172 224 286 346 426
#     4  10  24  44  66 106 140 186 242 296 356 440
#     4  10  23  42  65  95 128 177 216 283 348 411
#     4  10  21  43  65  95 133 175 221 276 344 415
#     4  10  23  42  66  94 129 172 221 282 349 421
#
# _framework density 25.418973000000001
#
# number of rings (size 3 to 8) (size 9 to 14) (size 15 to 20)
#    0.000    1.714    1.429    1.286   10.000    1.143 
#    7.714    7.143    0.000    0.000    0.000    0.000 
#    0.000    0.000    0.000    0.000    0.000    0.000 
#
# Total GULP energy -156332.586698 kJ/mol
# GULP energy per Si atom -5583.306668 kJ/mol
# Density = 2.536112 g / cm^3
# Si number density = 25.418973 Si / 1000 Ang^3
#
#
#
# Elastic Constant Matrix: (Units=GPa)
#
#
# Indices 1 2 3 4 5 6 
#
# 1 139.6569 22.3602 30.2491 0.0000 -28.2830 0.0000
# 2 22.3602 49.6858 6.2544 0.0000 -25.7075 0.0000
# 3 30.2491 6.2544 114.5788 0.0000 -19.8728 0.0000
# 4 0.0000 0.0000 0.0000 21.9022 0.0000 -4.7611
# 5 -28.2830 -25.7075 -19.8728 0.0000 35.1740 0.0000
# 6 0.0000 0.0000 0.0000 -4.7611 0.0000 18.6635
#
#
#
# Elastic Compliance Matrix: (Units=1/GPa)
#
#
# Indices 1 2 3 4 5 6 
#
# 1 0.008720 -0.000816 -0.001269 0.000000 0.005698 0.000000
# 2 -0.000816 0.033150 0.002765 0.000000 0.025134 0.000000
# 3 -0.001269 0.002765 0.010072 0.000000 0.006691 0.000000
# 4 0.000000 0.000000 0.000000 0.048338 0.000000 0.012331
# 5 0.005698 0.025134 0.006691 0.000000 0.055162 0.000000
# 6 0.000000 0.000000 0.000000 0.012331 0.000000 0.056726
#
#
# Mechanical properties :
#
#
# Convention : Reuss Voigt Hill
#
# Bulk Modulus (GPa) = 18.76111 46.84988 32.80549
# Shear Modulus (GPa) = 21.87450 31.48513 26.67981
#
# Velocity S-wave (km/s) = 2.93671 3.52326 3.24327
# Velocity P-wave (km/s) = 4.34693 5.91796 5.19221
#
# Compressibility (1/GPa) = 0.05330175
#
# Stress axis : x y z
#
# Youngs Moduli (GPa) = 114.67963 30.16565 99.28222
#
# Poissons Ratio (x) = 0.02463 0.12602
# Poissons Ratio (y) = 0.09363 -0.27455
# Poissons Ratio (z) = 0.14556 -0.08342
#
# Static dielectric constant tensor:
#      x y z
#    x 2.034960 0.000000 0.016360 
#    y 0.000000 2.094060 0.000000 
#    z 0.016360 0.000000 2.063360 
# 
# From -- ./inp_files/54628.got.cif
#   From: 2010.05.17/outbox.cif.g08.bks.cpg/sg13_28_cif.got.tgz:54628.got - 2010.06.03 16:44:36.
