data_PCOD9233612
_publ_section_title
;
Structure prediction by ZEFSAII (Michael W. Deem and Ramdas Pophale) SiO2 
 PCOD9233612
Probable space group: P 2/C
;
_chemical_formula_sum "Si O2"
_cell_formula_units_Z 30
_cell_length_a 7.189342
_cell_length_b 11.696177
_cell_length_c 22.729343
_cell_angle_alpha 90.000000
_cell_angle_beta 45.572703
_cell_angle_gamma 90.000000
_cell_volume 1364.906397
_symmetry_space_group_name_H-M "P 2/C"
_symmetry_group_IT_number 13
_symmetry_cell_setting 'monoclinic'
loop_
_space_group_symop_operation_xyz
x,y,z
-x,y,1/2-z
-x,-y,-z
x,-y,1/2+z
loop_
_atom_site_type_symbol
_atom_site_label
_atom_site_fract_x
_atom_site_fract_y
_atom_site_fract_z
Si Si1 0.298159 0.507388 0.413776
Si Si2 0.722717 0.801133 0.968763
Si Si3 0.455023 0.152116 0.112407
Si Si4 0.300860 0.660885 0.007790
Si Si5 0.720540 0.715134 0.152123
Si Si6 0.264318 0.059430 0.919187
Si Si7 0.000000 0.678660 0.750000
Si Si8 0.778592 0.337264 0.176248
O O1 0.417739 0.443052 0.443275
O O2 0.372521 0.635749 0.381907
O O3 0.302306 0.434909 0.352442
O O4 0.000000 0.500000 0.500000
O O5 0.519503 0.698132 0.004822
O O6 0.084887 0.619522 0.792823
O O7 0.009932 0.747736 0.899154
O O8 0.658983 0.866897 0.041222
O O9 0.697678 0.233360 0.040000
O O10 0.333038 0.118807 0.075829
O O11 0.242783 0.237784 0.184899
O O12 0.535635 0.044964 0.132877
O O13 0.010934 0.661693 0.098546
O O14 0.500000 0.702368 0.250000
O O15 0.753495 0.848522 0.128714
O O16 0.000000 0.000000 0.000000
O O17 0.500000 0.278402 0.250000
#
# Coordination Sequence:
#
# PCOD9233612 Si02
#       8
#     4   4   4   4   4   4   2   4
#     4  10  21  41  71  92 128 179 216 268 340 412
#     4   9  21  39  66  96 123 171 225 277 323 403
#     4   9  20  38  61  92 131 162 216 278 324 381
#     4   9  19  42  68  90 132 163 224 271 335 397
#     4  11  24  43  61  97 134 172 223 278 327 406
#     4  12  22  41  66  88 126 184 227 263 335 397
#     4  10  22  40  60 108 136 156 230 288 326 400
#     4  11  22  37  69  98 135 165 211 281 345 383
#
# _framework density 21.979528999999999
#
# number of rings (size 3 to 8) (size 9 to 14) (size 15 to 20)
#    0.800    1.067    1.333    3.200    1.867    0.000 
#    7.200    6.000    0.000    0.000    0.000    0.000 
#    0.000    0.000    0.000    0.000    0.000    0.000 
#
# Total GULP energy -167121.285022 kJ/mol
# GULP energy per Si atom -5570.709501 kJ/mol
# Density = 2.192950 g / cm^3
# Si number density = 21.979529 Si / 1000 Ang^3
#
#
#
# Elastic Constant Matrix: (Units=GPa)
#
#
# Indices 1 2 3 4 5 6 
#
# 1 75.1362 15.5029 25.7006 0.0000 -7.1318 0.0000
# 2 15.5029 89.0206 25.8485 0.0000 -9.5608 0.0000
# 3 25.7006 25.8485 112.0898 0.0000 -22.4671 0.0000
# 4 0.0000 0.0000 0.0000 27.2412 0.0000 8.3312
# 5 -7.1318 -9.5608 -22.4671 0.0000 36.4197 0.0000
# 6 0.0000 0.0000 0.0000 8.3312 0.0000 32.0638
#
#
#
# Elastic Compliance Matrix: (Units=1/GPa)
#
#
# Indices 1 2 3 4 5 6 
#
# 1 0.014691 -0.001658 -0.002849 0.000000 0.000684 0.000000
# 2 -0.001658 0.012314 -0.002142 0.000000 0.001587 0.000000
# 3 -0.002849 -0.002142 0.011233 0.000000 0.005809 0.000000
# 4 0.000000 0.000000 0.000000 0.039878 0.000000 -0.010362
# 5 0.000684 0.001587 0.005809 0.000000 0.031592 0.000000
# 6 0.000000 0.000000 0.000000 -0.010362 0.000000 0.033880
#
#
# Mechanical properties :
#
#
# Convention : Reuss Voigt Hill
#
# Bulk Modulus (GPa) = 40.09385 45.59451 42.84418
# Shear Modulus (GPa) = 30.26667 33.09125 31.67896
#
# Velocity S-wave (km/s) = 3.71487 3.88435 3.80056
# Velocity P-wave (km/s) = 6.05652 6.39583 6.22849
#
# Compressibility (1/GPa) = 0.02494148
#
# Stress axis : x y z
#
# Youngs Moduli (GPa) = 68.07061 81.20628 89.02389
#
# Poissons Ratio (x) = 0.13461 0.25363
# Poissons Ratio (y) = 0.11284 0.19065
# Poissons Ratio (z) = 0.19393 0.17391
#
# Static dielectric constant tensor:
#      x y z
#    x 1.915510 0.000000 0.012930 
#    y 0.000000 1.921890 0.000000 
#    z 0.012930 0.000000 1.842410 
# 
# From -- ./inp_files/85211.got.cif
#   From: 2010.05.17/outbox.cif.g08.bks.cpg/sg13_43_cif.got.tgz:85211.got - 2010.06.03 16:44:36.
