data_PCOD9233227
_publ_section_title
;
Structure prediction by ZEFSAII (Michael W. Deem and Ramdas Pophale) SiO2 
 PCOD9233227
Probable space group: P 2/C
;
_chemical_formula_sum "Si O2"
_cell_formula_units_Z 28
_cell_length_a 21.878392
_cell_length_b 12.180559
_cell_length_c 21.123616
_cell_angle_alpha 90.000000
_cell_angle_beta 166.356227
_cell_angle_gamma 90.000000
_cell_volume 1327.854479
_symmetry_space_group_name_H-M "P 2/C"
_symmetry_group_IT_number 13
_symmetry_cell_setting 'monoclinic'
loop_
_space_group_symop_operation_xyz
x,y,z
-x,y,1/2-z
-x,-y,-z
x,-y,1/2+z
loop_
_atom_site_type_symbol
_atom_site_label
_atom_site_fract_x
_atom_site_fract_y
_atom_site_fract_z
Si Si1 0.500000 0.967686 0.750000
Si Si2 0.000000 0.122805 0.250000
Si Si3 0.953316 0.679647 0.797570
Si Si4 0.409190 0.378622 0.343333
Si Si5 0.610244 0.130404 0.228634
Si Si6 0.915971 0.668590 0.422721
Si Si7 0.553518 0.456760 0.735206
Si Si8 0.895413 0.086676 0.845223
O O1 0.251156 0.046645 0.498654
O O2 0.473266 0.891742 0.784374
O O3 0.000348 0.203540 0.189271
O O4 0.989490 0.325065 0.070049
O O5 0.663471 0.637320 0.492739
O O6 0.163479 0.596923 0.979526
O O7 0.635318 0.379636 0.623366
O O8 0.461340 0.462444 0.339245
O O9 0.406743 0.257241 0.309254
O O10 0.134187 0.392697 0.101021
O O11 0.900271 0.089521 0.506811
O O12 0.397222 0.067267 0.971584
O O13 0.909706 0.793641 0.391350
O O14 0.500000 0.509506 0.750000
O O15 0.000000 0.000000 0.000000
#
# Coordination Sequence:
#
# PCOD9233227 Si02
#       8
#     2   2   4   4   4   4   4   4
#     4  12  26  40  68  92 124 174 204 254 318 360
#     4  12  26  46  60  94 134 164 218 254 306 380
#     4  12  25  44  65  92 130 164 215 260 304 379
#     4  10  23  43  65  97 127 158 211 263 314 375
#     4  10  23  41  61  96 126 156 213 256 301 381
#     4  10  23  40  64  94 127 164 206 265 316 359
#     4  12  24  43  68  92 126 173 205 254 321 368
#     4  10  21  40  61  89 126 167 207 252 308 368
#
# _framework density 21.086648
#
# number of rings (size 3 to 8) (size 9 to 14) (size 15 to 20)
#    0.000    1.143    1.429    3.857    5.000    3.429 
#    0.000    0.000    0.000    0.000    0.000    0.000 
#    0.000    0.000    0.000    0.000    0.000    0.000 
#
# Total GULP energy -156701.584201 kJ/mol
# GULP energy per Si atom -5596.485150 kJ/mol
# Density = 2.103865 g / cm^3
# Si number density = 21.086648 Si / 1000 Ang^3
#
#
#
# Elastic Constant Matrix: (Units=GPa)
#
#
# Indices 1 2 3 4 5 6 
#
# 1 131.8504 9.9321 8.9687 0.0000 2.1402 0.0000
# 2 9.9321 37.4970 13.4052 0.0000 5.1021 0.0000
# 3 8.9687 13.4052 97.8831 0.0000 10.2003 0.0000
# 4 0.0000 0.0000 0.0000 27.2983 0.0000 0.8410
# 5 2.1402 5.1021 10.2003 0.0000 32.6577 0.0000
# 6 0.0000 0.0000 0.0000 0.8410 0.0000 39.8441
#
#
#
# Elastic Compliance Matrix: (Units=1/GPa)
#
#
# Indices 1 2 3 4 5 6 
#
# 1 0.007758 -0.001886 -0.000445 0.000000 -0.000075 0.000000
# 2 -0.001886 0.028846 -0.003433 0.000000 -0.003311 0.000000
# 3 -0.000445 -0.003433 0.011027 0.000000 -0.002879 0.000000
# 4 0.000000 0.000000 0.000000 0.036656 0.000000 -0.000774
# 5 -0.000075 -0.003311 -0.002879 0.000000 0.032042 0.000000
# 6 0.000000 0.000000 0.000000 -0.000774 0.000000 0.025114
#
#
# Mechanical properties :
#
#
# Convention : Reuss Voigt Hill
#
# Bulk Modulus (GPa) = 27.69725 36.87140 32.28432
# Shear Modulus (GPa) = 30.30221 35.62165 32.96193
#
# Velocity S-wave (km/s) = 3.79493 4.11457 3.95798
# Velocity P-wave (km/s) = 5.68907 6.33218 6.01922
#
# Compressibility (1/GPa) = 0.03610467
#
# Stress axis : x y z
#
# Youngs Moduli (GPa) = 128.90137 34.66684 90.68543
#
# Poissons Ratio (x) = 0.06537 0.04033
# Poissons Ratio (y) = 0.24307 0.31130
# Poissons Ratio (z) = 0.05733 0.11900
#
# Static dielectric constant tensor:
#      x y z
#    x 1.723010 0.000000 -0.013130 
#    y 0.000000 1.740630 0.000000 
#    z -0.013130 0.000000 1.730310 
# 
# From -- ./inp_files/94208.got.cif
#   From: 2010.05.17/outbox.cif.g08.bks.cpg/sg13_48_cif.got.tgz:94208.got - 2010.06.03 16:44:36.
