data_PCOD9233708
_publ_section_title
;
Structure prediction by ZEFSAII (Michael W. Deem and Ramdas Pophale) SiO2 
 PCOD9233708
Probable space group: P 2/C
;
_chemical_formula_sum "Si O2"
_cell_formula_units_Z 26
_cell_length_a 22.457052
_cell_length_b 11.088591
_cell_length_c 10.400860
_cell_angle_alpha 90.000000
_cell_angle_beta 32.767431
_cell_angle_gamma 90.000000
_cell_volume 1401.781982
_symmetry_space_group_name_H-M "P 2/C"
_symmetry_group_IT_number 13
_symmetry_cell_setting 'monoclinic'
loop_
_space_group_symop_operation_xyz
x,y,z
-x,y,1/2-z
-x,-y,-z
x,-y,1/2+z
loop_
_atom_site_type_symbol
_atom_site_label
_atom_site_fract_x
_atom_site_fract_y
_atom_site_fract_z
Si Si1 0.219618 0.233368 0.030805
Si Si2 0.882899 0.974476 0.643577
Si Si3 0.571467 0.359419 0.745224
Si Si4 0.000000 0.206274 0.750000
Si Si5 0.212717 0.235019 0.746314
Si Si6 0.575439 0.645035 0.736606
Si Si7 0.011779 0.356982 0.982472
O O1 0.193741 0.096805 0.117949
O O2 0.105029 0.302329 0.263237
O O3 0.316619 0.286235 0.941202
O O4 0.247750 0.247953 0.830570
O O5 0.909744 0.883732 0.476501
O O6 0.828586 0.099134 0.701224
O O7 0.000000 0.000000 0.500000
O O8 0.500000 0.330193 0.750000
O O9 0.601267 0.501724 0.686011
O O10 0.494828 0.335773 0.007710
O O11 0.961669 0.292469 0.702851
O O12 0.313903 0.277621 0.474811
O O13 0.107785 0.318102 0.904900
O O14 0.500000 0.671630 0.750000
O O15 0.000000 0.500000 0.000000
#
# Coordination Sequence:
#
# PCOD9233708 Si02
#       7
#     4   4   4   2   4   4   4
#     4  11  23  41  65  95 127 168 222 265 325 397
#     4  11  22  42  63  93 131 177 215 263 325 397
#     4  10  22  43  68  94 131 169 217 273 330 392
#     4  10  22  40  60  84 136 170 216 252 328 398
#     4  12  23  40  69  93 128 176 216 268 330 396
#     4  10  21  42  67  95 128 172 216 266 333 391
#     4  11  25  39  61  99 133 164 214 279 336 394
#
# _framework density 18.547819
#
# number of rings (size 3 to 8) (size 9 to 14) (size 15 to 20)
#    0.000    1.231    4.615    2.308    2.154    2.462 
#    0.000    1.538    0.000    0.000    0.000    0.000 
#    0.000    0.000    0.000    0.000    0.000    0.000 
#
# Total GULP energy -145229.521026 kJ/mol
# GULP energy per Si atom -5585.750809 kJ/mol
# Density = 1.850560 g / cm^3
# Si number density = 18.547819 Si / 1000 Ang^3
#
#
#
# Elastic Constant Matrix: (Units=GPa)
#
#
# Indices 1 2 3 4 5 6 
#
# 1 91.0721 32.8033 37.2044 0.0000 -2.1037 0.0000
# 2 32.8033 108.4802 31.1177 0.0000 -8.4947 0.0000
# 3 37.2044 31.1177 70.0276 0.0000 -4.5147 0.0000
# 4 0.0000 0.0000 0.0000 35.2624 0.0000 -4.4872
# 5 -2.1037 -8.4947 -4.5147 0.0000 36.3412 0.0000
# 6 0.0000 0.0000 0.0000 -4.4872 0.0000 14.6512
#
#
#
# Elastic Compliance Matrix: (Units=1/GPa)
#
#
# Indices 1 2 3 4 5 6 
#
# 1 0.014609 -0.002551 -0.006665 0.000000 -0.000579 0.000000
# 2 -0.002551 0.011142 -0.003465 0.000000 0.002026 0.000000
# 3 -0.006665 -0.003465 0.019440 0.000000 0.001219 0.000000
# 4 0.000000 0.000000 0.000000 0.029509 0.000000 0.009038
# 5 -0.000579 0.002026 0.001219 0.000000 0.028109 0.000000
# 6 0.000000 0.000000 0.000000 0.009038 0.000000 0.071022
#
#
# Mechanical properties :
#
#
# Convention : Reuss Voigt Hill
#
# Bulk Modulus (GPa) = 50.43407 52.42563 51.42985
# Shear Modulus (GPa) = 24.29528 28.48128 26.38828
#
# Velocity S-wave (km/s) = 3.62314 3.92287 3.77598
# Velocity P-wave (km/s) = 6.68979 6.98892 6.84099
#
# Compressibility (1/GPa) = 0.01982787
#
# Stress axis : x y z
#
# Youngs Moduli (GPa) = 68.45319 89.74761 51.44145
#
# Poissons Ratio (x) = 0.22894 0.34286
# Poissons Ratio (y) = 0.17462 0.17826
# Poissons Ratio (z) = 0.45624 0.31101
#
# Static dielectric constant tensor:
#      x y z
#    x 1.635610 0.000000 0.032870 
#    y 0.000000 1.642970 0.000000 
#    z 0.032870 0.000000 1.642060 
# 
# From -- ./inp_files/23310.got.cif
#   From: 2010.05.17/outbox.cif.g08.bks.cpg/sg13_12_cif.got.tgz:23310.got - 2010.06.03 16:44:36.
