data_PCOD9233527
_publ_section_title
;
Structure prediction by ZEFSAII (Michael W. Deem and Ramdas Pophale) SiO2 
 PCOD9233527
Probable space group: P 2/C
;
_chemical_formula_sum "Si O2"
_cell_formula_units_Z 18
_cell_length_a 10.105108
_cell_length_b 11.082835
_cell_length_c 10.233203
_cell_angle_alpha 90.000000
_cell_angle_beta 41.327825
_cell_angle_gamma 90.000000
_cell_volume 756.812690
_symmetry_space_group_name_H-M "P 2/C"
_symmetry_group_IT_number 13
_symmetry_cell_setting 'monoclinic'
loop_
_space_group_symop_operation_xyz
x,y,z
-x,y,1/2-z
-x,-y,-z
x,-y,1/2+z
loop_
_atom_site_type_symbol
_atom_site_label
_atom_site_fract_x
_atom_site_fract_y
_atom_site_fract_z
Si Si1 0.618628 0.124141 0.422669
Si Si2 0.941322 0.368320 0.435419
Si Si3 0.500000 0.294566 0.750000
Si Si4 0.804911 0.780890 0.548112
Si Si5 0.000000 0.596635 0.250000
Si Si6 0.000000 0.002658 0.750000
O O1 0.535070 0.208413 0.599004
O O2 0.623624 0.194098 0.280994
O O3 0.500000 0.000000 0.500000
O O4 0.840779 0.077231 0.291574
O O5 0.701343 0.371607 0.619613
O O6 0.000000 0.313519 0.250000
O O7 0.030366 0.282252 0.479173
O O8 0.034577 0.502131 0.342770
O O9 0.879423 0.907637 0.435736
O O10 0.814564 0.683740 0.423082
#
# Coordination Sequence:
#
# PCOD9233527 Si02
#       6
#     4   4   2   4   2   2
#     4  12  23  39  62  96 133 172 220 266 319 391
#     4  10  21  41  66  90 129 166 214 264 329 382
#     4  12  22  38  62  96 122 170 216 262 322 392
#     4  11  21  42  66  90 131 172 209 272 323 380
#     4   9  22  41  68  90 124 169 218 259 336 386
#     4  11  24  41  64  96 132 177 214 267 328 384
#
# _framework density 23.783957000000001
#
# number of rings (size 3 to 8) (size 9 to 14) (size 15 to 20)
#    0.667    0.444    2.222    5.333    0.000    0.000 
#    0.000    8.889    0.000    0.000    0.000    0.000 
#    0.000    0.000    0.000    0.000    0.000    0.000 
#
# Total GULP energy -100547.616713 kJ/mol
# GULP energy per Si atom -5585.978706 kJ/mol
# Density = 2.372982 g / cm^3
# Si number density = 23.783957 Si / 1000 Ang^3
#
#
#
# Elastic Constant Matrix: (Units=GPa)
#
#
# Indices 1 2 3 4 5 6 
#
# 1 58.4037 27.8581 20.1494 0.0000 5.7984 0.0000
# 2 27.8581 137.7650 57.8517 0.0000 5.0686 0.0000
# 3 20.1494 57.8517 148.4751 0.0000 30.7482 0.0000
# 4 0.0000 0.0000 0.0000 43.6911 0.0000 14.9106
# 5 5.7984 5.0686 30.7482 0.0000 46.6161 0.0000
# 6 0.0000 0.0000 0.0000 14.9106 0.0000 27.0609
#
#
#
# Elastic Compliance Matrix: (Units=1/GPa)
#
#
# Indices 1 2 3 4 5 6 
#
# 1 0.019233 -0.003421 -0.000994 0.000000 -0.001364 0.000000
# 2 -0.003421 0.009378 -0.003552 0.000000 0.001749 0.000000
# 3 -0.000994 -0.003552 0.009438 0.000000 -0.005715 0.000000
# 4 0.000000 0.000000 0.000000 0.028189 0.000000 -0.015532
# 5 -0.001364 0.001749 -0.005715 0.000000 0.025201 0.000000
# 6 0.000000 0.000000 0.000000 -0.015532 0.000000 0.045512
#
#
# Mechanical properties :
#
#
# Convention : Reuss Voigt Hill
#
# Bulk Modulus (GPa) = 45.22238 61.81802 53.52020
# Shear Modulus (GPa) = 31.20017 39.39259 35.29638
#
# Velocity S-wave (km/s) = 3.62583 4.07414 3.85651
# Velocity P-wave (km/s) = 6.04847 6.94114 6.51012
#
# Compressibility (1/GPa) = 0.02211294
#
# Stress axis : x y z
#
# Youngs Moduli (GPa) = 51.99485 106.63546 105.95945
#
# Poissons Ratio (x) = 0.36484 0.10537
# Poissons Ratio (y) = 0.17789 0.37634
# Poissons Ratio (z) = 0.05170 0.37874
#
# Static dielectric constant tensor:
#      x y z
#    x 2.105390 0.000000 0.044720 
#    y 0.000000 1.899230 0.000000 
#    z 0.044720 0.000000 1.962970 
# 
# From -- ./inp_files/32875.got.cif
#   From: 2010.05.17/outbox.cif.g08.bks.cpg/sg13_17_cif.got.tgz:32875.got - 2010.06.03 16:44:36.
