data_PCOD9233432
_publ_section_title
;
Structure prediction by ZEFSAII (Michael W. Deem and Ramdas Pophale) SiO2 
 PCOD9233432
Probable space group: P 2/C
;
_chemical_formula_sum "Si O2"
_cell_formula_units_Z 20
_cell_length_a 13.263288
_cell_length_b 9.070475
_cell_length_c 22.288226
_cell_angle_alpha 90.000000
_cell_angle_beta 22.406880
_cell_angle_gamma 90.000000
_cell_volume 1022.088319
_symmetry_space_group_name_H-M "P 2/C"
_symmetry_group_IT_number 13
_symmetry_cell_setting 'monoclinic'
loop_
_space_group_symop_operation_xyz
x,y,z
-x,y,1/2-z
-x,-y,-z
x,-y,1/2+z
loop_
_atom_site_type_symbol
_atom_site_label
_atom_site_fract_x
_atom_site_fract_y
_atom_site_fract_z
Si Si1 0.329629 0.667125 0.399940
Si Si2 0.190688 0.209433 0.370940
Si Si3 0.267270 0.343255 0.460563
Si Si4 0.584800 0.940603 0.315733
Si Si5 0.952769 0.904810 0.346057
O O1 0.500000 0.611780 0.250000
O O2 0.227263 0.517324 0.485510
O O3 0.520410 0.774287 0.332040
O O4 0.084924 0.761944 0.509941
O O5 0.175732 0.266629 0.447745
O O6 0.419699 0.305936 0.212651
O O7 0.292144 0.041745 0.305413
O O8 0.118743 0.261579 0.595626
O O9 0.793023 0.950292 0.255050
O O10 0.304886 0.006876 0.490026
O O11 0.000000 0.923733 0.250000
#
# Coordination Sequence:
#
# PCOD9233432 Si02
#       5
#     4   4   4   4   4
#     4  12  23  36  65  97 130 162 201 259 331 383
#     4  10  21  41  59  96 129 161 201 264 317 386
#     4  10  23  39  62  92 130 164 206 256 319 381
#     4  11  24  41  68  96 126 164 217 261 317 372
#     4  11  24  45  66  89 128 173 217 262 305 364
#
# _framework density 19.567781
#
# number of rings (size 3 to 8) (size 9 to 14) (size 15 to 20)
#    0.000    1.200    4.000    2.400    8.400    1.600 
#    0.000    2.000    0.000    0.000    0.000    0.000 
#    0.000    0.000    0.000    0.000    0.000    0.000 
#
# Total GULP energy -111763.647074 kJ/mol
# GULP energy per Si atom -5588.182354 kJ/mol
# Density = 1.952324 g / cm^3
# Si number density = 19.567781 Si / 1000 Ang^3
#
#
#
# Elastic Constant Matrix: (Units=GPa)
#
#
# Indices 1 2 3 4 5 6 
#
# 1 82.1302 30.8101 33.0638 0.0000 -28.1926 0.0000
# 2 30.8101 116.5661 6.4242 0.0000 9.1791 0.0000
# 3 33.0638 6.4242 56.2582 0.0000 -19.8253 0.0000
# 4 0.0000 0.0000 0.0000 12.3141 0.0000 3.6473
# 5 -28.1926 9.1791 -19.8253 0.0000 33.1009 0.0000
# 6 0.0000 0.0000 0.0000 3.6473 0.0000 15.1107
#
#
#
# Elastic Compliance Matrix: (Units=1/GPa)
#
#
# Indices 1 2 3 4 5 6 
#
# 1 0.024030 -0.007434 -0.006762 0.000000 0.018478 0.000000
# 2 -0.007434 0.011323 -0.000332 0.000000 -0.009670 0.000000
# 3 -0.006762 -0.000332 0.025085 0.000000 0.009357 0.000000
# 4 0.000000 0.000000 0.000000 0.087461 0.000000 -0.021111
# 5 0.018478 -0.009670 0.009357 0.000000 0.054234 0.000000
# 6 0.000000 0.000000 0.000000 -0.021111 0.000000 0.071274
#
#
# Mechanical properties :
#
#
# Convention : Reuss Voigt Hill
#
# Bulk Modulus (GPa) = 31.86538 43.95007 37.90772
# Shear Modulus (GPa) = 15.97841 24.41556 20.19699
#
# Velocity S-wave (km/s) = 2.86066 3.53617 3.21620
# Velocity P-wave (km/s) = 5.21835 6.25954 5.76251
#
# Compressibility (1/GPa) = 0.03138202
#
# Stress axis : x y z
#
# Youngs Moduli (GPa) = 41.61542 88.31230 39.86514
#
# Poissons Ratio (x) = 0.65649 0.26957
# Poissons Ratio (y) = 0.30936 0.01323
# Poissons Ratio (z) = 0.28141 0.02931
#
# Static dielectric constant tensor:
#      x y z
#    x 1.678920 0.000000 -0.029040 
#    y 0.000000 1.723170 0.000000 
#    z -0.029040 0.000000 1.673230 
# 
# From -- ./inp_files/32090.got.cif
#   From: 2010.05.17/outbox.cif.g08.bks.cpg/sg13_17_cif.got.tgz:32090.got - 2010.06.03 16:44:36.
