data_PCOD9233251
_publ_section_title
;
Structure prediction by ZEFSAII (Michael W. Deem and Ramdas Pophale) SiO2 
 PCOD9233251
Probable space group: P 2/C
;
_chemical_formula_sum "Si O2"
_cell_formula_units_Z 22
_cell_length_a 13.185630
_cell_length_b 9.192528
_cell_length_c 22.411535
_cell_angle_alpha 90.000000
_cell_angle_beta 22.789740
_cell_angle_gamma 90.000000
_cell_volume 1052.232162
_symmetry_space_group_name_H-M "P 2/C"
_symmetry_group_IT_number 13
_symmetry_cell_setting 'monoclinic'
loop_
_space_group_symop_operation_xyz
x,y,z
-x,y,1/2-z
-x,-y,-z
x,-y,1/2+z
loop_
_atom_site_type_symbol
_atom_site_label
_atom_site_fract_x
_atom_site_fract_y
_atom_site_fract_z
Si Si1 0.838474 0.602587 0.398046
Si Si2 0.212424 0.335081 0.988102
Si Si3 0.500000 0.533674 0.750000
Si Si4 0.377134 0.743223 0.706420
Si Si5 0.077150 0.114454 0.777669
Si Si6 0.436260 0.948552 0.410303
O O1 0.784744 0.451902 0.459892
O O2 0.558972 0.688334 0.552092
O O3 0.000000 0.573402 0.250000
O O4 0.015359 0.723442 0.336777
O O5 0.924255 0.271205 0.143935
O O6 0.272769 0.426663 0.896077
O O7 0.416277 0.204123 0.887277
O O8 0.435505 0.635791 0.729327
O O9 0.445762 0.909061 0.685382
O O10 0.369680 0.072552 0.638058
O O11 0.000000 0.128440 0.750000
O O12 0.860974 0.998766 0.915866
#
# Coordination Sequence:
#
# PCOD9233251 Si02
#       6
#     4   4   2   4   4   4
#     4   9  22  40  64  95 130 170 214 272 322 386
#     4  11  23  42  67  98 128 171 223 268 330 391
#     4  10  24  44  68  96 124 170 218 284 330 378
#     4  10  22  44  65  93 133 168 221 269 330 389
#     4  10  21  40  62  93 135 175 216 262 319 388
#     4  11  22  41  64  96 130 173 216 269 326 392
#
# _framework density 20.907934000000001
#
# number of rings (size 3 to 8) (size 9 to 14) (size 15 to 20)
#    0.000    1.818    1.818    1.091    5.091    2.182 
#    9.818    1.818    0.000    0.000    0.000    0.000 
#    0.000    0.000    0.000    0.000    0.000    0.000 
#
# Total GULP energy -122529.625486 kJ/mol
# GULP energy per Si atom -5569.528431 kJ/mol
# Density = 2.086035 g / cm^3
# Si number density = 20.907934 Si / 1000 Ang^3
#
#
#
# Elastic Constant Matrix: (Units=GPa)
#
#
# Indices 1 2 3 4 5 6 
#
# 1 53.2163 41.3147 35.3756 0.0000 -12.2617 0.0000
# 2 41.3147 167.7265 48.6609 0.0000 -0.0162 0.0000
# 3 35.3756 48.6609 96.9384 0.0000 -5.4029 0.0000
# 4 0.0000 0.0000 0.0000 66.4682 0.0000 35.7539
# 5 -12.2617 -0.0162 -5.4029 0.0000 33.1566 0.0000
# 6 0.0000 0.0000 0.0000 35.7539 0.0000 24.3891
#
#
#
# Elastic Compliance Matrix: (Units=1/GPa)
#
#
# Indices 1 2 3 4 5 6 
#
# 1 0.030374 -0.005180 -0.007930 0.000000 0.009938 0.000000
# 2 -0.005180 0.007873 -0.002188 0.000000 -0.002268 0.000000
# 3 -0.007930 -0.002188 0.014274 0.000000 -0.000608 0.000000
# 4 0.000000 0.000000 0.000000 0.071155 0.000000 -0.104312
# 5 0.009938 -0.002268 -0.000608 0.000000 0.033735 0.000000
# 6 0.000000 0.000000 0.000000 -0.104312 0.000000 0.193921
#
#
# Mechanical properties :
#
#
# Convention : Reuss Voigt Hill
#
# Bulk Modulus (GPa) = 45.61103 63.17596 54.39349
# Shear Modulus (GPa) = 12.84562 37.63811 25.24187
#
# Velocity S-wave (km/s) = 2.48138 4.24746 3.47837
# Velocity P-wave (km/s) = 5.48381 7.37132 6.49648
#
# Compressibility (1/GPa) = 0.02192452
#
# Stress axis : x y z
#
# Youngs Moduli (GPa) = 32.92247 127.02262 70.05639
#
# Poissons Ratio (x) = 0.65800 0.55557
# Poissons Ratio (y) = 0.17054 0.15328
# Poissons Ratio (z) = 0.26108 0.27791
#
# Static dielectric constant tensor:
#      x y z
#    x 1.759450 0.000000 0.022570 
#    y 0.000000 1.796220 0.000000 
#    z 0.022570 0.000000 1.782630 
# 
# From -- ./inp_files/87242.got.cif
#   From: 2010.05.17/outbox.cif.g08.bks.cpg/sg13_44_cif.got.tgz:87242.got - 2010.06.03 16:44:36.
