data_PCOD9233622
_publ_section_title
;
Structure prediction by ZEFSAII (Michael W. Deem and Ramdas Pophale) SiO2 
 PCOD9233622
Probable space group: P 2/C
;
_chemical_formula_sum "Si O2"
_cell_formula_units_Z 24
_cell_length_a 22.348783
_cell_length_b 5.262141
_cell_length_c 15.985571
_cell_angle_alpha 90.000000
_cell_angle_beta 32.010758
_cell_angle_gamma 90.000000
_cell_volume 996.516954
_symmetry_space_group_name_H-M "P 2/C"
_symmetry_group_IT_number 13
_symmetry_cell_setting 'monoclinic'
loop_
_space_group_symop_operation_xyz
x,y,z
-x,y,1/2-z
-x,-y,-z
x,-y,1/2+z
loop_
_atom_site_type_symbol
_atom_site_label
_atom_site_fract_x
_atom_site_fract_y
_atom_site_fract_z
Si Si1 0.949730 0.815223 0.989012
Si Si2 0.257063 0.396442 0.982215
Si Si3 0.806762 0.878779 0.523970
Si Si4 0.438085 0.318344 0.636515
Si Si5 0.824638 0.414896 0.252718
Si Si6 0.335555 0.067919 0.157130
O O1 0.061240 0.657720 0.832480
O O2 0.897037 0.986993 0.978333
O O3 0.866310 0.615506 0.134130
O O4 0.000000 0.000000 0.000000
O O5 0.220341 0.101744 0.010788
O O6 0.378102 0.398158 0.792265
O O7 0.172942 0.602267 0.038740
O O8 0.261642 0.490928 0.072191
O O9 0.698648 0.814261 0.711908
O O10 0.500000 0.500000 0.500000
O O11 0.542148 0.121667 0.527659
O O12 0.342597 0.213555 0.685745
O O13 0.762629 0.172985 0.284679
#
# Coordination Sequence:
#
# PCOD9233622 Si02
#       6
#     4   4   4   4   4   4
#     4  11  25  45  71  98 137 194 247 286 370 444
#     4  11  26  44  70 106 145 181 240 301 362 417
#     4  11  23  45  69 101 140 190 233 294 356 439
#     4  10  21  41  73 104 134 194 235 283 360 441
#     4  11  26  46  68 106 145 186 241 311 357 432
#     4  10  21  41  72  99 141 187 237 285 356 437
#
# _framework density 24.083884999999999
#
# number of rings (size 3 to 8) (size 9 to 14) (size 15 to 20)
#    0.000    1.333    3.333    1.000    7.000    1.333 
#    0.000    0.000    3.667    0.000    0.000    0.000 
#    0.000    0.000    0.000    0.000    0.000    0.000 
#
# Total GULP energy -133613.716987 kJ/mol
# GULP energy per Si atom -5567.238208 kJ/mol
# Density = 2.402907 g / cm^3
# Si number density = 24.083885 Si / 1000 Ang^3
#
#
#
# Elastic Constant Matrix: (Units=GPa)
#
#
# Indices 1 2 3 4 5 6 
#
# 1 50.1762 10.6231 36.9420 0.0000 -11.2675 0.0000
# 2 10.6231 68.2602 32.7524 0.0000 2.0665 0.0000
# 3 36.9420 32.7524 124.1972 0.0000 2.4047 0.0000
# 4 0.0000 0.0000 0.0000 34.2504 0.0000 -16.2259
# 5 -11.2675 2.0665 2.4047 0.0000 35.3247 0.0000
# 6 0.0000 0.0000 0.0000 -16.2259 0.0000 33.1856
#
#
#
# Elastic Compliance Matrix: (Units=1/GPa)
#
#
# Indices 1 2 3 4 5 6 
#
# 1 0.028501 -0.000654 -0.008493 0.000000 0.009707 0.000000
# 2 -0.000654 0.016803 -0.004219 0.000000 -0.000905 0.000000
# 3 -0.008493 -0.004219 0.011754 0.000000 -0.003262 0.000000
# 4 0.000000 0.000000 0.000000 0.037998 0.000000 0.018579
# 5 0.009707 -0.000905 -0.003262 0.000000 0.031680 0.000000
# 6 0.000000 0.000000 0.000000 0.018579 0.000000 0.039218
#
#
# Mechanical properties :
#
#
# Convention : Reuss Voigt Hill
#
# Bulk Modulus (GPa) = 32.97569 44.80762 38.89166
# Shear Modulus (GPa) = 24.65535 31.37321 28.01428
#
# Velocity S-wave (km/s) = 3.20305 3.61316 3.41427
# Velocity P-wave (km/s) = 5.23460 6.00431 5.63262
#
# Compressibility (1/GPa) = 0.03032537
#
# Stress axis : x y z
#
# Youngs Moduli (GPa) = 35.08641 59.51156 85.07959
#
# Poissons Ratio (x) = 0.03894 0.72257
# Poissons Ratio (y) = 0.02296 0.35896
# Poissons Ratio (z) = 0.29799 0.25109
#
# Static dielectric constant tensor:
#      x y z
#    x 1.951110 0.000000 -0.431670 
#    y 0.000000 3.473270 0.000000 
#    z -0.431670 0.000000 -0.378660 
# 
# From -- ./inp_files/56450.got.cif
#   From: 2010.05.17/outbox.cif.g08.bks.cpg/sg13_29_cif.got.tgz:56450.got - 2010.06.03 16:44:36.
