data_PCOD9233616
_publ_section_title
;
Structure prediction by ZEFSAII (Michael W. Deem and Ramdas Pophale) SiO2 
 PCOD9233616
Probable space group: P 2/C
;
_chemical_formula_sum "Si O2"
_cell_formula_units_Z 28
_cell_length_a 12.163704
_cell_length_b 9.327682
_cell_length_c 14.069271
_cell_angle_alpha 90.000000
_cell_angle_beta 52.642781
_cell_angle_gamma 90.000000
_cell_volume 1268.837872
_symmetry_space_group_name_H-M "P 2/C"
_symmetry_group_IT_number 13
_symmetry_cell_setting 'monoclinic'
loop_
_space_group_symop_operation_xyz
x,y,z
-x,y,1/2-z
-x,-y,-z
x,-y,1/2+z
loop_
_atom_site_type_symbol
_atom_site_label
_atom_site_fract_x
_atom_site_fract_y
_atom_site_fract_z
Si Si1 0.343008 0.328289 0.057160
Si Si2 0.095861 0.863297 0.935669
Si Si3 0.850581 0.190359 0.875938
Si Si4 0.807003 0.564477 0.257549
Si Si5 0.579301 0.741166 0.306381
Si Si6 0.313269 0.973524 0.666531
Si Si7 0.947955 0.358602 0.381052
O O1 0.287793 0.426994 0.171833
O O2 0.363058 0.169966 0.089575
O O3 0.216954 0.348754 0.046807
O O4 0.487691 0.351575 0.928615
O O5 0.212990 0.915047 0.801610
O O6 0.005547 0.741434 0.932701
O O7 0.147751 0.814446 0.011838
O O8 0.000000 0.000000 0.000000
O O9 0.804634 0.341470 0.855201
O O10 0.000000 0.166551 0.750000
O O11 0.759728 0.064750 0.878450
O O12 0.731775 0.669643 0.223437
O O13 0.962018 0.506623 0.155916
O O14 0.500000 0.736329 0.250000
O O15 0.591801 0.905993 0.333826
O O16 0.000000 0.302487 0.250000
#
# Coordination Sequence:
#
# PCOD9233616 Si02
#       7
#     4   4   4   4   4   4   4
#     4  11  22  45  71  92 140 188 225 283 360 413
#     4  12  23  37  70 105 135 179 232 289 360 416
#     4  11  23  38  64 101 142 175 231 294 355 414
#     4  10  23  46  68  97 140 183 230 292 356 410
#     4  11  27  44  67  99 138 186 237 286 347 427
#     4  11  24  44  67  98 141 181 234 292 350 415
#     4  10  21  41  72 101 138 177 229 290 352 411
#
# _framework density 22.067436000000001
#
# number of rings (size 3 to 8) (size 9 to 14) (size 15 to 20)
#    0.000    1.143    4.286    3.000    4.000    1.143 
#    0.000    6.429    0.000    0.000    0.000    0.000 
#    0.000    0.000    0.000    0.000    0.000    0.000 
#
# Total GULP energy -156326.708133 kJ/mol
# GULP energy per Si atom -5583.096719 kJ/mol
# Density = 2.201721 g / cm^3
# Si number density = 22.067436 Si / 1000 Ang^3
#
#
#
# Elastic Constant Matrix: (Units=GPa)
#
#
# Indices 1 2 3 4 5 6 
#
# 1 97.2601 24.6346 32.6998 0.0000 31.7556 0.0000
# 2 24.6346 98.9134 7.8655 0.0000 16.9468 0.0000
# 3 32.6998 7.8655 69.9774 0.0000 4.3554 0.0000
# 4 0.0000 0.0000 0.0000 21.2980 0.0000 -11.8758
# 5 31.7556 16.9468 4.3554 0.0000 39.3604 0.0000
# 6 0.0000 0.0000 0.0000 -11.8758 0.0000 14.2543
#
#
#
# Elastic Compliance Matrix: (Units=1/GPa)
#
#
# Indices 1 2 3 4 5 6 
#
# 1 0.017065 -0.001582 -0.007030 0.000000 -0.012309 0.000000
# 2 -0.001582 0.011124 -0.000294 0.000000 -0.003480 0.000000
# 3 -0.007030 -0.000294 0.017367 0.000000 0.003877 0.000000
# 4 0.000000 0.000000 0.000000 0.087690 0.000000 0.073058
# 5 -0.012309 -0.003480 0.003877 0.000000 0.036406 0.000000
# 6 0.000000 0.000000 0.000000 0.073058 0.000000 0.131022
#
#
# Mechanical properties :
#
#
# Convention : Reuss Voigt Hill
#
# Bulk Modulus (GPa) = 36.04630 44.06117 40.05373
# Shear Modulus (GPa) = 15.25623 28.37926 21.81775
#
# Velocity S-wave (km/s) = 2.63220 3.59001 3.14775
# Velocity P-wave (km/s) = 5.06044 6.09870 5.60367
#
# Compressibility (1/GPa) = 0.02774210
#
# Stress axis : x y z
#
# Youngs Moduli (GPa) = 58.59970 89.89913 57.57937
#
# Poissons Ratio (x) = 0.14224 0.40480
# Poissons Ratio (y) = 0.09272 0.01695
# Poissons Ratio (z) = 0.41198 0.02646
#
# Static dielectric constant tensor:
#      x y z
#    x 1.831190 0.000000 0.004210 
#    y 0.000000 1.841100 0.000000 
#    z 0.004210 0.000000 1.819020 
# 
# From -- ./inp_files/50267.got.cif
#   From: 2010.05.17/outbox.cif.g08.bks.cpg/sg13_26_cif.got.tgz:50267.got - 2010.06.03 16:44:36.
