data_PCOD9233481
_publ_section_title
;
Structure prediction by ZEFSAII (Michael W. Deem and Ramdas Pophale) SiO2 
 PCOD9233481
Probable space group: P 2/C
;
_chemical_formula_sum "Si O2"
_cell_formula_units_Z 24
_cell_length_a 17.625314
_cell_length_b 5.455351
_cell_length_c 24.175242
_cell_angle_alpha 90.000000
_cell_angle_beta 153.458064
_cell_angle_gamma 90.000000
_cell_volume 1038.711148
_symmetry_space_group_name_H-M "P 2/C"
_symmetry_group_IT_number 13
_symmetry_cell_setting 'monoclinic'
loop_
_space_group_symop_operation_xyz
x,y,z
-x,y,1/2-z
-x,-y,-z
x,-y,1/2+z
loop_
_atom_site_type_symbol
_atom_site_label
_atom_site_fract_x
_atom_site_fract_y
_atom_site_fract_z
Si Si1 0.417624 0.650760 0.779145
Si Si2 0.376441 0.590838 0.371538
Si Si3 0.142784 0.774709 0.301873
Si Si4 0.102654 0.885653 0.913538
Si Si5 0.774748 0.590336 0.955215
Si Si6 0.587998 0.022468 0.952977
O O1 0.374095 0.547791 0.811432
O O2 0.592223 0.547011 0.866678
O O3 0.270886 0.617816 0.639028
O O4 0.474303 0.929842 0.827954
O O5 0.500000 0.500000 0.500000
O O6 0.196815 0.619632 0.284349
O O7 0.458874 0.850207 0.409407
O O8 0.309633 0.812342 0.447755
O O9 0.000000 0.672067 0.250000
O O10 0.068001 0.032676 0.229672
O O11 0.155891 0.147112 0.976996
O O12 0.250616 0.830984 0.964998
O O13 0.111821 0.649600 0.958564
#
# Coordination Sequence:
#
# PCOD9233481 Si02
#       6
#     4   4   4   4   4   4
#     4  10  22  38  67  98 128 171 229 283 325 390
#     4  12  23  39  68 100 132 172 229 285 332 395
#     4  10  23  41  63  95 136 177 216 279 348 406
#     4  10  22  42  65  97 134 178 218 270 338 408
#     4  10  22  41  68  97 132 179 223 272 331 400
#     4  10  21  41  63  97 130 169 228 281 333 390
#
# _framework density 23.105557999999998
#
# number of rings (size 3 to 8) (size 9 to 14) (size 15 to 20)
#    0.000    1.667    3.333    0.500    2.333    2.667 
#    0.000    5.000    0.000    0.000    0.000    0.000 
#    0.000    0.000    0.000    0.000    0.000    0.000 
#
# Total GULP energy -133870.293142 kJ/mol
# GULP energy per Si atom -5577.928881 kJ/mol
# Density = 2.305297 g / cm^3
# Si number density = 23.105558 Si / 1000 Ang^3
#
#
#
# Elastic Constant Matrix: (Units=GPa)
#
#
# Indices 1 2 3 4 5 6 
#
# 1 115.3540 31.2592 48.2956 0.0000 -19.5153 0.0000
# 2 31.2592 71.4596 46.4341 0.0000 -5.3017 0.0000
# 3 48.2956 46.4341 109.7540 0.0000 -24.0786 0.0000
# 4 0.0000 0.0000 0.0000 29.1286 0.0000 -3.3078
# 5 -19.5153 -5.3017 -24.0786 0.0000 36.5988 0.0000
# 6 0.0000 0.0000 0.0000 -3.3078 0.0000 14.3262
#
#
#
# Elastic Compliance Matrix: (Units=1/GPa)
#
#
# Indices 1 2 3 4 5 6 
#
# 1 0.011282 -0.002700 -0.003025 0.000000 0.003635 0.000000
# 2 -0.002700 0.020234 -0.008234 0.000000 -0.003926 0.000000
# 3 -0.003025 -0.008234 0.015555 0.000000 0.007428 0.000000
# 4 0.000000 0.000000 0.000000 0.035255 0.000000 0.008140
# 5 0.003635 -0.003926 0.007428 0.000000 0.033580 0.000000
# 6 0.000000 0.000000 0.000000 0.008140 0.000000 0.071682
#
#
# Mechanical properties :
#
#
# Convention : Reuss Voigt Hill
#
# Bulk Modulus (GPa) = 52.20684 60.94947 56.57815
# Shear Modulus (GPa) = 22.53375 27.38261 24.95818
#
# Velocity S-wave (km/s) = 3.12629 3.44628 3.29018
# Velocity P-wave (km/s) = 5.97290 6.50167 6.24289
#
# Compressibility (1/GPa) = 0.01915458
#
# Stress axis : x y z
#
# Youngs Moduli (GPa) = 88.63752 49.42197 64.28639
#
# Poissons Ratio (x) = 0.13344 0.19445
# Poissons Ratio (y) = 0.23932 0.52931
# Poissons Ratio (z) = 0.26810 0.40692
#
# Static dielectric constant tensor:
#      x y z
#    x 1.934270 0.000000 0.046710 
#    y 0.000000 1.985290 0.000000 
#    z 0.046710 0.000000 1.888770 
# 
# From -- ./inp_files/87737.got.cif
#   From: 2010.05.17/outbox.cif.g08.bks.cpg/sg13_44_cif.got.tgz:87737.got - 2010.06.03 16:44:36.
