data_PCOD9233999
_publ_section_title
;
Structure prediction by ZEFSAII (Michael W. Deem and Ramdas Pophale) SiO2 
 PCOD9233999
Probable space group: P 2/C
;
_chemical_formula_sum "Si O2"
_cell_formula_units_Z 22
_cell_length_a 19.408930
_cell_length_b 8.439670
_cell_length_c 9.656039
_cell_angle_alpha 90.000000
_cell_angle_beta 143.155223
_cell_angle_gamma 90.000000
_cell_volume 948.469398
_symmetry_space_group_name_H-M "P 2/C"
_symmetry_group_IT_number 13
_symmetry_cell_setting 'monoclinic'
loop_
_space_group_symop_operation_xyz
x,y,z
-x,y,1/2-z
-x,-y,-z
x,-y,1/2+z
loop_
_atom_site_type_symbol
_atom_site_label
_atom_site_fract_x
_atom_site_fract_y
_atom_site_fract_z
Si Si1 0.735830 0.560556 0.458343
Si Si2 0.026645 0.683732 0.566900
Si Si3 0.000000 0.888982 0.250000
Si Si4 0.370527 0.844862 0.080019
Si Si5 0.745494 0.001657 0.846561
Si Si6 0.778239 0.314203 0.749922
O O1 0.847159 0.673920 0.667653
O O2 0.636300 0.669040 0.362677
O O3 0.749865 0.392781 0.556862
O O4 0.742336 0.552095 0.303694
O O5 0.025461 0.782267 0.424851
O O6 0.000000 0.500000 0.500000
O O7 0.913657 0.730238 0.469896
O O8 0.118344 0.980224 0.407790
O O9 0.500000 0.885925 0.250000
O O10 0.318951 0.963477 0.113730
O O11 0.298898 0.859701 0.821946
O O12 0.719890 0.155563 0.709644
#
# Coordination Sequence:
#
# PCOD9233999 Si02
#       6
#     4   4   2   4   4   4
#     4  10  22  40  61  91 130 170 225 265 326 387
#     4  10  22  34  60  91 131 166 209 253 332 387
#     4  12  24  40  66 102 138 172 212 280 338 402
#     4  11  24  45  67  94 131 179 228 278 325 391
#     4  11  25  42  68  99 133 172 222 275 341 396
#     4  10  23  37  62  94 131 171 214 272 329 400
#
# _framework density 23.195267999999999
#
# number of rings (size 3 to 8) (size 9 to 14) (size 15 to 20)
#    0.000    1.455    1.818    2.182   15.273    2.909 
#    0.000    4.545    0.000    0.000    0.000    0.000 
#    0.000    0.000    0.000    0.000    0.000    0.000 
#
# Total GULP energy -122888.341872 kJ/mol
# GULP energy per Si atom -5585.833721 kJ/mol
# Density = 2.314247 g / cm^3
# Si number density = 23.195268 Si / 1000 Ang^3
#
#
#
# Elastic Constant Matrix: (Units=GPa)
#
#
# Indices 1 2 3 4 5 6 
#
# 1 157.9417 26.2317 28.1848 0.0000 10.8942 0.0000
# 2 26.2317 46.6274 0.5175 0.0000 -1.2817 0.0000
# 3 28.1848 0.5175 35.4533 0.0000 0.6184 0.0000
# 4 0.0000 0.0000 0.0000 21.4358 0.0000 -15.5528
# 5 10.8942 -1.2817 0.6184 0.0000 33.1815 0.0000
# 6 0.0000 0.0000 0.0000 -15.5528 0.0000 27.7351
#
#
#
# Elastic Compliance Matrix: (Units=1/GPa)
#
#
# Indices 1 2 3 4 5 6 
#
# 1 0.008510 -0.004792 -0.006646 0.000000 -0.002855 0.000000
# 2 -0.004792 0.024172 0.003414 0.000000 0.002443 0.000000
# 3 -0.006646 0.003414 0.033410 0.000000 0.001691 0.000000
# 4 0.000000 0.000000 0.000000 0.078651 0.000000 0.044104
# 5 -0.002855 0.002443 0.001691 0.000000 0.031138 0.000000
# 6 0.000000 0.000000 0.000000 0.044104 0.000000 0.060787
#
#
# Mechanical properties :
#
#
# Convention : Reuss Voigt Hill
#
# Bulk Modulus (GPa) = 19.98210 38.87672 29.42941
# Shear Modulus (GPa) = 18.55993 28.80970 23.68482
#
# Velocity S-wave (km/s) = 2.83178 3.52810 3.19894
# Velocity P-wave (km/s) = 4.39607 5.77872 5.13415
#
# Compressibility (1/GPa) = 0.05004479
#
# Stress axis : x y z
#
# Youngs Moduli (GPa) = 117.50467 41.37011 29.93113
#
# Poissons Ratio (x) = 0.19826 0.19892
# Poissons Ratio (y) = 0.56314 -0.10220
# Poissons Ratio (z) = 0.78091 -0.14126
#
# Static dielectric constant tensor:
#      x y z
#    x 1.894190 0.000000 0.020530 
#    y 0.000000 1.784390 0.000000 
#    z 0.020530 0.000000 1.902520 
# 
# From -- ./inp_files/21260.got.cif
#   From: 2010.05.17/outbox.cif.g08.bks.cpg/sg13_11_cif.got.tgz:21260.got - 2010.06.03 16:44:36.
