data_PCOD9233950
_publ_section_title
;
Structure prediction by ZEFSAII (Michael W. Deem and Ramdas Pophale) SiO2 
 PCOD9233950
Probable space group: P 2/C
;
_chemical_formula_sum "Si O2"
_cell_formula_units_Z 20
_cell_length_a 11.115331
_cell_length_b 12.385971
_cell_length_c 15.241190
_cell_angle_alpha 90.000000
_cell_angle_beta 26.711763
_cell_angle_gamma 90.000000
_cell_volume 943.199044
_symmetry_space_group_name_H-M "P 2/C"
_symmetry_group_IT_number 13
_symmetry_cell_setting 'monoclinic'
loop_
_space_group_symop_operation_xyz
x,y,z
-x,y,1/2-z
-x,-y,-z
x,-y,1/2+z
loop_
_atom_site_type_symbol
_atom_site_label
_atom_site_fract_x
_atom_site_fract_y
_atom_site_fract_z
Si Si1 0.479432 0.905652 0.940624
Si Si2 0.760504 0.670726 0.966140
Si Si3 0.961433 0.809843 0.987372
Si Si4 0.000000 0.459728 0.750000
Si Si5 0.786936 0.729123 0.272028
Si Si6 0.500000 0.021192 0.750000
O O1 0.397122 0.954918 0.900668
O O2 0.766833 0.850981 0.733662
O O3 0.284724 0.815607 0.106952
O O4 0.500000 0.000000 0.000000
O O5 0.000000 0.717705 0.750000
O O6 0.791542 0.542354 0.931529
O O7 0.833362 0.712102 0.014651
O O8 0.483747 0.712345 0.108188
O O9 0.998220 0.772509 0.063436
O O10 0.743325 0.905182 0.125744
O O11 0.131224 0.382244 0.736143
#
# Coordination Sequence:
#
# PCOD9233950 Si02
#       6
#     4   4   4   2   4   2
#     4  12  26  43  66  99 141 179 229 289 335 412
#     4  10  21  45  70  94 133 179 229 276 346 411
#     4  12  24  45  68 100 129 183 234 274 343 416
#     4  10  26  40  72 102 136 180 218 292 352 396
#     4  12  24  45  69  98 139 177 226 286 340 409
#     4  12  26  42  68 100 132 184 228 276 350 406
#
# _framework density 21.204433000000002
#
# number of rings (size 3 to 8) (size 9 to 14) (size 15 to 20)
#    0.600    0.000    6.000    1.200    2.800    0.800 
#    0.000    2.000    0.000    0.000    0.000    0.000 
#    0.000    0.000    0.000    0.000    0.000    0.000 
#
# Total GULP energy -111828.780309 kJ/mol
# GULP energy per Si atom -5591.439015 kJ/mol
# Density = 2.115617 g / cm^3
# Si number density = 21.204433 Si / 1000 Ang^3
#
#
#
# Elastic Constant Matrix: (Units=GPa)
#
#
# Indices 1 2 3 4 5 6 
#
# 1 82.1737 53.9128 39.3541 0.0000 28.4007 0.0000
# 2 53.9128 127.7530 44.4867 0.0000 28.1551 0.0000
# 3 39.3541 44.4867 109.9208 0.0000 25.6561 0.0000
# 4 0.0000 0.0000 0.0000 -49.4712 0.0000 4.1779
# 5 28.4007 28.1551 25.6561 0.0000 44.1721 0.0000
# 6 0.0000 0.0000 0.0000 4.1779 0.0000 45.9321
#
#
#
# Elastic Compliance Matrix: (Units=1/GPa)
#
#
# Indices 1 2 3 4 5 6 
#
# 1 0.019959 -0.005712 -0.003110 0.000000 -0.007385 0.000000
# 2 -0.005712 0.011489 -0.002028 0.000000 -0.002473 0.000000
# 3 -0.003110 -0.002028 0.011873 0.000000 -0.003604 0.000000
# 4 0.000000 0.000000 0.000000 -0.020060 0.000000 0.001825
# 5 -0.007385 -0.002473 -0.003604 0.000000 0.031057 0.000000
# 6 0.000000 0.000000 0.000000 0.001825 0.000000 0.021605
#
#
# Mechanical properties :
#
#
# Convention : Reuss Voigt Hill
#
# Bulk Modulus (GPa) = 46.25124 66.15052 56.20088
# Shear Modulus (GPa) = 47.69617 20.26620 33.98118
#
# Velocity S-wave (km/s) = 4.74788 3.09488 4.00753
# Velocity P-wave (km/s) = 7.20526 6.63591 6.92644
#
# Compressibility (1/GPa) = 0.02162104
#
# Stress axis : x y z
#
# Youngs Moduli (GPa) = 50.10250 87.03795 84.22663
#
# Poissons Ratio (x) = 0.49718 0.26196
# Poissons Ratio (y) = 0.28620 0.17078
# Poissons Ratio (z) = 0.15583 0.17648
#
# Static dielectric constant tensor:
#      x y z
#    x 1.773930 0.000000 -0.012890 
#    y 0.000000 1.749330 0.000000 
#    z -0.012890 0.000000 1.775900 
# 
# From -- ./inp_files/51091.got.cif
#   From: 2010.05.17/outbox.cif.g08.bks.cpg/sg13_26_cif.got.tgz:51091.got - 2010.06.03 16:44:36.
