data_PCOD9233567
_publ_section_title
;
Structure prediction by ZEFSAII (Michael W. Deem and Ramdas Pophale) SiO2 
 PCOD9233567
Probable space group: P 2/C
;
_chemical_formula_sum "Si O2"
_cell_formula_units_Z 20
_cell_length_a 18.979073
_cell_length_b 8.208130
_cell_length_c 26.833274
_cell_angle_alpha 90.000000
_cell_angle_beta 12.067884
_cell_angle_gamma 90.000000
_cell_volume 873.947911
_symmetry_space_group_name_H-M "P 2/C"
_symmetry_group_IT_number 13
_symmetry_cell_setting 'monoclinic'
loop_
_space_group_symop_operation_xyz
x,y,z
-x,y,1/2-z
-x,-y,-z
x,-y,1/2+z
loop_
_atom_site_type_symbol
_atom_site_label
_atom_site_fract_x
_atom_site_fract_y
_atom_site_fract_z
Si Si1 0.141698 0.389227 0.097801
Si Si2 0.229661 0.781008 0.289429
Si Si3 0.497978 0.299805 0.308526
Si Si4 0.366580 0.087990 0.488689
Si Si5 0.491767 0.800680 0.507752
O O1 0.000000 0.445728 0.250000
O O2 0.860470 0.286409 0.262290
O O3 0.454195 0.279222 0.897763
O O4 0.302183 0.534628 0.954975
O O5 0.898252 0.705028 0.542411
O O6 0.301869 0.974908 0.239815
O O7 0.273160 0.738918 0.200336
O O8 0.500000 0.251042 0.250000
O O9 0.339775 0.166490 0.453613
O O10 0.408502 0.222626 0.503580
O O11 0.000000 0.002901 0.750000
O O12 0.500000 0.000000 0.500000
#
# Coordination Sequence:
#
# PCOD9233567 Si02
#       5
#     4   4   4   4   4
#     4  10  22  41  65  93 129 172 215 261 324 394
#     4  10  21  41  67  95 127 166 218 272 321 381
#     4  12  26  41  58  93 137 175 213 268 327 383
#     4  11  22  42  69  97 127 170 220 270 322 387
#     4   9  19  39  70 100 124 165 220 271 321 387
#
# _framework density 22.884658999999999
#
# number of rings (size 3 to 8) (size 9 to 14) (size 15 to 20)
#    0.000    1.600    0.000    6.000    0.000    4.800 
#    0.000    6.000    0.000    0.000    0.000    0.000 
#    0.000    0.000    0.000    0.000    0.000    0.000 
#
# Total GULP energy -111616.231311 kJ/mol
# GULP energy per Si atom -5580.811566 kJ/mol
# Density = 2.283257 g / cm^3
# Si number density = 22.884659 Si / 1000 Ang^3
#
#
#
# Elastic Constant Matrix: (Units=GPa)
#
#
# Indices 1 2 3 4 5 6 
#
# 1 118.7050 37.7981 16.8623 0.0000 1.2413 0.0000
# 2 37.7981 77.4115 52.3332 0.0000 4.4187 0.0000
# 3 16.8623 52.3332 148.4359 0.0000 0.5446 0.0000
# 4 0.0000 0.0000 0.0000 31.7706 0.0000 -4.6177
# 5 1.2413 4.4187 0.5446 0.0000 30.1706 0.0000
# 6 0.0000 0.0000 0.0000 -4.6177 0.0000 31.2843
#
#
#
# Elastic Compliance Matrix: (Units=1/GPa)
#
#
# Indices 1 2 3 4 5 6 
#
# 1 0.010046 -0.005454 0.000780 0.000000 0.000371 0.000000
# 2 -0.005454 0.020093 -0.006455 0.000000 -0.002602 0.000000
# 3 0.000780 -0.006455 0.008921 0.000000 0.000752 0.000000
# 4 0.000000 0.000000 0.000000 0.032166 0.000000 0.004748
# 5 0.000371 -0.002602 0.000752 0.000000 0.033497 0.000000
# 6 0.000000 0.000000 0.000000 0.004748 0.000000 0.032666
#
#
# Mechanical properties :
#
#
# Convention : Reuss Voigt Hill
#
# Bulk Modulus (GPa) = 59.51200 62.05994 60.78597
# Shear Modulus (GPa) = 30.25749 34.48234 32.36992
#
# Velocity S-wave (km/s) = 3.64012 3.88595 3.76504
# Velocity P-wave (km/s) = 6.61278 6.87834 6.74687
#
# Compressibility (1/GPa) = 0.01680333
#
# Stress axis : x y z
#
# Youngs Moduli (GPa) = 99.54028 49.76745 112.09056
#
# Poissons Ratio (x) = 0.27143 -0.08746
# Poissons Ratio (y) = 0.54289 0.72356
# Poissons Ratio (z) = -0.07767 0.32125
#
# Static dielectric constant tensor:
#      x y z
#    x 1.919070 0.000000 -0.030260 
#    y 0.000000 1.890680 0.000000 
#    z -0.030260 0.000000 1.937860 
# 
# From -- ./inp_files/97564.got.cif
#   From: 2010.05.17/outbox.cif.g08.bks.cpg/sg13_49_cif.got.tgz:97564.got - 2010.06.03 16:44:36.
