data_PCOD9233235
_publ_section_title
;
Structure prediction by ZEFSAII (Michael W. Deem and Ramdas Pophale) SiO2 
 PCOD9233235
Probable space group: P 2/C
;
_chemical_formula_sum "Si O2"
_cell_formula_units_Z 32
_cell_length_a 10.973906
_cell_length_b 14.800226
_cell_length_c 8.206187
_cell_angle_alpha 90.000000
_cell_angle_beta 73.949732
_cell_angle_gamma 90.000000
_cell_volume 1280.864506
_symmetry_space_group_name_H-M "P 2/C"
_symmetry_group_IT_number 13
_symmetry_cell_setting 'monoclinic'
loop_
_space_group_symop_operation_xyz
x,y,z
-x,y,1/2-z
-x,-y,-z
x,-y,1/2+z
loop_
_atom_site_type_symbol
_atom_site_label
_atom_site_fract_x
_atom_site_fract_y
_atom_site_fract_z
Si Si1 0.410820 0.061816 0.148316
Si Si2 0.395364 0.724855 0.159707
Si Si3 0.347529 0.633348 0.874055
Si Si4 0.700391 0.107385 0.634712
Si Si5 0.011843 0.897256 0.438316
Si Si6 0.271453 0.531389 0.627499
Si Si7 0.847750 0.618353 0.130515
Si Si8 0.072929 0.718735 0.897424
O O1 0.500000 0.106814 0.250000
O O2 0.320164 0.993470 0.284539
O O3 0.342355 0.119684 0.036565
O O4 0.500000 0.000000 0.000000
O O5 0.500000 0.688330 0.250000
O O6 0.419334 0.705505 0.960924
O O7 0.376306 0.828695 0.214862
O O8 0.257636 0.681402 0.247152
O O9 0.331023 0.548243 0.000123
O O10 0.377744 0.582016 0.694467
O O11 0.212196 0.677242 0.869962
O O12 0.845931 0.132851 0.577659
O O13 0.000000 0.894543 0.250000
O O14 0.921582 0.824455 0.556024
O O15 0.000000 0.000000 0.500000
O O16 0.204816 0.599109 0.529925
O O17 0.165114 0.478785 0.775366
O O18 0.982938 0.664980 0.059709
O O19 0.000000 0.712920 0.750000
#
# Coordination Sequence:
#
# PCOD9233235 Si02
#       8
#     4   4   4   4   4   4   4   4
#     4   9  19  36  62  93 120 155 209 270 324 368
#     4  11  23  42  65  90 127 176 223 271 328 386
#     4  10  22  39  64  96 129 165 213 265 332 392
#     4  11  21  41  64  90 126 167 215 271 321 388
#     4  12  26  44  64  94 131 180 219 259 324 392
#     4   9  20  39  64  95 130 164 209 265 326 404
#     4  10  21  40  61  96 131 162 215 261 330 389
#     4  12  24  40  66  97 136 169 212 273 329 393
#
# _framework density 24.983127
#
# number of rings (size 3 to 8) (size 9 to 14) (size 15 to 20)
#    0.000    1.500    2.500    3.000    1.750    3.000 
#    0.000   16.875    0.000    0.000    0.000    0.000 
#    0.000    0.000    0.000    0.000    0.000    0.000 
#
# Total GULP energy -178894.067144 kJ/mol
# GULP energy per Si atom -5590.439598 kJ/mol
# Density = 2.492626 g / cm^3
# Si number density = 24.983127 Si / 1000 Ang^3
#
#
#
# Elastic Constant Matrix: (Units=GPa)
#
#
# Indices 1 2 3 4 5 6 
#
# 1 76.7808 19.8044 29.1783 0.0000 18.5290 0.0000
# 2 19.8044 104.2286 41.2385 0.0000 4.2630 0.0000
# 3 29.1783 41.2385 134.2394 0.0000 41.8715 0.0000
# 4 0.0000 0.0000 0.0000 176.3602 0.0000 80.7121
# 5 18.5290 4.2630 41.8715 0.0000 48.2166 0.0000
# 6 0.0000 0.0000 0.0000 80.7121 0.0000 71.8187
#
#
#
# Elastic Compliance Matrix: (Units=1/GPa)
#
#
# Indices 1 2 3 4 5 6 
#
# 1 0.015157 -0.002227 -0.001172 0.000000 -0.004609 0.000000
# 2 -0.002227 0.011506 -0.004115 0.000000 0.003412 0.000000
# 3 -0.001172 -0.004115 0.011952 0.000000 -0.009564 0.000000
# 4 0.000000 0.000000 0.000000 0.011675 0.000000 -0.013121
# 5 -0.004609 0.003412 -0.009564 0.000000 0.030515 0.000000
# 6 0.000000 0.000000 0.000000 -0.013121 0.000000 0.028669
#
#
# Mechanical properties :
#
#
# Convention : Reuss Voigt Hill
#
# Bulk Modulus (GPa) = 42.40008 55.07680 48.73844
# Shear Modulus (GPa) = 37.77447 74.28095 56.02771
#
# Velocity S-wave (km/s) = 3.89266 5.45866 4.74077
# Velocity P-wave (km/s) = 6.10017 7.86275 7.03686
#
# Compressibility (1/GPa) = 0.02358486
#
# Stress axis : x y z
#
# Youngs Moduli (GPa) = 65.97817 86.91118 83.67098
#
# Poissons Ratio (x) = 0.19359 0.09809
# Poissons Ratio (y) = 0.14697 0.34428
# Poissons Ratio (z) = 0.07735 0.35762
#
# Static dielectric constant tensor:
#      x y z
#    x 2.027020 0.000000 -0.053720 
#    y 0.000000 2.023430 0.000000 
#    z -0.053720 0.000000 2.028850 
# 
# From -- ./inp_files/16757.got.cif
#   From: 2010.05.17/outbox.cif.g08.bks.cpg/sg13_9_cif.got.tgz:16757.got - 2010.06.03 16:44:36.
