data_PCOD9233510
_publ_section_title
;
Structure prediction by ZEFSAII (Michael W. Deem and Ramdas Pophale) SiO2 
 PCOD9233510
Probable space group: P 2/C
;
_chemical_formula_sum "Si O2"
_cell_formula_units_Z 20
_cell_length_a 8.552835
_cell_length_b 7.691006
_cell_length_c 19.435631
_cell_angle_alpha 90.000000
_cell_angle_beta 135.033370
_cell_angle_gamma 90.000000
_cell_volume 903.490943
_symmetry_space_group_name_H-M "P 2/C"
_symmetry_group_IT_number 13
_symmetry_cell_setting 'monoclinic'
loop_
_space_group_symop_operation_xyz
x,y,z
-x,y,1/2-z
-x,-y,-z
x,-y,1/2+z
loop_
_atom_site_type_symbol
_atom_site_label
_atom_site_fract_x
_atom_site_fract_y
_atom_site_fract_z
Si Si1 0.478011 0.297870 0.409988
Si Si2 0.622356 0.986287 0.215721
Si Si3 0.648789 0.607930 0.229054
Si Si4 0.946053 0.473532 0.563632
Si Si5 0.060563 0.196906 0.347311
O O1 0.498896 0.136255 0.364812
O O2 0.365910 0.454923 0.330784
O O3 0.708495 0.386299 0.501649
O O4 0.327394 0.210886 0.422800
O O5 0.500000 0.980971 0.250000
O O6 0.883011 0.041467 0.302564
O O7 0.590763 0.792324 0.176921
O O8 0.500000 0.563260 0.250000
O O9 0.882422 0.638021 0.338721
O O10 0.983064 0.662217 0.608412
O O11 0.000000 0.500000 0.500000
O O12 0.000000 0.248912 0.250000
#
# Coordination Sequence:
#
# PCOD9233510 Si02
#       5
#     4   4   4   4   4
#     4  11  22  43  65  95 137 169 224 272 337 390
#     4  10  21  41  65  92 132 177 218 267 333 392
#     4  11  22  42  67 101 131 178 217 276 334 395
#     4  12  22  39  72 100 126 178 228 272 329 398
#     4  10  21  42  64  90 136 176 208 275 339 385
#
# _framework density 22.13636
#
# number of rings (size 3 to 8) (size 9 to 14) (size 15 to 20)
#    0.000    1.200    6.000    2.400    0.000    0.000 
#   14.400    4.000    0.000    0.000    0.000    0.000 
#    0.000    0.000    0.000    0.000    0.000    0.000 
#
# Total GULP energy -111365.411723 kJ/mol
# GULP energy per Si atom -5568.270586 kJ/mol
# Density = 2.208598 g / cm^3
# Si number density = 22.136360 Si / 1000 Ang^3
#
#
#
# Elastic Constant Matrix: (Units=GPa)
#
#
# Indices 1 2 3 4 5 6 
#
# 1 87.1793 13.2933 16.2119 0.0000 16.1137 0.0000
# 2 13.2933 88.7764 -2.7040 0.0000 -13.1402 0.0000
# 3 16.2119 -2.7040 84.0152 0.0000 14.6511 0.0000
# 4 0.0000 0.0000 0.0000 -117.2640 0.0000 31.8491
# 5 16.1137 -13.1402 14.6511 0.0000 38.3808 0.0000
# 6 0.0000 0.0000 0.0000 31.8491 0.0000 -8.8665
#
#
#
# Elastic Compliance Matrix: (Units=1/GPa)
#
#
# Indices 1 2 3 4 5 6 
#
# 1 0.013324 -0.002929 -0.001623 0.000000 -0.005977 0.000000
# 2 -0.002929 0.012519 0.000007 0.000000 0.005513 0.000000
# 3 -0.001623 0.000007 0.012959 0.000000 -0.004263 0.000000
# 4 0.000000 0.000000 0.000000 -0.349714 0.000000 -1.256203
# 5 -0.005977 0.005513 -0.004263 0.000000 0.032079 0.000000
# 6 0.000000 0.000000 0.000000 -1.256203 0.000000 -4.625174
#
#
# Mechanical properties :
#
#
# Convention : Reuss Voigt Hill
#
# Bulk Modulus (GPa) = 33.65705 34.84149 34.24927
# Shear Modulus (GPa) = -1.02354 -2.00528 -1.51441
#
# Velocity S-wave (km/s) = -0.68072 -0.95281 -0.82802
# Velocity P-wave (km/s) = 3.82356 3.81618 3.81987
#
# Compressibility (1/GPa) = 0.02971146
#
# Stress axis : x y z
#
# Youngs Moduli (GPa) = 75.05328 79.87771 77.16367
#
# Poissons Ratio (x) = 0.23398 0.12523
# Poissons Ratio (y) = 0.21985 -0.00052
# Poissons Ratio (z) = 0.12181 -0.00054
#
# Static dielectric constant tensor:
#      x y z
#    x 1.863930 0.000000 0.096480 
#    y 0.000000 1.830050 0.000000 
#    z 0.096480 0.000000 1.897400 
# 
# From -- ./inp_files/75444.got.cif
#   From: 2010.05.17/outbox.cif.g08.bks.cpg/sg13_38_cif.got.tgz:75444.got - 2010.06.03 16:44:36.
