data_PCOD9233394
_publ_section_title
;
Structure prediction by ZEFSAII (Michael W. Deem and Ramdas Pophale) SiO2 
 PCOD9233394
Probable space group: P 2/C
;
_chemical_formula_sum "Si O2"
_cell_formula_units_Z 28
_cell_length_a 9.075186
_cell_length_b 12.583402
_cell_length_c 13.239607
_cell_angle_alpha 90.000000
_cell_angle_beta 123.764801
_cell_angle_gamma 90.000000
_cell_volume 1256.898181
_symmetry_space_group_name_H-M "P 2/C"
_symmetry_group_IT_number 13
_symmetry_cell_setting 'monoclinic'
loop_
_space_group_symop_operation_xyz
x,y,z
-x,y,1/2-z
-x,-y,-z
x,-y,1/2+z
loop_
_atom_site_type_symbol
_atom_site_label
_atom_site_fract_x
_atom_site_fract_y
_atom_site_fract_z
Si Si1 0.187642 0.334776 0.343934
Si Si2 0.099916 0.761406 0.394368
Si Si3 0.897157 0.388247 0.960088
Si Si4 0.464195 0.301400 0.952378
Si Si5 0.629274 0.510486 0.215737
Si Si6 0.508635 0.086114 0.869743
Si Si7 0.182049 0.999966 0.878320
O O1 0.165537 0.368512 0.451255
O O2 0.370109 0.272162 0.413347
O O3 0.232032 0.432040 0.285706
O O4 0.000000 0.282980 0.250000
O O5 0.289866 0.707791 0.452327
O O6 0.122789 0.888025 0.406542
O O7 0.000000 0.737886 0.250000
O O8 0.008080 0.708007 0.455034
O O9 0.736464 0.405087 0.822554
O O10 0.000000 0.500000 0.000000
O O11 0.467599 0.418616 0.905662
O O12 0.465400 0.210666 0.868546
O O13 0.500000 0.457411 0.250000
O O14 0.500000 0.056882 0.750000
O O15 0.343436 0.027745 0.862351
O O16 0.703326 0.064274 0.993536
O O17 0.000000 0.963405 0.750000
#
# Coordination Sequence:
#
# PCOD9233394 Si02
#       7
#     4   4   4   4   4   4   4
#     4  12  27  41  56  92 133 172 223 274 329 384
#     4  10  21  40  68  95 125 166 228 275 327 396
#     4  12  24  39  63  89 130 169 214 280 321 380
#     4  11  23  39  64  93 125 169 222 272 325 401
#     4  12  24  40  64  91 125 176 223 274 326 387
#     4  10  22  41  68  98 134 167 221 280 338 406
#     4   9  21  42  67 101 130 171 219 276 341 408
#
# _framework density 22.277063999999999
#
# number of rings (size 3 to 8) (size 9 to 14) (size 15 to 20)
#    0.000    1.143    4.286    1.714    2.000    1.143 
#    0.000    4.286    0.000    0.000    0.000    0.000 
#    0.000    0.000    0.000    0.000    0.000    0.000 
#
# Total GULP energy -156243.556813 kJ/mol
# GULP energy per Si atom -5580.127029 kJ/mol
# Density = 2.222636 g / cm^3
# Si number density = 22.277064 Si / 1000 Ang^3
#
#
#
# Elastic Constant Matrix: (Units=GPa)
#
#
# Indices 1 2 3 4 5 6 
#
# 1 121.1188 25.8587 48.5057 0.0000 7.9114 0.0000
# 2 25.8587 53.5844 23.0190 0.0000 -17.0815 0.0000
# 3 48.5057 23.0190 110.8463 0.0000 17.8676 0.0000
# 4 0.0000 0.0000 0.0000 8.5729 0.0000 16.8135
# 5 7.9114 -17.0815 17.8676 0.0000 52.8126 0.0000
# 6 0.0000 0.0000 0.0000 16.8135 0.0000 18.5770
#
#
#
# Elastic Compliance Matrix: (Units=1/GPa)
#
#
# Indices 1 2 3 4 5 6 
#
# 1 0.010677 -0.004209 -0.003513 0.000000 -0.001772 0.000000
# 2 -0.004209 0.026568 -0.005460 0.000000 0.011071 0.000000
# 3 -0.003513 -0.005460 0.012578 0.000000 -0.005495 0.000000
# 4 0.000000 0.000000 0.000000 -0.150502 0.000000 0.136215
# 5 -0.001772 0.011071 -0.005495 0.000000 0.024640 0.000000
# 6 0.000000 0.000000 0.000000 0.136215 0.000000 -0.069454
#
#
# Mechanical properties :
#
#
# Convention : Reuss Voigt Hill
#
# Bulk Modulus (GPa) = 42.62451 53.36848 47.99650
# Shear Modulus (GPa) = -44.91977 28.53693 -8.19142
#
# Velocity S-wave (km/s) = -4.49532 3.58299 -1.91965
# Velocity P-wave (km/s) = 2.78721 6.41294 4.08395
#
# Compressibility (1/GPa) = 0.02346068
#
# Stress axis : x y z
#
# Youngs Moduli (GPa) = 93.65542 37.63957 79.50203
#
# Poissons Ratio (x) = 0.15841 0.27927
# Poissons Ratio (y) = 0.39417 0.43408
# Poissons Ratio (z) = 0.32898 0.20551
#
# Static dielectric constant tensor:
#      x y z
#    x 1.862400 0.000000 0.083650 
#    y 0.000000 1.836160 0.000000 
#    z 0.083650 0.000000 1.889710 
# 
# From -- ./inp_files/30476.got.cif
#   From: 2010.05.17/outbox.cif.g08.bks.cpg/sg13_16_cif.got.tgz:30476.got - 2010.06.03 16:44:36.
