data_PCOD9233163
_publ_section_title
;
Structure prediction by ZEFSAII (Michael W. Deem and Ramdas Pophale) SiO2 
 PCOD9233163
Probable space group: P 2/C
;
_chemical_formula_sum "Si O2"
_cell_formula_units_Z 26
_cell_length_a 11.077249
_cell_length_b 5.565014
_cell_length_c 18.673838
_cell_angle_alpha 90.000000
_cell_angle_beta 109.833898
_cell_angle_gamma 90.000000
_cell_volume 1082.863630
_symmetry_space_group_name_H-M "P 2/C"
_symmetry_group_IT_number 13
_symmetry_cell_setting 'monoclinic'
loop_
_space_group_symop_operation_xyz
x,y,z
-x,y,1/2-z
-x,-y,-z
x,-y,1/2+z
loop_
_atom_site_type_symbol
_atom_site_label
_atom_site_fract_x
_atom_site_fract_y
_atom_site_fract_z
Si Si1 0.779612 0.982600 0.468492
Si Si2 0.354123 0.873933 0.195569
Si Si3 0.249683 0.374367 0.813508
Si Si4 0.995252 0.302357 0.437861
Si Si5 0.174314 0.752806 0.711877
Si Si6 0.420197 0.248796 0.977508
Si Si7 0.000000 0.125222 0.750000
O O1 0.686838 0.833784 0.395205
O O2 0.695754 0.189841 0.490007
O O3 0.892219 0.102036 0.443512
O O4 0.862311 0.812710 0.538671
O O5 0.500000 0.863010 0.250000
O O6 0.298932 0.141355 0.198639
O O7 0.284370 0.703716 0.239250
O O8 0.225657 0.655196 0.797792
O O9 0.355777 0.277952 0.887176
O O10 0.112896 0.273433 0.808481
O O11 0.000000 0.500000 0.500000
O O12 0.920031 0.411100 0.354499
O O13 0.073962 0.962609 0.708571
O O14 0.500000 0.500000 0.000000
O O15 0.500000 0.000000 0.000000
#
# Coordination Sequence:
#
# PCOD9233163 Si02
#       7
#     4   4   4   4   4   4   2
#     4  10  23  43  68 103 140 195 242 310 376 445
#     4  10  22  41  66  93 139 177 247 292 360 428
#     4  11  24  43  70 102 137 191 244 302 376 442
#     4  10  21  39  68 100 140 177 246 307 379 435
#     4  10  22  38  64  97 129 177 231 297 363 431
#     4  12  30  49  75 105 156 202 253 306 382 467
#     4  10  22  40  66  92 138 172 234 302 364 432
#
# _framework density 24.010408000000002
#
# number of rings (size 3 to 8) (size 9 to 14) (size 15 to 20)
#    0.000    1.538    0.000    3.231    8.615    5.538 
#    2.769    0.000    0.000    0.000    0.000    0.000 
#    0.000    0.000    0.000    0.000    0.000    0.000 
#
# Total GULP energy -145015.880653 kJ/mol
# GULP energy per Si atom -5577.533871 kJ/mol
# Density = 2.395576 g / cm^3
# Si number density = 24.010408 Si / 1000 Ang^3
#
#
#
# Elastic Constant Matrix: (Units=GPa)
#
#
# Indices 1 2 3 4 5 6 
#
# 1 116.8544 37.1270 46.2268 0.0000 25.0188 0.0000
# 2 37.1270 72.4833 39.6532 0.0000 22.1180 0.0000
# 3 46.2268 39.6532 131.1938 0.0000 36.6687 0.0000
# 4 0.0000 0.0000 0.0000 27.7466 0.0000 2.6998
# 5 25.0188 22.1180 36.6687 0.0000 45.3432 0.0000
# 6 0.0000 0.0000 0.0000 2.6998 0.0000 42.6437
#
#
#
# Elastic Compliance Matrix: (Units=1/GPa)
#
#
# Indices 1 2 3 4 5 6 
#
# 1 0.011132 -0.003777 -0.002040 0.000000 -0.002650 0.000000
# 2 -0.003777 0.018817 -0.003067 0.000000 -0.004615 0.000000
# 3 -0.002040 -0.003067 0.011028 0.000000 -0.006297 0.000000
# 4 0.000000 0.000000 0.000000 0.036264 0.000000 -0.002296
# 5 -0.002650 -0.004615 -0.006297 0.000000 0.030859 0.000000
# 6 0.000000 0.000000 0.000000 -0.002296 0.000000 0.023595
#
#
# Mechanical properties :
#
#
# Convention : Reuss Voigt Hill
#
# Bulk Modulus (GPa) = 43.08708 62.94950 53.01829
# Shear Modulus (GPa) = 31.80656 36.31498 34.06077
#
# Velocity S-wave (km/s) = 3.64359 3.89327 3.77050
# Velocity P-wave (km/s) = 5.97370 6.81796 6.40974
#
# Compressibility (1/GPa) = 0.02320881
#
# Stress axis : x y z
#
# Youngs Moduli (GPa) = 89.82918 53.14378 90.67845
#
# Poissons Ratio (x) = 0.20074 0.18499
# Poissons Ratio (y) = 0.33932 0.27808
# Poissons Ratio (z) = 0.18326 0.16297
#
# Static dielectric constant tensor:
#      x y z
#    x 1.941600 0.000000 -0.050730 
#    y 0.000000 2.089760 0.000000 
#    z -0.050730 0.000000 2.063600 
# 
# From -- ./inp_files/77330.got.cif
#   From: 2010.05.17/outbox.cif.g08.bks.cpg/sg13_39_cif.got.tgz:77330.got - 2010.06.03 16:44:36.
