data_PCOD9233607
_publ_section_title
;
Structure prediction by ZEFSAII (Michael W. Deem and Ramdas Pophale) SiO2 
 PCOD9233607
Probable space group: P 2/C
;
_chemical_formula_sum "Si O2"
_cell_formula_units_Z 26
_cell_length_a 8.541168
_cell_length_b 15.265144
_cell_length_c 13.826099
_cell_angle_alpha 90.000000
_cell_angle_beta 141.537057
_cell_angle_gamma 90.000000
_cell_volume 1121.279910
_symmetry_space_group_name_H-M "P 2/C"
_symmetry_group_IT_number 13
_symmetry_cell_setting 'monoclinic'
loop_
_space_group_symop_operation_xyz
x,y,z
-x,y,1/2-z
-x,-y,-z
x,-y,1/2+z
loop_
_atom_site_type_symbol
_atom_site_label
_atom_site_fract_x
_atom_site_fract_y
_atom_site_fract_z
Si Si1 0.186879 0.795568 0.537431
Si Si2 0.500000 0.958948 0.750000
Si Si3 0.449926 0.925333 0.399202
Si Si4 0.666227 0.587019 0.496508
Si Si5 0.211949 0.471738 0.231793
Si Si6 0.500000 0.654901 0.750000
Si Si7 0.130295 0.779588 0.919430
Si Si8 0.000000 0.189567 0.750000
O O1 0.308034 0.892623 0.602915
O O2 0.405873 0.724349 0.626676
O O3 0.013550 0.770819 0.363257
O O4 0.055112 0.784052 0.577900
O O5 0.633114 0.023221 0.737737
O O6 0.684722 0.862935 0.488155
O O7 0.246567 0.867353 0.354887
O O8 0.500000 0.000000 0.500000
O O9 0.399469 0.555044 0.324177
O O10 0.684550 0.577303 0.621575
O O11 0.725657 0.687058 0.500827
O O12 0.908999 0.525299 0.586591
O O13 0.281435 0.407958 0.178505
O O14 0.000000 0.779705 0.750000
#
# Coordination Sequence:
#
# PCOD9233607 Si02
#       8
#     4   2   4   4   4   2   4   2
#     4  11  25  44  74 104 146 192 242 303 362 437
#     4  11  24  46  71 102 142 196 249 296 368 437
#     4  12  27  43  70 105 144 189 241 302 364 430
#     4  10  21  43  69 106 139 192 233 307 367 444
#     4  10  21  41  71 102 145 178 245 294 374 442
#     4  11  22  44  71 106 138 192 239 292 366 447
#     4  12  24  45  76 104 146 195 246 297 364 450
#     4  12  28  46  64 110 148 178 244 312 364 428
#
# _framework density 23.187787
#
# number of rings (size 3 to 8) (size 9 to 14) (size 15 to 20)
#    0.000    0.923    4.615    1.846    7.538    1.846 
#    2.769    0.769    0.000    0.000    0.000    0.000 
#    0.000    0.000    0.000    0.000    0.000    0.000 
#
# Total GULP energy -145042.365536 kJ/mol
# GULP energy per Si atom -5578.552521 kJ/mol
# Density = 2.313501 g / cm^3
# Si number density = 23.187787 Si / 1000 Ang^3
#
#
#
# Elastic Constant Matrix: (Units=GPa)
#
#
# Indices 1 2 3 4 5 6 
#
# 1 100.0692 17.7649 13.0552 0.0000 -14.7201 0.0000
# 2 17.7649 95.1107 34.1071 0.0000 -0.4489 0.0000
# 3 13.0552 34.1071 78.2685 0.0000 -13.7338 0.0000
# 4 0.0000 0.0000 0.0000 12.0522 0.0000 22.4832
# 5 -14.7201 -0.4489 -13.7338 0.0000 26.7077 0.0000
# 6 0.0000 0.0000 0.0000 22.4832 0.0000 31.8763
#
#
#
# Elastic Compliance Matrix: (Units=1/GPa)
#
#
# Indices 1 2 3 4 5 6 
#
# 1 0.011271 -0.002127 0.000144 0.000000 0.006250 0.000000
# 2 -0.002127 0.013062 -0.006050 0.000000 -0.004064 0.000000
# 3 0.000144 -0.006050 0.016911 0.000000 0.008674 0.000000
# 4 0.000000 0.000000 0.000000 -0.262755 0.000000 0.185328
# 5 0.006250 -0.004064 0.008674 0.000000 0.045279 0.000000
# 6 0.000000 0.000000 0.000000 0.185328 0.000000 -0.099346
#
#
# Mechanical properties :
#
#
# Convention : Reuss Voigt Hill
#
# Bulk Modulus (GPa) = 39.71944 44.81142 42.26543
# Shear Modulus (GPa) = -19.91108 28.02863 4.05878
#
# Velocity S-wave (km/s) = -2.93352 3.48050 1.32446
# Velocity P-wave (km/s) = 2.38592 5.95980 4.53938
#
# Compressibility (1/GPa) = 0.02517659
#
# Stress axis : x y z
#
# Youngs Moduli (GPa) = 88.71992 76.55856 59.13282
#
# Poissons Ratio (x) = 0.16287 -0.00850
# Poissons Ratio (y) = 0.18874 0.35777
# Poissons Ratio (z) = -0.01275 0.46320
#
# Static dielectric constant tensor:
#      x y z
#    x 1.915340 0.000000 -0.051820 
#    y 0.000000 1.851230 0.000000 
#    z -0.051820 0.000000 3.775600 
# 
# From -- ./inp_files/47993.got.cif
#   From: 2010.05.17/outbox.cif.g08.bks.cpg/sg13_24_cif.got.tgz:47993.got - 2010.06.03 16:44:36.
