data_PCOD9233362
_publ_section_title
;
Structure prediction by ZEFSAII (Michael W. Deem and Ramdas Pophale) SiO2 
 PCOD9233362
Probable space group: P 2/C
;
_chemical_formula_sum "Si O2"
_cell_formula_units_Z 20
_cell_length_a 5.490618
_cell_length_b 8.771779
_cell_length_c 18.870841
_cell_angle_alpha 90.000000
_cell_angle_beta 64.101167
_cell_angle_gamma 90.000000
_cell_volume 817.586148
_symmetry_space_group_name_H-M "P 2/C"
_symmetry_group_IT_number 13
_symmetry_cell_setting 'monoclinic'
loop_
_space_group_symop_operation_xyz
x,y,z
-x,y,1/2-z
-x,-y,-z
x,-y,1/2+z
loop_
_atom_site_type_symbol
_atom_site_label
_atom_site_fract_x
_atom_site_fract_y
_atom_site_fract_z
Si Si1 0.563358 0.859842 0.825216
Si Si2 0.000000 0.911456 0.250000
Si Si3 0.624545 0.402580 0.581221
Si Si4 0.089708 0.714035 0.940533
Si Si5 0.500000 0.721906 0.250000
Si Si6 0.142154 0.558915 0.664819
O O1 0.500000 0.884630 0.750000
O O2 0.288802 0.856931 0.906429
O O3 0.675389 0.689006 0.820966
O O4 0.800592 0.974430 0.818991
O O5 0.768706 0.817503 0.238048
O O6 0.752989 0.567595 0.547957
O O7 0.600579 0.369908 0.668096
O O8 0.311206 0.430091 0.602315
O O9 0.806413 0.278768 0.518336
O O10 0.026936 0.654718 0.869426
O O11 0.000000 0.485464 0.750000
#
# Coordination Sequence:
#
# PCOD9233362 Si02
#       6
#     4   2   4   4   2   4
#     4  11  20  41  68  96 126 170 240 285 327 383
#     4  12  26  46  70  94 134 190 246 274 322 396
#     4  10  24  40  61 101 141 174 221 272 363 411
#     4  10  21  40  67 100 136 172 217 296 339 408
#     4  12  28  46  68  96 142 192 220 280 336 420
#     4  11  19  33  69 100 132 173 219 289 336 412
#
# _framework density 24.462254000000001
#
# number of rings (size 3 to 8) (size 9 to 14) (size 15 to 20)
#    0.000    1.200    4.000    1.800    7.000    0.000 
#    0.000    2.000    0.000    0.000    0.000    0.000 
#    0.000    0.000    0.000    0.000    0.000    0.000 
#
# Total GULP energy -111561.390793 kJ/mol
# GULP energy per Si atom -5578.069540 kJ/mol
# Density = 2.440658 g / cm^3
# Si number density = 24.462254 Si / 1000 Ang^3
#
#
#
# Elastic Constant Matrix: (Units=GPa)
#
#
# Indices 1 2 3 4 5 6 
#
# 1 110.4568 38.3311 42.4262 0.0000 -11.1342 0.0000
# 2 38.3311 71.2668 19.5069 0.0000 -7.1093 0.0000
# 3 42.4262 19.5069 124.6086 0.0000 -0.7929 0.0000
# 4 0.0000 0.0000 0.0000 3.5845 0.0000 -13.3307
# 5 -11.1342 -7.1093 -0.7929 0.0000 37.3168 0.0000
# 6 0.0000 0.0000 0.0000 -13.3307 0.0000 36.7080
#
#
#
# Elastic Compliance Matrix: (Units=1/GPa)
#
#
# Indices 1 2 3 4 5 6 
#
# 1 0.012546 -0.005561 -0.003385 0.000000 0.002612 0.000000
# 2 -0.005561 0.017411 -0.000822 0.000000 0.001640 0.000000
# 3 -0.003385 -0.000822 0.009300 0.000000 -0.000969 0.000000
# 4 0.000000 0.000000 0.000000 -0.795739 0.000000 -0.288978
# 5 0.002612 0.001640 -0.000969 0.000000 0.027869 0.000000
# 6 0.000000 0.000000 0.000000 -0.288978 0.000000 -0.077702
#
#
# Mechanical properties :
#
#
# Convention : Reuss Voigt Hill
#
# Bulk Modulus (GPa) = 50.70272 56.31785 53.51029
# Shear Modulus (GPa) = -6.40857 29.25971 11.42557
#
# Velocity S-wave (km/s) = -1.62033 3.46224 2.16352
# Velocity P-wave (km/s) = 4.15587 6.24941 5.30690
#
# Compressibility (1/GPa) = 0.01972281
#
# Stress axis : x y z
#
# Youngs Moduli (GPa) = 79.70356 57.43343 107.52717
#
# Poissons Ratio (x) = 0.31940 0.36393
# Poissons Ratio (y) = 0.44325 0.08837
# Poissons Ratio (z) = 0.26976 0.04720
#
# Static dielectric constant tensor:
#      x y z
#    x 2.108040 0.000000 -0.124330 
#    y 0.000000 1.960490 0.000000 
#    z -0.124330 0.000000 2.041490 
# 
# From -- ./inp_files/43773.got.cif
#   From: 2010.05.17/outbox.cif.g08.bks.cpg/sg13_22_cif.got.tgz:43773.got - 2010.06.03 16:44:36.
