data_PCOD9233234
_publ_section_title
;
Structure prediction by ZEFSAII (Michael W. Deem and Ramdas Pophale) SiO2 
 PCOD9233234
Probable space group: P 2/C
;
_chemical_formula_sum "Si O2"
_cell_formula_units_Z 20
_cell_length_a 28.485532
_cell_length_b 5.174372
_cell_length_c 10.091381
_cell_angle_alpha 90.000000
_cell_angle_beta 148.892554
_cell_angle_gamma 90.000000
_cell_volume 768.465691
_symmetry_space_group_name_H-M "P 2/C"
_symmetry_group_IT_number 13
_symmetry_cell_setting 'monoclinic'
loop_
_space_group_symop_operation_xyz
x,y,z
-x,y,1/2-z
-x,-y,-z
x,-y,1/2+z
loop_
_atom_site_type_symbol
_atom_site_label
_atom_site_fract_x
_atom_site_fract_y
_atom_site_fract_z
Si Si1 0.395854 0.611990 0.455565
Si Si2 0.560909 0.109056 0.029023
Si Si3 0.080292 0.289741 0.215123
Si Si4 0.147024 0.036303 0.628732
Si Si5 0.236228 0.523479 0.749135
O O1 0.500000 0.658592 0.750000
O O2 0.398051 0.390391 0.350693
O O3 0.335080 0.518043 0.428494
O O4 0.365913 0.890042 0.329266
O O5 0.500000 0.152666 0.750000
O O6 0.500000 0.000000 0.000000
O O7 0.169448 0.457444 0.464421
O O8 0.100749 0.096388 0.143631
O O9 0.000000 0.500000 0.000000
O O10 0.922547 0.885404 0.658199
O O11 0.214195 0.812302 0.738827
O O12 0.203188 0.304849 0.774249
#
# Coordination Sequence:
#
# PCOD9233234 Si02
#       5
#     4   4   4   4   4
#     4  10  21  43  67 105 143 200 251 305 368 436
#     4  10  21  40  61  95 135 183 244 305 358 429
#     4  10  26  53  81 112 155 200 257 317 395 472
#     4  10  25  49  76 114 151 197 252 318 387 465
#     4  10  24  47  74 107 155 200 252 319 379 458
#
# _framework density 26.025886
#
# number of rings (size 3 to 8) (size 9 to 14) (size 15 to 20)
#    1.200    0.800    0.000    1.800    2.800    1.600 
#   25.200    1.000    0.000    0.000    0.000    0.000 
#    0.000    0.000    0.000    0.000    0.000    0.000 
#
# Total GULP energy -111781.224071 kJ/mol
# GULP energy per Si atom -5589.061204 kJ/mol
# Density = 2.596665 g / cm^3
# Si number density = 26.025886 Si / 1000 Ang^3
#
#
#
# Elastic Constant Matrix: (Units=GPa)
#
#
# Indices 1 2 3 4 5 6 
#
# 1 155.6523 14.1209 51.2308 0.0000 -6.8903 0.0000
# 2 14.1209 154.7201 8.5499 0.0000 -3.2651 0.0000
# 3 51.2308 8.5499 128.4197 0.0000 -1.7422 0.0000
# 4 0.0000 0.0000 0.0000 24.2594 0.0000 8.6448
# 5 -6.8903 -3.2651 -1.7422 0.0000 35.8133 0.0000
# 6 0.0000 0.0000 0.0000 8.6448 0.0000 60.4601
#
#
#
# Elastic Compliance Matrix: (Units=1/GPa)
#
#
# Indices 1 2 3 4 5 6 
#
# 1 0.007492 -0.000495 -0.002939 0.000000 0.001253 0.000000
# 2 -0.000495 0.006532 -0.000231 0.000000 0.000489 0.000000
# 3 -0.002939 -0.000231 0.008973 0.000000 -0.000150 0.000000
# 4 0.000000 0.000000 0.000000 0.043434 0.000000 -0.006210
# 5 0.001253 0.000489 -0.000150 0.000000 0.028201 0.000000
# 6 0.000000 0.000000 0.000000 -0.006210 0.000000 0.017428
#
#
# Mechanical properties :
#
#
# Convention : Reuss Voigt Hill
#
# Bulk Modulus (GPa) = 63.82760 65.17727 64.50243
# Shear Modulus (GPa) = 40.12478 48.43260 44.27869
#
# Velocity S-wave (km/s) = 3.93074 4.31854 4.12920
# Velocity P-wave (km/s) = 6.72152 7.06852 6.89721
#
# Compressibility (1/GPa) = 0.01566720
#
# Stress axis : x y z
#
# Youngs Moduli (GPa) = 133.47079 153.10355 111.44870
#
# Poissons Ratio (x) = 0.07578 0.32754
# Poissons Ratio (y) = 0.06606 0.02572
# Poissons Ratio (z) = 0.39226 0.03533
#
# Static dielectric constant tensor:
#      x y z
#    x 2.088110 0.000000 -0.151220 
#    y 0.000000 2.122990 0.000000 
#    z -0.151220 0.000000 2.315780 
# 
# From -- ./inp_files/35211.got.cif
#   From: 2010.05.17/outbox.cif.g08.bks.cpg/sg13_18_cif.got.tgz:35211.got - 2010.06.03 16:44:36.
