data_PCOD9233331
_publ_section_title
;
Structure prediction by ZEFSAII (Michael W. Deem and Ramdas Pophale) SiO2 
 PCOD9233331
Probable space group: P 2/C
;
_chemical_formula_sum "Si O2"
_cell_formula_units_Z 18
_cell_length_a 8.875317
_cell_length_b 19.650285
_cell_length_c 9.040777
_cell_angle_alpha 90.000000
_cell_angle_beta 147.728929
_cell_angle_gamma 90.000000
_cell_volume 841.858595
_symmetry_space_group_name_H-M "P 2/C"
_symmetry_group_IT_number 13
_symmetry_cell_setting 'monoclinic'
loop_
_space_group_symop_operation_xyz
x,y,z
-x,y,1/2-z
-x,-y,-z
x,-y,1/2+z
loop_
_atom_site_type_symbol
_atom_site_label
_atom_site_fract_x
_atom_site_fract_y
_atom_site_fract_z
Si Si1 0.172619 0.324904 0.241832
Si Si2 0.192269 0.045382 0.051928
Si Si3 0.500000 0.514963 0.750000
Si Si4 0.199245 0.201112 0.060342
Si Si5 0.264435 0.407566 0.780910
O O1 0.130515 0.250175 0.138858
O O2 0.492091 0.349631 0.532618
O O3 0.000000 0.332448 0.250000
O O4 0.032219 0.374018 0.003179
O O5 0.500000 0.019723 0.250000
O O6 0.229963 0.122854 0.139545
O O7 0.000000 0.052270 0.750000
O O8 0.000000 0.000000 0.000000
O O9 0.314935 0.465344 0.699368
O O10 0.319379 0.558460 0.484326
O O11 0.500000 0.224903 0.250000
O O12 0.000000 0.204987 0.750000
#
# Coordination Sequence:
#
# PCOD9233331 Si02
#       5
#     4   4   2   4   4
#     4  12  24  42  61  92 124 161 207 263 310 377
#     4  10  21  40  65  98 135 173 218 268 318 383
#     4  10  24  44  62  90 118 160 200 266 322 386
#     4  10  23  41  64  92 126 168 213 255 309 378
#     4  11  25  41  64  88 121 156 209 257 321 376
#
# _framework density 21.381262
#
# number of rings (size 3 to 8) (size 9 to 14) (size 15 to 20)
#    0.000    1.333    2.222    2.000    4.667    6.222 
#    0.000    2.222    0.000    0.000    0.000    0.000 
#    0.000    0.000    0.000    0.000    0.000    0.000 
#
# Total GULP energy -100633.722087 kJ/mol
# GULP energy per Si atom -5590.762338 kJ/mol
# Density = 2.133260 g / cm^3
# Si number density = 21.381262 Si / 1000 Ang^3
#
#
#
# Elastic Constant Matrix: (Units=GPa)
#
#
# Indices 1 2 3 4 5 6 
#
# 1 98.4735 53.0999 21.6333 0.0000 -8.6263 0.0000
# 2 53.0999 78.9833 -2.8166 0.0000 -13.1054 0.0000
# 3 21.6333 -2.8166 81.5341 0.0000 11.9293 0.0000
# 4 0.0000 0.0000 0.0000 23.7134 0.0000 -26.1528
# 5 -8.6263 -13.1054 11.9293 0.0000 39.3998 0.0000
# 6 0.0000 0.0000 0.0000 -26.1528 0.0000 108.8116
#
#
#
# Elastic Compliance Matrix: (Units=1/GPa)
#
#
# Indices 1 2 3 4 5 6 
#
# 1 0.017952 -0.012001 -0.005408 0.000000 0.001576 0.000000
# 2 -0.012001 0.021425 0.003417 0.000000 0.003465 0.000000
# 3 -0.005408 0.003417 0.014466 0.000000 -0.004427 0.000000
# 4 0.000000 0.000000 0.000000 0.057380 0.000000 0.013791
# 5 0.001576 0.003465 -0.004427 0.000000 0.028219 0.000000
# 6 0.000000 0.000000 0.000000 0.013791 0.000000 0.012505
#
#
# Mechanical properties :
#
#
# Convention : Reuss Voigt Hill
#
# Bulk Modulus (GPa) = 38.66959 44.75827 41.71393
# Shear Modulus (GPa) = 26.51801 46.85657 36.68729
#
# Velocity S-wave (km/s) = 3.52553 4.68640 4.14679
# Velocity P-wave (km/s) = 5.89046 7.08957 6.51765
#
# Compressibility (1/GPa) = 0.02586012
#
# Stress axis : x y z
#
# Youngs Moduli (GPa) = 55.70309 46.67337 69.12935
#
# Poissons Ratio (x) = 0.56010 0.37388
# Poissons Ratio (y) = 0.66847 -0.23624
# Poissons Ratio (z) = 0.30127 -0.15950
#
# Static dielectric constant tensor:
#      x y z
#    x 1.764760 0.000000 0.033180 
#    y 0.000000 1.810720 0.000000 
#    z 0.033180 0.000000 1.723900 
# 
# From -- ./inp_files/13599.got.cif
#   From: 2010.05.17/outbox.cif.g08.bks.cpg/sg13_7_cif.got.tgz:13599.got - 2010.06.03 16:44:36.
