data_PCOD9233422
_publ_section_title
;
Structure prediction by ZEFSAII (Michael W. Deem and Ramdas Pophale) SiO2 
 PCOD9233422
Probable space group: P 2/C
;
_chemical_formula_sum "Si O2"
_cell_formula_units_Z 28
_cell_length_a 9.267149
_cell_length_b 13.320002
_cell_length_c 22.478183
_cell_angle_alpha 90.000000
_cell_angle_beta 152.444522
_cell_angle_gamma 90.000000
_cell_volume 1283.583389
_symmetry_space_group_name_H-M "P 2/C"
_symmetry_group_IT_number 13
_symmetry_cell_setting 'monoclinic'
loop_
_space_group_symop_operation_xyz
x,y,z
-x,y,1/2-z
-x,-y,-z
x,-y,1/2+z
loop_
_atom_site_type_symbol
_atom_site_label
_atom_site_fract_x
_atom_site_fract_y
_atom_site_fract_z
Si Si1 0.121237 0.722447 0.007014
Si Si2 0.463510 0.005639 0.057619
Si Si3 0.779497 0.810573 0.223557
Si Si4 0.285603 0.782090 0.811061
Si Si5 0.871287 0.482022 0.386205
Si Si6 0.829012 0.901952 0.851127
Si Si7 0.931111 0.313869 0.565643
O O1 0.453069 0.752795 0.102706
O O2 0.142224 0.694483 0.083757
O O3 0.976948 0.632735 0.915435
O O4 0.912719 0.822612 0.932804
O O5 0.679931 0.926791 0.173997
O O6 0.563956 0.116906 0.108045
O O7 0.109034 0.978981 0.944946
O O8 0.500000 0.000000 0.000000
O O9 0.000000 0.782278 0.250000
O O10 0.954655 0.770240 0.346181
O O11 0.178107 0.826253 0.708058
O O12 0.000000 0.752097 0.750000
O O13 0.569700 0.702994 0.915153
O O14 0.500000 0.486243 0.250000
O O15 0.000000 0.500000 0.500000
O O16 0.010408 0.569683 0.395202
O O17 0.500000 0.948618 0.750000
#
# Coordination Sequence:
#
# PCOD9233422 Si02
#       7
#     4   4   4   4   4   4   4
#     4  10  22  43  69  96 134 176 220 280 330 409
#     4  11  24  44  67  90 127 184 227 266 332 417
#     4  11  24  42  66  98 136 174 224 276 343 406
#     4  12  25  41  66  94 134 175 223 270 342 410
#     4  10  21  40  72 101 131 178 229 272 345 417
#     4  11  23  43  65  98 129 168 227 282 330 390
#     4  11  23  42  67 100 131 171 222 282 334 403
#
# _framework density 21.813931
#
# number of rings (size 3 to 8) (size 9 to 14) (size 15 to 20)
#    0.000    1.143    2.857    3.857    6.000    0.571 
#    0.000    2.143    0.000    0.000    0.000    0.000 
#    0.000    0.000    0.000    0.000    0.000    0.000 
#
# Total GULP energy -156346.002502 kJ/mol
# GULP energy per Si atom -5583.785804 kJ/mol
# Density = 2.176428 g / cm^3
# Si number density = 21.813931 Si / 1000 Ang^3
#
#
#
# Elastic Constant Matrix: (Units=GPa)
#
#
# Indices 1 2 3 4 5 6 
#
# 1 73.8760 16.8895 10.3746 0.0000 28.2194 0.0000
# 2 16.8895 82.0119 18.6183 0.0000 13.3609 0.0000
# 3 10.3746 18.6183 87.1260 0.0000 21.1869 0.0000
# 4 0.0000 0.0000 0.0000 36.8296 0.0000 -0.3187
# 5 28.2194 13.3609 21.1869 0.0000 47.0276 0.0000
# 6 0.0000 0.0000 0.0000 -0.3187 0.0000 11.7507
#
#
#
# Elastic Compliance Matrix: (Units=1/GPa)
#
#
# Indices 1 2 3 4 5 6 
#
# 1 0.017938 -0.002179 0.000895 0.000000 -0.010548 0.000000
# 2 -0.002179 0.013393 -0.002241 0.000000 -0.001488 0.000000
# 3 0.000895 -0.002241 0.013281 0.000000 -0.005883 0.000000
# 4 0.000000 0.000000 0.000000 0.027158 0.000000 0.000737
# 5 -0.010548 -0.001488 -0.005883 0.000000 0.030667 0.000000
# 6 0.000000 0.000000 0.000000 0.000737 0.000000 0.085122
#
#
# Mechanical properties :
#
#
# Convention : Reuss Voigt Hill
#
# Bulk Modulus (GPa) = 26.62286 37.19763 31.91025
# Shear Modulus (GPa) = 24.13957 32.26368 28.20162
#
# Velocity S-wave (km/s) = 3.33019 3.85000 3.59949
# Velocity P-wave (km/s) = 5.19787 6.07063 5.65113
#
# Compressibility (1/GPa) = 0.03756170
#
# Stress axis : x y z
#
# Youngs Moduli (GPa) = 55.74839 74.66487 75.29763
#
# Poissons Ratio (x) = 0.16268 -0.06736
# Poissons Ratio (y) = 0.12146 0.16872
# Poissons Ratio (z) = -0.04987 0.16730
#
# Static dielectric constant tensor:
#      x y z
#    x 1.936740 0.000000 -0.192640 
#    y 0.000000 2.130940 0.000000 
#    z -0.192640 0.000000 2.043150 
# 
# From -- ./inp_files/76740.got.cif
#   From: 2010.05.17/outbox.cif.g08.bks.cpg/sg13_39_cif.got.tgz:76740.got - 2010.06.03 16:44:36.
