data_PCOD9233832
_publ_section_title
;
Structure prediction by ZEFSAII (Michael W. Deem and Ramdas Pophale) SiO2 
 PCOD9233832
Probable space group: P 2/C
;
_chemical_formula_sum "Si O2"
_cell_formula_units_Z 24
_cell_length_a 12.640457
_cell_length_b 8.283847
_cell_length_c 13.246826
_cell_angle_alpha 90.000000
_cell_angle_beta 133.048993
_cell_angle_gamma 90.000000
_cell_volume 1013.648878
_symmetry_space_group_name_H-M "P 2/C"
_symmetry_group_IT_number 13
_symmetry_cell_setting 'monoclinic'
loop_
_space_group_symop_operation_xyz
x,y,z
-x,y,1/2-z
-x,-y,-z
x,-y,1/2+z
loop_
_atom_site_type_symbol
_atom_site_label
_atom_site_fract_x
_atom_site_fract_y
_atom_site_fract_z
Si Si1 0.222239 0.608311 0.862991
Si Si2 0.161203 0.269037 0.833721
Si Si3 0.342726 0.121892 0.122581
Si Si4 0.790344 0.909916 0.312279
Si Si5 0.470424 0.786245 0.122072
Si Si6 0.037787 0.645895 0.945823
O O1 0.235455 0.424972 0.832418
O O2 0.152544 0.603636 0.931023
O O3 0.107178 0.687163 0.711945
O O4 0.375272 0.693382 0.979085
O O5 0.144680 0.108634 0.755757
O O6 0.000000 0.325208 0.750000
O O7 0.250990 0.229606 0.989971
O O8 0.500000 0.192747 0.250000
O O9 0.244025 0.074339 0.153233
O O10 0.382331 0.949538 0.095316
O O11 0.627862 0.840432 0.189109
O O12 0.889397 0.793780 0.445982
O O13 0.500000 0.700632 0.250000
O O14 0.000000 0.500000 0.000000
#
# Coordination Sequence:
#
# PCOD9233832 Si02
#       6
#     4   4   4   4   4   4
#     4  11  21  36  63  94 123 157 202 259 301 364
#     4  12  24  39  60  94 127 158 206 261 306 360
#     4   9  22  42  61  86 123 167 205 252 303 366
#     4  10  21  43  67  84 126 168 203 256 309 369
#     4   9  19  39  64  89 118 164 209 246 300 369
#     4  11  19  37  61  91 124 159 195 249 314 362
#
# _framework density 23.676838
#
# number of rings (size 3 to 8) (size 9 to 14) (size 15 to 20)
#    0.000    2.000    6.667    0.000    0.000    6.000 
#    0.000    3.333    0.000    0.000    0.000    0.000 
#    0.000    0.000    0.000    0.000    0.000    0.000 
#
# Total GULP energy -134035.759380 kJ/mol
# GULP energy per Si atom -5584.823307 kJ/mol
# Density = 2.362295 g / cm^3
# Si number density = 23.676838 Si / 1000 Ang^3
#
#
#
# Elastic Constant Matrix: (Units=GPa)
#
#
# Indices 1 2 3 4 5 6 
#
# 1 33.3191 8.6832 4.4627 0.0000 -4.6435 0.0000
# 2 8.6832 36.0901 41.0511 0.0000 13.2148 0.0000
# 3 4.4627 41.0511 181.5389 0.0000 20.6253 0.0000
# 4 0.0000 0.0000 0.0000 14.7935 0.0000 -3.2288
# 5 -4.6435 13.2148 20.6253 0.0000 21.3389 0.0000
# 6 0.0000 0.0000 0.0000 -3.2288 0.0000 22.6618
#
#
#
# Elastic Compliance Matrix: (Units=1/GPa)
#
#
# Indices 1 2 3 4 5 6 
#
# 1 0.036412 -0.015848 0.000756 0.000000 0.017007 0.000000
# 2 -0.015848 0.050456 -0.007951 0.000000 -0.027010 0.000000
# 3 0.000756 -0.007951 0.007537 0.000000 -0.002197 0.000000
# 4 0.000000 0.000000 0.000000 0.069767 0.000000 0.009940
# 5 0.017007 -0.027010 -0.002197 0.000000 0.069413 0.000000
# 6 0.000000 0.000000 0.000000 0.009940 0.000000 0.045543
#
#
# Mechanical properties :
#
#
# Convention : Reuss Voigt Hill
#
# Bulk Modulus (GPa) = 20.69591 39.92691 30.31141
# Shear Modulus (GPa) = 14.64898 24.87559 19.76229
#
# Velocity S-wave (km/s) = 2.49008 3.24486 2.89220
# Velocity P-wave (km/s) = 4.12641 5.56226 4.89724
#
# Compressibility (1/GPa) = 0.04831872
#
# Stress axis : x y z
#
# Youngs Moduli (GPa) = 27.46355 19.81941 132.67119
#
# Poissons Ratio (x) = 0.31411 -0.10036
# Poissons Ratio (y) = 0.43525 1.05489
# Poissons Ratio (z) = -0.02078 0.15759
#
# Static dielectric constant tensor:
#      x y z
#    x 1.992050 0.000000 -0.031870 
#    y 0.000000 1.890320 0.000000 
#    z -0.031870 0.000000 1.861440 
# 
# From -- ./inp_files/53205.got.cif
#   From: 2010.05.17/outbox.cif.g08.bks.cpg/sg13_27_cif.got.tgz:53205.got - 2010.06.03 16:44:36.
