data_PCOD9233880
_publ_section_title
;
Structure prediction by ZEFSAII (Michael W. Deem and Ramdas Pophale) SiO2 
 PCOD9233880
Probable space group: P 2/C
;
_chemical_formula_sum "Si O2"
_cell_formula_units_Z 20
_cell_length_a 10.591806
_cell_length_b 6.844945
_cell_length_c 16.672740
_cell_angle_alpha 90.000000
_cell_angle_beta 51.232962
_cell_angle_gamma 90.000000
_cell_volume 942.483066
_symmetry_space_group_name_H-M "P 2/C"
_symmetry_group_IT_number 13
_symmetry_cell_setting 'monoclinic'
loop_
_space_group_symop_operation_xyz
x,y,z
-x,y,1/2-z
-x,-y,-z
x,-y,1/2+z
loop_
_atom_site_type_symbol
_atom_site_label
_atom_site_fract_x
_atom_site_fract_y
_atom_site_fract_z
Si Si1 0.416820 0.263410 0.863049
Si Si2 0.639812 0.117622 0.898236
Si Si3 0.888909 0.166721 0.216875
Si Si4 0.825958 0.062367 0.974830
Si Si5 0.170839 0.590563 0.905164
O O1 0.500000 0.177304 0.750000
O O2 0.557041 0.279172 0.874751
O O3 0.318826 0.452435 0.872348
O O4 0.286841 0.118736 0.954806
O O5 0.760479 0.175243 0.921751
O O6 0.737701 0.961489 0.805915
O O7 0.500000 0.000000 0.000000
O O8 0.836456 0.352131 0.185358
O O9 0.000000 0.217801 0.250000
O O10 0.001628 0.027098 0.117231
O O11 0.818682 0.209832 0.050186
O O12 0.000000 0.500000 0.000000
#
# Coordination Sequence:
#
# PCOD9233880 Si02
#       5
#     4   4   4   4   4
#     4  11  24  41  64  99 134 169 219 276 337 396
#     4   9  21  41  69  94 126 174 217 270 339 390
#     4  10  21  43  72  96 133 182 225 275 335 402
#     4  10  22  44  70  90 131 176 222 275 329 403
#     4  12  25  40  66 100 132 174 225 275 327 399
#
# _framework density 21.220541999999998
#
# number of rings (size 3 to 8) (size 9 to 14) (size 15 to 20)
#    0.000    1.600    2.000    1.800    2.800    4.800 
#    3.600    0.000    0.000    0.000    0.000    0.000 
#    0.000    0.000    0.000    0.000    0.000    0.000 
#
# Total GULP energy -111688.022555 kJ/mol
# GULP energy per Si atom -5584.401128 kJ/mol
# Density = 2.117224 g / cm^3
# Si number density = 21.220542 Si / 1000 Ang^3
#
#
#
# Elastic Constant Matrix: (Units=GPa)
#
#
# Indices 1 2 3 4 5 6 
#
# 1 150.2183 67.2988 37.2413 0.0000 16.7451 0.0000
# 2 67.2988 64.0857 25.3844 0.0000 11.7982 0.0000
# 3 37.2413 25.3844 127.3153 0.0000 -14.1994 0.0000
# 4 0.0000 0.0000 0.0000 6.1420 0.0000 12.9857
# 5 16.7451 11.7982 -14.1994 0.0000 35.8442 0.0000
# 6 0.0000 0.0000 0.0000 12.9857 0.0000 29.6049
#
#
#
# Elastic Compliance Matrix: (Units=1/GPa)
#
#
# Indices 1 2 3 4 5 6 
#
# 1 0.012921 -0.012474 -0.001578 0.000000 -0.002556 0.000000
# 2 -0.012474 0.030989 -0.003157 0.000000 -0.005624 0.000000
# 3 -0.001578 -0.003157 0.009566 0.000000 0.005566 0.000000
# 4 0.000000 0.000000 0.000000 2.241772 0.000000 -0.983313
# 5 -0.002556 -0.005624 0.005566 0.000000 0.033148 0.000000
# 6 0.000000 0.000000 0.000000 -0.983313 0.000000 0.465091
#
#
# Mechanical properties :
#
#
# Convention : Reuss Voigt Hill
#
# Bulk Modulus (GPa) = 52.46703 66.82982 59.64842
# Shear Modulus (GPa) = 1.76413 28.43120 15.09767
#
# Velocity S-wave (km/s) = 0.91276 3.66429 2.67022
# Velocity P-wave (km/s) = 5.08814 7.03307 6.13813
#
# Compressibility (1/GPa) = 0.01905959
#
# Stress axis : x y z
#
# Youngs Moduli (GPa) = 77.39171 32.26940 104.53464
#
# Poissons Ratio (x) = 0.40252 0.16491
# Poissons Ratio (y) = 0.96537 0.33003
# Poissons Ratio (z) = 0.12209 0.10188
#
# Static dielectric constant tensor:
#      x y z
#    x 1.854130 0.000000 0.023360 
#    y 0.000000 1.735110 0.000000 
#    z 0.023360 0.000000 1.734090 
# 
# From -- ./inp_files/65243.got.cif
#   From: 2010.05.17/outbox.cif.g08.bks.cpg/sg13_33_cif.got.tgz:65243.got - 2010.06.03 16:44:36.
