data_PCOD9233048
_publ_section_title
;
Structure prediction by ZEFSAII (Michael W. Deem and Ramdas Pophale) SiO2 
 PCOD9233048
Probable space group: P 2/C
;
_chemical_formula_sum "Si O2"
_cell_formula_units_Z 22
_cell_length_a 9.795410
_cell_length_b 8.055478
_cell_length_c 12.744619
_cell_angle_alpha 90.000000
_cell_angle_beta 72.069126
_cell_angle_gamma 90.000000
_cell_volume 956.790852
_symmetry_space_group_name_H-M "P 2/C"
_symmetry_group_IT_number 13
_symmetry_cell_setting 'monoclinic'
loop_
_space_group_symop_operation_xyz
x,y,z
-x,y,1/2-z
-x,-y,-z
x,-y,1/2+z
loop_
_atom_site_type_symbol
_atom_site_label
_atom_site_fract_x
_atom_site_fract_y
_atom_site_fract_z
Si Si1 0.295767 0.654834 0.586412
Si Si2 0.036047 0.392458 0.391245
Si Si3 0.458040 0.657552 0.144518
Si Si4 0.891711 0.868940 0.475899
Si Si5 0.641174 0.001124 0.898384
Si Si6 0.000000 0.344419 0.750000
O O1 0.124309 0.665905 0.605597
O O2 0.395105 0.676112 0.458250
O O3 0.356527 0.478912 0.613240
O O4 0.332477 0.815592 0.649916
O O5 0.096642 0.520266 0.291256
O O6 0.000000 0.500000 0.500000
O O7 0.135639 0.252463 0.418553
O O8 0.500000 0.601882 0.250000
O O9 0.375717 0.835923 0.169778
O O10 0.760786 0.964266 0.457258
O O11 0.947159 0.768280 0.359097
O O12 0.000000 0.000000 0.500000
O O13 0.500000 0.000000 0.000000
#
# Coordination Sequence:
#
# PCOD9233048 Si02
#       6
#     4   4   4   4   4   2
#     4  10  21  41  63  92 138 171 225 287 337 405
#     4  10  21  39  63  96 132 176 222 286 345 404
#     4  10  22  39  66  94 131 185 223 279 343 411
#     4  11  22  43  71  99 137 182 224 293 353 402
#     4  10  22  44  65  96 137 176 229 284 339 413
#     4  10  24  40  66 104 136 176 236 284 344 430
#
# _framework density 22.99353
#
# number of rings (size 3 to 8) (size 9 to 14) (size 15 to 20)
#    0.000    1.818    1.818    2.182    0.000    7.273 
#    0.000    0.000    0.000    0.000    0.000    0.000 
#    0.000    0.000    0.000    0.000    0.000    0.000 
#
# Total GULP energy -122505.108948 kJ/mol
# GULP energy per Si atom -5568.414043 kJ/mol
# Density = 2.294120 g / cm^3
# Si number density = 22.993530 Si / 1000 Ang^3
#
#
#
# Elastic Constant Matrix: (Units=GPa)
#
#
# Indices 1 2 3 4 5 6 
#
# 1 67.7930 -5.1651 16.4125 0.0000 -11.7933 0.0000
# 2 -5.1651 115.8963 25.9804 0.0000 -4.2371 0.0000
# 3 16.4125 25.9804 107.0163 0.0000 0.6667 0.0000
# 4 0.0000 0.0000 0.0000 18.6563 0.0000 2.5976
# 5 -11.7933 -4.2371 0.6667 0.0000 23.0101 0.0000
# 6 0.0000 0.0000 0.0000 2.5976 0.0000 29.4121
#
#
#
# Elastic Compliance Matrix: (Units=1/GPa)
#
#
# Indices 1 2 3 4 5 6 
#
# 1 0.017264 0.001814 -0.003146 0.000000 0.009273 0.000000
# 2 0.001814 0.009386 -0.002574 0.000000 0.002732 0.000000
# 3 -0.003146 -0.002574 0.010467 0.000000 -0.002389 0.000000
# 4 0.000000 0.000000 0.000000 0.054269 0.000000 -0.004793
# 5 0.009273 0.002732 -0.002389 0.000000 0.048784 0.000000
# 6 0.000000 0.000000 0.000000 -0.004793 0.000000 0.034423
#
#
# Mechanical properties :
#
#
# Convention : Reuss Voigt Hill
#
# Bulk Modulus (GPa) = 34.12450 40.57347 37.34899
# Shear Modulus (GPa) = 26.01832 31.11421 28.56627
#
# Velocity S-wave (km/s) = 3.36750 3.68254 3.52854
# Velocity P-wave (km/s) = 5.47661 5.98042 5.73405
#
# Compressibility (1/GPa) = 0.02930446
#
# Stress axis : x y z
#
# Youngs Moduli (GPa) = 57.92498 106.54045 95.54249
#
# Poissons Ratio (x) = -0.19322 0.30055
# Poissons Ratio (y) = -0.10505 0.24591
# Poissons Ratio (z) = 0.18221 0.27422
#
# Static dielectric constant tensor:
#      x y z
#    x 1.841990 0.000000 -0.021610 
#    y 0.000000 2.045160 0.000000 
#    z -0.021610 0.000000 1.832250 
# 
# From -- ./inp_files/46124.got.cif
#   From: 2010.05.17/outbox.cif.g08.bks.cpg/sg13_24_cif.got.tgz:46124.got - 2010.06.03 16:44:36.
