data_PCOD9233906
_publ_section_title
;
Structure prediction by ZEFSAII (Michael W. Deem and Ramdas Pophale) SiO2 
 PCOD9233906
Probable space group: P 2/C
;
_chemical_formula_sum "Si O2"
_cell_formula_units_Z 30
_cell_length_a 29.007742
_cell_length_b 9.342548
_cell_length_c 9.996411
_cell_angle_alpha 90.000000
_cell_angle_beta 147.295064
_cell_angle_gamma 90.000000
_cell_volume 1463.755814
_symmetry_space_group_name_H-M "P 2/C"
_symmetry_group_IT_number 13
_symmetry_cell_setting 'monoclinic'
loop_
_space_group_symop_operation_xyz
x,y,z
-x,y,1/2-z
-x,-y,-z
x,-y,1/2+z
loop_
_atom_site_type_symbol
_atom_site_label
_atom_site_fract_x
_atom_site_fract_y
_atom_site_fract_z
Si Si1 0.573643 0.611542 0.319901
Si Si2 0.323865 0.912643 0.587150
Si Si3 0.131559 0.188202 0.580667
Si Si4 0.702112 0.151289 0.177868
Si Si5 0.059981 0.543877 0.770500
Si Si6 0.534892 0.290581 0.192087
Si Si7 0.000000 0.929176 0.250000
Si Si8 0.887857 0.746680 0.163015
O O1 0.500000 0.641113 0.250000
O O2 0.657871 0.694543 0.568040
O O3 0.582936 0.441185 0.335758
O O4 0.539779 0.668111 0.094414
O O5 0.232308 0.842312 0.324184
O O6 0.324711 0.923516 0.749094
O O7 0.401157 0.817542 0.722454
O O8 0.328210 0.062822 0.523122
O O9 0.108708 0.259122 0.668080
O O10 0.101311 0.298825 0.390927
O O11 0.078809 0.039743 0.457439
O O12 0.803717 0.163195 0.424889
O O13 0.125529 0.411776 0.928761
O O14 0.000000 0.525172 0.750000
O O15 0.000000 0.500000 0.500000
O O16 0.500000 0.238707 0.250000
O O17 0.969843 0.825444 0.297495
#
# Coordination Sequence:
#
# PCOD9233906 Si02
#       8
#     4   4   4   4   4   4   2   4
#     4  10  21  44  67  96 131 174 216 271 326 391
#     4  11  25  45  64  99 133 172 217 270 324 390
#     4  11  24  43  65  94 132 171 218 271 322 382
#     4  11  25  44  65  96 135 169 221 268 327 385
#     4  12  23  43  64  94 126 167 226 270 326 387
#     4  10  23  42  69  97 129 172 222 263 332 392
#     4  12  20  42  66  92 132 178 214 262 322 382
#     4  11  24  41  64  96 129 173 216 270 325 386
#
# _framework density 20.495221000000001
#
# number of rings (size 3 to 8) (size 9 to 14) (size 15 to 20)
#    0.000    1.067    5.333    0.400    3.733    1.067 
#    2.400    0.000    0.000    0.000    0.000    0.000 
#    0.000    0.000    0.000    0.000    0.000    0.000 
#
# Total GULP energy -167471.863202 kJ/mol
# GULP energy per Si atom -5582.395440 kJ/mol
# Density = 2.044857 g / cm^3
# Si number density = 20.495221 Si / 1000 Ang^3
#
#
#
# Elastic Constant Matrix: (Units=GPa)
#
#
# Indices 1 2 3 4 5 6 
#
# 1 61.6267 11.4237 -8.2525 0.0000 3.3545 0.0000
# 2 11.4237 67.1631 4.9414 0.0000 4.5068 0.0000
# 3 -8.2525 4.9414 11.1646 0.0000 -1.8481 0.0000
# 4 0.0000 0.0000 0.0000 33.5515 0.0000 -4.1237
# 5 3.3545 4.5068 -1.8481 0.0000 28.3921 0.0000
# 6 0.0000 0.0000 0.0000 -4.1237 0.0000 20.5354
#
#
#
# Elastic Compliance Matrix: (Units=1/GPa)
#
#
# Indices 1 2 3 4 5 6 
#
# 1 0.019228 -0.004418 0.016081 0.000000 -0.000524 0.000000
# 2 -0.004418 0.016649 -0.011105 0.000000 -0.002844 0.000000
# 3 0.016081 -0.011105 0.107506 0.000000 0.006861 0.000000
# 4 0.000000 0.000000 0.000000 0.030559 0.000000 0.006137
# 5 -0.000524 -0.002844 0.006861 0.000000 0.036181 0.000000
# 6 0.000000 0.000000 0.000000 0.006137 0.000000 0.049929
#
#
# Mechanical properties :
#
#
# Convention : Reuss Voigt Hill
#
# Bulk Modulus (GPa) = 6.92054 17.35329 12.13691
# Shear Modulus (GPa) = 16.28127 25.28524 20.78326
#
# Velocity S-wave (km/s) = 2.82156 3.51624 3.18788
# Velocity P-wave (km/s) = 3.74151 4.99706 4.41415
#
# Compressibility (1/GPa) = 0.14449747
#
# Stress axis : x y z
#
# Youngs Moduli (GPa) = 52.00825 60.06544 9.30182
#
# Poissons Ratio (x) = 0.26539 -0.14958
# Poissons Ratio (y) = 0.22979 0.10330
# Poissons Ratio (z) = -0.83636 0.66704
#
# Static dielectric constant tensor:
#      x y z
#    x 1.705610 0.000000 -0.020010 
#    y 0.000000 1.781220 0.000000 
#    z -0.020010 0.000000 1.794400 
# 
# From -- ./inp_files/42716.got.cif
#   From: 2010.05.17/outbox.cif.g08.bks.cpg/sg13_22_cif.got.tgz:42716.got - 2010.06.03 16:44:36.
