data_PCOD9233430
_publ_section_title
;
Structure prediction by ZEFSAII (Michael W. Deem and Ramdas Pophale) SiO2 
 PCOD9233430
Probable space group: P 2/C
;
_chemical_formula_sum "Si O2"
_cell_formula_units_Z 30
_cell_length_a 22.092871
_cell_length_b 7.319873
_cell_length_c 13.625855
_cell_angle_alpha 90.000000
_cell_angle_beta 143.299703
_cell_angle_gamma 90.000000
_cell_volume 1316.895609
_symmetry_space_group_name_H-M "P 2/C"
_symmetry_group_IT_number 13
_symmetry_cell_setting 'monoclinic'
loop_
_space_group_symop_operation_xyz
x,y,z
-x,y,1/2-z
-x,-y,-z
x,-y,1/2+z
loop_
_atom_site_type_symbol
_atom_site_label
_atom_site_fract_x
_atom_site_fract_y
_atom_site_fract_z
Si Si1 0.487441 0.213095 0.956122
Si Si2 0.925814 0.830545 0.883067
Si Si3 0.930972 0.700654 0.582864
Si Si4 0.300517 0.719505 0.751756
Si Si5 0.500000 0.850162 0.250000
Si Si6 0.285876 0.989639 0.915752
Si Si7 0.724857 0.310391 0.725276
Si Si8 0.898336 0.288474 0.569862
O O1 0.497340 0.249616 0.852021
O O2 0.378930 0.269081 0.854409
O O3 0.584412 0.306228 0.133367
O O4 0.500000 0.000000 0.000000
O O5 0.822432 0.899924 0.695415
O O6 0.992613 0.687839 0.908892
O O7 0.903959 0.752431 0.961689
O O8 0.000000 0.000000 0.000000
O O9 0.823422 0.773382 0.408085
O O10 0.903598 0.505629 0.593416
O O11 0.000000 0.807660 0.750000
O O12 0.302860 0.883589 0.833398
O O13 0.268780 0.530049 0.764930
O O14 0.217940 0.765351 0.560527
O O15 0.608612 0.955526 0.390958
O O16 0.275027 0.203520 0.877270
O O17 0.000000 0.211710 0.750000
#
# Coordination Sequence:
#
# PCOD9233430 Si02
#       8
#     4   4   4   4   2   4   4   4
#     4  11  21  40  65  84 120 157 195 250 304 345
#     4  11  21  37  58  87 122 157 192 244 304 356
#     4  10  22  38  59  90 117 158 205 242 296 357
#     4   9  20  38  63  87 116 160 195 242 304 354
#     4  10  22  40  62  86 116 158 196 246 300 350
#     4  10  21  41  59  88 123 154 202 246 303 351
#     4  11  20  39  65  85 120 159 198 245 297 362
#     4   9  20  40  61  85 121 152 200 250 295 357
#
# _framework density 22.780850000000001
#
# number of rings (size 3 to 8) (size 9 to 14) (size 15 to 20)
#    0.000    1.867    4.000    0.800    1.867    0.533 
#    2.400    2.667    0.000    0.000    0.000    0.000 
#    0.000    0.000    0.000    0.000    0.000    0.000 
#
# Total GULP energy -167097.813405 kJ/mol
# GULP energy per Si atom -5569.927114 kJ/mol
# Density = 2.272900 g / cm^3
# Si number density = 22.780850 Si / 1000 Ang^3
#
#
#
# Elastic Constant Matrix: (Units=GPa)
#
#
# Indices 1 2 3 4 5 6 
#
# 1 65.3073 -7.1407 40.6988 0.0000 30.3924 0.0000
# 2 -7.1407 76.2710 8.2685 0.0000 7.2561 0.0000
# 3 40.6988 8.2685 203.2802 0.0000 56.0028 0.0000
# 4 0.0000 0.0000 0.0000 21.3256 0.0000 9.4852
# 5 30.3924 7.2561 56.0028 0.0000 46.7578 0.0000
# 6 0.0000 0.0000 0.0000 9.4852 0.0000 15.7474
#
#
#
# Elastic Compliance Matrix: (Units=1/GPa)
#
#
# Indices 1 2 3 4 5 6 
#
# 1 0.022962 0.003619 -0.000713 0.000000 -0.014633 0.000000
# 2 0.003619 0.013878 -0.000071 0.000000 -0.004421 0.000000
# 3 -0.000713 -0.000071 0.007364 0.000000 -0.008346 0.000000
# 4 0.000000 0.000000 0.000000 0.064052 0.000000 -0.038581
# 5 -0.014633 -0.004421 -0.008346 0.000000 0.041580 0.000000
# 6 0.000000 0.000000 0.000000 -0.038581 0.000000 0.086741
#
#
# Mechanical properties :
#
#
# Convention : Reuss Voigt Hill
#
# Bulk Modulus (GPa) = 20.05046 47.61239 33.83142
# Shear Modulus (GPa) = 20.19939 36.96830 28.58384
#
# Velocity S-wave (km/s) = 2.98095 4.03274 3.54606
# Velocity P-wave (km/s) = 4.54628 6.52913 5.62576
#
# Compressibility (1/GPa) = 0.04987418
#
# Stress axis : x y z
#
# Youngs Moduli (GPa) = 43.55000 72.05499 135.79242
#
# Poissons Ratio (x) = -0.26078 0.09685
# Poissons Ratio (y) = -0.15762 0.00966
# Poissons Ratio (z) = 0.03106 0.00513
#
# Static dielectric constant tensor:
#      x y z
#    x 1.912880 0.000000 0.046880 
#    y 0.000000 1.874900 0.000000 
#    z 0.046880 0.000000 1.932320 
# 
# From -- ./inp_files/59430.got.cif
#   From: 2010.05.17/outbox.cif.g08.bks.cpg/sg13_30_cif.got.tgz:59430.got - 2010.06.03 16:44:36.
