data_PCOD9233349
_publ_section_title
;
Structure prediction by ZEFSAII (Michael W. Deem and Ramdas Pophale) SiO2 
 PCOD9233349
Probable space group: P 2/C
;
_chemical_formula_sum "Si O2"
_cell_formula_units_Z 20
_cell_length_a 8.917967
_cell_length_b 11.468686
_cell_length_c 9.813682
_cell_angle_alpha 90.000000
_cell_angle_beta 89.262106
_cell_angle_gamma 90.000000
_cell_volume 1003.634282
_symmetry_space_group_name_H-M "P 2/C"
_symmetry_group_IT_number 13
_symmetry_cell_setting 'monoclinic'
loop_
_space_group_symop_operation_xyz
x,y,z
-x,y,1/2-z
-x,-y,-z
x,-y,1/2+z
loop_
_atom_site_type_symbol
_atom_site_label
_atom_site_fract_x
_atom_site_fract_y
_atom_site_fract_z
Si Si1 0.527669 0.156817 0.901346
Si Si2 0.426184 0.408195 0.600768
Si Si3 0.757948 0.009322 0.502152
Si Si4 0.929919 0.600860 0.403804
Si Si5 0.023049 0.176576 0.401453
O O1 0.500000 0.193573 0.750000
O O2 0.546860 0.281129 0.970908
O O3 0.676927 0.079338 0.900163
O O4 0.383448 0.082980 0.944768
O O5 0.500000 0.422964 0.750000
O O6 0.500000 0.500000 0.500000
O O7 0.247165 0.420997 0.612490
O O8 0.879334 0.098767 0.444157
O O9 0.842136 0.918959 0.601541
O O10 0.952748 0.722868 0.486385
O O11 0.000000 0.605301 0.250000
O O12 0.000000 0.500000 0.500000
O O13 0.000000 0.225921 0.250000
#
# Coordination Sequence:
#
# PCOD9233349 Si02
#       5
#     4   4   4   4   4
#     4  10  21  40  66  94 133 174 226 268 340 392
#     4  11  25  46  71  99 133 177 227 281 340 404
#     4  10  22  40  64  97 136 180 220 276 323 409
#     4  12  27  47  73 101 135 178 229 285 344 408
#     4  11  24  41  67 101 139 176 227 271 341 396
#
# _framework density 19.927576999999999
#
# number of rings (size 3 to 8) (size 9 to 14) (size 15 to 20)
#    0.000    1.200    2.000    3.000    8.400    3.200 
#    0.000    1.000    0.000    0.000    0.000    0.000 
#    0.000    0.000    0.000    0.000    0.000    0.000 
#
# Total GULP energy -111473.672464 kJ/mol
# GULP energy per Si atom -5573.683623 kJ/mol
# Density = 1.988222 g / cm^3
# Si number density = 19.927577 Si / 1000 Ang^3
#
#
#
# Elastic Constant Matrix: (Units=GPa)
#
#
# Indices 1 2 3 4 5 6 
#
# 1 167.1398 68.2486 55.2926 0.0000 12.7904 0.0000
# 2 68.2486 145.5069 58.8621 0.0000 -2.5776 0.0000
# 3 55.2926 58.8621 125.0353 0.0000 6.1695 0.0000
# 4 0.0000 0.0000 0.0000 29.5939 0.0000 4.3048
# 5 12.7904 -2.5776 6.1695 0.0000 22.2325 0.0000
# 6 0.0000 0.0000 0.0000 4.3048 0.0000 47.8956
#
#
#
# Elastic Compliance Matrix: (Units=1/GPa)
#
#
# Indices 1 2 3 4 5 6 
#
# 1 0.008272 -0.003179 -0.001935 0.000000 -0.004591 0.000000
# 2 -0.003179 0.009810 -0.003406 0.000000 0.003911 0.000000
# 3 -0.001935 -0.003406 0.010566 0.000000 -0.002214 0.000000
# 4 0.000000 0.000000 0.000000 0.034238 0.000000 -0.003077
# 5 -0.004591 0.003911 -0.002214 0.000000 0.048688 0.000000
# 6 0.000000 0.000000 0.000000 -0.003077 0.000000 0.021155
#
#
# Mechanical properties :
#
#
# Convention : Reuss Voigt Hill
#
# Bulk Modulus (GPa) = 86.13514 89.16540 87.65027
# Shear Modulus (GPa) = 32.54364 36.96297 34.75330
#
# Velocity S-wave (km/s) = 4.04554 4.31149 4.18063
# Velocity P-wave (km/s) = 8.07092 8.34428 8.20874
#
# Compressibility (1/GPa) = 0.01160966
#
# Stress axis : x y z
#
# Youngs Moduli (GPa) = 120.88314 101.93253 94.64200
#
# Poissons Ratio (x) = 0.32399 0.18317
# Poissons Ratio (y) = 0.38423 0.32233
# Poissons Ratio (z) = 0.23395 0.34716
#
# Static dielectric constant tensor:
#      x y z
#    x 1.696390 0.000000 0.034350 
#    y 0.000000 1.758720 0.000000 
#    z 0.034350 0.000000 1.693620 
# 
# From -- ./inp_files/11797.got.cif
#   From: 2010.05.17/outbox.cif.g08.bks.cpg/sg13_6_cif.got.tgz:11797.got - 2010.06.03 16:44:36.
