data_PCOD9233068
_publ_section_title
;
Structure prediction by ZEFSAII (Michael W. Deem and Ramdas Pophale) SiO2 
 PCOD9233068
Probable space group: P 2/C
;
_chemical_formula_sum "Si O2"
_cell_formula_units_Z 22
_cell_length_a 15.284962
_cell_length_b 6.037727
_cell_length_c 26.911115
_cell_angle_alpha 90.000000
_cell_angle_beta 157.147239
_cell_angle_gamma 90.000000
_cell_volume 964.514707
_symmetry_space_group_name_H-M "P 2/C"
_symmetry_group_IT_number 13
_symmetry_cell_setting 'monoclinic'
loop_
_space_group_symop_operation_xyz
x,y,z
-x,y,1/2-z
-x,-y,-z
x,-y,1/2+z
loop_
_atom_site_type_symbol
_atom_site_label
_atom_site_fract_x
_atom_site_fract_y
_atom_site_fract_z
Si Si1 0.552919 0.088506 0.949301
Si Si2 0.324644 0.303796 0.394481
Si Si3 0.844285 0.494109 0.466597
Si Si4 0.500000 0.852147 0.250000
Si Si5 0.518669 0.162871 0.339513
Si Si6 0.782108 0.513351 0.256089
O O1 0.365373 0.265417 0.831877
O O2 0.435629 0.894921 0.920455
O O3 0.647797 0.972845 0.949989
O O4 0.726736 0.200584 0.078621
O O5 0.500000 0.500000 0.500000
O O6 0.163421 0.417516 0.270082
O O7 0.680026 0.701885 0.373020
O O8 0.684350 0.283505 0.388536
O O9 0.004966 0.522868 0.405343
O O10 0.000000 0.500000 0.500000
O O11 0.385846 0.992609 0.234776
O O12 0.373708 0.345449 0.292968
#
# Coordination Sequence:
#
# PCOD9233068 Si02
#       6
#     4   4   4   2   4   4
#     4   9  17  35  63  90 122 160 200 251 311 370
#     4   8  16  32  61  93 121 160 203 246 306 373
#     4  12  25  41  61  89 123 162 213 263 316 385
#     4  12  26  44  62  86 120 158 204 264 322 378
#     4  11  23  39  62  89 121 161 207 262 319 377
#     4  10  21  39  64  92 123 163 209 257 313 381
#
# _framework density 22.809398999999999
#
# number of rings (size 3 to 8) (size 9 to 14) (size 15 to 20)
#    0.000    1.818    0.000    4.909    0.000    5.818 
#    0.000    0.000    0.000   77.455    0.000    0.000 
#    0.000    0.000    0.000    0.000    0.000    0.000 
#
# Total GULP energy -122688.944507 kJ/mol
# GULP energy per Si atom -5576.770205 kJ/mol
# Density = 2.275748 g / cm^3
# Si number density = 22.809399 Si / 1000 Ang^3
#
#
#
# Elastic Constant Matrix: (Units=GPa)
#
#
# Indices 1 2 3 4 5 6 
#
# 1 72.9538 51.9347 40.4926 0.0000 -21.6201 0.0000
# 2 51.9347 114.1040 43.3774 0.0000 -20.5341 0.0000
# 3 40.4926 43.3774 144.2864 0.0000 -43.3188 0.0000
# 4 0.0000 0.0000 0.0000 31.6616 0.0000 -37.8160
# 5 -21.6201 -20.5341 -43.3188 0.0000 40.7131 0.0000
# 6 0.0000 0.0000 0.0000 -37.8160 0.0000 34.3531
#
#
#
# Elastic Compliance Matrix: (Units=1/GPa)
#
#
# Indices 1 2 3 4 5 6 
#
# 1 0.022529 -0.008462 -0.002157 0.000000 0.005401 0.000000
# 2 -0.008462 0.013277 -0.001404 0.000000 0.000709 0.000000
# 3 -0.002157 -0.001404 0.010876 0.000000 0.009718 0.000000
# 4 0.000000 0.000000 0.000000 -0.100337 0.000000 -0.110451
# 5 0.005401 0.000709 0.009718 0.000000 0.038128 0.000000
# 6 0.000000 0.000000 0.000000 -0.110451 0.000000 -0.092476
#
#
# Mechanical properties :
#
#
# Convention : Reuss Voigt Hill
#
# Bulk Modulus (GPa) = 44.17862 66.99482 55.58672
# Shear Modulus (GPa) = -65.43552 34.38152 -15.52700
#
# Velocity S-wave (km/s) = -5.36193 3.88666 -2.61191
# Velocity P-wave (km/s) = 4.35006 7.04108 3.91496
#
# Compressibility (1/GPa) = 0.02263538
#
# Stress axis : x y z
#
# Youngs Moduli (GPa) = 44.38662 75.31941 91.94752
#
# Poissons Ratio (x) = 0.63738 0.19835
# Poissons Ratio (y) = 0.37561 0.12907
# Poissons Ratio (z) = 0.09575 0.10573
#
# Static dielectric constant tensor:
#      x y z
#    x 1.850030 0.000000 0.013130 
#    y 0.000000 2.051220 0.000000 
#    z 0.013130 0.000000 2.016870 
# 
# From -- ./inp_files/93012.got.cif
#   From: 2010.05.17/outbox.cif.g08.bks.cpg/sg13_47_cif.got.tgz:93012.got - 2010.06.03 16:44:36.
