data_PCOD9233794
_publ_section_title
;
Structure prediction by ZEFSAII (Michael W. Deem and Ramdas Pophale) SiO2 
 PCOD9233794
Probable space group: P 2/C
;
_chemical_formula_sum "Si O2"
_cell_formula_units_Z 28
_cell_length_a 15.277655
_cell_length_b 8.416188
_cell_length_c 9.803982
_cell_angle_alpha 90.000000
_cell_angle_beta 131.254195
_cell_angle_gamma 90.000000
_cell_volume 947.702575
_symmetry_space_group_name_H-M "P 2/C"
_symmetry_group_IT_number 13
_symmetry_cell_setting 'monoclinic'
loop_
_space_group_symop_operation_xyz
x,y,z
-x,y,1/2-z
-x,-y,-z
x,-y,1/2+z
loop_
_atom_site_type_symbol
_atom_site_label
_atom_site_fract_x
_atom_site_fract_y
_atom_site_fract_z
Si Si1 0.378829 0.111942 0.087205
Si Si2 0.000000 0.707716 0.250000
Si Si3 0.138052 0.998484 0.251603
Si Si4 0.717177 0.608633 0.873658
Si Si5 0.446957 0.833648 0.393647
Si Si6 0.136992 0.456408 0.695974
Si Si7 0.500000 0.406623 0.750000
Si Si8 0.820339 0.837678 0.460067
O O1 0.500000 0.029960 0.250000
O O2 0.324735 0.210301 0.154207
O O3 0.277134 0.020070 0.909200
O O4 0.413375 0.241918 0.006711
O O5 0.911956 0.843547 0.221554
O O6 0.993000 0.584921 0.374482
O O7 0.118905 0.976380 0.071252
O O8 0.122276 0.150863 0.331880
O O9 0.786059 0.589378 0.802990
O O10 0.604532 0.500862 0.786610
O O11 0.798628 0.567382 0.089092
O O12 0.532733 0.716550 0.404296
O O13 0.321212 0.852997 0.188110
O O14 0.500000 0.000000 0.500000
O O15 0.155982 0.317476 0.603050
#
# Coordination Sequence:
#
# PCOD9233794 Si02
#       8
#     4   2   4   4   4   4   2   4
#     4  11  22  39  63  99 134 180 217 272 343 403
#     4  10  22  48  72  98 134 170 236 286 360 388
#     4  10  22  41  70  96 136 176 218 288 347 404
#     4  12  23  44  66  95 140 179 232 271 337 406
#     4  11  24  39  61  94 140 176 223 279 340 403
#     4  11  25  45  67  95 131 178 226 293 333 407
#     4  12  26  38  66  98 130 184 224 274 330 414
#     4  10  21  43  62  98 137 168 227 278 345 409
#
# _framework density 29.545134999999998
#
# number of rings (size 3 to 8) (size 9 to 14) (size 15 to 20)
#    0.000    1.143    6.429    0.857    7.000    4.000 
#    2.571    0.000    0.000    4.286    0.000    0.000 
#    0.000    0.000    0.000    0.000    0.000    0.000 
#
# Total GULP energy -156181.543505 kJ/mol
# GULP energy per Si atom -5577.912268 kJ/mol
# Density = 2.947789 g / cm^3
# Si number density = 29.545135 Si / 1000 Ang^3
#
#
#
# Elastic Constant Matrix: (Units=GPa)
#
#
# Indices 1 2 3 4 5 6 
#
# 1 182.3391 34.7826 23.1500 0.0000 -1.8244 0.0000
# 2 34.7826 71.8967 9.6920 0.0000 -4.2552 0.0000
# 3 23.1500 9.6920 29.0301 0.0000 -19.8074 0.0000
# 4 0.0000 0.0000 0.0000 -107.4950 0.0000 20.7740
# 5 -1.8244 -4.2552 -19.8074 0.0000 68.4572 0.0000
# 6 0.0000 0.0000 0.0000 20.7740 0.0000 44.6687
#
#
#
# Elastic Compliance Matrix: (Units=1/GPa)
#
#
# Indices 1 2 3 4 5 6 
#
# 1 0.006661 -0.002570 -0.005534 0.000000 -0.001584 0.000000
# 2 -0.002570 0.015578 -0.003161 0.000000 -0.000015 0.000000
# 3 -0.005534 -0.003161 0.049442 0.000000 0.013962 0.000000
# 4 0.000000 0.000000 0.000000 -0.008536 0.000000 0.003970
# 5 -0.001584 -0.000015 0.013962 0.000000 0.018604 0.000000
# 6 0.000000 0.000000 0.000000 0.003970 0.000000 0.020541
#
#
# Mechanical properties :
#
#
# Convention : Reuss Voigt Hill
#
# Bulk Modulus (GPa) = 20.34636 46.50166 33.42401
# Shear Modulus (GPa) = 35.40942 15.50226 25.45584
#
# Velocity S-wave (km/s) = 3.46567 2.29311 2.93847
# Velocity P-wave (km/s) = 4.78706 4.77331 4.78019
#
# Compressibility (1/GPa) = 0.04914885
#
# Stress axis : x y z
#
# Youngs Moduli (GPa) = 150.11814 64.19470 20.22577
#
# Poissons Ratio (x) = 0.16500 0.11194
# Poissons Ratio (y) = 0.38586 0.06394
# Poissons Ratio (z) = 0.83083 0.20293
#
# Static dielectric constant tensor:
#      x y z
#    x 2.666210 0.000000 -0.088630 
#    y 0.000000 2.432090 0.000000 
#    z -0.088630 0.000000 2.569360 
# 
# From -- ./inp_files/36533.got.cif
#   From: 2010.05.17/outbox.cif.g08.bks.cpg/sg13_19_cif.got.tgz:36533.got - 2010.06.03 16:44:36.
