data_PCOD9233298
_publ_section_title
;
Structure prediction by ZEFSAII (Michael W. Deem and Ramdas Pophale) SiO2 
 PCOD9233298
Probable space group: P 2/C
;
_chemical_formula_sum "Si O2"
_cell_formula_units_Z 20
_cell_length_a 8.637976
_cell_length_b 7.867652
_cell_length_c 17.982734
_cell_angle_alpha 90.000000
_cell_angle_beta 44.453789
_cell_angle_gamma 90.000000
_cell_volume 855.889951
_symmetry_space_group_name_H-M "P 2/C"
_symmetry_group_IT_number 13
_symmetry_cell_setting 'monoclinic'
loop_
_space_group_symop_operation_xyz
x,y,z
-x,y,1/2-z
-x,-y,-z
x,-y,1/2+z
loop_
_atom_site_type_symbol
_atom_site_label
_atom_site_fract_x
_atom_site_fract_y
_atom_site_fract_z
Si Si1 0.901013 0.323868 0.921509
Si Si2 0.414525 0.568142 0.860831
Si Si3 0.237187 0.019429 0.628375
Si Si4 0.402599 0.793951 0.211484
Si Si5 0.764375 0.354767 0.369686
O O1 0.784070 0.157354 0.928691
O O2 0.796681 0.485449 0.913101
O O3 0.160366 0.292269 0.813224
O O4 0.821661 0.357084 0.032978
O O5 0.500000 0.620979 0.750000
O O6 0.431188 0.363551 0.857014
O O7 0.587527 0.619588 0.865262
O O8 0.383039 0.088109 0.646723
O O9 0.000000 0.014092 0.750000
O O10 0.283278 0.831945 0.582269
O O11 0.500000 0.888711 0.250000
O O12 0.000000 0.345975 0.250000
#
# Coordination Sequence:
#
# PCOD9233298 Si02
#       5
#     4   4   4   4   4
#     4  11  21  43  65  89 128 163 211 258 309 372
#     4  11  24  39  62  95 124 167 207 256 316 367
#     4   9  20  37  67  93 122 164 209 254 308 371
#     4  10  21  40  64  94 127 168 203 256 318 369
#     4  11  20  40  68  92 124 164 211 258 307 371
#
# _framework density 23.367488999999999
#
# number of rings (size 3 to 8) (size 9 to 14) (size 15 to 20)
#    0.000    1.600    4.000    1.200    0.000    4.800 
#    0.000    0.000    0.000    4.800    0.000    0.000 
#    0.000    0.000    0.000    0.000    0.000    0.000 
#
# Total GULP energy -111713.506356 kJ/mol
# GULP energy per Si atom -5585.675318 kJ/mol
# Density = 2.331430 g / cm^3
# Si number density = 23.367489 Si / 1000 Ang^3
#
#
#
# Elastic Constant Matrix: (Units=GPa)
#
#
# Indices 1 2 3 4 5 6 
#
# 1 83.8185 28.2093 11.5629 0.0000 -0.9771 0.0000
# 2 28.2093 138.0425 19.1767 0.0000 17.9722 0.0000
# 3 11.5629 19.1767 108.9032 0.0000 -5.1805 0.0000
# 4 0.0000 0.0000 0.0000 -9.0488 0.0000 -17.6455
# 5 -0.9771 17.9722 -5.1805 0.0000 29.6581 0.0000
# 6 0.0000 0.0000 0.0000 -17.6455 0.0000 24.2802
#
#
#
# Elastic Compliance Matrix: (Units=1/GPa)
#
#
# Indices 1 2 3 4 5 6 
#
# 1 0.013008 -0.002807 -0.000792 0.000000 0.001991 0.000000
# 2 -0.002807 0.008766 -0.001515 0.000000 -0.005669 0.000000
# 3 -0.000792 -0.001515 0.009656 0.000000 0.002579 0.000000
# 4 0.000000 0.000000 0.000000 -0.045719 0.000000 -0.033226
# 5 0.001991 -0.005669 0.002579 0.000000 0.037669 0.000000
# 6 0.000000 0.000000 0.000000 -0.033226 0.000000 0.017039
#
#
# Mechanical properties :
#
#
# Convention : Reuss Voigt Hill
#
# Bulk Modulus (GPa) = 47.16786 49.85135 48.50961
# Shear Modulus (GPa) = 86.63164 27.09891 56.86528
#
# Velocity S-wave (km/s) = 6.09541 3.40911 4.93842
# Velocity P-wave (km/s) = 8.35271 6.07256 7.30218
#
# Compressibility (1/GPa) = 0.02120088
#
# Stress axis : x y z
#
# Youngs Moduli (GPa) = 76.87659 114.07079 103.56185
#
# Poissons Ratio (x) = 0.32025 0.08202
# Poissons Ratio (y) = 0.21583 0.15693
# Poissons Ratio (z) = 0.06089 0.17285
#
# Static dielectric constant tensor:
#      x y z
#    x 1.923890 0.000000 -0.029980 
#    y 0.000000 1.901870 0.000000 
#    z -0.029980 0.000000 1.957640 
# 
# From -- ./inp_files/59452.got.cif
#   From: 2010.05.17/outbox.cif.g08.bks.cpg/sg13_30_cif.got.tgz:59452.got - 2010.06.03 16:44:36.
