data_PCOD9233706
_publ_section_title
;
Structure prediction by ZEFSAII (Michael W. Deem and Ramdas Pophale) SiO2 
 PCOD9233706
Probable space group: P 2/C
;
_chemical_formula_sum "Si O2"
_cell_formula_units_Z 28
_cell_length_a 8.935435
_cell_length_b 14.427846
_cell_length_c 10.873996
_cell_angle_alpha 90.000000
_cell_angle_beta 64.269776
_cell_angle_gamma 90.000000
_cell_volume 1262.867980
_symmetry_space_group_name_H-M "P 2/C"
_symmetry_group_IT_number 13
_symmetry_cell_setting 'monoclinic'
loop_
_space_group_symop_operation_xyz
x,y,z
-x,y,1/2-z
-x,-y,-z
x,-y,1/2+z
loop_
_atom_site_type_symbol
_atom_site_label
_atom_site_fract_x
_atom_site_fract_y
_atom_site_fract_z
Si Si1 0.382435 0.621798 0.674906
Si Si2 0.528155 0.801347 0.496387
Si Si3 0.500000 0.892496 0.250000
Si Si4 0.930103 0.648395 0.554650
Si Si5 0.119187 0.838036 0.025994
Si Si6 0.846171 0.495185 0.395770
Si Si7 0.000000 0.980111 0.250000
Si Si8 0.700887 0.934010 0.765659
O O1 0.500000 0.601079 0.750000
O O2 0.469184 0.700299 0.561528
O O3 0.208393 0.663182 0.790513
O O4 0.316961 0.533643 0.620973
O O5 0.472180 0.830248 0.380238
O O6 0.726673 0.811221 0.439885
O O7 0.445692 0.874949 0.621064
O O8 0.359605 0.966984 0.262346
O O9 0.974238 0.744710 0.477224
O O10 0.838422 0.580717 0.490580
O O11 0.087707 0.593356 0.550563
O O12 0.004962 0.913165 0.131253
O O13 0.206519 0.879427 0.874566
O O14 0.000000 0.516045 0.250000
O O15 0.838578 0.043135 0.317744
#
# Coordination Sequence:
#
# PCOD9233706 Si02
#       8
#     4   4   2   4   4   4   2   4
#     4  11  21  41  70  99 130 169 223 270 326 399
#     4  12  23  44  68  95 132 179 223 279 338 397
#     4  12  24  40  68  90 134 180 224 272 340 398
#     4  10  21  42  67  94 132 175 217 267 335 396
#     4  12  23  43  67  96 135 175 219 279 333 398
#     4   9  22  41  67 100 132 174 217 270 337 404
#     4  12  28  38  60 104 136 164 230 276 330 392
#     4  12  23  44  68  94 128 181 223 278 330 395
#
# _framework density 22.171755000000001
#
# number of rings (size 3 to 8) (size 9 to 14) (size 15 to 20)
#    0.000    0.857    5.714    1.714    1.000    2.857 
#    0.000    0.000    0.000    0.000    0.000    0.000 
#    0.000    0.000    0.000    0.000    0.000    0.000 
#
# Total GULP energy -156584.137153 kJ/mol
# GULP energy per Si atom -5592.290613 kJ/mol
# Density = 2.212129 g / cm^3
# Si number density = 22.171755 Si / 1000 Ang^3
#
#
#
# Elastic Constant Matrix: (Units=GPa)
#
#
# Indices 1 2 3 4 5 6 
#
# 1 63.2881 25.2556 11.4386 0.0000 6.8484 0.0000
# 2 25.2556 49.4653 29.0951 0.0000 8.0187 0.0000
# 3 11.4386 29.0951 82.7856 0.0000 18.8755 0.0000
# 4 0.0000 0.0000 0.0000 17.2853 0.0000 0.6196
# 5 6.8484 8.0187 18.8755 0.0000 35.0617 0.0000
# 6 0.0000 0.0000 0.0000 0.6196 0.0000 21.6784
#
#
#
# Elastic Compliance Matrix: (Units=1/GPa)
#
#
# Indices 1 2 3 4 5 6 
#
# 1 0.020073 -0.010782 0.001536 0.000000 -0.002282 0.000000
# 2 -0.010782 0.031317 -0.009534 0.000000 0.000076 0.000000
# 3 0.001536 -0.009534 0.016858 0.000000 -0.007195 0.000000
# 4 0.000000 0.000000 0.000000 0.057912 0.000000 -0.001655
# 5 -0.002282 0.000076 -0.007195 0.000000 0.032823 0.000000
# 6 0.000000 0.000000 0.000000 -0.001655 0.000000 0.046176
#
#
# Mechanical properties :
#
#
# Convention : Reuss Voigt Hill
#
# Bulk Modulus (GPa) = 32.58608 36.34639 34.46624
# Shear Modulus (GPa) = 19.76690 23.45508 21.61099
#
# Velocity S-wave (km/s) = 2.98910 3.25604 3.12542
# Velocity P-wave (km/s) = 5.16159 5.52851 5.34819
#
# Compressibility (1/GPa) = 0.03068795
#
# Stress axis : x y z
#
# Youngs Moduli (GPa) = 49.81874 31.93185 59.31756
#
# Poissons Ratio (x) = 0.34430 -0.09113
# Poissons Ratio (y) = 0.53716 0.56553
# Poissons Ratio (z) = -0.07653 0.30444
#
# Static dielectric constant tensor:
#      x y z
#    x 1.854830 0.000000 0.023280 
#    y 0.000000 1.789510 0.000000 
#    z 0.023280 0.000000 1.802890 
# 
# From -- ./inp_files/30336.got.cif
#   From: 2010.05.17/outbox.cif.g08.bks.cpg/sg13_16_cif.got.tgz:30336.got - 2010.06.03 16:44:36.
