data_PCOD9233703
_publ_section_title
;
Structure prediction by ZEFSAII (Michael W. Deem and Ramdas Pophale) SiO2 
 PCOD9233703
Probable space group: P 2/C
;
_chemical_formula_sum "Si O2"
_cell_formula_units_Z 16
_cell_length_a 9.160422
_cell_length_b 17.719218
_cell_length_c 5.284382
_cell_angle_alpha 90.000000
_cell_angle_beta 121.211722
_cell_angle_gamma 90.000000
_cell_volume 733.586811
_symmetry_space_group_name_H-M "P 2/C"
_symmetry_group_IT_number 13
_symmetry_cell_setting 'monoclinic'
loop_
_space_group_symop_operation_xyz
x,y,z
-x,y,1/2-z
-x,-y,-z
x,-y,1/2+z
loop_
_atom_site_type_symbol
_atom_site_label
_atom_site_fract_x
_atom_site_fract_y
_atom_site_fract_z
Si Si1 0.387340 0.328707 0.897031
Si Si2 0.075055 0.584760 0.068906
Si Si3 0.293746 0.043161 0.577900
Si Si4 0.887223 0.195757 0.901604
O O1 0.500000 0.318961 0.750000
O O2 0.276250 0.405375 0.765452
O O3 0.250939 0.260895 0.779757
O O4 0.500000 0.330233 0.250000
O O5 0.000000 0.622659 0.250000
O O6 0.000000 0.620153 0.750000
O O7 0.000000 0.500000 0.000000
O O8 0.500000 0.049692 0.750000
O O9 0.212481 0.120340 0.602252
O O10 0.244002 0.018106 0.249264
O O11 0.000000 0.183883 0.750000
O O12 0.000000 0.214924 0.250000
#
# Coordination Sequence:
#
# PCOD9233703 Si02
#       4
#     4   4   4   4
#     4  12  25  43  67  96 129 168 218 266 316 381
#     4  10  21  42  67  93 129 167 202 255 319 379
#     4  10  22  40  62  90 128 169 212 267 325 379
#     4  12  25  41  65  94 128 172 217 267 324 380
#
# _framework density 21.810645000000001
#
# number of rings (size 3 to 8) (size 9 to 14) (size 15 to 20)
#    0.000    1.000    0.000    6.750    0.000    6.000 
#    0.000   15.000    0.000    0.000    0.000    0.000 
#    0.000    0.000    0.000    0.000    0.000    0.000 
#
# Total GULP energy -89427.239859 kJ/mol
# GULP energy per Si atom -5589.202491 kJ/mol
# Density = 2.176100 g / cm^3
# Si number density = 21.810645 Si / 1000 Ang^3
#
#
#
# Elastic Constant Matrix: (Units=GPa)
#
#
# Indices 1 2 3 4 5 6 
#
# 1 176.0343 64.3782 80.5574 0.0000 -31.1908 0.0000
# 2 64.3782 126.2501 34.1866 0.0000 8.1772 0.0000
# 3 80.5574 34.1866 209.7610 0.0000 -22.2619 0.0000
# 4 0.0000 0.0000 0.0000 -237.4516 0.0000 290.0226
# 5 -31.1908 8.1772 -22.2619 0.0000 47.0086 0.0000
# 6 0.0000 0.0000 0.0000 290.0226 0.0000 -264.9110
#
#
#
# Elastic Compliance Matrix: (Units=1/GPa)
#
#
# Indices 1 2 3 4 5 6 
#
# 1 0.009456 -0.004604 -0.002243 0.000000 0.006013 0.000000
# 2 -0.004604 0.010748 -0.000533 0.000000 -0.005177 0.000000
# 3 -0.002243 -0.000533 0.005862 0.000000 0.001380 0.000000
# 4 0.000000 0.000000 0.000000 0.012490 0.000000 0.013674
# 5 0.006013 -0.005177 0.001380 0.000000 0.026817 0.000000
# 6 0.000000 0.000000 0.000000 0.013674 0.000000 0.011195
#
#
# Mechanical properties :
#
#
# Convention : Reuss Voigt Hill
#
# Bulk Modulus (GPa) = 88.44624 96.69886 92.57255
# Shear Modulus (GPa) = 52.57704 -68.87592 -8.14944
#
# Velocity S-wave (km/s) = 4.91513 -5.62562 -1.93509
# Velocity P-wave (km/s) = 8.53529 1.49502 6.12725
#
# Compressibility (1/GPa) = 0.01130630
#
# Stress axis : x y z
#
# Youngs Moduli (GPa) = 105.74772 93.03894 170.58524
#
# Poissons Ratio (x) = 0.42837 0.38265
# Poissons Ratio (y) = 0.48688 0.09092
# Poissons Ratio (z) = 0.23721 0.04959
#
# Static dielectric constant tensor:
#      x y z
#    x 1.777500 0.000000 -0.008230 
#    y 0.000000 1.618200 0.000000 
#    z -0.008230 0.000000 1.788680 
# 
# From -- ./inp_files/1676.got.cif
#   From: 2010.05.17/outbox.cif.g08.bks.cpg/sg13_1_cif.got.tgz:1676.got - 2010.06.03 16:44:36.
