data_PCOD9233827
_publ_section_title
;
Structure prediction by ZEFSAII (Michael W. Deem and Ramdas Pophale) SiO2 
 PCOD9233827
Probable space group: P 2/C
;
_chemical_formula_sum "Si O2"
_cell_formula_units_Z 32
_cell_length_a 11.482984
_cell_length_b 10.504606
_cell_length_c 11.859094
_cell_angle_alpha 90.000000
_cell_angle_beta 90.544260
_cell_angle_gamma 90.000000
_cell_volume 1430.429456
_symmetry_space_group_name_H-M "P 2/C"
_symmetry_group_IT_number 13
_symmetry_cell_setting 'monoclinic'
loop_
_space_group_symop_operation_xyz
x,y,z
-x,y,1/2-z
-x,-y,-z
x,-y,1/2+z
loop_
_atom_site_type_symbol
_atom_site_label
_atom_site_fract_x
_atom_site_fract_y
_atom_site_fract_z
Si Si1 0.213568 0.997686 0.489382
Si Si2 0.031261 0.635525 0.870269
Si Si3 0.627491 0.388469 0.272521
Si Si4 0.440639 0.330333 0.638699
Si Si5 0.021496 0.894437 0.129617
Si Si6 0.901784 0.639235 0.092249
Si Si7 0.670610 0.732017 0.005544
Si Si8 0.266703 0.740202 0.942232
O O1 0.152635 0.069565 0.594932
O O2 0.273784 0.109132 0.417695
O O3 0.304180 0.883048 0.504631
O O4 0.091773 0.940930 0.441491
O O5 0.080428 0.494781 0.848944
O O6 0.129356 0.713647 0.936287
O O7 0.000000 0.694731 0.750000
O O8 0.928135 0.620852 0.958753
O O9 0.500000 0.330958 0.250000
O O10 0.603940 0.534101 0.311590
O O11 0.685761 0.322300 0.380014
O O12 0.688642 0.355194 0.155119
O O13 0.500000 0.264166 0.750000
O O14 0.548162 0.321981 0.550745
O O15 0.333587 0.282843 0.560334
O O16 0.000000 0.954974 0.250000
O O17 0.992868 0.744426 0.133715
O O18 0.769221 0.684512 0.093776
#
# Coordination Sequence:
#
# PCOD9233827 Si02
#       8
#     4   4   4   4   4   4   4   4
#     4  10  25  42  68 100 139 191 234 293 346 427
#     4  11  23  39  65 103 142 179 226 294 359 420
#     4  11  24  43  73 101 134 186 229 302 361 421
#     4  11  27  46  73 103 138 186 241 297 364 422
#     4  10  21  43  66  95 140 189 239 280 347 426
#     4  10  22  40  63 100 139 178 231 288 352 421
#     4  11  23  47  68 102 139 185 245 289 355 436
#     4  12  25  46  69 107 147 186 240 297 362 435
#
# _framework density 22.370903999999999
#
# number of rings (size 3 to 8) (size 9 to 14) (size 15 to 20)
#    0.000    1.250    2.500    2.250    7.000    4.000 
#    0.000    0.000    0.000    0.000    0.000    0.000 
#    0.000    0.000    0.000    0.000    0.000    0.000 
#
# Total GULP energy -178244.705557 kJ/mol
# GULP energy per Si atom -5570.147049 kJ/mol
# Density = 2.231999 g / cm^3
# Si number density = 22.370904 Si / 1000 Ang^3
#
#
#
# Elastic Constant Matrix: (Units=GPa)
#
#
# Indices 1 2 3 4 5 6 
#
# 1 81.4885 25.2777 24.4801 0.0000 7.6125 0.0000
# 2 25.2777 111.6710 9.7790 0.0000 -1.0853 0.0000
# 3 24.4801 9.7790 88.5876 0.0000 15.2494 0.0000
# 4 0.0000 0.0000 0.0000 25.2443 0.0000 9.1205
# 5 7.6125 -1.0853 15.2494 0.0000 21.0006 0.0000
# 6 0.0000 0.0000 0.0000 9.1205 0.0000 25.5636
#
#
#
# Elastic Compliance Matrix: (Units=1/GPa)
#
#
# Indices 1 2 3 4 5 6 
#
# 1 0.014439 -0.003026 -0.003118 0.000000 -0.003126 0.000000
# 2 -0.003026 0.009711 -0.000584 0.000000 0.002023 0.000000
# 3 -0.003118 -0.000584 0.013743 0.000000 -0.008879 0.000000
# 4 0.000000 0.000000 0.000000 0.045475 0.000000 -0.016224
# 5 -0.003126 0.002023 -0.008879 0.000000 0.055303 0.000000
# 6 0.000000 0.000000 0.000000 -0.016224 0.000000 0.044907
#
#
# Mechanical properties :
#
#
# Convention : Reuss Voigt Hill
#
# Bulk Modulus (GPa) = 40.92133 44.53562 42.72847
# Shear Modulus (GPa) = 24.36915 29.17570 26.77243
#
# Velocity S-wave (km/s) = 3.30407 3.61526 3.46316
# Velocity P-wave (km/s) = 5.73479 6.11374 5.92729
#
# Compressibility (1/GPa) = 0.02443714
#
# Stress axis : x y z
#
# Youngs Moduli (GPa) = 69.25709 102.98050 72.76557
#
# Poissons Ratio (x) = 0.31159 0.22687
# Poissons Ratio (y) = 0.20955 0.04249
# Poissons Ratio (z) = 0.21593 0.06014
#
# Static dielectric constant tensor:
#      x y z
#    x 1.898020 0.000000 -0.053040 
#    y 0.000000 1.863920 0.000000 
#    z -0.053040 0.000000 1.925100 
# 
# From -- ./inp_files/33870.got.cif
#   From: 2010.05.17/outbox.cif.g08.bks.cpg/sg13_17_cif.got.tgz:33870.got - 2010.06.03 16:44:36.
