data_PCOD9233785
_publ_section_title
;
Structure prediction by ZEFSAII (Michael W. Deem and Ramdas Pophale) SiO2 
 PCOD9233785
Probable space group: P 2/C
;
_chemical_formula_sum "Si O2"
_cell_formula_units_Z 26
_cell_length_a 14.792944
_cell_length_b 17.558438
_cell_length_c 5.312029
_cell_angle_alpha 90.000000
_cell_angle_beta 119.664300
_cell_angle_gamma 90.000000
_cell_volume 1198.921497
_symmetry_space_group_name_H-M "P 2/C"
_symmetry_group_IT_number 13
_symmetry_cell_setting 'monoclinic'
loop_
_space_group_symop_operation_xyz
x,y,z
-x,y,1/2-z
-x,-y,-z
x,-y,1/2+z
loop_
_atom_site_type_symbol
_atom_site_label
_atom_site_fract_x
_atom_site_fract_y
_atom_site_fract_z
Si Si1 0.766193 0.048828 0.349632
Si Si2 0.500000 0.447046 0.250000
Si Si3 0.602538 0.665060 0.565814
Si Si4 0.000000 0.550074 0.250000
Si Si5 0.113480 0.810919 0.305783
Si Si6 0.000000 0.745754 0.750000
Si Si7 0.167230 0.664510 0.637354
Si Si8 0.434154 0.844162 0.910446
O O1 0.855302 0.109547 0.538379
O O2 0.663137 0.099786 0.232520
O O3 0.770136 0.986421 0.577142
O O4 0.500000 0.500000 0.500000
O O5 0.409042 0.387030 0.199997
O O6 0.716442 0.646067 0.608620
O O7 0.595047 0.754939 0.612883
O O8 0.500000 0.650179 0.250000
O O9 0.000000 0.500000 0.500000
O O10 0.105576 0.600583 0.397771
O O11 0.182526 0.740112 0.486345
O O12 0.000000 0.788923 0.250000
O O13 0.088265 0.804162 0.979032
O O14 0.079350 0.688657 0.717729
O O15 0.500000 0.855583 0.750000
O O16 0.500000 0.862178 0.250000
#
# Coordination Sequence:
#
# PCOD9233785 Si02
#       8
#     4   2   4   2   4   2   4   4
#     4  12  28  45  68 108 147 187 242 313 377 435
#     4  12  26  50  70 108 154 190 244 304 376 436
#     4  11  25  46  77 113 150 204 255 308 373 463
#     4  12  27  48  70 115 150 186 248 308 377 428
#     4  10  23  43  71 101 139 197 246 303 371 451
#     4  10  21  42  78 107 138 198 262 314 359 450
#     4  11  23  46  77 109 151 201 256 307 373 455
#     4  11  24  45  73 104 142 194 255 297 360 451
#
# _framework density 21.686157999999999
#
# number of rings (size 3 to 8) (size 9 to 14) (size 15 to 20)
#    0.000    0.923    5.385    1.385    4.308    7.385 
#    0.000    0.000    0.000    0.000    0.000    0.000 
#    0.000    0.000    0.000    0.000    0.000    0.000 
#
# Total GULP energy -144862.046919 kJ/mol
# GULP energy per Si atom -5571.617189 kJ/mol
# Density = 2.163680 g / cm^3
# Si number density = 21.686158 Si / 1000 Ang^3
#
#
#
# Elastic Constant Matrix: (Units=GPa)
#
#
# Indices 1 2 3 4 5 6 
#
# 1 79.1225 -3.7533 41.2201 0.0000 23.0973 0.0000
# 2 -3.7533 73.5743 25.3315 0.0000 8.9781 0.0000
# 3 41.2201 25.3315 103.9041 0.0000 11.9314 0.0000
# 4 0.0000 0.0000 0.0000 66.9731 0.0000 2.4410
# 5 23.0973 8.9781 11.9314 0.0000 39.1850 0.0000
# 6 0.0000 0.0000 0.0000 2.4410 0.0000 46.7112
#
#
#
# Elastic Compliance Matrix: (Units=1/GPa)
#
#
# Indices 1 2 3 4 5 6 
#
# 1 0.020150 0.005081 -0.008015 0.000000 -0.010601 0.000000
# 2 0.005081 0.016336 -0.005414 0.000000 -0.005089 0.000000
# 3 -0.008015 -0.005414 0.013926 0.000000 0.001725 0.000000
# 4 0.000000 0.000000 0.000000 0.014960 0.000000 -0.000782
# 5 -0.010601 -0.005089 0.001725 0.000000 0.032409 0.000000
# 6 0.000000 0.000000 0.000000 -0.000782 0.000000 0.021449
#
#
# Mechanical properties :
#
#
# Convention : Reuss Voigt Hill
#
# Bulk Modulus (GPa) = 29.65985 42.46641 36.06313
# Shear Modulus (GPa) = 33.97554 43.49402 38.73478
#
# Velocity S-wave (km/s) = 3.96244 4.48326 4.23087
# Velocity P-wave (km/s) = 5.88567 6.81354 6.36653
#
# Compressibility (1/GPa) = 0.03371561
#
# Stress axis : x y z
#
# Youngs Moduli (GPa) = 49.62814 61.21449 71.80885
#
# Poissons Ratio (x) = -0.31104 0.57556
# Poissons Ratio (y) = -0.25217 0.38877
# Poissons Ratio (z) = 0.39778 0.33142
#
# Static dielectric constant tensor:
#      x y z
#    x 1.447270 0.000000 0.680020 
#    y 0.000000 1.789950 0.000000 
#    z 0.680020 0.000000 0.493950 
# 
# From -- ./inp_files/5307.got.cif
#   From: 2010.05.17/outbox.cif.g08.bks.cpg/sg13_3_cif.got.tgz:5307.got - 2010.06.03 16:44:36.
