data_PCOD9233863
_publ_section_title
;
Structure prediction by ZEFSAII (Michael W. Deem and Ramdas Pophale) SiO2 
 PCOD9233863
Probable space group: P 2/C
;
_chemical_formula_sum "Si O2"
_cell_formula_units_Z 24
_cell_length_a 15.078997
_cell_length_b 6.228320
_cell_length_c 20.571902
_cell_angle_alpha 90.000000
_cell_angle_beta 147.667001
_cell_angle_gamma 90.000000
_cell_volume 1033.334558
_symmetry_space_group_name_H-M "P 2/C"
_symmetry_group_IT_number 13
_symmetry_cell_setting 'monoclinic'
loop_
_space_group_symop_operation_xyz
x,y,z
-x,y,1/2-z
-x,-y,-z
x,-y,1/2+z
loop_
_atom_site_type_symbol
_atom_site_label
_atom_site_fract_x
_atom_site_fract_y
_atom_site_fract_z
Si Si1 0.648828 0.636851 0.010223
Si Si2 0.065091 0.542439 0.648399
Si Si3 0.000000 0.564209 0.750000
Si Si4 0.610133 0.259180 0.624775
Si Si5 0.525320 0.961731 0.681579
Si Si6 0.787041 0.665525 0.894791
Si Si7 0.500000 0.662703 0.250000
O O1 0.839490 0.576588 0.133706
O O2 0.607725 0.784036 0.046900
O O3 0.541892 0.420425 0.953326
O O4 0.591803 0.766194 0.911733
O O5 0.034045 0.664667 0.698449
O O6 0.225372 0.396922 0.760457
O O7 0.112501 0.669358 0.611559
O O8 0.914962 0.388371 0.531418
O O9 0.611349 0.052068 0.670196
O O10 0.668610 0.872756 0.817808
O O11 0.440221 0.173425 0.657472
O O12 0.651741 0.473242 0.815792
#
# Coordination Sequence:
#
# PCOD9233863 Si02
#       7
#     4   4   2   4   4   4   2
#     4  10  22  43  67  96 137 172 224 284 336 406
#     4  10  22  45  66  99 139 180 221 281 345 405
#     4  10  24  40  74  94 132 190 220 274 352 404
#     4  10  21  43  69  96 130 180 223 274 351 400
#     4  12  23  40  71  97 129 180 231 280 335 415
#     4  11  25  45  67 100 143 174 226 289 344 402
#     4  12  26  42  66 100 130 186 226 280 348 402
#
# _framework density 23.225777999999998
#
# number of rings (size 3 to 8) (size 9 to 14) (size 15 to 20)
#    0.000    1.333    3.333    1.000    7.000    0.667 
#    0.000    0.833    0.000    0.000    0.000    0.000 
#    0.000    0.000    0.000    0.000    0.000    0.000 
#
# Total GULP energy -133915.864974 kJ/mol
# GULP energy per Si atom -5579.827707 kJ/mol
# Density = 2.317292 g / cm^3
# Si number density = 23.225778 Si / 1000 Ang^3
#
#
#
# Elastic Constant Matrix: (Units=GPa)
#
#
# Indices 1 2 3 4 5 6 
#
# 1 125.2540 13.3937 31.1353 0.0000 -19.4868 0.0000
# 2 13.3937 19.8705 11.9571 0.0000 10.5972 0.0000
# 3 31.1353 11.9571 125.3245 0.0000 6.2184 0.0000
# 4 0.0000 0.0000 0.0000 68.8060 0.0000 -49.0099
# 5 -19.4868 10.5972 6.2184 0.0000 50.1372 0.0000
# 6 0.0000 0.0000 0.0000 -49.0099 0.0000 48.1828
#
#
#
# Elastic Compliance Matrix: (Units=1/GPa)
#
#
# Indices 1 2 3 4 5 6 
#
# 1 0.010437 -0.009141 -0.002030 0.000000 0.006240 0.000000
# 2 -0.009141 0.067811 -0.003332 0.000000 -0.017472 0.000000
# 3 -0.002030 -0.003332 0.008860 0.000000 -0.001184 0.000000
# 4 0.000000 0.000000 0.000000 0.052757 0.000000 0.053662
# 5 0.006240 -0.017472 -0.001184 0.000000 0.026211 0.000000
# 6 0.000000 0.000000 0.000000 0.053662 0.000000 0.075338
#
#
# Mechanical properties :
#
#
# Convention : Reuss Voigt Hill
#
# Bulk Modulus (GPa) = 17.21142 42.60237 29.90690
# Shear Modulus (GPa) = 17.25406 47.68941 32.47173
#
# Velocity S-wave (km/s) = 2.72855 4.53625 3.74316
# Velocity P-wave (km/s) = 4.16572 6.76899 5.62016
#
# Compressibility (1/GPa) = 0.05810095
#
# Stress axis : x y z
#
# Youngs Moduli (GPa) = 95.81431 14.74696 112.86263
#
# Poissons Ratio (x) = 0.13481 0.22915
# Poissons Ratio (y) = 0.87586 0.37603
# Poissons Ratio (z) = 0.19454 0.04913
#
# Static dielectric constant tensor:
#      x y z
#    x 2.022350 0.000000 -0.054150 
#    y 0.000000 1.821150 0.000000 
#    z -0.054150 0.000000 1.844790 
# 
# From -- ./inp_files/87760.got.cif
#   From: 2010.05.17/outbox.cif.g08.bks.cpg/sg13_44_cif.got.tgz:87760.got - 2010.06.03 16:44:36.
