data_PCOD9233824
_publ_section_title
;
Structure prediction by ZEFSAII (Michael W. Deem and Ramdas Pophale) SiO2 
 PCOD9233824
Probable space group: P 2/C
;
_chemical_formula_sum "Si O2"
_cell_formula_units_Z 28
_cell_length_a 16.458436
_cell_length_b 8.762599
_cell_length_c 13.244830
_cell_angle_alpha 90.000000
_cell_angle_beta 135.012543
_cell_angle_gamma 90.000000
_cell_volume 1350.385594
_symmetry_space_group_name_H-M "P 2/C"
_symmetry_group_IT_number 13
_symmetry_cell_setting 'monoclinic'
loop_
_space_group_symop_operation_xyz
x,y,z
-x,y,1/2-z
-x,-y,-z
x,-y,1/2+z
loop_
_atom_site_type_symbol
_atom_site_label
_atom_site_fract_x
_atom_site_fract_y
_atom_site_fract_z
Si Si1 0.000000 0.561511 0.750000
Si Si2 0.452759 0.621775 0.594669
Si Si3 0.718125 0.163597 0.477780
Si Si4 0.565700 0.726554 0.491614
Si Si5 0.500000 0.051534 0.750000
Si Si6 0.913961 0.688154 0.019200
Si Si7 0.077294 0.956488 0.219647
Si Si8 0.838711 0.734469 0.749420
O O1 0.947327 0.450896 0.619635
O O2 0.897698 0.664736 0.703122
O O3 0.500000 0.635511 0.750000
O O4 0.672741 0.691265 0.000531
O O5 0.514115 0.721105 0.560406
O O6 0.455223 0.445425 0.566854
O O7 0.801696 0.223509 0.463649
O O8 0.798028 0.074636 0.625286
O O9 0.613167 0.056735 0.349300
O O10 0.511790 0.843742 0.361915
O O11 0.702679 0.750462 0.619468
O O12 0.019500 0.808160 0.119942
O O13 0.876349 0.631700 0.876709
O O14 0.000000 0.992440 0.250000
O O15 0.097649 0.105264 0.171361
#
# Coordination Sequence:
#
# PCOD9233824 Si02
#       8
#     2   4   4   4   2   4   4   4
#     4  12  24  44  68  96 138 170 228 278 336 410
#     4  11  23  45  66  92 136 183 223 274 338 396
#     4  11  22  42  71  94 136 178 216 281 336 399
#     4  11  26  42  66 100 137 175 230 278 329 408
#     4  12  24  42  68 104 138 178 230 276 332 404
#     4  11  24  45  69  98 132 174 225 277 337 406
#     4  10  21  43  66  93 133 169 218 277 333 394
#     4  12  24  41  68  99 130 175 221 281 338 393
#
# _framework density 20.734819000000002
#
# number of rings (size 3 to 8) (size 9 to 14) (size 15 to 20)
#    0.000    0.857    5.714    2.571    0.000    1.714 
#    0.000    0.000    0.000    0.000    0.000    0.000 
#    0.000    0.000    0.000    0.000    0.000    0.000 
#
# Total GULP energy -156282.368385 kJ/mol
# GULP energy per Si atom -5581.513157 kJ/mol
# Density = 2.068763 g / cm^3
# Si number density = 20.734819 Si / 1000 Ang^3
#
#
#
# Elastic Constant Matrix: (Units=GPa)
#
#
# Indices 1 2 3 4 5 6 
#
# 1 54.2746 12.6528 44.3350 0.0000 -1.4948 0.0000
# 2 12.6528 61.5843 15.4263 0.0000 6.5228 0.0000
# 3 44.3350 15.4263 100.9814 0.0000 6.9928 0.0000
# 4 0.0000 0.0000 0.0000 28.0772 0.0000 27.3869
# 5 -1.4948 6.5228 6.9928 0.0000 37.7812 0.0000
# 6 0.0000 0.0000 0.0000 27.3869 0.0000 48.1779
#
#
#
# Elastic Compliance Matrix: (Units=1/GPa)
#
#
# Indices 1 2 3 4 5 6 
#
# 1 0.029835 -0.003343 -0.012875 0.000000 0.004141 0.000000
# 2 -0.003343 0.017489 -0.000998 0.000000 -0.002967 0.000000
# 3 -0.012875 -0.000998 0.015936 0.000000 -0.003287 0.000000
# 4 0.000000 0.000000 0.000000 0.079943 0.000000 -0.045444
# 5 0.004141 -0.002967 -0.003287 0.000000 0.027753 0.000000
# 6 0.000000 0.000000 0.000000 -0.045444 0.000000 0.046589
#
#
# Mechanical properties :
#
#
# Convention : Reuss Voigt Hill
#
# Bulk Modulus (GPa) = 34.69005 40.18540 37.43772
# Shear Modulus (GPa) = 19.11412 32.43567 25.77489
#
# Velocity S-wave (km/s) = 3.03947 3.95943 3.52955
# Velocity P-wave (km/s) = 5.39300 6.35023 5.89109
#
# Compressibility (1/GPa) = 0.02882671
#
# Stress axis : x y z
#
# Youngs Moduli (GPa) = 33.51720 57.17831 62.75265
#
# Poissons Ratio (x) = 0.19117 0.80794
# Poissons Ratio (y) = 0.11206 0.06265
# Poissons Ratio (z) = 0.43153 0.05709
#
# Static dielectric constant tensor:
#      x y z
#    x 1.728710 0.000000 -0.112200 
#    y 0.000000 1.748470 0.000000 
#    z -0.112200 0.000000 1.458980 
# 
# From -- ./inp_files/55345.got.cif
#   From: 2010.05.17/outbox.cif.g08.bks.cpg/sg13_28_cif.got.tgz:55345.got - 2010.06.03 16:44:36.
