data_PCOD9233503
_publ_section_title
;
Structure prediction by ZEFSAII (Michael W. Deem and Ramdas Pophale) SiO2 
 PCOD9233503
Probable space group: P 2/C
;
_chemical_formula_sum "Si O2"
_cell_formula_units_Z 30
_cell_length_a 14.955842
_cell_length_b 13.240140
_cell_length_c 25.833457
_cell_angle_alpha 90.000000
_cell_angle_beta 18.098180
_cell_angle_gamma 90.000000
_cell_volume 1589.103078
_symmetry_space_group_name_H-M "P 2/C"
_symmetry_group_IT_number 13
_symmetry_cell_setting 'monoclinic'
loop_
_space_group_symop_operation_xyz
x,y,z
-x,y,1/2-z
-x,-y,-z
x,-y,1/2+z
loop_
_atom_site_type_symbol
_atom_site_label
_atom_site_fract_x
_atom_site_fract_y
_atom_site_fract_z
Si Si1 0.923635 0.305869 0.650331
Si Si2 0.000000 0.270963 0.250000
Si Si3 0.907137 0.100330 0.485919
Si Si4 0.256471 0.896455 0.304971
Si Si5 0.463431 0.591854 0.889170
Si Si6 0.459790 0.601030 0.212749
Si Si7 0.991718 0.717907 0.637196
Si Si8 0.529532 0.568438 0.033400
O O1 0.819921 0.192309 0.693972
O O2 0.848814 0.362622 0.637976
O O3 0.739711 0.374382 0.792091
O O4 0.247795 0.320402 0.490824
O O5 0.016710 0.232091 0.300505
O O6 0.727116 0.341587 0.406402
O O7 0.856198 0.125311 0.574533
O O8 0.598457 0.089959 0.626481
O O9 0.060266 0.193710 0.374841
O O10 0.094597 0.999146 0.378551
O O11 0.523439 0.517940 0.807933
O O12 0.745362 0.634826 0.762472
O O13 0.333369 0.509225 0.000630
O O14 0.500000 0.625175 0.250000
O O15 0.703148 0.664733 0.046497
O O16 0.500000 0.500000 0.000000
#
# Coordination Sequence:
#
# PCOD9233503 Si02
#       8
#     4   2   4   4   4   4   4   4
#     4  11  22  38  60  89 123 162 201 254 312 358
#     4  12  20  36  64  84 116 168 200 248 298 354
#     4  10  22  40  65  91 116 155 204 258 311 371
#     4  10  21  41  65  89 119 155 201 257 315 366
#     4  11  24  36  55  92 123 161 205 251 298 362
#     4  11  22  39  57  82 124 167 201 243 306 371
#     4  12  23  39  60  90 121 159 208 251 306 365
#     4  11  20  37  60  87 125 162 208 249 294 362
#
# _framework density 18.878572999999999
#
# number of rings (size 3 to 8) (size 9 to 14) (size 15 to 20)
#    0.000    1.067    5.333    3.200    1.867    3.200 
#    0.000    0.000    0.000    4.800    0.000    0.000 
#    0.000    0.000    0.000    0.000    0.000    0.000 
#
# Total GULP energy -167037.625143 kJ/mol
# GULP energy per Si atom -5567.920838 kJ/mol
# Density = 1.883560 g / cm^3
# Si number density = 18.878573 Si / 1000 Ang^3
#
#
#
# Elastic Constant Matrix: (Units=GPa)
#
#
# Indices 1 2 3 4 5 6 
#
# 1 80.7785 26.0477 20.0544 0.0000 7.7456 0.0000
# 2 26.0477 87.2023 11.6746 0.0000 1.9081 0.0000
# 3 20.0544 11.6746 32.4990 0.0000 -7.1067 0.0000
# 4 0.0000 0.0000 0.0000 26.9722 0.0000 -4.2366
# 5 7.7456 1.9081 -7.1067 0.0000 26.0144 0.0000
# 6 0.0000 0.0000 0.0000 -4.2366 0.0000 38.4736
#
#
#
# Elastic Compliance Matrix: (Units=1/GPa)
#
#
# Indices 1 2 3 4 5 6 
#
# 1 0.016943 -0.003428 -0.010924 0.000000 -0.007777 0.000000
# 2 -0.003428 0.012860 -0.002645 0.000000 -0.000645 0.000000
# 3 -0.010924 -0.002645 0.041707 0.000000 0.014840 0.000000
# 4 0.000000 0.000000 0.000000 0.037728 0.000000 0.004154
# 5 -0.007777 -0.000645 0.014840 0.000000 0.044857 0.000000
# 6 0.000000 0.000000 0.000000 0.004154 0.000000 0.026449
#
#
# Mechanical properties :
#
#
# Convention : Reuss Voigt Hill
#
# Bulk Modulus (GPa) = 26.65671 35.11480 30.88575
# Shear Modulus (GPa) = 22.02215 27.80557 24.91386
#
# Velocity S-wave (km/s) = 3.41913 3.84195 3.63669
# Velocity P-wave (km/s) = 5.45326 6.19044 5.83351
#
# Compressibility (1/GPa) = 0.03751401
#
# Stress axis : x y z
#
# Youngs Moduli (GPa) = 59.02196 77.76132 23.97692
#
# Poissons Ratio (x) = 0.26658 0.26193
# Poissons Ratio (y) = 0.20234 0.06343
# Poissons Ratio (z) = 0.64477 0.20570
#
# Static dielectric constant tensor:
#      x y z
#    x 1.676440 0.000000 -0.048320 
#    y 0.000000 1.656570 0.000000 
#    z -0.048320 0.000000 1.628800 
# 
# From -- ./inp_files/92936.got.cif
#   From: 2010.05.17/outbox.cif.g08.bks.cpg/sg13_47_cif.got.tgz:92936.got - 2010.06.03 16:44:36.
