data_PCOD9233263
_publ_section_title
;
Structure prediction by ZEFSAII (Michael W. Deem and Ramdas Pophale) SiO2 
 PCOD9233263
Probable space group: P 2/C
;
_chemical_formula_sum "Si O2"
_cell_formula_units_Z 24
_cell_length_a 20.816859
_cell_length_b 11.944980
_cell_length_c 20.098278
_cell_angle_alpha 90.000000
_cell_angle_beta 166.272211
_cell_angle_gamma 90.000000
_cell_volume 1185.971595
_symmetry_space_group_name_H-M "P 2/C"
_symmetry_group_IT_number 13
_symmetry_cell_setting 'monoclinic'
loop_
_space_group_symop_operation_xyz
x,y,z
-x,y,1/2-z
-x,-y,-z
x,-y,1/2+z
loop_
_atom_site_type_symbol
_atom_site_label
_atom_site_fract_x
_atom_site_fract_y
_atom_site_fract_z
Si Si1 0.373070 0.296798 0.490746
Si Si2 0.747583 0.084993 0.046877
Si Si3 0.053491 0.653230 0.444145
Si Si4 0.245469 0.166504 0.947303
Si Si5 0.110187 0.418765 0.434862
Si Si6 0.559527 0.628761 0.039716
O O1 0.276009 0.176680 0.419382
O O2 0.503184 0.299121 0.548832
O O3 0.103549 0.370539 0.227080
O O4 0.602816 0.358233 0.766615
O O5 0.000000 0.095943 0.250000
O O6 0.705340 0.958432 0.031262
O O7 0.500000 0.109344 0.750000
O O8 0.881702 0.746956 0.232522
O O9 0.109962 0.550287 0.450848
O O10 0.348186 0.674600 0.771911
O O11 0.858359 0.626872 0.310008
O O12 0.000000 0.147876 0.750000
O O13 0.500000 0.202718 0.250000
O O14 0.000000 0.398024 0.250000
O O15 0.500000 0.500000 0.000000
#
# Coordination Sequence:
#
# PCOD9233263 Si02
#       6
#     4   4   4   4   4   4
#     4  12  23  38  59  87 120 160 205 244 307 367
#     4  10  21  40  63  89 122 159 202 258 320 370
#     4  12  23  40  61  88 120 160 209 245 307 370
#     4  10  22  41  65  91 123 160 202 260 321 368
#     4  12  23  35  58  88 119 149 196 260 307 364
#     4  12  23  41  59  84 125 171 203 244 303 370
#
# _framework density 20.236574000000001
#
# number of rings (size 3 to 8) (size 9 to 14) (size 15 to 20)
#    0.000    0.667    3.333    6.000    0.000    1.333 
#    0.000    1.667    0.000    0.000    0.000    0.000 
#    0.000    0.000    0.000    0.000    0.000    0.000 
#
# Total GULP energy -133979.369940 kJ/mol
# GULP energy per Si atom -5582.473748 kJ/mol
# Density = 2.019051 g / cm^3
# Si number density = 20.236574 Si / 1000 Ang^3
#
#
#
# Elastic Constant Matrix: (Units=GPa)
#
#
# Indices 1 2 3 4 5 6 
#
# 1 54.3772 35.6357 2.9601 0.0000 -5.7146 0.0000
# 2 35.6357 81.8850 -2.1401 0.0000 -18.2359 0.0000
# 3 2.9601 -2.1401 103.7040 0.0000 -1.2362 0.0000
# 4 0.0000 0.0000 0.0000 24.2622 0.0000 13.4174
# 5 -5.7146 -18.2359 -1.2362 0.0000 37.2620 0.0000
# 6 0.0000 0.0000 0.0000 13.4174 0.0000 -4.9881
#
#
#
# Elastic Compliance Matrix: (Units=1/GPa)
#
#
# Indices 1 2 3 4 5 6 
#
# 1 0.025930 -0.011709 -0.001003 0.000000 -0.001787 0.000000
# 2 -0.011709 0.019007 0.000816 0.000000 0.007533 0.000000
# 3 -0.001003 0.000816 0.009695 0.000000 0.000567 0.000000
# 4 0.000000 0.000000 0.000000 0.016569 0.000000 0.044569
# 5 -0.001787 0.007533 0.000567 0.000000 0.030269 0.000000
# 6 0.000000 0.000000 0.000000 0.044569 0.000000 -0.080593
#
#
# Mechanical properties :
#
#
# Convention : Reuss Voigt Hill
#
# Bulk Modulus (GPa) = 32.42450 34.76419 33.59434
# Shear Modulus (GPa) = 90.99466 24.87460 57.93463
#
# Velocity S-wave (km/s) = 6.71290 3.50978 5.35638
# Velocity P-wave (km/s) = 8.72591 5.80008 7.40886
#
# Compressibility (1/GPa) = 0.03084088
#
# Stress axis : x y z
#
# Youngs Moduli (GPa) = 38.56521 52.61273 103.14526
#
# Poissons Ratio (x) = 0.61603 0.10346
# Poissons Ratio (y) = 0.45155 -0.08419
# Poissons Ratio (z) = 0.03868 -0.04294
#
# Static dielectric constant tensor:
#      x y z
#    x 1.719880 0.000000 -0.006650 
#    y 0.000000 1.773140 0.000000 
#    z -0.006650 0.000000 1.709280 
# 
# From -- ./inp_files/89120.got.cif
#   From: 2010.05.17/outbox.cif.g08.bks.cpg/sg13_45_cif.got.tgz:89120.got - 2010.06.03 16:44:36.
