data_PCOD9233402
_publ_section_title
;
Structure prediction by ZEFSAII (Michael W. Deem and Ramdas Pophale) SiO2 
 PCOD9233402
Probable space group: P 2/C
;
_chemical_formula_sum "Si O2"
_cell_formula_units_Z 16
_cell_length_a 8.473314
_cell_length_b 7.561693
_cell_length_c 19.716007
_cell_angle_alpha 90.000000
_cell_angle_beta 148.343590
_cell_angle_gamma 90.000000
_cell_volume 662.987236
_symmetry_space_group_name_H-M "P 2/C"
_symmetry_group_IT_number 13
_symmetry_cell_setting 'monoclinic'
loop_
_space_group_symop_operation_xyz
x,y,z
-x,y,1/2-z
-x,-y,-z
x,-y,1/2+z
loop_
_atom_site_type_symbol
_atom_site_label
_atom_site_fract_x
_atom_site_fract_y
_atom_site_fract_z
Si Si1 0.237769 0.201303 0.782017
Si Si2 0.644779 0.500000 0.377841
Si Si3 0.762231 0.201303 0.217983
Si Si4 0.137858 0.000000 0.624073
O O1 0.331287 1.000000 0.337153
O O2 0.000000 0.267007 0.750000
O O3 0.074123 0.833828 0.649700
O O4 0.074123 0.166172 0.649700
O O5 0.500000 0.500000 0.250000
O O6 0.510134 0.669469 0.367413
O O7 0.510134 0.330531 0.367413
O O8 0.000000 0.500000 0.500000
O O9 0.000000 0.267007 0.250000
O O10 0.500000 1.000000 0.750000
O O11 0.000000 0.000000 0.500000
#
# Coordination Sequence:
#
# PCOD9233402 Si02
#       4
#     4   4   4   4
#     4   9  22  47  75 107 150 190 244 302 372 432
#     4  12  27  46  73 110 145 196 245 298 365 438
#     4   9  22  47  75 107 150 190 244 302 372 432
#     4  10  21  40  69 106 141 180 239 294 359 430
#
# _framework density 24.133196999999999
#
# number of rings (size 3 to 8) (size 9 to 14) (size 15 to 20)
#    1.500    0.500    0.000    2.250    0.000    9.000 
#    0.000   15.000    0.000    0.000    0.000    0.000 
#    0.000    0.000    0.000    0.000    0.000    0.000 
#
# Total GULP energy -89464.709682 kJ/mol
# GULP energy per Si atom -5591.544355 kJ/mol
# Density = 2.407827 g / cm^3
# Si number density = 24.133197 Si / 1000 Ang^3
#
#
#
# Elastic Constant Matrix: (Units=GPa)
#
#
# Indices 1 2 3 4 5 6 
#
# 1 245.4582 67.2888 115.6739 0.0000 27.4740 0.0000
# 2 67.2888 138.7341 55.9877 0.0000 40.1678 0.0000
# 3 115.6739 55.9877 181.1316 0.0000 10.3081 0.0000
# 4 0.0000 0.0000 0.0000 18.2813 0.0000 11.9978
# 5 27.4740 40.1678 10.3081 0.0000 44.2013 0.0000
# 6 0.0000 0.0000 0.0000 11.9978 0.0000 48.1973
#
#
#
# Elastic Compliance Matrix: (Units=1/GPa)
#
#
# Indices 1 2 3 4 5 6 
#
# 1 0.006271 -0.000962 -0.003583 0.000000 -0.002188 0.000000
# 2 -0.000962 0.011250 -0.002346 0.000000 -0.009078 0.000000
# 3 -0.003583 -0.002346 0.008398 0.000000 0.002401 0.000000
# 4 0.000000 0.000000 0.000000 0.065382 0.000000 -0.016276
# 5 -0.002188 -0.009078 0.002401 0.000000 0.031674 0.000000
# 6 0.000000 0.000000 0.000000 -0.016276 0.000000 0.024800
#
#
# Mechanical properties :
#
#
# Convention : Reuss Voigt Hill
#
# Bulk Modulus (GPa) = 82.40005 115.91388 99.15696
# Shear Modulus (GPa) = 30.19281 43.89420 37.04351
#
# Velocity S-wave (km/s) = 3.54091 4.26940 3.92211
# Velocity P-wave (km/s) = 7.13690 8.51110 7.85412
#
# Compressibility (1/GPa) = 0.01213591
#
# Stress axis : x y z
#
# Youngs Moduli (GPa) = 159.45958 88.88892 119.08194
#
# Poissons Ratio (x) = 0.08553 0.42666
# Poissons Ratio (y) = 0.15344 0.27939
# Poissons Ratio (z) = 0.57134 0.20855
#
# Static dielectric constant tensor:
#      x y z
#    x 1.942300 0.000000 -0.012910 
#    y 0.000000 2.024000 0.000000 
#    z -0.012910 0.000000 1.925150 
# 
# From -- ./inp_files/75471.got.cif
#   From: 2010.05.17/outbox.cif.g08.bks.cpg/sg13_38_cif.got.tgz:75471.got - 2010.06.03 16:44:36.
