data_PCOD9233265
_publ_section_title
;
Structure prediction by ZEFSAII (Michael W. Deem and Ramdas Pophale) SiO2 
 PCOD9233265
Probable space group: P 2/C
;
_chemical_formula_sum "Si O2"
_cell_formula_units_Z 24
_cell_length_a 8.906304
_cell_length_b 6.780814
_cell_length_c 22.510769
_cell_angle_alpha 90.000000
_cell_angle_beta 45.300487
_cell_angle_gamma 90.000000
_cell_volume 966.318799
_symmetry_space_group_name_H-M "P 2/C"
_symmetry_group_IT_number 13
_symmetry_cell_setting 'monoclinic'
loop_
_space_group_symop_operation_xyz
x,y,z
-x,y,1/2-z
-x,-y,-z
x,-y,1/2+z
loop_
_atom_site_type_symbol
_atom_site_label
_atom_site_fract_x
_atom_site_fract_y
_atom_site_fract_z
Si Si1 0.940901 0.691446 0.327642
Si Si2 0.797597 0.954454 0.924565
Si Si3 0.341350 0.336740 0.136485
Si Si4 0.162129 0.457644 0.870385
Si Si5 0.704119 0.845656 0.719339
Si Si6 0.723531 0.356614 0.537779
O O1 0.841272 0.486941 0.334371
O O2 0.000000 0.801257 0.250000
O O3 0.141945 0.645264 0.312481
O O4 0.781671 0.816866 0.412317
O O5 0.679581 0.834430 0.906051
O O6 0.055069 0.927435 0.851328
O O7 0.714900 0.853772 0.007560
O O8 0.320650 0.234247 0.206472
O O9 0.538044 0.486322 0.080495
O O10 0.289274 0.657224 0.826579
O O11 0.246130 0.328433 0.900539
O O12 0.929092 0.533153 0.953871
O O13 0.500000 0.961887 0.750000
#
# Coordination Sequence:
#
# PCOD9233265 Si02
#       6
#     4   4   4   4   4   4
#     4  12  23  40  66  91 126 165 205 257 309 366
#     4  11  25  41  62  95 130 159 208 258 313 368
#     4  12  21  40  67  92 124 164 209 256 314 364
#     4  10  21  40  63  89 126 164 207 252 309 366
#     4  11  20  40  67  89 118 169 210 256 306 362
#     4  10  22  40  63  93 124 167 206 254 311 376
#
# _framework density 24.836525000000002
#
# number of rings (size 3 to 8) (size 9 to 14) (size 15 to 20)
#    0.000    1.000    6.667    2.000    0.000    1.333 
#    0.000    4.167    0.000    0.000    0.000    0.000 
#    0.000    0.000    0.000    0.000    0.000    0.000 
#
# Total GULP energy -134169.026964 kJ/mol
# GULP energy per Si atom -5590.376124 kJ/mol
# Density = 2.478000 g / cm^3
# Si number density = 24.836525 Si / 1000 Ang^3
#
#
#
# Elastic Constant Matrix: (Units=GPa)
#
#
# Indices 1 2 3 4 5 6 
#
# 1 138.5347 9.3163 40.3650 0.0000 20.7227 0.0000
# 2 9.3163 50.2567 -3.7510 0.0000 9.6565 0.0000
# 3 40.3650 -3.7510 51.7040 0.0000 13.6225 0.0000
# 4 0.0000 0.0000 0.0000 25.6594 0.0000 -2.5989
# 5 20.7227 9.6565 13.6225 0.0000 54.1795 0.0000
# 6 0.0000 0.0000 0.0000 -2.5989 0.0000 14.5151
#
#
#
# Elastic Compliance Matrix: (Units=1/GPa)
#
#
# Indices 1 2 3 4 5 6 
#
# 1 0.009722 -0.002061 -0.007343 0.000000 -0.001505 0.000000
# 2 -0.002061 0.021382 0.004237 0.000000 -0.004088 0.000000
# 3 -0.007343 0.004237 0.026602 0.000000 -0.004635 0.000000
# 4 0.000000 0.000000 0.000000 0.039692 0.000000 0.007107
# 5 -0.001505 -0.004088 -0.004635 0.000000 0.020927 0.000000
# 6 0.000000 0.000000 0.000000 0.007107 0.000000 0.070166
#
#
# Mechanical properties :
#
#
# Convention : Reuss Voigt Hill
#
# Bulk Modulus (GPa) = 21.10934 36.92843 29.01889
# Shear Modulus (GPa) = 23.29773 31.84181 27.56977
#
# Velocity S-wave (km/s) = 3.06607 3.58446 3.33535
# Velocity P-wave (km/s) = 4.58826 5.65969 5.15190
#
# Compressibility (1/GPa) = 0.04737239
#
# Stress axis : x y z
#
# Youngs Moduli (GPa) = 102.86449 46.76908 37.59130
#
# Poissons Ratio (x) = 0.09639 0.27602
# Poissons Ratio (y) = 0.21200 -0.15928
# Poissons Ratio (z) = 0.75529 -0.19817
#
# Static dielectric constant tensor:
#      x y z
#    x 2.004410 0.000000 -0.025220 
#    y 0.000000 1.972270 0.000000 
#    z -0.025220 0.000000 2.058510 
# 
# From -- ./inp_files/75588.got.cif
#   From: 2010.05.17/outbox.cif.g08.bks.cpg/sg13_38_cif.got.tgz:75588.got - 2010.06.03 16:44:36.
