data_PCOD9233810
_publ_section_title
;
Structure prediction by ZEFSAII (Michael W. Deem and Ramdas Pophale) SiO2 
 PCOD9233810
Probable space group: P 2/C
;
_chemical_formula_sum "Si O2"
_cell_formula_units_Z 28
_cell_length_a 6.684913
_cell_length_b 7.623337
_cell_length_c 26.100334
_cell_angle_alpha 90.000000
_cell_angle_beta 99.735106
_cell_angle_gamma 90.000000
_cell_volume 1310.954623
_symmetry_space_group_name_H-M "P 2/C"
_symmetry_group_IT_number 13
_symmetry_cell_setting 'monoclinic'
loop_
_space_group_symop_operation_xyz
x,y,z
-x,y,1/2-z
-x,-y,-z
x,-y,1/2+z
loop_
_atom_site_type_symbol
_atom_site_label
_atom_site_fract_x
_atom_site_fract_y
_atom_site_fract_z
Si Si1 0.445198 0.501694 0.306167
Si Si2 0.867720 0.829509 0.193240
Si Si3 0.834113 0.670824 0.374942
Si Si4 0.669297 0.773819 0.473887
Si Si5 0.963470 0.648409 0.565861
Si Si6 0.313550 0.833832 0.867653
Si Si7 0.337372 0.164241 0.030816
O O1 0.500000 0.458848 0.250000
O O2 0.658842 0.567422 0.337893
O O3 0.371207 0.331382 0.334253
O O4 0.278300 0.659358 0.303733
O O5 0.034561 0.790361 0.156654
O O6 0.000000 0.865643 0.250000
O O7 0.735157 0.994491 0.167935
O O8 0.714294 0.757557 0.416606
O O9 0.991188 0.536237 0.407030
O O10 0.442318 0.754181 0.485101
O O11 0.800498 0.642912 0.513515
O O12 0.734892 0.972659 0.489765
O O13 0.164355 0.724043 0.548917
O O14 0.879464 0.775911 0.606565
O O15 0.490507 0.860610 0.917741
#
# Coordination Sequence:
#
# PCOD9233810 Si02
#       7
#     4   4   4   4   4   4   4
#     4  12  26  48  72 100 140 181 232 291 352 409
#     4  12  27  47  72 102 135 182 237 289 348 414
#     4  12  24  44  69  99 142 178 228 290 340 411
#     4  10  23  38  64 103 135 183 227 278 336 414
#     4  11  22  41  69  99 137 184 224 275 347 412
#     4  11  25  45  71 102 136 182 229 282 351 410
#     4  10  21  43  64  98 142 177 228 281 335 416
#
# _framework density 21.358481999999999
#
# number of rings (size 3 to 8) (size 9 to 14) (size 15 to 20)
#    0.000    0.857    4.286    2.571    0.000    6.286 
#    2.571    0.000    0.000    0.000    0.000    0.000 
#    0.000    0.000    0.000    0.000    0.000    0.000 
#
# Total GULP energy -156609.827682 kJ/mol
# GULP energy per Si atom -5593.208132 kJ/mol
# Density = 2.130987 g / cm^3
# Si number density = 21.358482 Si / 1000 Ang^3
#
#
#
# Elastic Constant Matrix: (Units=GPa)
#
#
# Indices 1 2 3 4 5 6 
#
# 1 63.6843 29.1840 28.7630 0.0000 -18.8200 0.0000
# 2 29.1840 84.6618 24.4641 0.0000 -7.5403 0.0000
# 3 28.7630 24.4641 94.8282 0.0000 -32.4144 0.0000
# 4 0.0000 0.0000 0.0000 39.8021 0.0000 -2.6648
# 5 -18.8200 -7.5403 -32.4144 0.0000 22.7472 0.0000
# 6 0.0000 0.0000 0.0000 -2.6648 0.0000 27.7751
#
#
#
# Elastic Compliance Matrix: (Units=1/GPa)
#
#
# Indices 1 2 3 4 5 6 
#
# 1 0.024022 -0.006872 0.000978 0.000000 0.018990 0.000000
# 2 -0.006872 0.014738 -0.003882 0.000000 -0.006332 0.000000
# 3 0.000978 -0.003882 0.021616 0.000000 0.030324 0.000000
# 4 0.000000 0.000000 0.000000 0.025287 0.000000 0.002426
# 5 0.018990 -0.006332 0.030324 0.000000 0.100786 0.000000
# 6 0.000000 0.000000 0.000000 0.002426 0.000000 0.036236
#
#
# Mechanical properties :
#
#
# Convention : Reuss Voigt Hill
#
# Bulk Modulus (GPa) = 24.49584 45.33293 34.91438
# Shear Modulus (GPa) = 19.54302 28.78244 24.16273
#
# Velocity S-wave (km/s) = 3.02818 3.67493 3.36712
# Velocity P-wave (km/s) = 4.87035 6.26719 5.61240
#
# Compressibility (1/GPa) = 0.04082327
#
# Stress axis : x y z
#
# Youngs Moduli (GPa) = 41.62863 67.84979 46.26208
#
# Poissons Ratio (x) = 0.46626 -0.04524
# Poissons Ratio (y) = 0.28607 0.17961
# Poissons Ratio (z) = -0.04071 0.26343
#
# Static dielectric constant tensor:
#      x y z
#    x 1.770790 0.000000 0.004280 
#    y 0.000000 1.784890 0.000000 
#    z 0.004280 0.000000 1.790630 
# 
# From -- ./inp_files/90281.got.cif
#   From: 2010.05.17/outbox.cif.g08.bks.cpg/sg13_46_cif.got.tgz:90281.got - 2010.06.03 16:44:36.
