data_PCOD9233545
_publ_section_title
;
Structure prediction by ZEFSAII (Michael W. Deem and Ramdas Pophale) SiO2 
 PCOD9233545
Probable space group: P 2/C
;
_chemical_formula_sum "Si O2"
_cell_formula_units_Z 24
_cell_length_a 24.170201
_cell_length_b 5.310767
_cell_length_c 17.551524
_cell_angle_alpha 90.000000
_cell_angle_beta 150.611764
_cell_angle_gamma 90.000000
_cell_volume 1105.580593
_symmetry_space_group_name_H-M "P 2/C"
_symmetry_group_IT_number 13
_symmetry_cell_setting 'monoclinic'
loop_
_space_group_symop_operation_xyz
x,y,z
-x,y,1/2-z
-x,-y,-z
x,-y,1/2+z
loop_
_atom_site_type_symbol
_atom_site_label
_atom_site_fract_x
_atom_site_fract_y
_atom_site_fract_z
Si Si1 0.763936 0.169856 0.320156
Si Si2 0.800939 0.766911 0.686460
Si Si3 0.616609 0.991940 0.352701
Si Si4 0.993531 0.018441 0.821922
Si Si5 0.202218 0.396005 0.937962
Si Si6 0.312038 0.673308 0.191874
O O1 0.785379 0.202573 0.256562
O O2 0.695173 0.416406 0.267414
O O3 0.888157 0.127240 0.506597
O O4 0.703904 0.908247 0.270835
O O5 0.698983 0.897637 0.518499
O O6 0.788702 0.487152 0.638082
O O7 0.921463 0.869051 0.799522
O O8 0.500000 0.069166 0.250000
O O9 0.599060 0.782469 0.264779
O O10 0.690979 0.223193 0.411004
O O11 0.910743 0.242147 0.697443
O O12 0.000000 0.868450 0.750000
O O13 0.211272 0.620900 0.009674
#
# Coordination Sequence:
#
# PCOD9233545 Si02
#       6
#     4   4   4   4   4   4
#     4  12  25  42  67  95 146 171 215 274 335 391
#     4  10  25  40  65 100 134 173 222 278 332 395
#     4  10  22  46  72  96 128 175 230 286 333 394
#     4  11  21  39  63  98 133 187 220 265 320 401
#     4  10  21  41  66  96 129 172 237 262 329 398
#     4  11  23  45  65  97 128 179 219 269 328 404
#
# _framework density 21.708051000000001
#
# number of rings (size 3 to 8) (size 9 to 14) (size 15 to 20)
#    0.000    1.333    3.333    2.500    7.000    4.000 
#    3.000    1.667    0.000    0.000    0.000    0.000 
#    0.000    0.000    0.000    0.000    0.000    0.000 
#
# Total GULP energy -133626.434201 kJ/mol
# GULP energy per Si atom -5567.768092 kJ/mol
# Density = 2.165864 g / cm^3
# Si number density = 21.708051 Si / 1000 Ang^3
#
#
#
# Elastic Constant Matrix: (Units=GPa)
#
#
# Indices 1 2 3 4 5 6 
#
# 1 116.5081 40.1748 10.3280 0.0000 -43.8888 0.0000
# 2 40.1748 101.9381 7.6007 0.0000 -0.9060 0.0000
# 3 10.3280 7.6007 8.3134 0.0000 -0.5002 0.0000
# 4 0.0000 0.0000 0.0000 320.8245 0.0000 42.4360
# 5 -43.8888 -0.9060 -0.5002 0.0000 41.1844 0.0000
# 6 0.0000 0.0000 0.0000 42.4360 0.0000 38.2443
#
#
#
# Elastic Compliance Matrix: (Units=1/GPa)
#
#
# Indices 1 2 3 4 5 6 
#
# 1 0.020598 -0.006562 -0.018292 0.000000 0.021584 0.000000
# 2 -0.006562 0.012619 -0.003791 0.000000 -0.006762 0.000000
# 3 -0.018292 -0.003791 0.145406 0.000000 -0.017810 0.000000
# 4 0.000000 0.000000 0.000000 0.003653 0.000000 -0.004054
# 5 0.021584 -0.006762 -0.017810 0.000000 0.046918 0.000000
# 6 0.000000 0.000000 0.000000 -0.004054 0.000000 0.030646
#
#
# Mechanical properties :
#
#
# Convention : Reuss Voigt Hill
#
# Bulk Modulus (GPa) = 8.24180 38.10743 23.17461
# Shear Modulus (GPa) = 13.98313 91.29437 52.63875
#
# Velocity S-wave (km/s) = 2.54075 6.49206 4.92962
# Velocity P-wave (km/s) = 3.52309 8.59002 6.56508
#
# Compressibility (1/GPa) = 0.12133279
#
# Stress axis : x y z
#
# Youngs Moduli (GPa) = 48.54774 79.24733 6.87730
#
# Poissons Ratio (x) = 0.52004 0.12580
# Poissons Ratio (y) = 0.31858 0.02607
# Poissons Ratio (z) = 0.88801 0.30044
#
# Static dielectric constant tensor:
#      x y z
#    x 1.879040 0.000000 0.022820 
#    y 0.000000 1.932880 0.000000 
#    z 0.022820 0.000000 1.756200 
# 
# From -- ./inp_files/70940.got.cif
#   From: 2010.05.17/outbox.cif.g08.bks.cpg/sg13_36_cif.got.tgz:70940.got - 2010.06.03 16:44:36.
