data_PCOD9233271
_publ_section_title
;
Structure prediction by ZEFSAII (Michael W. Deem and Ramdas Pophale) SiO2 
 PCOD9233271
Probable space group: P 2/C
;
_chemical_formula_sum "Si O2"
_cell_formula_units_Z 32
_cell_length_a 16.939933
_cell_length_b 7.987110
_cell_length_c 13.477648
_cell_angle_alpha 90.000000
_cell_angle_beta 48.572887
_cell_angle_gamma 90.000000
_cell_volume 1367.287261
_symmetry_space_group_name_H-M "P 2/C"
_symmetry_group_IT_number 13
_symmetry_cell_setting 'monoclinic'
loop_
_space_group_symop_operation_xyz
x,y,z
-x,y,1/2-z
-x,-y,-z
x,-y,1/2+z
loop_
_atom_site_type_symbol
_atom_site_label
_atom_site_fract_x
_atom_site_fract_y
_atom_site_fract_z
Si Si1 0.267903 0.329432 0.725403
Si Si2 0.767903 0.170568 0.225403
Si Si3 0.884502 0.111073 0.305667
Si Si4 0.686923 0.990526 0.098002
Si Si5 0.610953 0.986345 0.459575
Si Si6 0.615498 0.388927 0.694333
Si Si7 0.889047 0.486345 0.040425
Si Si8 0.186923 0.509474 0.598002
O O1 0.318894 0.156313 0.650100
O O2 0.360885 0.425845 0.709050
O O3 0.174229 0.340023 0.885503
O O4 0.213730 0.404795 0.672707
O O5 0.860885 0.074155 0.209050
O O6 0.713730 0.095205 0.172707
O O7 0.818894 0.343687 0.150100
O O8 0.674229 0.159977 0.385503
O O9 0.859509 0.309472 0.335389
O O10 0.000000 0.075318 0.250000
O O11 0.797480 0.023642 0.446846
O O12 0.640491 0.809472 0.164611
O O13 0.607988 0.055213 0.078315
O O14 0.500000 0.000000 0.500000
O O15 0.500000 0.424682 0.750000
O O16 0.702520 0.476358 0.553154
O O17 0.892012 0.444787 0.921685
O O18 0.000000 0.500000 0.000000
#
# Coordination Sequence:
#
# PCOD9233271 Si02
#       8
#     4   4   4   4   4   4   4   4
#     4  11  22  43  64  96 130 167 223 271 320 397
#     4  11  22  43  64  96 130 167 223 271 320 397
#     4  10  21  40  63  92 129 174 215 266 333 383
#     4  10  22  39  63  93 131 168 221 271 317 394
#     4  11  24  43  67  97 132 175 216 272 334 383
#     4  10  21  40  63  92 129 174 215 266 333 383
#     4  11  24  43  67  97 132 175 216 272 334 383
#     4  10  22  39  63  93 131 168 221 271 317 394
#
# _framework density 23.404007
#
# number of rings (size 3 to 8) (size 9 to 14) (size 15 to 20)
#    0.000    1.500    2.500    2.250    0.000    1.000 
#    9.000    0.000    0.000    0.000    0.000    0.000 
#    0.000    0.000    0.000    0.000    0.000    0.000 
#
# Total GULP energy -178654.225334 kJ/mol
# GULP energy per Si atom -5582.944542 kJ/mol
# Density = 2.335074 g / cm^3
# Si number density = 23.404007 Si / 1000 Ang^3
#
#
#
# Elastic Constant Matrix: (Units=GPa)
#
#
# Indices 1 2 3 4 5 6 
#
# 1 250.9201 24.1991 47.5349 0.0000 19.1452 0.0000
# 2 24.1991 22.7957 10.6838 0.0000 2.8443 0.0000
# 3 47.5349 10.6838 53.9519 0.0000 22.1061 0.0000
# 4 0.0000 0.0000 0.0000 27.8497 0.0000 5.9421
# 5 19.1452 2.8443 22.1061 0.0000 51.9611 0.0000
# 6 0.0000 0.0000 0.0000 5.9421 0.0000 30.1108
#
#
#
# Elastic Compliance Matrix: (Units=1/GPa)
#
#
# Indices 1 2 3 4 5 6 
#
# 1 0.005039 -0.003609 -0.003688 0.000000 -0.000090 0.000000
# 2 -0.003609 0.051070 -0.007669 0.000000 0.001797 0.000000
# 3 -0.003688 -0.007669 0.027340 0.000000 -0.009853 0.000000
# 4 0.000000 0.000000 0.000000 0.037485 0.000000 -0.007397
# 5 -0.000090 0.001797 -0.009853 0.000000 0.023372 0.000000
# 6 0.000000 0.000000 0.000000 -0.007397 0.000000 0.034670
#
#
# Mechanical properties :
#
#
# Convention : Reuss Voigt Hill
#
# Bulk Modulus (GPa) = 18.68620 54.72259 36.70440
# Shear Modulus (GPa) = 22.05091 38.33431 30.19261
#
# Velocity S-wave (km/s) = 3.07283 4.05154 3.59564
# Velocity P-wave (km/s) = 4.53776 6.73194 5.74066
#
# Compressibility (1/GPa) = 0.05351541
#
# Stress axis : x y z
#
# Youngs Moduli (GPa) = 198.45340 19.58111 36.57628
#
# Poissons Ratio (x) = 0.07068 0.13489
# Poissons Ratio (y) = 0.71632 0.28051
# Poissons Ratio (z) = 0.73189 0.15017
#
# Static dielectric constant tensor:
#      x y z
#    x 1.953490 0.000000 0.044870 
#    y 0.000000 1.973620 0.000000 
#    z 0.044870 0.000000 1.902410 
# 
# From -- ./inp_files/53042.got.cif
#   From: 2010.05.17/outbox.cif.g08.bks.cpg/sg13_27_cif.got.tgz:53042.got - 2010.06.03 16:44:36.
