data_PCOD9233189
_publ_section_title
;
Structure prediction by ZEFSAII (Michael W. Deem and Ramdas Pophale) SiO2 
 PCOD9233189
Probable space group: P 2/C
;
_chemical_formula_sum "Si O2"
_cell_formula_units_Z 30
_cell_length_a 8.660863
_cell_length_b 12.062415
_cell_length_c 15.579416
_cell_angle_alpha 90.000000
_cell_angle_beta 116.428949
_cell_angle_gamma 90.000000
_cell_volume 1457.491029
_symmetry_space_group_name_H-M "P 2/C"
_symmetry_group_IT_number 13
_symmetry_cell_setting 'monoclinic'
loop_
_space_group_symop_operation_xyz
x,y,z
-x,y,1/2-z
-x,-y,-z
x,-y,1/2+z
loop_
_atom_site_type_symbol
_atom_site_label
_atom_site_fract_x
_atom_site_fract_y
_atom_site_fract_z
Si Si1 0.334818 0.027319 0.251022
Si Si2 0.223723 0.503456 0.931111
Si Si3 0.495102 0.467639 0.148451
Si Si4 0.516982 0.226379 0.099692
Si Si5 0.890935 0.274144 0.135913
Si Si6 0.840912 0.250349 0.566932
Si Si7 0.060403 0.111672 0.060856
Si Si8 0.000000 0.095623 0.750000
O O1 0.500000 0.962936 0.250000
O O2 0.417819 0.118543 0.334190
O O3 0.243556 0.089841 0.149284
O O4 0.169951 0.968784 0.255508
O O5 0.334422 0.509073 0.868458
O O6 0.086908 0.603726 0.899338
O O7 0.147186 0.380191 0.913742
O O8 0.345909 0.511550 0.046385
O O9 0.500000 0.506242 0.250000
O O10 0.468372 0.333800 0.144842
O O11 0.686302 0.267407 0.093047
O O12 0.358239 0.213579 0.995765
O O13 0.000000 0.275755 0.250000
O O14 0.938891 0.158650 0.103782
O O15 0.929210 0.213518 0.500984
O O16 0.928177 0.174507 0.658737
O O17 0.000000 0.000000 0.000000
#
# Coordination Sequence:
#
# PCOD9233189 Si02
#       8
#     4   4   4   4   4   4   4   2
#     4  12  23  42  70 101 130 179 246 288 363 422
#     4   9  22  40  63 102 135 182 230 288 364 425
#     4   9  18  38  66  98 135 172 234 297 346 426
#     4  10  21  39  71  98 127 176 234 298 351 409
#     4  11  23  41  71 104 138 178 240 298 347 425
#     4  11  25  45  66  92 146 181 229 289 366 428
#     4  12  25  43  65  99 135 176 231 298 348 424
#     4  12  28  46  62 100 146 188 226 302 364 438
#
# _framework density 20.583317000000001
#
# number of rings (size 3 to 8) (size 9 to 14) (size 15 to 20)
#    0.000    1.333    4.000    2.000    2.800    2.133 
#    2.400    0.667    0.000    0.000    0.000    0.000 
#    0.000    0.000    0.000    0.000    0.000    0.000 
#
# Total GULP energy -167115.221367 kJ/mol
# GULP energy per Si atom -5570.507379 kJ/mol
# Density = 2.053647 g / cm^3
# Si number density = 20.583317 Si / 1000 Ang^3
#
#
#
# Elastic Constant Matrix: (Units=GPa)
#
#
# Indices 1 2 3 4 5 6 
#
# 1 60.5264 34.6608 24.1540 0.0000 2.8417 0.0000
# 2 34.6608 108.6808 24.0221 0.0000 2.4826 0.0000
# 3 24.1540 24.0221 87.1579 0.0000 -1.0199 0.0000
# 4 0.0000 0.0000 0.0000 33.9512 0.0000 5.5056
# 5 2.8417 2.4826 -1.0199 0.0000 24.3753 0.0000
# 6 0.0000 0.0000 0.0000 5.5056 0.0000 18.3137
#
#
#
# Elastic Compliance Matrix: (Units=1/GPa)
#
#
# Indices 1 2 3 4 5 6 
#
# 1 0.021778 -0.005918 -0.004429 0.000000 -0.002121 0.000000
# 2 -0.005918 0.011437 -0.001518 0.000000 -0.000538 0.000000
# 3 -0.004429 -0.001518 0.013134 0.000000 0.001220 0.000000
# 4 0.000000 0.000000 0.000000 0.030964 0.000000 -0.009309
# 5 -0.002121 -0.000538 0.001220 0.000000 0.041378 0.000000
# 6 0.000000 0.000000 0.000000 -0.009309 0.000000 0.057402
#
#
# Mechanical properties :
#
#
# Convention : Reuss Voigt Hill
#
# Bulk Modulus (GPa) = 44.21404 46.89317 45.55361
# Shear Modulus (GPa) = 24.11245 26.89659 25.50452
#
# Velocity S-wave (km/s) = 3.42637 3.61878 3.52389
# Velocity P-wave (km/s) = 6.09758 6.34762 6.22386
#
# Compressibility (1/GPa) = 0.02261725
#
# Stress axis : x y z
#
# Youngs Moduli (GPa) = 45.91840 87.43895 76.14064
#
# Poissons Ratio (x) = 0.51746 0.33723
# Poissons Ratio (y) = 0.27175 0.11561
# Poissons Ratio (z) = 0.20337 0.13276
#
# Static dielectric constant tensor:
#      x y z
#    x 1.774190 0.000000 -0.033630 
#    y 0.000000 1.724380 0.000000 
#    z -0.033630 0.000000 1.760330 
# 
# From -- ./inp_files/47303.got.cif
#   From: 2010.05.17/outbox.cif.g08.bks.cpg/sg13_24_cif.got.tgz:47303.got - 2010.06.03 16:44:36.
