data_PCOD9233075
_publ_section_title
;
Structure prediction by ZEFSAII (Michael W. Deem and Ramdas Pophale) SiO2 
 PCOD9233075
Probable space group: P 2/C
;
_chemical_formula_sum "Si O2"
_cell_formula_units_Z 18
_cell_length_a 6.146874
_cell_length_b 4.158023
_cell_length_c 23.379648
_cell_angle_alpha 90.000000
_cell_angle_beta 106.295504
_cell_angle_gamma 90.000000
_cell_volume 573.551303
_symmetry_space_group_name_H-M "P 2/C"
_symmetry_group_IT_number 13
_symmetry_cell_setting 'monoclinic'
loop_
_space_group_symop_operation_xyz
x,y,z
-x,y,1/2-z
-x,-y,-z
x,-y,1/2+z
loop_
_atom_site_type_symbol
_atom_site_label
_atom_site_fract_x
_atom_site_fract_y
_atom_site_fract_z
Si Si1 0.849339 0.711996 0.191388
Si Si2 0.500000 0.615200 0.250000
Si Si3 0.156370 0.202370 0.468261
Si Si4 0.498869 0.764446 0.419381
Si Si5 0.191427 0.829597 0.645509
O O1 0.660845 0.836241 0.222588
O O2 0.676558 0.560871 0.132477
O O3 0.000000 0.522605 0.250000
O O4 0.016234 0.953948 0.170513
O O5 0.656825 0.402272 0.303919
O O6 0.323970 0.393537 0.523365
O O7 0.978755 0.355651 0.410681
O O8 0.328169 0.982908 0.444107
O O9 0.000000 0.000000 0.500000
O O10 0.650667 0.967075 0.385850
#
# Coordination Sequence:
#
# PCOD9233075 Si02
#       5
#     4   2   4   4   4
#     4  11  23  39  61  94 134 173 221 278 330 394
#     4  12  26  42  66 100 134 178 230 274 334 408
#     4   8  16  32  62  95 123 172 223 266 342 407
#     4   9  17  36  63  91 130 174 217 277 341 395
#     4  10  21  39  64  93 132 178 221 277 340 398
#
# _framework density 31.383419
#
# number of rings (size 3 to 8) (size 9 to 14) (size 15 to 20)
#    0.000    2.222    0.000    2.667    0.000    4.444 
#    0.000    1.111    0.000   48.000    0.000    0.000 
#    0.000    0.000    0.000    0.000    0.000    0.000 
#
# Total GULP energy -100642.295476 kJ/mol
# GULP energy per Si atom -5591.238638 kJ/mol
# Density = 3.131199 g / cm^3
# Si number density = 31.383419 Si / 1000 Ang^3
#
#
#
# Elastic Constant Matrix: (Units=GPa)
#
#
# Indices 1 2 3 4 5 6 
#
# 1 274.0826 90.6360 127.2597 0.0000 -60.0971 0.0000
# 2 90.6360 80.4851 82.7016 0.0000 -15.5445 0.0000
# 3 127.2597 82.7016 295.0191 0.0000 100.0213 0.0000
# 4 0.0000 0.0000 0.0000 34.0893 0.0000 -35.1349
# 5 -60.0971 -15.5445 100.0213 0.0000 175.0511 0.0000
# 6 0.0000 0.0000 0.0000 -35.1349 0.0000 86.7551
#
#
#
# Elastic Compliance Matrix: (Units=1/GPa)
#
#
# Indices 1 2 3 4 5 6 
#
# 1 0.007604 -0.004003 -0.003624 0.000000 0.004326 0.000000
# 2 -0.004003 0.024916 -0.006874 0.000000 0.004766 0.000000
# 3 -0.003624 -0.006874 0.009313 0.000000 -0.007176 0.000000
# 4 0.000000 0.000000 0.000000 0.050352 0.000000 0.020392
# 5 0.004326 0.004766 -0.007176 0.000000 0.011721 0.000000
# 6 0.000000 0.000000 0.000000 0.020392 0.000000 0.019785
#
#
# Mechanical properties :
#
#
# Convention : Reuss Voigt Hill
#
# Bulk Modulus (GPa) = 77.94054 138.97570 108.45812
# Shear Modulus (GPa) = 31.85336 82.44506 57.14921
#
# Velocity S-wave (km/s) = 3.18932 5.13101 4.27195
# Velocity P-wave (km/s) = 6.20091 8.91529 7.67898
#
# Compressibility (1/GPa) = 0.01283029
#
# Stress axis : x y z
#
# Youngs Moduli (GPa) = 131.51628 40.13534 107.38003
#
# Poissons Ratio (x) = 0.16066 0.38919
# Poissons Ratio (y) = 0.52645 0.73808
# Poissons Ratio (z) = 0.47667 0.27587
#
# Static dielectric constant tensor:
#      x y z
#    x 2.428950 0.000000 0.012720 
#    y 0.000000 2.358710 0.000000 
#    z 0.012720 0.000000 2.459260 
# 
# From -- ./inp_files/83046.got.cif
#   From: 2010.05.17/outbox.cif.g08.bks.cpg/sg13_42_cif.got.tgz:83046.got - 2010.06.03 16:44:36.
