data_PCOD9233106
_publ_section_title
;
Structure prediction by ZEFSAII (Michael W. Deem and Ramdas Pophale) SiO2 
 PCOD9233106
Probable space group: P 2/C
;
_chemical_formula_sum "Si O2"
_cell_formula_units_Z 30
_cell_length_a 21.749739
_cell_length_b 5.983022
_cell_length_c 14.005988
_cell_angle_alpha 90.000000
_cell_angle_beta 39.567837
_cell_angle_gamma 90.000000
_cell_volume 1160.972525
_symmetry_space_group_name_H-M "P 2/C"
_symmetry_group_IT_number 13
_symmetry_cell_setting 'monoclinic'
loop_
_space_group_symop_operation_xyz
x,y,z
-x,y,1/2-z
-x,-y,-z
x,-y,1/2+z
loop_
_atom_site_type_symbol
_atom_site_label
_atom_site_fract_x
_atom_site_fract_y
_atom_site_fract_z
Si Si1 0.400231 0.987509 0.760615
Si Si2 0.302854 0.449946 0.237604
Si Si3 0.197504 0.180339 0.749299
Si Si4 0.871396 0.133599 0.013123
Si Si5 0.041065 0.546479 0.346507
Si Si6 0.000000 0.823970 0.750000
Si Si7 0.593875 0.477157 0.704673
Si Si8 0.382055 0.926948 0.549622
O O1 0.362260 0.219266 0.855280
O O2 0.516594 0.016544 0.617419
O O3 0.376778 0.745162 0.836563
O O4 0.381501 0.979473 0.666180
O O5 0.233439 0.646738 0.287102
O O6 0.225879 0.277050 0.377389
O O7 0.392772 0.521134 0.195255
O O8 0.351091 0.332679 0.088246
O O9 0.140340 0.319873 0.739373
O O10 0.295503 0.059679 0.605799
O O11 0.132973 0.993808 0.879635
O O12 0.960275 0.298288 0.898983
O O13 0.903447 0.951850 0.898658
O O14 0.039680 0.323239 0.288981
O O15 0.000000 0.500000 0.500000
O O16 0.500000 0.468669 0.750000
#
# Coordination Sequence:
#
# PCOD9233106 Si02
#       8
#     4   4   4   4   4   2   4   4
#     4  10  21  39  65  95 128 175 229 283 340 414
#     4  10  21  39  66  97 126 174 227 283 350 430
#     4  11  21  40  70  96 132 175 231 286 363 423
#     4  11  23  43  69  97 133 180 232 296 353 430
#     4  12  24  44  71  99 134 188 237 290 361 437
#     4  12  26  42  70 104 140 182 242 298 360 444
#     4  11  23  41  65  92 137 188 225 277 358 430
#     4   9  21  35  65  96 125 163 223 288 338 409
#
# _framework density 25.840405000000001
#
# number of rings (size 3 to 8) (size 9 to 14) (size 15 to 20)
#    0.000    1.333    4.000    1.200    1.867    1.600 
#    0.000    5.333    2.933    0.000    0.000    0.000 
#    0.000    0.000    0.000    0.000    0.000    0.000 
#
# Total GULP energy -167253.719823 kJ/mol
# GULP energy per Si atom -5575.123994 kJ/mol
# Density = 2.578159 g / cm^3
# Si number density = 25.840405 Si / 1000 Ang^3
#
#
#
# Elastic Constant Matrix: (Units=GPa)
#
#
# Indices 1 2 3 4 5 6 
#
# 1 78.6681 12.8222 32.9911 0.0000 -9.6463 0.0000
# 2 12.8222 144.1696 32.4595 0.0000 14.8126 0.0000
# 3 32.9911 32.4595 86.6143 0.0000 2.6332 0.0000
# 4 0.0000 0.0000 0.0000 8.6941 0.0000 15.1516
# 5 -9.6463 14.8126 2.6332 0.0000 39.2707 0.0000
# 6 0.0000 0.0000 0.0000 15.1516 0.0000 13.8098
#
#
#
# Elastic Compliance Matrix: (Units=1/GPa)
#
#
# Indices 1 2 3 4 5 6 
#
# 1 0.015856 -0.000526 -0.005979 0.000000 0.004494 0.000000
# 2 -0.000526 0.007884 -0.002665 0.000000 -0.002924 0.000000
# 3 -0.005979 -0.002665 0.014866 0.000000 -0.001460 0.000000
# 4 0.000000 0.000000 0.000000 -0.126108 0.000000 0.138361
# 5 0.004494 -0.002924 -0.001460 0.000000 0.027769 0.000000
# 6 0.000000 0.000000 0.000000 0.138361 0.000000 -0.079392
#
#
# Mechanical properties :
#
#
# Convention : Reuss Voigt Hill
#
# Bulk Modulus (GPa) = 49.34545 51.77754 50.56149
# Shear Modulus (GPa) = -43.84789 27.76686 -8.04052
#
# Velocity S-wave (km/s) = -4.12378 3.28159 -1.76589
# Velocity P-wave (km/s) = 1.88053 5.86851 3.93084
#
# Compressibility (1/GPa) = 0.02026529
#
# Stress axis : x y z
#
# Youngs Moduli (GPa) = 63.06835 126.84649 67.26738
#
# Poissons Ratio (x) = 0.06669 0.40219
# Poissons Ratio (y) = 0.03316 0.17929
# Poissons Ratio (z) = 0.37709 0.33808
#
# Static dielectric constant tensor:
#      x y z
#    x 2.021270 0.000000 0.081230 
#    y 0.000000 2.178850 0.000000 
#    z 0.081230 0.000000 2.010680 
# 
# From -- ./inp_files/70928.got.cif
#   From: 2010.05.17/outbox.cif.g08.bks.cpg/sg13_36_cif.got.tgz:70928.got - 2010.06.03 16:44:36.
