data_PCOD9233540
_publ_section_title
;
Structure prediction by ZEFSAII (Michael W. Deem and Ramdas Pophale) SiO2 
 PCOD9233540
Probable space group: P 2/C
;
_chemical_formula_sum "Si O2"
_cell_formula_units_Z 12
_cell_length_a 9.833511
_cell_length_b 9.199347
_cell_length_c 8.274253
_cell_angle_alpha 90.000000
_cell_angle_beta 45.641697
_cell_angle_gamma 90.000000
_cell_volume 535.166984
_symmetry_space_group_name_H-M "P 2/C"
_symmetry_group_IT_number 13
_symmetry_cell_setting 'monoclinic'
loop_
_space_group_symop_operation_xyz
x,y,z
-x,y,1/2-z
-x,-y,-z
x,-y,1/2+z
loop_
_atom_site_type_symbol
_atom_site_label
_atom_site_fract_x
_atom_site_fract_y
_atom_site_fract_z
Si Si1 0.110798 0.627580 0.497170
Si Si2 0.500000 0.975247 0.250000
Si Si3 0.338070 0.797435 0.089298
Si Si4 0.500000 0.461167 0.250000
O O1 0.143789 0.750558 0.335608
O O2 0.315650 0.560304 0.374794
O O3 0.000000 0.500000 0.500000
O O4 0.000000 0.674089 0.750000
O O5 0.451896 0.875016 0.138986
O O6 0.335908 0.087161 0.445085
O O7 0.443514 0.651723 0.939625
#
# Coordination Sequence:
#
# PCOD9233540 Si02
#       4
#     4   2   4   2
#     4  12  25  41  67 104 133 169 219 276 338 389
#     4   9  21  40  70  90 129 187 218 258 330 387
#     4  10  21  41  66  94 130 175 220 266 326 390
#     4  11  23  42  68  98 135 171 214 284 332 381
#
# _framework density 22.422906999999999
#
# number of rings (size 3 to 8) (size 9 to 14) (size 15 to 20)
#    0.000    1.333    3.333    2.000    4.667    0.000 
#    0.000    1.667    0.000    0.000    0.000    0.000 
#    0.000    0.000    0.000    0.000    0.000    0.000 
#
# Total GULP energy -67039.050403 kJ/mol
# GULP energy per Si atom -5586.587534 kJ/mol
# Density = 2.237187 g / cm^3
# Si number density = 22.422907 Si / 1000 Ang^3
#
#
#
# Elastic Constant Matrix: (Units=GPa)
#
#
# Indices 1 2 3 4 5 6 
#
# 1 55.2768 8.8570 17.7370 0.0000 -9.5504 0.0000
# 2 8.8570 80.6327 49.3249 0.0000 6.8565 0.0000
# 3 17.7370 49.3249 190.2883 0.0000 23.8641 0.0000
# 4 0.0000 0.0000 0.0000 53.8706 0.0000 6.7271
# 5 -9.5504 6.8565 23.8641 0.0000 35.6387 0.0000
# 6 0.0000 0.0000 0.0000 6.7271 0.0000 21.5778
#
#
#
# Elastic Compliance Matrix: (Units=1/GPa)
#
#
# Indices 1 2 3 4 5 6 
#
# 1 0.020376 -0.001352 -0.002474 0.000000 0.007377 0.000000
# 2 -0.001352 0.014832 -0.003619 0.000000 -0.000792 0.000000
# 3 -0.002474 -0.003619 0.007008 0.000000 -0.004659 0.000000
# 4 0.000000 0.000000 0.000000 0.019315 0.000000 -0.006022
# 5 0.007377 -0.000792 -0.004659 0.000000 0.033309 0.000000
# 6 0.000000 0.000000 0.000000 -0.006022 0.000000 0.048221
#
#
# Mechanical properties :
#
#
# Convention : Reuss Voigt Hill
#
# Bulk Modulus (GPa) = 36.59589 53.11504 44.85547
# Shear Modulus (GPa) = 29.92942 38.90266 34.41604
#
# Velocity S-wave (km/s) = 3.65741 4.16979 3.92198
# Velocity P-wave (km/s) = 5.84737 6.84998 6.36844
#
# Compressibility (1/GPa) = 0.02732547
#
# Stress axis : x y z
#
# Youngs Moduli (GPa) = 49.07782 67.42300 142.68888
#
# Poissons Ratio (x) = 0.09116 0.35300
# Poissons Ratio (y) = 0.06636 0.51641
# Poissons Ratio (z) = 0.12141 0.24401
#
# Static dielectric constant tensor:
#      x y z
#    x 1.816700 0.000000 0.023020 
#    y 0.000000 1.885490 0.000000 
#    z 0.023020 0.000000 1.898670 
# 
# From -- ./inp_files/8421.got.cif
#   From: 2010.05.17/outbox.cif.g08.bks.cpg/sg13_5_cif.got.tgz:8421.got - 2010.06.03 16:44:36.
