data_PCOD9233587
_publ_section_title
;
Structure prediction by ZEFSAII (Michael W. Deem and Ramdas Pophale) SiO2 
 PCOD9233587
Probable space group: P 2/C
;
_chemical_formula_sum "Si O2"
_cell_formula_units_Z 26
_cell_length_a 22.896907
_cell_length_b 5.497043
_cell_length_c 16.140671
_cell_angle_alpha 90.000000
_cell_angle_beta 33.628173
_cell_angle_gamma 90.000000
_cell_volume 1125.074564
_symmetry_space_group_name_H-M "P 2/C"
_symmetry_group_IT_number 13
_symmetry_cell_setting 'monoclinic'
loop_
_space_group_symop_operation_xyz
x,y,z
-x,y,1/2-z
-x,-y,-z
x,-y,1/2+z
loop_
_atom_site_type_symbol
_atom_site_label
_atom_site_fract_x
_atom_site_fract_y
_atom_site_fract_z
Si Si1 0.672950 0.978806 0.825185
Si Si2 0.177819 0.406014 0.319467
Si Si3 0.281281 0.729587 0.069115
Si Si4 0.000328 0.730542 0.581239
Si Si5 0.533731 0.305585 0.888947
Si Si6 0.064322 0.773723 0.256536
Si Si7 0.500000 0.448685 0.250000
O O1 0.748654 0.756791 0.708728
O O2 0.722358 0.082781 0.850941
O O3 0.641723 0.176751 0.792520
O O4 0.560573 0.885603 0.991137
O O5 0.250638 0.482283 0.155433
O O6 0.120578 0.649702 0.421469
O O7 0.076568 0.253590 0.407598
O O8 0.191015 0.792884 0.109980
O O9 0.396719 0.705285 0.895488
O O10 0.956187 0.485399 0.675587
O O11 0.980781 0.975715 0.652890
O O12 0.530993 0.406725 0.798322
O O13 0.500000 0.500000 0.000000
O O14 0.000000 0.746391 0.250000
#
# Coordination Sequence:
#
# PCOD9233587 Si02
#       7
#     4   4   4   4   4   4   2
#     4  11  21  44  72 100 141 195 254 323 384 456
#     4  10  21  41  69 104 134 184 255 319 378 465
#     4  11  24  44  73  98 151 197 248 319 385 467
#     4  10  23  40  74 101 139 194 252 311 396 461
#     4  11  24  45  69 103 150 199 257 321 376 476
#     4  11  24  47  68 108 152 195 251 323 389 472
#     4  12  24  48  70 110 154 208 258 320 408 466
#
# _framework density 23.109580999999999
#
# number of rings (size 3 to 8) (size 9 to 14) (size 15 to 20)
#    0.000    1.231    4.615    0.462    2.154    2.462 
#    5.538    3.077    0.000    0.000    0.000    0.000 
#    0.000    0.000    0.000    0.000    0.000    0.000 
#
# Total GULP energy -145077.305296 kJ/mol
# GULP energy per Si atom -5579.896358 kJ/mol
# Density = 2.305698 g / cm^3
# Si number density = 23.109581 Si / 1000 Ang^3
#
#
#
# Elastic Constant Matrix: (Units=GPa)
#
#
# Indices 1 2 3 4 5 6 
#
# 1 122.3435 39.3952 35.2277 0.0000 -26.5599 0.0000
# 2 39.3952 66.0766 49.5309 0.0000 -11.7746 0.0000
# 3 35.2277 49.5309 129.4462 0.0000 -30.3904 0.0000
# 4 0.0000 0.0000 0.0000 31.8912 0.0000 -25.2261
# 5 -26.5599 -11.7746 -30.3904 0.0000 35.7436 0.0000
# 6 0.0000 0.0000 0.0000 -25.2261 0.0000 29.4574
#
#
#
# Elastic Compliance Matrix: (Units=1/GPa)
#
#
# Indices 1 2 3 4 5 6 
#
# 1 0.011506 -0.006305 0.001001 0.000000 0.007323 0.000000
# 2 -0.006305 0.024676 -0.008643 0.000000 -0.003905 0.000000
# 3 0.001001 -0.008643 0.012826 0.000000 0.008802 0.000000
# 4 0.000000 0.000000 0.000000 0.097196 0.000000 0.083235
# 5 0.007323 -0.003905 0.008802 0.000000 0.039616 0.000000
# 6 0.000000 0.000000 0.000000 0.083235 0.000000 0.105226
#
#
# Mechanical properties :
#
#
# Convention : Reuss Voigt Hill
#
# Bulk Modulus (GPa) = 47.36226 62.90820 55.13523
# Shear Modulus (GPa) = 15.33847 32.33259 23.83553
#
# Velocity S-wave (km/s) = 2.57909 3.74451 3.21505
# Velocity P-wave (km/s) = 5.42292 6.78056 6.13938
#
# Compressibility (1/GPa) = 0.02111386
#
# Stress axis : x y z
#
# Youngs Moduli (GPa) = 86.91431 40.52579 77.96436
#
# Poissons Ratio (x) = 0.25550 -0.07801
# Poissons Ratio (y) = 0.54797 0.67382
# Poissons Ratio (z) = -0.08696 0.35025
#
# Static dielectric constant tensor:
#      x y z
#    x 1.731350 0.000000 -0.126270 
#    y 0.000000 1.972100 0.000000 
#    z -0.126270 0.000000 1.872340 
# 
# From -- ./inp_files/70893.got.cif
#   From: 2010.05.17/outbox.cif.g08.bks.cpg/sg13_36_cif.got.tgz:70893.got - 2010.06.03 16:44:36.
