data_PCOD9233887
_publ_section_title
;
Structure prediction by ZEFSAII (Michael W. Deem and Ramdas Pophale) SiO2 
 PCOD9233887
Probable space group: P 2/C
;
_chemical_formula_sum "Si O2"
_cell_formula_units_Z 28
_cell_length_a 11.004923
_cell_length_b 10.042478
_cell_length_c 12.222657
_cell_angle_alpha 90.000000
_cell_angle_beta 126.249052
_cell_angle_gamma 90.000000
_cell_volume 1089.364782
_symmetry_space_group_name_H-M "P 2/C"
_symmetry_group_IT_number 13
_symmetry_cell_setting 'monoclinic'
loop_
_space_group_symop_operation_xyz
x,y,z
-x,y,1/2-z
-x,-y,-z
x,-y,1/2+z
loop_
_atom_site_type_symbol
_atom_site_label
_atom_site_fract_x
_atom_site_fract_y
_atom_site_fract_z
Si Si1 0.403531 0.327008 0.513908
Si Si2 0.170332 0.820683 0.393027
Si Si3 0.070781 0.515923 0.661323
Si Si4 0.151935 0.816717 0.765210
Si Si5 0.709361 0.267215 0.757644
Si Si6 0.822006 0.986471 0.413369
Si Si7 0.390248 0.605252 0.586704
O O1 0.282455 0.219548 0.418601
O O2 0.465626 0.288481 0.835082
O O3 0.330652 0.456852 0.530609
O O4 0.241576 0.302234 0.000584
O O5 0.267852 0.821820 0.337680
O O6 0.000000 0.812918 0.250000
O O7 0.210027 0.944439 0.489302
O O8 0.218949 0.083209 0.210173
O O9 0.114837 0.671777 0.691971
O O10 0.204020 0.405204 0.721414
O O11 0.000000 0.492790 0.750000
O O12 0.000000 0.500000 0.500000
O O13 0.223207 0.832604 0.118069
O O14 0.000000 0.860653 0.750000
O O15 0.494832 0.363765 0.451714
O O16 0.000000 0.000000 0.500000
O O17 0.500000 0.614265 0.750000
#
# Coordination Sequence:
#
# PCOD9233887 Si02
#       7
#     4   4   4   4   4   4   4
#     4  10  23  48  68 106 147 195 253 317 401 473
#     4  11  23  42  73 112 148 203 260 319 396 480
#     4  11  25  46  74 117 158 209 274 334 407 486
#     4  11  26  47  72 107 149 196 261 332 391 479
#     4  11  25  47  78 106 156 205 253 332 403 480
#     4  12  26  45  75 109 149 197 257 324 390 475
#     4  10  21  43  74 106 150 192 248 317 391 475
#
# _framework density 25.703050000000001
#
# number of rings (size 3 to 8) (size 9 to 14) (size 15 to 20)
#    0.000    1.143    1.429    4.714    4.000    2.286 
#   15.429    0.000    6.286    0.000    0.000    0.000 
#    0.000    0.000    0.000    0.000    0.000    0.000 
#
# Total GULP energy -156437.536833 kJ/mol
# GULP energy per Si atom -5587.054887 kJ/mol
# Density = 2.564455 g / cm^3
# Si number density = 25.703050 Si / 1000 Ang^3
#
#
#
# Elastic Constant Matrix: (Units=GPa)
#
#
# Indices 1 2 3 4 5 6 
#
# 1 72.6960 23.8908 64.9222 0.0000 10.0597 0.0000
# 2 23.8908 135.3965 45.4133 0.0000 19.7585 0.0000
# 3 64.9222 45.4133 187.0198 0.0000 -6.1916 0.0000
# 4 0.0000 0.0000 0.0000 55.5021 0.0000 -0.6965
# 5 10.0597 19.7585 -6.1916 0.0000 54.9338 0.0000
# 6 0.0000 0.0000 0.0000 -0.6965 0.0000 12.7288
#
#
#
# Elastic Compliance Matrix: (Units=1/GPa)
#
#
# Indices 1 2 3 4 5 6 
#
# 1 0.021125 -0.000615 -0.007332 0.000000 -0.004474 0.000000
# 2 -0.000615 0.008631 -0.001989 0.000000 -0.003216 0.000000
# 3 -0.007332 -0.001989 0.008475 0.000000 0.003013 0.000000
# 4 0.000000 0.000000 0.000000 0.018030 0.000000 0.000987
# 5 -0.004474 -0.003216 0.003013 0.000000 0.020519 0.000000
# 6 0.000000 0.000000 0.000000 0.000987 0.000000 0.078616
#
#
# Mechanical properties :
#
#
# Convention : Reuss Voigt Hill
#
# Bulk Modulus (GPa) = 54.47057 73.72944 64.10001
# Shear Modulus (GPa) = 27.56530 42.02535 34.79533
#
# Velocity S-wave (km/s) = 3.27839 4.04794 3.68332
# Velocity P-wave (km/s) = 5.96395 7.11303 6.56368
#
# Compressibility (1/GPa) = 0.01835854
#
# Stress axis : x y z
#
# Youngs Moduli (GPa) = 47.33671 115.86751 117.99529
#
# Poissons Ratio (x) = 0.07131 0.86515
# Poissons Ratio (y) = 0.02913 0.23464
# Poissons Ratio (z) = 0.34708 0.23041
#
# Static dielectric constant tensor:
#      x y z
#    x 1.997230 0.000000 0.037020 
#    y 0.000000 2.115730 0.000000 
#    z 0.037020 0.000000 2.285520 
# 
# From -- ./inp_files/18824.got.cif
#   From: 2010.05.17/outbox.cif.g08.bks.cpg/sg13_10_cif.got.tgz:18824.got - 2010.06.03 16:44:36.
