data_PCOD9233167
_publ_section_title
;
Structure prediction by ZEFSAII (Michael W. Deem and Ramdas Pophale) SiO2 
 PCOD9233167
Probable space group: P 2/C
;
_chemical_formula_sum "Si O2"
_cell_formula_units_Z 20
_cell_length_a 23.906350
_cell_length_b 5.236448
_cell_length_c 16.996609
_cell_angle_alpha 90.000000
_cell_angle_beta 26.310748
_cell_angle_gamma 90.000000
_cell_volume 943.084625
_symmetry_space_group_name_H-M "P 2/C"
_symmetry_group_IT_number 13
_symmetry_cell_setting 'monoclinic'
loop_
_space_group_symop_operation_xyz
x,y,z
-x,y,1/2-z
-x,-y,-z
x,-y,1/2+z
loop_
_atom_site_type_symbol
_atom_site_label
_atom_site_fract_x
_atom_site_fract_y
_atom_site_fract_z
Si Si1 0.607951 0.254799 0.178928
Si Si2 0.080225 0.801340 0.950066
Si Si3 0.693055 0.936966 0.313698
Si Si4 0.559091 0.243600 0.836542
Si Si5 0.817503 0.606051 0.295411
O O1 0.500000 0.212867 0.250000
O O2 0.560603 0.480276 0.295563
O O3 0.623155 0.983489 0.203550
O O4 0.730058 0.370964 0.981441
O O5 0.164365 0.642434 0.781864
O O6 0.182008 0.927480 0.878372
O O7 0.964300 0.650429 0.134172
O O8 0.000000 0.000000 0.000000
O O9 0.632375 0.749373 0.326684
O O10 0.748509 0.800331 0.321196
O O11 0.581985 0.135782 0.472923
#
# Coordination Sequence:
#
# PCOD9233167 Si02
#       5
#     4   4   4   4   4
#     4  12  24  41  63  97 130 164 209 270 321 376
#     4   9  20  38  67  90 117 169 221 254 302 385
#     4  10  22  41  64  93 128 169 213 259 315 390
#     4  11  26  39  66  97 132 167 207 266 330 372
#     4  10  21  39  68  91 124 169 219 260 311 379
#
# _framework density 21.207004000000001
#
# number of rings (size 3 to 8) (size 9 to 14) (size 15 to 20)
#    0.000    1.600    2.000    1.800    8.400    1.600 
#    0.000    1.000    0.000    0.000    0.000    0.000 
#    0.000    0.000    0.000    0.000    0.000    0.000 
#
# Total GULP energy -111545.033130 kJ/mol
# GULP energy per Si atom -5577.251656 kJ/mol
# Density = 2.115874 g / cm^3
# Si number density = 21.207004 Si / 1000 Ang^3
#
#
#
# Elastic Constant Matrix: (Units=GPa)
#
#
# Indices 1 2 3 4 5 6 
#
# 1 76.0821 10.2173 35.7767 0.0000 -16.6666 0.0000
# 2 10.2173 59.5758 7.7969 0.0000 -1.3088 0.0000
# 3 35.7767 7.7969 76.0279 0.0000 -6.5980 0.0000
# 4 0.0000 0.0000 0.0000 91.0056 0.0000 27.7150
# 5 -16.6666 -1.3088 -6.5980 0.0000 29.1026 0.0000
# 6 0.0000 0.0000 0.0000 27.7150 0.0000 25.1681
#
#
#
# Elastic Compliance Matrix: (Units=1/GPa)
#
#
# Indices 1 2 3 4 5 6 
#
# 1 0.019181 -0.002039 -0.008029 0.000000 0.009072 0.000000
# 2 -0.002039 0.017235 -0.000859 0.000000 -0.000588 0.000000
# 3 -0.008029 -0.000859 0.016951 0.000000 -0.000794 0.000000
# 4 0.000000 0.000000 0.000000 0.016533 0.000000 -0.018206
# 5 0.009072 -0.000588 -0.000794 0.000000 0.039350 0.000000
# 6 0.000000 0.000000 0.000000 -0.018206 0.000000 0.059781
#
#
# Mechanical properties :
#
#
# Convention : Reuss Voigt Hill
#
# Bulk Modulus (GPa) = 31.73517 35.47419 33.60468
# Shear Modulus (GPa) = 24.82760 39.58159 32.20459
#
# Velocity S-wave (km/s) = 3.42530 4.32492 3.90113
# Velocity P-wave (km/s) = 5.53539 6.45785 6.01433
#
# Compressibility (1/GPa) = 0.03151078
#
# Stress axis : x y z
#
# Youngs Moduli (GPa) = 52.13565 58.02285 58.99460
#
# Poissons Ratio (x) = 0.11833 0.47370
# Poissons Ratio (y) = 0.10632 0.05066
# Poissons Ratio (z) = 0.41862 0.04983
#
# Static dielectric constant tensor:
#      x y z
#    x 1.730560 0.000000 0.002980 
#    y 0.000000 1.860070 0.000000 
#    z 0.002980 0.000000 1.841590 
# 
# From -- ./inp_files/48805.got.cif
#   From: 2010.05.17/outbox.cif.g08.bks.cpg/sg13_25_cif.got.tgz:48805.got - 2010.06.03 16:44:36.
