data_PCOD9233037
_publ_section_title
;
Structure prediction by ZEFSAII (Michael W. Deem and Ramdas Pophale) SiO2 
 PCOD9233037
Probable space group: P 2/C
;
_chemical_formula_sum "Si O2"
_cell_formula_units_Z 32
_cell_length_a 23.355505
_cell_length_b 6.472411
_cell_length_c 13.950696
_cell_angle_alpha 90.000000
_cell_angle_beta 139.095900
_cell_angle_gamma 90.000000
_cell_volume 1380.881822
_symmetry_space_group_name_H-M "P 2/C"
_symmetry_group_IT_number 13
_symmetry_cell_setting 'monoclinic'
loop_
_space_group_symop_operation_xyz
x,y,z
-x,y,1/2-z
-x,-y,-z
x,-y,1/2+z
loop_
_atom_site_type_symbol
_atom_site_label
_atom_site_fract_x
_atom_site_fract_y
_atom_site_fract_z
Si Si1 0.566685 0.180233 0.112871
Si Si2 0.172111 0.602404 0.425881
Si Si3 0.633294 0.520235 0.832620
Si Si4 0.647765 0.488364 0.065337
Si Si5 0.693078 0.170192 0.755523
Si Si6 0.857726 0.564734 0.818977
Si Si7 0.070310 0.671833 0.914740
Si Si8 0.872394 0.069600 0.464003
O O1 0.559712 0.330706 0.195350
O O2 0.589920 0.340253 0.058258
O O3 0.652387 0.044300 0.236238
O O4 0.500000 0.000000 0.000000
O O5 0.274289 0.640805 0.539992
O O6 0.133318 0.545425 0.272495
O O7 0.157636 0.388906 0.465999
O O8 0.138673 0.775695 0.458731
O O9 0.659705 0.335380 0.793605
O O10 0.616191 0.451430 0.918188
O O11 0.649499 0.723752 0.106131
O O12 0.752460 0.436434 0.207717
O O13 0.790443 0.089742 0.851368
O O14 0.881972 0.800173 0.878559
O O15 0.916717 0.439813 0.968595
O O16 0.000000 0.588200 0.750000
O O17 0.051958 0.909416 0.913598
#
# Coordination Sequence:
#
# PCOD9233037 Si02
#       8
#     4   4   4   4   4   4   4   4
#     4  11  23  41  63  95 127 167 203 256 322 374
#     4  10  21  39  63  91 122 162 215 265 306 366
#     4  10  21  39  64  95 125 164 214 258 308 370
#     4  10  21  39  64  95 125 164 214 258 308 370
#     4  11  19  39  64  87 124 163 206 253 310 370
#     4  10  21  39  63  91 122 162 215 265 306 366
#     4  11  23  39  59  91 129 167 207 261 325 378
#     4  11  19  38  63  89 122 162 208 255 315 378
#
# _framework density 23.173597999999998
#
# number of rings (size 3 to 8) (size 9 to 14) (size 15 to 20)
#    0.000    1.500    5.000    1.500    0.000    6.500 
#    0.000    5.000    0.000    0.000    0.000    0.000 
#    0.000    0.000    0.000    0.000    0.000    0.000 
#
# Total GULP energy -178182.254324 kJ/mol
# GULP energy per Si atom -5568.195448 kJ/mol
# Density = 2.312085 g / cm^3
# Si number density = 23.173598 Si / 1000 Ang^3
#
#
#
# Elastic Constant Matrix: (Units=GPa)
#
#
# Indices 1 2 3 4 5 6 
#
# 1 43.6762 11.4742 30.2855 0.0000 -14.5273 0.0000
# 2 11.4742 85.2991 39.6997 0.0000 0.2664 0.0000
# 3 30.2855 39.6997 115.0021 0.0000 -27.2548 0.0000
# 4 0.0000 0.0000 0.0000 30.8657 0.0000 1.0411
# 5 -14.5273 0.2664 -27.2548 0.0000 24.8562 0.0000
# 6 0.0000 0.0000 0.0000 1.0411 0.0000 10.9561
#
#
#
# Elastic Compliance Matrix: (Units=1/GPa)
#
#
# Indices 1 2 3 4 5 6 
#
# 1 0.030859 -0.002266 -0.004140 0.000000 0.013520 0.000000
# 2 -0.002266 0.015203 -0.006761 0.000000 -0.008901 0.000000
# 3 -0.004140 -0.006761 0.015623 0.000000 0.014784 0.000000
# 4 0.000000 0.000000 0.000000 0.032503 0.000000 -0.003089
# 5 0.013520 -0.008901 0.014784 0.000000 0.064439 0.000000
# 6 0.000000 0.000000 0.000000 -0.003089 0.000000 0.091567
#
#
# Mechanical properties :
#
#
# Convention : Reuss Voigt Hill
#
# Bulk Modulus (GPa) = 28.28798 45.21070 36.74934
# Shear Modulus (GPa) = 17.34237 24.17011 20.75624
#
# Velocity S-wave (km/s) = 2.73860 3.23306 2.99605
# Velocity P-wave (km/s) = 4.71523 5.78695 5.27836
#
# Compressibility (1/GPa) = 0.03535070
#
# Stress axis : x y z
#
# Youngs Moduli (GPa) = 32.40553 65.77807 64.00738
#
# Poissons Ratio (x) = 0.14909 0.26499
# Poissons Ratio (y) = 0.07345 0.43273
# Poissons Ratio (z) = 0.13416 0.44470
#
# Static dielectric constant tensor:
#      x y z
#    x 1.956990 0.000000 0.093870 
#    y 0.000000 1.856060 0.000000 
#    z 0.093870 0.000000 1.994420 
# 
# From -- ./inp_files/59771.got.cif
#   From: 2010.05.17/outbox.cif.g08.bks.cpg/sg13_30_cif.got.tgz:59771.got - 2010.06.03 16:44:36.
