data_PCOD9234840
_publ_section_title
;
Structure prediction by ZEFSAII (Michael W. Deem and Ramdas Pophale) SiO2 
 PCOD9234840
Probable space group: P 2/C
;
_chemical_formula_sum "Si O2"
_cell_formula_units_Z 26
_cell_length_a 11.880085
_cell_length_b 7.146133
_cell_length_c 17.041210
_cell_angle_alpha 90.000000
_cell_angle_beta 58.551014
_cell_angle_gamma 90.000000
_cell_volume 1234.222838
_symmetry_space_group_name_H-M "P 2/C"
_symmetry_group_IT_number 13
_symmetry_cell_setting 'monoclinic'
loop_
_space_group_symop_operation_xyz
x,y,z
-x,y,1/2-z
-x,-y,-z
x,-y,1/2+z
loop_
_atom_site_type_symbol
_atom_site_label
_atom_site_fract_x
_atom_site_fract_y
_atom_site_fract_z
Si Si1 0.803792 0.148323 0.076327
Si Si2 0.080815 0.203105 0.053223
Si Si3 0.533841 0.752639 0.328774
Si Si4 0.000000 0.693341 0.750000
Si Si5 0.302849 0.494226 0.479363
Si Si6 0.401542 0.154501 0.217955
Si Si7 0.275212 0.508404 0.671960
O O1 0.723644 0.091443 0.183701
O O2 0.877453 0.435210 0.268078
O O3 0.945372 0.222588 0.054495
O O4 0.837934 0.973093 0.009023
O O5 0.046556 0.188140 0.158041
O O6 0.172824 0.382606 0.011149
O O7 0.500000 0.742377 0.250000
O O8 0.535966 0.973353 0.346461
O O9 0.426958 0.622662 0.410570
O O10 0.676351 0.336366 0.793535
O O11 0.280056 0.304347 0.439474
O O12 0.309017 0.461167 0.570050
O O13 0.500000 0.227655 0.250000
O O14 0.355977 0.312198 0.174596
#
# Coordination Sequence:
#
# PCOD9234840 Si02
#       7
#     4   4   4   2   4   4   4
#     4  11  22  42  66  94 130 179 218 269 326 390
#     4  10  22  41  65  95 133 173 222 266 327 387
#     4  11  24  41  66  97 125 173 225 267 331 396
#     4  10  22  42  62  98 134 172 216 272 328 388
#     4  11  24  41  65  97 131 168 220 272 333 393
#     4  11  23  41  66  94 128 173 221 274 325 390
#     4  11  23  42  63  95 135 173 213 277 333 388
#
# _framework density 21.065888999999999
#
# number of rings (size 3 to 8) (size 9 to 14) (size 15 to 20)
#    0.000    1.231    1.538    5.077    0.000    3.077 
#   11.077    1.538    0.000    0.000    0.000    0.000 
#    0.000    0.000    0.000    0.000    0.000    0.000 
#
# Total GULP energy -145350.081983 kJ/mol
# GULP energy per Si atom -5590.387769 kJ/mol
# Density = 2.101794 g / cm^3
# Si number density = 21.065889 Si / 1000 Ang^3
#
#
#
# Elastic Constant Matrix: (Units=GPa)
#
#
# Indices 1 2 3 4 5 6 
#
# 1 105.6335 42.1887 -3.9223 0.0000 1.8362 0.0000
# 2 42.1887 86.9449 32.6537 0.0000 16.9107 0.0000
# 3 -3.9223 32.6537 70.9571 0.0000 -1.4332 0.0000
# 4 0.0000 0.0000 0.0000 -155.1721 0.0000 -180.9318
# 5 1.8362 16.9107 -1.4332 0.0000 26.0339 0.0000
# 6 0.0000 0.0000 0.0000 -180.9318 0.0000 -182.0934
#
#
#
# Elastic Compliance Matrix: (Units=1/GPa)
#
#
# Indices 1 2 3 4 5 6 
#
# 1 0.013372 -0.009533 0.005238 0.000000 0.005537 0.000000
# 2 -0.009533 0.023450 -0.011625 0.000000 -0.015200 0.000000
# 3 0.005238 -0.011625 0.019900 0.000000 0.008277 0.000000
# 4 0.000000 0.000000 0.000000 0.040641 0.000000 -0.040382
# 5 0.005537 -0.015200 0.008277 0.000000 0.048350 0.000000
# 6 0.000000 0.000000 0.000000 -0.040382 0.000000 0.034633
#
#
# Mechanical properties :
#
#
# Convention : Reuss Voigt Hill
#
# Bulk Modulus (GPa) = 40.19114 45.04174 42.61644
# Shear Modulus (GPa) = 22.67783 -49.40530 -13.36374
#
# Velocity S-wave (km/s) = 3.28459 -4.84806 -2.52142
# Velocity P-wave (km/s) = 5.78835 3.14808 3.43471
#
# Compressibility (1/GPa) = 0.02488110
#
# Stress axis : x y z
#
# Youngs Moduli (GPa) = 74.78149 42.64448 50.25229
#
# Poissons Ratio (x) = 0.40653 -0.26322
# Poissons Ratio (y) = 0.71289 0.58420
# Poissons Ratio (z) = -0.39171 0.49575
#
# Static dielectric constant tensor:
#      x y z
#    x 1.767350 0.000000 -0.038750 
#    y 0.000000 1.743340 0.000000 
#    z -0.038750 0.000000 1.769060 
# 
# From -- ./inp_files/67762.got.cif
#   From: 2010.05.17/outbox.cif.g08.bks.cpg/sg13_34_cif.got.tgz:67762.got - 2010.06.03 16:44:36.
