data_PCOD9234429
_publ_section_title
;
Structure prediction by ZEFSAII (Michael W. Deem and Ramdas Pophale) SiO2 
 PCOD9234429
Probable space group: P 2/C
;
_chemical_formula_sum "Si O2"
_cell_formula_units_Z 20
_cell_length_a 8.791379
_cell_length_b 5.626660
_cell_length_c 18.079722
_cell_angle_alpha 90.000000
_cell_angle_beta 82.926934
_cell_angle_gamma 90.000000
_cell_volume 887.527409
_symmetry_space_group_name_H-M "P 2/C"
_symmetry_group_IT_number 13
_symmetry_cell_setting 'monoclinic'
loop_
_space_group_symop_operation_xyz
x,y,z
-x,y,1/2-z
-x,-y,-z
x,-y,1/2+z
loop_
_atom_site_type_symbol
_atom_site_label
_atom_site_fract_x
_atom_site_fract_y
_atom_site_fract_z
Si Si1 0.387470 0.799937 0.476037
Si Si2 0.185081 0.220776 0.733902
Si Si3 0.694329 0.589130 0.427342
Si Si4 0.845995 0.715685 0.710266
Si Si5 0.143075 0.119812 0.451961
O O1 0.510023 0.623936 0.432417
O O2 0.296531 0.687357 0.551145
O O3 0.500000 0.000000 0.500000
O O4 0.265113 0.910875 0.428884
O O5 0.230267 0.293188 0.647983
O O6 0.233958 0.458738 0.775804
O O7 0.000000 0.203039 0.750000
O O8 0.238356 0.957198 0.756137
O O9 0.772435 0.710622 0.494248
O O10 0.891543 0.752360 0.622364
O O11 0.000000 0.698428 0.750000
O O12 0.000000 0.000000 0.500000
#
# Coordination Sequence:
#
# PCOD9234429 Si02
#       5
#     4   4   4   4   4
#     4   9  22  41  67  93 129 170 233 275 338 397
#     4  10  22  39  65  93 135 173 218 270 348 396
#     4  10  22  42  70  94 129 182 223 282 336 408
#     4  10  23  40  59  98 138 174 212 277 343 400
#     4  11  23  38  70 101 133 170 235 282 332 402
#
# _framework density 22.534514999999999
#
# number of rings (size 3 to 8) (size 9 to 14) (size 15 to 20)
#    0.000    2.000    0.000    2.400   14.000    0.800 
#    0.000    1.000    0.000    0.000    0.000    0.000 
#    0.000    0.000    0.000    0.000    0.000    0.000 
#
# Total GULP energy -111503.576628 kJ/mol
# GULP energy per Si atom -5575.178831 kJ/mol
# Density = 2.248323 g / cm^3
# Si number density = 22.534515 Si / 1000 Ang^3
#
#
#
# Elastic Constant Matrix: (Units=GPa)
#
#
# Indices 1 2 3 4 5 6 
#
# 1 66.0116 -1.5041 15.1760 0.0000 3.3112 0.0000
# 2 -1.5041 128.5074 6.7430 0.0000 3.0575 0.0000
# 3 15.1760 6.7430 113.1580 0.0000 0.6011 0.0000
# 4 0.0000 0.0000 0.0000 32.9792 0.0000 -3.6202
# 5 3.3112 3.0575 0.6011 0.0000 23.5910 0.0000
# 6 0.0000 0.0000 0.0000 -3.6202 0.0000 18.1574
#
#
#
# Elastic Compliance Matrix: (Units=1/GPa)
#
#
# Indices 1 2 3 4 5 6 
#
# 1 0.015755 0.000348 -0.002122 0.000000 -0.002202 0.000000
# 2 0.000348 0.007837 -0.000508 0.000000 -0.001052 0.000000
# 3 -0.002122 -0.000508 0.009151 0.000000 0.000131 0.000000
# 4 0.000000 0.000000 0.000000 0.031001 0.000000 0.006181
# 5 -0.002202 -0.001052 0.000131 0.000000 0.042831 0.000000
# 6 0.000000 0.000000 0.000000 0.006181 0.000000 0.056306
#
#
# Mechanical properties :
#
#
# Convention : Reuss Voigt Hill
#
# Bulk Modulus (GPa) = 35.48627 38.72296 37.10461
# Shear Modulus (GPa) = 28.27423 34.09631 31.18527
#
# Velocity S-wave (km/s) = 3.54603 3.89404 3.72410
# Velocity P-wave (km/s) = 5.70504 6.11876 5.91552
#
# Compressibility (1/GPa) = 0.02817992
#
# Stress axis : x y z
#
# Youngs Moduli (GPa) = 63.47142 127.59310 109.27312
#
# Poissons Ratio (x) = -0.04442 0.23188
# Poissons Ratio (y) = -0.02210 0.05552
# Poissons Ratio (z) = 0.13469 0.06483
#
# Static dielectric constant tensor:
#      x y z
#    x 1.817890 0.000000 -0.023840 
#    y 0.000000 2.076160 0.000000 
#    z -0.023840 0.000000 1.832750 
# 
# From -- ./inp_files/62307.got.cif
#   From: 2010.05.17/outbox.cif.g08.bks.cpg/sg13_32_cif.got.tgz:62307.got - 2010.06.03 16:44:36.
