data_PCOD9234444
_publ_section_title
;
Structure prediction by ZEFSAII (Michael W. Deem and Ramdas Pophale) SiO2 
 PCOD9234444
Probable space group: P 2/C
;
_chemical_formula_sum "Si O2"
_cell_formula_units_Z 24
_cell_length_a 10.797664
_cell_length_b 7.194223
_cell_length_c 23.138298
_cell_angle_alpha 90.000000
_cell_angle_beta 32.995992
_cell_angle_gamma 90.000000
_cell_volume 978.829601
_symmetry_space_group_name_H-M "P 2/C"
_symmetry_group_IT_number 13
_symmetry_cell_setting 'monoclinic'
loop_
_space_group_symop_operation_xyz
x,y,z
-x,y,1/2-z
-x,-y,-z
x,-y,1/2+z
loop_
_atom_site_type_symbol
_atom_site_label
_atom_site_fract_x
_atom_site_fract_y
_atom_site_fract_z
Si Si1 0.381360 0.281073 0.951063
Si Si2 0.805071 0.666938 0.365408
Si Si3 0.416476 0.758086 0.717423
Si Si4 0.828062 0.630510 0.485890
Si Si5 0.331409 0.683182 0.265187
Si Si6 0.022826 0.085040 0.174587
O O1 0.574522 0.342729 0.921186
O O2 0.561663 0.212412 0.831590
O O3 0.221727 0.419554 0.973873
O O4 0.216500 0.159452 0.055143
O O5 0.779417 0.583666 0.438157
O O6 0.000000 0.577985 0.250000
O O7 0.897809 0.873424 0.344350
O O8 0.500000 0.806343 0.750000
O O9 0.639510 0.757251 0.589325
O O10 0.336995 0.539971 0.750170
O O11 0.208743 0.867463 0.769356
O O12 0.076595 0.716020 0.387293
O O13 0.500000 0.724625 0.250000
O O14 0.000000 0.160698 0.250000
#
# Coordination Sequence:
#
# PCOD9234444 Si02
#       6
#     4   4   4   4   4   4
#     4  11  22  39  69  94 126 168 215 272 327 384
#     4  11  23  41  63  92 131 167 214 268 325 390
#     4  10  23  41  66  98 134 172 216 268 329 390
#     4  11  22  41  66  98 131 162 219 272 324 384
#     4  10  22  39  67 101 129 169 216 271 328 384
#     4  11  24  42  65  94 132 176 217 266 326 387
#
# _framework density 24.519078
#
# number of rings (size 3 to 8) (size 9 to 14) (size 15 to 20)
#    0.000    1.333    3.333    2.000    2.333    5.333 
#    0.000    1.667    0.000    0.000    0.000    0.000 
#    0.000    0.000    0.000    0.000    0.000    0.000 
#
# Total GULP energy -133888.667483 kJ/mol
# GULP energy per Si atom -5578.694478 kJ/mol
# Density = 2.446327 g / cm^3
# Si number density = 24.519078 Si / 1000 Ang^3
#
#
#
# Elastic Constant Matrix: (Units=GPa)
#
#
# Indices 1 2 3 4 5 6 
#
# 1 129.6095 -3.8960 57.2195 0.0000 -12.8570 0.0000
# 2 -3.8960 70.8957 22.2972 0.0000 -8.1424 0.0000
# 3 57.2195 22.2972 204.4877 0.0000 -36.6141 0.0000
# 4 0.0000 0.0000 0.0000 -5.6298 0.0000 -76.5753
# 5 -12.8570 -8.1424 -36.6141 0.0000 39.6053 0.0000
# 6 0.0000 0.0000 0.0000 -76.5753 0.0000 -171.7057
#
#
#
# Elastic Compliance Matrix: (Units=1/GPa)
#
#
# Indices 1 2 3 4 5 6 
#
# 1 0.008946 0.001378 -0.002496 0.000000 0.000880 0.000000
# 2 0.001378 0.014930 -0.001658 0.000000 0.001984 0.000000
# 3 -0.002496 -0.001658 0.006667 0.000000 0.005012 0.000000
# 4 0.000000 0.000000 0.000000 0.035063 0.000000 -0.015637
# 5 0.000880 0.001984 0.005012 0.000000 0.030576 0.000000
# 6 0.000000 0.000000 0.000000 -0.015637 0.000000 0.001150
#
#
# Mechanical properties :
#
#
# Convention : Reuss Voigt Hill
#
# Bulk Modulus (GPa) = 40.01567 61.80380 50.90973
# Shear Modulus (GPa) = 44.95790 -5.58789 19.68500
#
# Velocity S-wave (km/s) = 4.28669 -1.51127 2.83652
# Velocity P-wave (km/s) = 6.39191 4.71337 5.61571
#
# Compressibility (1/GPa) = 0.02499021
#
# Stress axis : x y z
#
# Youngs Moduli (GPa) = 111.78074 66.97780 149.99337
#
# Poissons Ratio (x) = -0.09227 0.37438
# Poissons Ratio (y) = -0.15400 0.24874
# Poissons Ratio (z) = 0.27900 0.11107
#
# Static dielectric constant tensor:
#      x y z
#    x 1.916310 0.000000 0.057460 
#    y 0.000000 2.051020 0.000000 
#    z 0.057460 0.000000 2.027400 
# 
# From -- ./inp_files/86286.got.cif
#   From: 2010.05.17/outbox.cif.g08.bks.cpg/sg13_44_cif.got.tgz:86286.got - 2010.06.03 16:44:36.
