data_PCOD9234886
_publ_section_title
;
Structure prediction by ZEFSAII (Michael W. Deem and Ramdas Pophale) SiO2 
 PCOD9234886
Probable space group: P 2/C
;
_chemical_formula_sum "Si O2"
_cell_formula_units_Z 28
_cell_length_a 7.420514
_cell_length_b 8.814465
_cell_length_c 18.954717
_cell_angle_alpha 90.000000
_cell_angle_beta 63.443198
_cell_angle_gamma 90.000000
_cell_volume 1108.979461
_symmetry_space_group_name_H-M "P 2/C"
_symmetry_group_IT_number 13
_symmetry_cell_setting 'monoclinic'
loop_
_space_group_symop_operation_xyz
x,y,z
-x,y,1/2-z
-x,-y,-z
x,-y,1/2+z
loop_
_atom_site_type_symbol
_atom_site_label
_atom_site_fract_x
_atom_site_fract_y
_atom_site_fract_z
Si Si1 0.433659 0.280188 0.106314
Si Si2 0.138669 0.596716 0.925361
Si Si3 0.331789 0.279008 0.642704
Si Si4 0.000000 0.038902 0.750000
Si Si5 0.500000 0.500000 0.500000
Si Si6 0.709134 0.445925 0.247683
Si Si7 0.998076 0.926691 0.598307
Si Si8 0.663859 0.036974 0.562598
O O1 0.631414 0.397467 0.080489
O O2 0.363928 0.347795 0.045031
O O3 0.270133 0.323355 0.193484
O O4 0.526352 0.114514 0.094622
O O5 0.149086 0.535640 0.843786
O O6 0.066204 0.767856 0.925892
O O7 0.000000 0.500000 0.000000
O O8 0.162409 0.154377 0.687888
O O9 0.338925 0.386849 0.573195
O O10 0.321676 0.394507 0.709645
O O11 0.532091 0.180834 0.602692
O O12 0.043491 0.936893 0.811419
O O13 0.500000 0.390227 0.250000
O O14 0.222633 0.967790 0.532785
O O15 0.843390 0.039659 0.587780
#
# Coordination Sequence:
#
# PCOD9234886 Si02
#       8
#     4   4   4   2   2   4   4   4
#     4   9  20  40  64  97 137 171 228 281 345 417
#     4  10  22  41  67  96 136 181 229 292 343 429
#     4  11  26  44  72 100 143 189 236 296 359 437
#     4  12  28  46  64 114 150 184 238 320 368 424
#     4  10  22  42  66 104 136 180 234 290 360 424
#     4   9  21  39  65 100 126 177 237 282 348 419
#     4  10  25  44  70 110 145 182 249 296 366 432
#     4  10  23  46  75 100 139 199 237 291 349 452
#
# _framework density 25.248436999999999
#
# number of rings (size 3 to 8) (size 9 to 14) (size 15 to 20)
#    0.000    2.000    0.000    0.857   10.000    5.714 
#    2.571    0.000    0.000    0.000    0.000    0.000 
#    0.000    0.000    0.000    0.000    0.000    0.000 
#
# Total GULP energy -156101.971315 kJ/mol
# GULP energy per Si atom -5575.070404 kJ/mol
# Density = 2.519097 g / cm^3
# Si number density = 25.248437 Si / 1000 Ang^3
#
#
#
# Elastic Constant Matrix: (Units=GPa)
#
#
# Indices 1 2 3 4 5 6 
#
# 1 60.3069 18.0852 32.0727 0.0000 -14.0247 0.0000
# 2 18.0852 120.6706 63.9218 0.0000 -16.1159 0.0000
# 3 32.0727 63.9218 226.1148 0.0000 2.1240 0.0000
# 4 0.0000 0.0000 0.0000 50.7679 0.0000 -5.9769
# 5 -14.0247 -16.1159 2.1240 0.0000 28.5449 0.0000
# 6 0.0000 0.0000 0.0000 -5.9769 0.0000 22.2877
#
#
#
# Elastic Compliance Matrix: (Units=1/GPa)
#
#
# Indices 1 2 3 4 5 6 
#
# 1 0.020594 -0.000138 -0.002978 0.000000 0.010262 0.000000
# 2 -0.000138 0.010776 -0.003085 0.000000 0.006246 0.000000
# 3 -0.002978 -0.003085 0.005751 0.000000 -0.003633 0.000000
# 4 0.000000 0.000000 0.000000 0.020340 0.000000 0.005455
# 5 0.010262 0.006246 -0.003633 0.000000 0.043871 0.000000
# 6 0.000000 0.000000 0.000000 0.005455 0.000000 0.046331
#
#
# Mechanical properties :
#
#
# Convention : Reuss Voigt Hill
#
# Bulk Modulus (GPa) = 40.45768 70.58352 55.52060
# Shear Modulus (GPa) = 29.70782 39.85427 34.78104
#
# Velocity S-wave (km/s) = 3.43391 3.97733 3.71557
# Velocity P-wave (km/s) = 5.63746 7.00774 6.35961
#
# Compressibility (1/GPa) = 0.02471719
#
# Stress axis : x y z
#
# Youngs Moduli (GPa) = 48.55855 92.79592 173.87135
#
# Poissons Ratio (x) = 0.01283 0.51785
# Poissons Ratio (y) = 0.00671 0.53648
# Poissons Ratio (z) = 0.14463 0.28632
#
# Static dielectric constant tensor:
#      x y z
#    x 1.869300 0.000000 -0.188070 
#    y 0.000000 1.971520 0.000000 
#    z -0.188070 0.000000 1.868470 
# 
# From -- ./inp_files/75959.got.cif
#   From: 2010.05.17/outbox.cif.g08.bks.cpg/sg13_38_cif.got.tgz:75959.got - 2010.06.03 16:44:36.
