data_PCOD9234579
_publ_section_title
;
Structure prediction by ZEFSAII (Michael W. Deem and Ramdas Pophale) SiO2 
 PCOD9234579
Probable space group: P 2/C
;
_chemical_formula_sum "Si O2"
_cell_formula_units_Z 24
_cell_length_a 6.537797
_cell_length_b 13.767314
_cell_length_c 15.361242
_cell_angle_alpha 90.000000
_cell_angle_beta 49.873031
_cell_angle_gamma 90.000000
_cell_volume 1057.186408
_symmetry_space_group_name_H-M "P 2/C"
_symmetry_group_IT_number 13
_symmetry_cell_setting 'monoclinic'
loop_
_space_group_symop_operation_xyz
x,y,z
-x,y,1/2-z
-x,-y,-z
x,-y,1/2+z
loop_
_atom_site_type_symbol
_atom_site_label
_atom_site_fract_x
_atom_site_fract_y
_atom_site_fract_z
Si Si1 0.260572 0.924163 0.542682
Si Si2 0.500000 0.278843 0.250000
Si Si3 0.313318 0.793557 0.092454
Si Si4 0.397084 0.378324 0.938928
Si Si5 0.985772 0.786385 0.501372
Si Si6 0.692786 0.434828 0.335241
Si Si7 0.000000 0.956829 0.250000
O O1 0.405105 0.823535 0.530936
O O2 0.144564 0.884958 0.483433
O O3 0.500000 0.000000 0.500000
O O4 0.021804 0.971300 0.662664
O O5 0.271497 0.220312 0.364542
O O6 0.644066 0.348045 0.281335
O O7 0.351477 0.694660 0.132180
O O8 0.243009 0.880408 0.177711
O O9 0.102901 0.790798 0.073571
O O10 0.480896 0.479346 0.872881
O O11 0.355549 0.400974 0.052373
O O12 0.155539 0.312927 0.968669
O O13 0.000000 0.469012 0.250000
#
# Coordination Sequence:
#
# PCOD9234579 Si02
#       7
#     4   2   4   4   4   4   2
#     4   9  22  42  62  91 124 168 212 267 323 388
#     4  12  24  38  66 106 124 174 226 268 324 394
#     4  10  22  43  64  93 129 171 213 268 327 388
#     4  10  23  42  63  90 136 173 209 278 318 386
#     4  11  23  40  68  96 129 165 225 270 326 390
#     4  11  23  41  64  93 132 174 220 263 329 385
#     4  10  22  40  64  88 132 166 212 264 330 386
#
# _framework density 22.701765999999999
#
# number of rings (size 3 to 8) (size 9 to 14) (size 15 to 20)
#    0.000    1.667    3.333    0.000    3.500    4.667 
#    0.000   11.667    0.000    0.000    0.000    0.000 
#    0.000    0.000    0.000    0.000    0.000    0.000 
#
# Total GULP energy -133686.935230 kJ/mol
# GULP energy per Si atom -5570.288968 kJ/mol
# Density = 2.265010 g / cm^3
# Si number density = 22.701766 Si / 1000 Ang^3
#
#
#
# Elastic Constant Matrix: (Units=GPa)
#
#
# Indices 1 2 3 4 5 6 
#
# 1 78.7046 4.3181 12.2974 0.0000 -3.5849 0.0000
# 2 4.3181 76.6479 15.4785 0.0000 -7.7806 0.0000
# 3 12.2974 15.4785 55.0276 0.0000 -12.3024 0.0000
# 4 0.0000 0.0000 0.0000 33.2168 0.0000 -16.1401
# 5 -3.5849 -7.7806 -12.3024 0.0000 24.4237 0.0000
# 6 0.0000 0.0000 0.0000 -16.1401 0.0000 20.0324
#
#
#
# Elastic Compliance Matrix: (Units=1/GPa)
#
#
# Indices 1 2 3 4 5 6 
#
# 1 0.013172 -0.000128 -0.002800 0.000000 0.000482 0.000000
# 2 -0.000128 0.014000 -0.003287 0.000000 0.002786 0.000000
# 3 -0.002800 -0.003287 0.021859 0.000000 0.009552 0.000000
# 4 0.000000 0.000000 0.000000 0.049474 0.000000 0.039861
# 5 0.000482 0.002786 0.009552 0.000000 0.046714 0.000000
# 6 0.000000 0.000000 0.000000 0.039861 0.000000 0.082035
#
#
# Mechanical properties :
#
#
# Convention : Reuss Voigt Hill
#
# Bulk Modulus (GPa) = 27.32067 30.50758 28.91412
# Shear Modulus (GPa) = 19.85048 27.42033 23.63540
#
# Velocity S-wave (km/s) = 2.96024 3.47918 3.23015
# Velocity P-wave (km/s) = 4.87286 5.44125 5.16488
#
# Compressibility (1/GPa) = 0.03660232
#
# Stress axis : x y z
#
# Youngs Moduli (GPa) = 75.91751 71.42655 45.74875
#
# Poissons Ratio (x) = 0.00912 0.12809
# Poissons Ratio (y) = 0.00969 0.15037
# Poissons Ratio (z) = 0.21256 0.23476
#
# Static dielectric constant tensor:
#      x y z
#    x 1.930790 0.000000 -0.102410 
#    y 0.000000 1.876480 0.000000 
#    z -0.102410 0.000000 1.972160 
# 
# From -- ./inp_files/43932.got.cif
#   From: 2010.05.17/outbox.cif.g08.bks.cpg/sg13_22_cif.got.tgz:43932.got - 2010.06.03 16:44:36.
