data_PCOD9234564
_publ_section_title
;
Structure prediction by ZEFSAII (Michael W. Deem and Ramdas Pophale) SiO2 
 PCOD9234564
Probable space group: P 2/C
;
_chemical_formula_sum "Si O2"
_cell_formula_units_Z 20
_cell_length_a 7.234020
_cell_length_b 10.179072
_cell_length_c 11.978944
_cell_angle_alpha 90.000000
_cell_angle_beta 121.299882
_cell_angle_gamma 90.000000
_cell_volume 753.699300
_symmetry_space_group_name_H-M "P 2/C"
_symmetry_group_IT_number 13
_symmetry_cell_setting 'monoclinic'
loop_
_space_group_symop_operation_xyz
x,y,z
-x,y,1/2-z
-x,-y,-z
x,-y,1/2+z
loop_
_atom_site_type_symbol
_atom_site_label
_atom_site_fract_x
_atom_site_fract_y
_atom_site_fract_z
Si Si1 0.356359 0.282899 0.509681
Si Si2 0.707170 0.004674 0.484446
Si Si3 0.139156 0.635539 0.136495
Si Si4 0.000000 0.856286 0.250000
Si Si5 0.331564 0.281018 0.099467
Si Si6 0.000000 0.592594 0.750000
O O1 0.557484 0.291796 0.489102
O O2 0.327595 0.380449 0.604064
O O3 0.164888 0.315877 0.365128
O O4 0.294118 0.145795 0.550627
O O5 0.897002 0.050047 0.625565
O O6 0.695960 0.122238 0.392737
O O7 0.500000 0.000000 0.500000
O O8 0.118378 0.506513 0.203698
O O9 0.155313 0.756562 0.229602
O O10 0.908841 0.660895 0.999005
O O11 0.500000 0.322365 0.250000
#
# Coordination Sequence:
#
# PCOD9234564 Si02
#       6
#     4   4   4   2   4   2
#     4  11  22  38  63  89 121 168 208 254 322 375
#     4   9  20  37  61  97 127 159 211 260 322 399
#     4  10  23  42  61  90 127 167 217 262 311 379
#     4   9  19  38  60  86 129 163 196 270 328 369
#     4  10  22  40  63  94 130 160 202 265 322 384
#     4  11  23  42  64  90 127 169 222 270 304 369
#
# _framework density 26.535782000000001
#
# number of rings (size 3 to 8) (size 9 to 14) (size 15 to 20)
#    0.000    2.000    0.000    2.400    0.000    8.800 
#    0.000   17.000    0.000    1.200    0.000    0.000 
#    0.000    0.000    0.000    0.000    0.000    0.000 
#
# Total GULP energy -111842.423049 kJ/mol
# GULP energy per Si atom -5592.121152 kJ/mol
# Density = 2.647539 g / cm^3
# Si number density = 26.535782 Si / 1000 Ang^3
#
#
#
# Elastic Constant Matrix: (Units=GPa)
#
#
# Indices 1 2 3 4 5 6 
#
# 1 109.1535 21.5164 33.0219 0.0000 -34.6805 0.0000
# 2 21.5164 36.3403 -7.0946 0.0000 -9.6891 0.0000
# 3 33.0219 -7.0946 136.6289 0.0000 1.2465 0.0000
# 4 0.0000 0.0000 0.0000 -78.2522 0.0000 67.6927
# 5 -34.6805 -9.6891 1.2465 0.0000 42.2204 0.0000
# 6 0.0000 0.0000 0.0000 67.6927 0.0000 -18.5011
#
#
#
# Elastic Compliance Matrix: (Units=1/GPa)
#
#
# Indices 1 2 3 4 5 6 
#
# 1 0.015316 -0.006917 -0.004162 0.000000 0.011116 0.000000
# 2 -0.006917 0.032730 0.003356 0.000000 0.001730 0.000000
# 3 -0.004162 0.003356 0.008526 0.000000 -0.002901 0.000000
# 4 0.000000 0.000000 0.000000 0.005902 0.000000 0.021596
# 5 0.011116 0.001730 -0.002901 0.000000 0.033299 0.000000
# 6 0.000000 0.000000 0.000000 0.021596 0.000000 0.024964
#
#
# Mechanical properties :
#
#
# Convention : Reuss Voigt Hill
#
# Bulk Modulus (GPa) = 24.31695 41.89001 33.10348
# Shear Modulus (GPa) = 33.35716 4.73869 19.04792
#
# Velocity S-wave (km/s) = 3.54936 1.33778 2.68212
# Velocity P-wave (km/s) = 5.09715 4.26693 4.70041
#
# Compressibility (1/GPa) = 0.04112357
#
# Stress axis : x y z
#
# Youngs Moduli (GPa) = 65.29111 30.55345 117.29117
#
# Poissons Ratio (x) = 0.21134 0.48820
# Poissons Ratio (y) = 0.45162 -0.39357
# Poissons Ratio (z) = 0.27176 -0.10252
#
# Static dielectric constant tensor:
#      x y z
#    x 2.012420 0.000000 -0.032210 
#    y 0.000000 2.233570 0.000000 
#    z -0.032210 0.000000 2.030430 
# 
# From -- ./inp_files/29154.got.cif
#   From: 2010.05.17/outbox.cif.g08.bks.cpg/sg13_15_cif.got.tgz:29154.got - 2010.06.03 16:44:36.
