data_PCOD9234428
_publ_section_title
;
Structure prediction by ZEFSAII (Michael W. Deem and Ramdas Pophale) SiO2 
 PCOD9234428
Probable space group: P 2/C
;
_chemical_formula_sum "Si O2"
_cell_formula_units_Z 20
_cell_length_a 8.013034
_cell_length_b 5.387291
_cell_length_c 18.641009
_cell_angle_alpha 90.000000
_cell_angle_beta 85.206597
_cell_angle_gamma 90.000000
_cell_volume 801.890787
_symmetry_space_group_name_H-M "P 2/C"
_symmetry_group_IT_number 13
_symmetry_cell_setting 'monoclinic'
loop_
_space_group_symop_operation_xyz
x,y,z
-x,y,1/2-z
-x,-y,-z
x,-y,1/2+z
loop_
_atom_site_type_symbol
_atom_site_label
_atom_site_fract_x
_atom_site_fract_y
_atom_site_fract_z
Si Si1 0.903344 0.794059 0.677481
Si Si2 0.039782 0.718368 0.163132
Si Si3 0.668316 0.062510 0.399127
Si Si4 0.557725 0.424094 0.176603
Si Si5 0.386246 0.705709 0.462856
O O1 0.707903 0.753377 0.696290
O O2 0.000000 0.820361 0.750000
O O3 0.996917 0.557799 0.638186
O O4 0.925015 0.057183 0.638044
O O5 0.000000 0.693297 0.250000
O O6 0.218792 0.845215 0.139384
O O7 0.602688 0.279142 0.349278
O O8 0.734461 0.185316 0.471215
O O9 0.498665 0.930272 0.430127
O O10 0.500000 0.569271 0.250000
O O11 0.650924 0.568058 0.109761
O O12 0.500000 0.500000 0.500000
#
# Coordination Sequence:
#
# PCOD9234428 Si02
#       5
#     4   4   4   4   4
#     4  10  23  40  59  98 139 176 214 285 354 407
#     4  10  22  39  65  92 136 176 222 275 352 398
#     4  10  22  42  68  92 132 181 228 284 337 411
#     4  11  23  38  69 100 133 173 239 285 337 408
#     4   9  22  41  67  94 130 173 234 279 341 398
#
# _framework density 24.941051999999999
#
# number of rings (size 3 to 8) (size 9 to 14) (size 15 to 20)
#    0.000    2.000    0.000    2.400   14.000    0.800 
#    0.000    2.000    0.000    0.000    0.000    0.000 
#    0.000    0.000    0.000    0.000    0.000    0.000 
#
# Total GULP energy -111429.737113 kJ/mol
# GULP energy per Si atom -5571.486856 kJ/mol
# Density = 2.488428 g / cm^3
# Si number density = 24.941052 Si / 1000 Ang^3
#
#
#
# Elastic Constant Matrix: (Units=GPa)
#
#
# Indices 1 2 3 4 5 6 
#
# 1 53.3617 -12.3125 30.3913 0.0000 -8.7382 0.0000
# 2 -12.3125 131.5745 30.0993 0.0000 -5.5604 0.0000
# 3 30.3913 30.0993 135.3118 0.0000 -12.1435 0.0000
# 4 0.0000 0.0000 0.0000 14.7765 0.0000 -7.9381
# 5 -8.7382 -5.5604 -12.1435 0.0000 27.1872 0.0000
# 6 0.0000 0.0000 0.0000 -7.9381 0.0000 36.7074
#
#
#
# Elastic Compliance Matrix: (Units=1/GPa)
#
#
# Indices 1 2 3 4 5 6 
#
# 1 0.023795 0.003769 -0.005654 0.000000 0.005893 0.000000
# 2 0.003769 0.008625 -0.002602 0.000000 0.001813 0.000000
# 3 -0.005654 -0.002602 0.009405 0.000000 0.001852 0.000000
# 4 0.000000 0.000000 0.000000 0.076570 0.000000 0.016559
# 5 0.005893 0.001813 0.001852 0.000000 0.039874 0.000000
# 6 0.000000 0.000000 0.000000 0.016559 0.000000 0.030823
#
#
# Mechanical properties :
#
#
# Convention : Reuss Voigt Hill
#
# Bulk Modulus (GPa) = 30.44076 46.28935 38.36505
# Shear Modulus (GPa) = 23.92145 33.87223 28.89684
#
# Velocity S-wave (km/s) = 3.10033 3.68923 3.40752
# Velocity P-wave (km/s) = 5.00476 6.06193 5.55853
#
# Compressibility (1/GPa) = 0.03285069
#
# Stress axis : x y z
#
# Youngs Moduli (GPa) = 42.02593 115.94315 106.32341
#
# Poissons Ratio (x) = -0.43700 0.60114
# Poissons Ratio (y) = -0.15840 0.27670
# Poissons Ratio (z) = 0.23761 0.30173
#
# Static dielectric constant tensor:
#      x y z
#    x 2.016180 0.000000 0.137370 
#    y 0.000000 2.128630 0.000000 
#    z 0.137370 0.000000 1.900280 
# 
# From -- ./inp_files/62326.got.cif
#   From: 2010.05.17/outbox.cif.g08.bks.cpg/sg13_32_cif.got.tgz:62326.got - 2010.06.03 16:44:36.
