data_PCOD9234145
_publ_section_title
;
Structure prediction by ZEFSAII (Michael W. Deem and Ramdas Pophale) SiO2 
 PCOD9234145
Probable space group: P 2/C
;
_chemical_formula_sum "Si O2"
_cell_formula_units_Z 20
_cell_length_a 13.325220
_cell_length_b 4.813985
_cell_length_c 18.372587
_cell_angle_alpha 90.000000
_cell_angle_beta 138.528940
_cell_angle_gamma 90.000000
_cell_volume 780.487471
_symmetry_space_group_name_H-M "P 2/C"
_symmetry_group_IT_number 13
_symmetry_cell_setting 'monoclinic'
loop_
_space_group_symop_operation_xyz
x,y,z
-x,y,1/2-z
-x,-y,-z
x,-y,1/2+z
loop_
_atom_site_type_symbol
_atom_site_label
_atom_site_fract_x
_atom_site_fract_y
_atom_site_fract_z
Si Si1 0.616282 0.568969 0.154491
Si Si2 0.664723 0.509921 0.340444
Si Si3 0.410626 0.899582 0.567278
Si Si4 0.114621 0.176395 0.437740
Si Si5 0.939831 0.286520 0.791873
O O1 0.686825 0.438703 0.268332
O O2 0.488472 0.345745 0.062883
O O3 0.764637 0.640220 0.190384
O O4 0.532297 0.855101 0.127889
O O5 0.500000 0.658880 0.250000
O O6 0.632840 0.259443 0.380126
O O7 0.797617 0.698216 0.444619
O O8 0.252306 0.048900 0.464828
O O9 0.033475 0.435208 0.356953
O O10 0.990380 0.935419 0.380590
O O11 0.000000 0.159271 0.750000
#
# Coordination Sequence:
#
# PCOD9234145 Si02
#       5
#     4   4   4   4   4
#     4  11  25  40  71 103 139 181 218 271 353 404
#     4  10  22  37  74 100 142 161 214 286 345 403
#     4  11  21  42  68 106 130 174 222 277 334 412
#     4  12  23  45  72 101 133 181 227 276 349 397
#     4  12  28  50  66  93 144 187 230 283 326 391
#
# _framework density 25.625012000000002
#
# number of rings (size 3 to 8) (size 9 to 14) (size 15 to 20)
#    0.000    0.800    6.000    1.800    8.400    1.600 
#    0.000    6.000    0.000    0.000    0.000    0.000 
#    0.000    0.000    0.000    0.000    0.000    0.000 
#
# Total GULP energy -111765.525494 kJ/mol
# GULP energy per Si atom -5588.276275 kJ/mol
# Density = 2.556669 g / cm^3
# Si number density = 25.625012 Si / 1000 Ang^3
#
#
#
# Elastic Constant Matrix: (Units=GPa)
#
#
# Indices 1 2 3 4 5 6 
#
# 1 55.8730 2.7082 24.9973 0.0000 13.2233 0.0000
# 2 2.7082 162.4082 50.0678 0.0000 12.7758 0.0000
# 3 24.9973 50.0678 134.7986 0.0000 32.6804 0.0000
# 4 0.0000 0.0000 0.0000 30.2495 0.0000 44.4941
# 5 13.2233 12.7758 32.6804 0.0000 19.8893 0.0000
# 6 0.0000 0.0000 0.0000 44.4941 0.0000 8.1888
#
#
#
# Elastic Compliance Matrix: (Units=1/GPa)
#
#
# Indices 1 2 3 4 5 6 
#
# 1 0.021453 0.001038 -0.001237 0.000000 -0.012897 0.000000
# 2 0.001038 0.007005 -0.002553 0.000000 -0.000995 0.000000
# 3 -0.001237 -0.002553 0.013296 0.000000 -0.019383 0.000000
# 4 0.000000 0.000000 0.000000 -0.004728 0.000000 0.025689
# 5 -0.012897 -0.000995 -0.019383 0.000000 0.091341 0.000000
# 6 0.000000 0.000000 0.000000 0.025689 0.000000 -0.017465
#
#
# Mechanical properties :
#
#
# Convention : Reuss Voigt Hill
#
# Bulk Modulus (GPa) = 27.58654 56.51407 42.05031
# Shear Modulus (GPa) = 38.91344 30.01929 34.46636
#
# Velocity S-wave (km/s) = 3.90111 3.42641 3.67144
# Velocity P-wave (km/s) = 5.57498 6.14458 5.86670
#
# Compressibility (1/GPa) = 0.03624956
#
# Stress axis : x y z
#
# Youngs Moduli (GPa) = 46.61295 142.74650 75.21295
#
# Poissons Ratio (x) = -0.14820 0.09305
# Poissons Ratio (y) = -0.04839 0.19205
# Poissons Ratio (z) = 0.05767 0.36449
#
# Static dielectric constant tensor:
#      x y z
#    x 2.055520 0.000000 -0.071920 
#    y 0.000000 2.009490 0.000000 
#    z -0.071920 0.000000 2.084840 
# 
# From -- ./inp_files/79140.got.cif
#   From: 2010.05.17/outbox.cif.g08.bks.cpg/sg13_40_cif.got.tgz:79140.got - 2010.06.03 16:44:36.
