data_PCOD9234651
_publ_section_title
;
Structure prediction by ZEFSAII (Michael W. Deem and Ramdas Pophale) SiO2 
 PCOD9234651
Probable space group: P 2/C
;
_chemical_formula_sum "Si O2"
_cell_formula_units_Z 28
_cell_length_a 5.253599
_cell_length_b 20.246817
_cell_length_c 10.600404
_cell_angle_alpha 90.000000
_cell_angle_beta 79.971251
_cell_angle_gamma 90.000000
_cell_volume 1110.322330
_symmetry_space_group_name_H-M "P 2/C"
_symmetry_group_IT_number 13
_symmetry_cell_setting 'monoclinic'
loop_
_space_group_symop_operation_xyz
x,y,z
-x,y,1/2-z
-x,-y,-z
x,-y,1/2+z
loop_
_atom_site_type_symbol
_atom_site_label
_atom_site_fract_x
_atom_site_fract_y
_atom_site_fract_z
Si Si1 0.813482 0.122082 0.370162
Si Si2 0.481935 0.754542 0.966779
Si Si3 0.500000 0.012389 0.250000
Si Si4 0.150446 0.904201 0.362462
Si Si5 0.780885 0.546093 0.663242
Si Si6 0.014990 0.682839 0.553567
Si Si7 0.500000 0.784243 0.250000
Si Si8 0.219648 0.596294 0.333461
O O1 0.586299 0.172785 0.426765
O O2 0.691008 0.059028 0.311856
O O3 0.961571 0.104912 0.488049
O O4 0.000000 0.152988 0.250000
O O5 0.208400 0.736655 0.929931
O O6 0.433731 0.749514 0.122890
O O7 0.722288 0.707176 0.900392
O O8 0.362127 0.961662 0.357547
O O9 0.270535 0.834014 0.310834
O O10 0.000000 0.925129 0.250000
O O11 0.500000 0.553361 0.750000
O O12 0.863207 0.614434 0.593070
O O13 0.772084 0.474676 0.592983
O O14 0.000000 0.540413 0.750000
O O15 0.141400 0.662249 0.410741
O O16 0.500000 0.602460 0.250000
O O17 0.000000 0.588631 0.250000
#
# Coordination Sequence:
#
# PCOD9234651 Si02
#       8
#     4   4   2   4   4   4   2   4
#     4  11  27  46  71 107 151 199 242 312 370 444
#     4  11  28  43  69 100 140 196 242 297 360 445
#     4  11  24  44  74 106 150 183 258 298 378 435
#     4  10  23  46  77 108 140 189 244 310 381 438
#     4  10  22  42  66  95 136 182 230 295 364 432
#     4  12  25  43  68 100 136 186 242 291 360 437
#     4   9  24  44  66  96 140 181 230 304 368 435
#     4  10  22  40  67 102 135 172 231 302 367 425
#
# _framework density 25.217904000000001
#
# number of rings (size 3 to 8) (size 9 to 14) (size 15 to 20)
#    0.000    1.429    0.000    3.000    9.000    6.286 
#    0.000    5.714    0.000    0.000    0.000    0.000 
#    0.000    0.000    0.000    0.000    0.000    0.000 
#
# Total GULP energy -156412.601550 kJ/mol
# GULP energy per Si atom -5586.164341 kJ/mol
# Density = 2.516051 g / cm^3
# Si number density = 25.217904 Si / 1000 Ang^3
#
#
#
# Elastic Constant Matrix: (Units=GPa)
#
#
# Indices 1 2 3 4 5 6 
#
# 1 136.8054 24.9519 41.0939 0.0000 -21.1035 0.0000
# 2 24.9519 81.3961 17.9264 0.0000 -5.8093 0.0000
# 3 41.0939 17.9264 116.5217 0.0000 -4.6647 0.0000
# 4 0.0000 0.0000 0.0000 -7.2978 0.0000 6.6531
# 5 -21.1035 -5.8093 -4.6647 0.0000 28.6565 0.0000
# 6 0.0000 0.0000 0.0000 6.6531 0.0000 40.8676
#
#
#
# Elastic Compliance Matrix: (Units=1/GPa)
#
#
# Indices 1 2 3 4 5 6 
#
# 1 0.009429 -0.001838 -0.002798 0.000000 0.006116 0.000000
# 2 -0.001838 0.013224 -0.001342 0.000000 0.001109 0.000000
# 3 -0.002798 -0.001342 0.009745 0.000000 -0.000746 0.000000
# 4 0.000000 0.000000 0.000000 -0.119319 0.000000 0.019425
# 5 0.006116 0.001109 -0.000746 0.000000 0.039503 0.000000
# 6 0.000000 0.000000 0.000000 0.019425 0.000000 0.021307
#
#
# Mechanical properties :
#
#
# Convention : Reuss Voigt Hill
#
# Bulk Modulus (GPa) = 48.91644 55.85197 52.38421
# Shear Modulus (GPa) = -680.91941 29.16201 -325.87870
#
# Velocity S-wave (km/s) = -16.44994 3.40428 -11.38006
# Velocity P-wave (km/s) = 18.47596 6.13579 12.32301
#
# Compressibility (1/GPa) = 0.02044302
#
# Stress axis : x y z
#
# Youngs Moduli (GPa) = 106.06059 75.62217 102.61329
#
# Poissons Ratio (x) = 0.13897 0.28708
# Poissons Ratio (y) = 0.19491 0.13770
# Poissons Ratio (z) = 0.29672 0.10148
#
# Static dielectric constant tensor:
#      x y z
#    x 1.974400 0.000000 0.000310 
#    y 0.000000 2.084910 0.000000 
#    z 0.000310 0.000000 2.041620 
# 
# From -- ./inp_files/26717.got.cif
#   From: 2010.05.17/outbox.cif.g08.bks.cpg/sg13_14_cif.got.tgz:26717.got - 2010.06.03 16:44:36.
