data_PCOD9234859
_publ_section_title
;
Structure prediction by ZEFSAII (Michael W. Deem and Ramdas Pophale) SiO2 
 PCOD9234859
Probable space group: P 2/C
;
_chemical_formula_sum "Si O2"
_cell_formula_units_Z 20
_cell_length_a 10.364559
_cell_length_b 5.195772
_cell_length_c 14.510157
_cell_angle_alpha 90.000000
_cell_angle_beta 91.052430
_cell_angle_gamma 90.000000
_cell_volume 781.267495
_symmetry_space_group_name_H-M "P 2/C"
_symmetry_group_IT_number 13
_symmetry_cell_setting 'monoclinic'
loop_
_space_group_symop_operation_xyz
x,y,z
-x,y,1/2-z
-x,-y,-z
x,-y,1/2+z
loop_
_atom_site_type_symbol
_atom_site_label
_atom_site_fract_x
_atom_site_fract_y
_atom_site_fract_z
Si Si1 0.378626 0.692608 0.996355
Si Si2 0.491428 0.071980 0.848251
Si Si3 0.983173 0.846144 0.403814
Si Si4 0.754347 0.590824 0.154811
Si Si5 0.116974 0.348770 0.181847
O O1 0.259464 0.558496 0.943301
O O2 0.422061 0.903880 0.924163
O O3 0.500000 0.500000 0.000000
O O4 0.381097 0.818332 0.098266
O O5 0.500000 0.937056 0.750000
O O6 0.384780 0.288074 0.830013
O O7 0.911646 0.568443 0.395334
O O8 0.125555 0.788691 0.360737
O O9 0.896417 0.056197 0.349233
O O10 0.000000 0.000000 0.500000
O O11 0.770947 0.416426 0.245884
O O12 0.000000 0.387936 0.250000
#
# Coordination Sequence:
#
# PCOD9234859 Si02
#       5
#     4   4   4   4   4
#     4   9  21  42  64  98 134 175 231 288 351 421
#     4  10  22  42  69  99 135 177 235 292 350 426
#     4  11  24  42  65 101 140 175 232 288 338 417
#     4  10  23  41  71  91 140 187 219 291 357 415
#     4  10  22  41  66  96 134 181 230 277 342 417
#
# _framework density 25.599426999999999
#
# number of rings (size 3 to 8) (size 9 to 14) (size 15 to 20)
#    0.000    2.000    0.000    2.400    8.400    4.800 
#   10.800    0.000    0.000    0.000    0.000    0.000 
#    0.000    0.000    0.000    0.000    0.000    0.000 
#
# Total GULP energy -111568.404026 kJ/mol
# GULP energy per Si atom -5578.420201 kJ/mol
# Density = 2.554116 g / cm^3
# Si number density = 25.599427 Si / 1000 Ang^3
#
#
#
# Elastic Constant Matrix: (Units=GPa)
#
#
# Indices 1 2 3 4 5 6 
#
# 1 78.6084 37.8382 40.2260 0.0000 20.6820 0.0000
# 2 37.8382 101.3314 32.6269 0.0000 26.5170 0.0000
# 3 40.2260 32.6269 143.8550 0.0000 23.0551 0.0000
# 4 0.0000 0.0000 0.0000 39.9639 0.0000 17.9551
# 5 20.6820 26.5170 23.0551 0.0000 39.5117 0.0000
# 6 0.0000 0.0000 0.0000 17.9551 0.0000 22.7477
#
#
#
# Elastic Compliance Matrix: (Units=1/GPa)
#
#
# Indices 1 2 3 4 5 6 
#
# 1 0.017651 -0.004398 -0.003233 0.000000 -0.004401 0.000000
# 2 -0.004398 0.013399 -0.000813 0.000000 -0.006216 0.000000
# 3 -0.003233 -0.000813 0.008474 0.000000 -0.002707 0.000000
# 4 0.000000 0.000000 0.000000 0.038772 0.000000 -0.030604
# 5 -0.004401 -0.006216 -0.002707 0.000000 0.033363 0.000000
# 6 0.000000 0.000000 0.000000 -0.030604 0.000000 0.068117
#
#
# Mechanical properties :
#
#
# Convention : Reuss Voigt Hill
#
# Bulk Modulus (GPa) = 44.17845 60.57522 52.37684
# Shear Modulus (GPa) = 24.48470 34.65156 29.56813
#
# Velocity S-wave (km/s) = 3.09602 3.68313 3.40226
# Velocity P-wave (km/s) = 5.48411 6.46540 5.99487
#
# Compressibility (1/GPa) = 0.02263547
#
# Stress axis : x y z
#
# Youngs Moduli (GPa) = 56.65522 74.63037 118.01409
#
# Poissons Ratio (x) = 0.32825 0.38151
# Poissons Ratio (y) = 0.24919 0.09594
# Poissons Ratio (z) = 0.18315 0.06067
#
# Static dielectric constant tensor:
#      x y z
#    x 2.181540 0.000000 -0.002370 
#    y 0.000000 2.071340 0.000000 
#    z -0.002370 0.000000 2.044080 
# 
# From -- ./inp_files/48978.got.cif
#   From: 2010.05.17/outbox.cif.g08.bks.cpg/sg13_25_cif.got.tgz:48978.got - 2010.06.03 16:44:36.
