data_PCOD9234555
_publ_section_title
;
Structure prediction by ZEFSAII (Michael W. Deem and Ramdas Pophale) SiO2 
 PCOD9234555
Probable space group: P 2/C
;
_chemical_formula_sum "Si O2"
_cell_formula_units_Z 12
_cell_length_a 17.731480
_cell_length_b 5.955266
_cell_length_c 18.319804
_cell_angle_alpha 90.000000
_cell_angle_beta 15.378258
_cell_angle_gamma 90.000000
_cell_volume 513.008467
_symmetry_space_group_name_H-M "P 2/C"
_symmetry_group_IT_number 13
_symmetry_cell_setting 'monoclinic'
loop_
_space_group_symop_operation_xyz
x,y,z
-x,y,1/2-z
-x,-y,-z
x,-y,1/2+z
loop_
_atom_site_type_symbol
_atom_site_label
_atom_site_fract_x
_atom_site_fract_y
_atom_site_fract_z
Si Si1 0.709829 0.575359 0.201631
Si Si2 0.667244 0.187916 0.889250
Si Si3 0.868945 0.191792 0.292721
O O1 0.554923 0.337247 0.357586
O O2 0.787508 0.663949 0.210373
O O3 0.459539 0.733932 0.401967
O O4 0.967345 0.617878 0.906588
O O5 0.881888 0.047419 0.738978
O O6 0.500000 0.000000 0.000000
O O7 0.000000 0.177457 0.250000
#
# Coordination Sequence:
#
# PCOD9234555 Si02
#       3
#     4   4   4
#     4  10  22  40  63  92 124 164 217 269 317 381
#     4   9  21  40  66  91 121 165 216 266 318 381
#     4  11  23  40  61  92 131 169 210 263 329 390
#
# _framework density 23.391425000000002
#
# number of rings (size 3 to 8) (size 9 to 14) (size 15 to 20)
#    0.000    2.000    0.000    2.000    0.000   18.667 
#    0.000    6.667    0.000    0.000    0.000    0.000 
#    0.000    0.000    0.000    0.000    0.000    0.000 
#
# Total GULP energy -67141.831587 kJ/mol
# GULP energy per Si atom -5595.152632 kJ/mol
# Density = 2.333819 g / cm^3
# Si number density = 23.391425 Si / 1000 Ang^3
#
#
#
# Elastic Constant Matrix: (Units=GPa)
#
#
# Indices 1 2 3 4 5 6 
#
# 1 197.8447 56.7367 32.9837 0.0000 -29.4036 0.0000
# 2 56.7367 116.7104 5.9893 0.0000 -6.1376 0.0000
# 3 32.9837 5.9893 68.6091 0.0000 4.2325 0.0000
# 4 0.0000 0.0000 0.0000 36.0832 0.0000 0.0083
# 5 -29.4036 -6.1376 4.2325 0.0000 30.2869 0.0000
# 6 0.0000 0.0000 0.0000 0.0083 0.0000 18.3154
#
#
#
# Elastic Compliance Matrix: (Units=1/GPa)
#
#
# Indices 1 2 3 4 5 6 
#
# 1 0.007705 -0.003158 -0.003884 0.000000 0.007383 0.000000
# 2 -0.003158 0.010007 0.000715 0.000000 -0.001138 0.000000
# 3 -0.003884 0.000715 0.016748 0.000000 -0.005966 0.000000
# 4 0.000000 0.000000 0.000000 0.027714 0.000000 -0.000012
# 5 0.007383 -0.001138 -0.005966 0.000000 0.040788 0.000000
# 6 0.000000 0.000000 0.000000 -0.000012 0.000000 0.054599
#
#
# Mechanical properties :
#
#
# Convention : Reuss Voigt Hill
#
# Bulk Modulus (GPa) = 45.85930 63.84263 54.85097
# Shear Modulus (GPa) = 28.17159 36.10072 32.13615
#
# Velocity S-wave (km/s) = 3.47415 3.93279 3.71056
# Velocity P-wave (km/s) = 5.97835 6.92639 6.46976
#
# Compressibility (1/GPa) = 0.02180583
#
# Stress axis : x y z
#
# Youngs Moduli (GPa) = 129.78833 99.93108 59.70808
#
# Poissons Ratio (x) = 0.31558 0.23190
# Poissons Ratio (y) = 0.40987 -0.04268
# Poissons Ratio (z) = 0.50408 -0.07143
#
# Static dielectric constant tensor:
#      x y z
#    x 1.821000 0.000000 0.000410 
#    y 0.000000 1.971120 0.000000 
#    z 0.000410 0.000000 1.916450 
# 
# From -- ./inp_files/80446.got.cif
#   From: 2010.05.17/outbox.cif.g08.bks.cpg/sg13_41_cif.got.tgz:80446.got - 2010.06.03 16:44:36.
