data_PCOD9234058
_publ_section_title
;
Structure prediction by ZEFSAII (Michael W. Deem and Ramdas Pophale) SiO2 
 PCOD9234058
Probable space group: P 2/C
;
_chemical_formula_sum "Si O2"
_cell_formula_units_Z 28
_cell_length_a 17.283917
_cell_length_b 7.898367
_cell_length_c 8.335792
_cell_angle_alpha 90.000000
_cell_angle_beta 86.087090
_cell_angle_gamma 90.000000
_cell_volume 1135.305645
_symmetry_space_group_name_H-M "P 2/C"
_symmetry_group_IT_number 13
_symmetry_cell_setting 'monoclinic'
loop_
_space_group_symop_operation_xyz
x,y,z
-x,y,1/2-z
-x,-y,-z
x,-y,1/2+z
loop_
_atom_site_type_symbol
_atom_site_label
_atom_site_fract_x
_atom_site_fract_y
_atom_site_fract_z
Si Si1 0.000000 0.608064 0.750000
Si Si2 0.233487 0.473239 0.067577
Si Si3 0.410862 0.815228 0.571274
Si Si4 0.173706 0.838348 0.165938
Si Si5 0.500000 0.891936 0.250000
Si Si6 0.673706 0.338348 0.165937
Si Si7 0.733487 0.026760 0.567576
Si Si8 0.089138 0.684772 0.428726
O O1 0.041640 0.709391 0.599990
O O2 0.056633 0.480993 0.840254
O O3 0.188417 0.650543 0.097470
O O4 0.253221 0.390568 0.233691
O O5 0.315442 0.526211 0.975421
O O6 0.176541 0.356543 0.974390
O O7 0.458360 0.790609 0.400009
O O8 0.401515 0.674885 0.711586
O O9 0.443367 0.980993 0.659746
O O10 0.323459 0.856543 0.525611
O O11 0.098485 0.825114 0.288415
O O12 0.246779 0.890569 0.266309
O O13 0.184558 0.973788 0.024579
O O14 0.688416 0.150543 0.097469
#
# Coordination Sequence:
#
# PCOD9234058 Si02
#       8
#     2   4   4   4   2   4   4   4
#     4  10  22  36  62  86 118 166 204 242 274 354
#     4  11  22  37  62  96 120 152 190 256 310 352
#     4  11  20  39  59  93 115 155 204 246 285 354
#     4  11  22  37  60  94 125 150 195 246 313 351
#     4  10  22  36  62  86 118 166 204 242 274 354
#     4  11  22  37  60  94 125 150 195 246 313 351
#     4  11  22  37  62  96 120 152 190 256 310 352
#     4  11  20  39  59  93 115 155 204 246 285 354
#
# _framework density 24.662962
#
# number of rings (size 3 to 8) (size 9 to 14) (size 15 to 20)
#    0.000    1.143    5.714    0.857    0.000    0.000 
#    0.000    0.000    0.000    5.143    0.000    0.000 
#    0.000    0.000    0.000    0.000    0.000    0.000 
#
# Total GULP energy -156343.868343 kJ/mol
# GULP energy per Si atom -5583.709584 kJ/mol
# Density = 2.460683 g / cm^3
# Si number density = 24.662962 Si / 1000 Ang^3
#
#
#
# Elastic Constant Matrix: (Units=GPa)
#
#
# Indices 1 2 3 4 5 6 
#
# 1 53.4411 3.2424 28.0141 0.0000 -35.2020 0.0000
# 2 3.2424 64.8372 24.5179 0.0000 -15.4757 0.0000
# 3 28.0141 24.5179 135.4214 0.0000 -57.9235 0.0000
# 4 0.0000 0.0000 0.0000 56.8048 0.0000 -9.8937
# 5 -35.2020 -15.4757 -57.9235 0.0000 66.9881 0.0000
# 6 0.0000 0.0000 0.0000 -9.8937 0.0000 20.8552
#
#
#
# Elastic Compliance Matrix: (Units=1/GPa)
#
#
# Indices 1 2 3 4 5 6 
#
# 1 0.028965 0.002215 0.000534 0.000000 0.016195 0.000000
# 2 0.002215 0.016889 -0.002141 0.000000 0.003214 0.000000
# 3 0.000534 -0.002141 0.012013 0.000000 0.010173 0.000000
# 4 0.000000 0.000000 0.000000 0.019190 0.000000 0.009104
# 5 0.016195 0.003214 0.010173 0.000000 0.032978 0.000000
# 6 0.000000 0.000000 0.000000 0.009104 0.000000 0.052268
#
#
# Mechanical properties :
#
#
# Convention : Reuss Voigt Hill
#
# Bulk Modulus (GPa) = 16.92524 40.58315 28.75419
# Shear Modulus (GPa) = 27.65758 42.12464 34.89111
#
# Velocity S-wave (km/s) = 3.35240 4.13729 3.76535
# Velocity P-wave (km/s) = 4.67571 6.27007 5.53064
#
# Compressibility (1/GPa) = 0.05908337
#
# Stress axis : x y z
#
# Youngs Moduli (GPa) = 34.52394 59.20885 83.24333
#
# Poissons Ratio (x) = -0.13115 -0.04444
# Poissons Ratio (y) = -0.07647 0.17823
# Poissons Ratio (z) = -0.01843 0.12677
#
# Static dielectric constant tensor:
#      x y z
#    x 1.968440 0.000000 -0.108270 
#    y 0.000000 1.942360 0.000000 
#    z -0.108270 0.000000 1.970720 
# 
# From -- ./inp_files/21174.got.cif
#   From: 2010.05.17/outbox.cif.g08.bks.cpg/sg13_11_cif.got.tgz:21174.got - 2010.06.03 16:44:36.
