data_PCOD9234660
_publ_section_title
;
Structure prediction by ZEFSAII (Michael W. Deem and Ramdas Pophale) SiO2 
 PCOD9234660
Probable space group: P 2/C
;
_chemical_formula_sum "Si O2"
_cell_formula_units_Z 22
_cell_length_a 15.426905
_cell_length_b 8.239495
_cell_length_c 13.127894
_cell_angle_alpha 90.000000
_cell_angle_beta 35.992655
_cell_angle_gamma 90.000000
_cell_volume 980.655587
_symmetry_space_group_name_H-M "P 2/C"
_symmetry_group_IT_number 13
_symmetry_cell_setting 'monoclinic'
loop_
_space_group_symop_operation_xyz
x,y,z
-x,y,1/2-z
-x,-y,-z
x,-y,1/2+z
loop_
_atom_site_type_symbol
_atom_site_label
_atom_site_fract_x
_atom_site_fract_y
_atom_site_fract_z
Si Si1 0.800711 0.200783 0.170966
Si Si2 0.500000 0.238602 0.750000
Si Si3 0.718194 0.572606 0.930908
Si Si4 0.649590 0.147419 0.810587
Si Si5 0.088682 0.353017 0.863211
Si Si6 0.481477 0.684450 0.647872
O O1 0.781215 0.284662 0.299993
O O2 0.691312 0.312458 0.208566
O O3 0.737878 0.020581 0.230305
O O4 0.965459 0.214964 0.971736
O O5 0.650278 0.342424 0.593177
O O6 0.540620 0.149626 0.816627
O O7 0.837596 0.428869 0.808756
O O8 0.567150 0.481737 0.039405
O O9 0.776992 0.285525 0.696664
O O10 0.553892 0.184413 0.002806
O O11 0.000000 0.500000 0.000000
O O12 0.500000 0.717160 0.750000
#
# Coordination Sequence:
#
# PCOD9234660 Si02
#       6
#     4   2   4   4   4   4
#     4  11  22  42  67  98 141 176 226 284 351 418
#     4  12  24  40  72 100 144 180 236 290 342 410
#     4  10  22  40  67  98 131 179 228 287 342 401
#     4  11  25  42  67 103 141 182 228 281 354 413
#     4   9  22  42  70  95 136 178 230 285 342 416
#     4  11  23  39  67 101 134 178 235 288 336 404
#
# _framework density 22.433972000000001
#
# number of rings (size 3 to 8) (size 9 to 14) (size 15 to 20)
#    0.000    1.455    2.727    1.636    6.364    0.000 
#    0.000   12.727    0.000   10.909    0.000    0.000 
#    0.000    0.000    0.000    0.000    0.000    0.000 
#
# Total GULP energy -122637.683370 kJ/mol
# GULP energy per Si atom -5574.440153 kJ/mol
# Density = 2.238291 g / cm^3
# Si number density = 22.433972 Si / 1000 Ang^3
#
#
#
# Elastic Constant Matrix: (Units=GPa)
#
#
# Indices 1 2 3 4 5 6 
#
# 1 61.0042 24.4136 48.9115 0.0000 -3.8738 0.0000
# 2 24.4136 100.6185 30.7526 0.0000 7.1413 0.0000
# 3 48.9115 30.7526 137.7626 0.0000 -3.3877 0.0000
# 4 0.0000 0.0000 0.0000 40.7040 0.0000 -10.9913
# 5 -3.8738 7.1413 -3.3877 0.0000 35.9283 0.0000
# 6 0.0000 0.0000 0.0000 -10.9913 0.0000 11.5778
#
#
#
# Elastic Compliance Matrix: (Units=1/GPa)
#
#
# Indices 1 2 3 4 5 6 
#
# 1 0.024223 -0.003708 -0.007708 0.000000 0.002622 0.000000
# 2 -0.003708 0.011435 -0.001305 0.000000 -0.002796 0.000000
# 3 -0.007708 -0.001305 0.010297 0.000000 0.000399 0.000000
# 4 0.000000 0.000000 0.000000 0.033036 0.000000 0.031363
# 5 0.002622 -0.002796 0.000399 0.000000 0.028709 0.000000
# 6 0.000000 0.000000 0.000000 0.031363 0.000000 0.116146
#
#
# Mechanical properties :
#
#
# Convention : Reuss Voigt Hill
#
# Bulk Modulus (GPa) = 48.74848 56.39342 52.57095
# Shear Modulus (GPa) = 19.52173 30.66256 25.09215
#
# Velocity S-wave (km/s) = 2.95309 3.70102 3.34801
# Velocity P-wave (km/s) = 5.77967 6.59208 6.19920
#
# Compressibility (1/GPa) = 0.02051346
#
# Stress axis : x y z
#
# Youngs Moduli (GPa) = 41.28392 87.44755 97.11893
#
# Poissons Ratio (x) = 0.32421 0.74858
# Poissons Ratio (y) = 0.15306 0.12675
# Poissons Ratio (z) = 0.31821 0.11413
#
# Static dielectric constant tensor:
#      x y z
#    x 1.865830 0.000000 0.014930 
#    y 0.000000 1.927370 0.000000 
#    z 0.014930 0.000000 1.877390 
# 
# From -- ./inp_files/55180.got.cif
#   From: 2010.05.17/outbox.cif.g08.bks.cpg/sg13_28_cif.got.tgz:55180.got - 2010.06.03 16:44:36.
