data_PCOD9234326
_publ_section_title
;
Structure prediction by ZEFSAII (Michael W. Deem and Ramdas Pophale) SiO2 
 PCOD9234326
Probable space group: P 2/C
;
_chemical_formula_sum "Si O2"
_cell_formula_units_Z 30
_cell_length_a 13.249596
_cell_length_b 11.446193
_cell_length_c 24.001648
_cell_angle_alpha 90.000000
_cell_angle_beta 156.286409
_cell_angle_gamma 90.000000
_cell_volume 1463.891873
_symmetry_space_group_name_H-M "P 2/C"
_symmetry_group_IT_number 13
_symmetry_cell_setting 'monoclinic'
loop_
_space_group_symop_operation_xyz
x,y,z
-x,y,1/2-z
-x,-y,-z
x,-y,1/2+z
loop_
_atom_site_type_symbol
_atom_site_label
_atom_site_fract_x
_atom_site_fract_y
_atom_site_fract_z
Si Si1 0.500000 0.510587 0.250000
Si Si2 0.103947 0.947317 0.864396
Si Si3 0.263474 0.739595 0.792825
Si Si4 0.222689 0.611794 0.958017
Si Si5 0.536177 0.732122 0.207589
Si Si6 0.675111 0.370031 0.435718
Si Si7 0.469050 0.222979 0.959357
Si Si8 0.938620 0.180467 0.829178
O O1 0.639195 0.602391 0.278550
O O2 0.674850 0.428418 0.375035
O O3 0.000000 0.973775 0.750000
O O4 0.915009 0.852957 0.796303
O O5 0.369380 0.885500 0.984967
O O6 0.088744 0.061349 0.894549
O O7 0.412259 0.695521 0.814411
O O8 0.061489 0.637621 0.703606
O O9 0.470592 0.766707 0.945103
O O10 0.294520 0.690534 0.049368
O O11 0.286036 0.479490 0.003491
O O12 0.405888 0.662610 0.004133
O O13 0.500000 0.788454 0.250000
O O14 0.705468 0.813441 0.254621
O O15 0.884781 0.277839 0.556098
O O16 0.191605 0.212630 0.795457
#
# Coordination Sequence:
#
# PCOD9234326 Si02
#       8
#     2   4   4   4   4   4   4   4
#     4   8  20  42  60  84 122 156 194 252 310 368
#     4   9  21  40  63  84 120 170 205 243 298 353
#     4  10  22  39  59  84 126 167 197 243 302 366
#     4   9  19  37  58  86 118 161 197 243 307 362
#     4   8  18  38  63  88 114 159 199 245 307 355
#     4  11  24  35  62  95 116 152 211 252 302 363
#     4   9  21  41  57  84 126 167 198 236 312 359
#     4  11  23  35  63  95 117 152 215 252 283 367
#
# _framework density 20.493317000000001
#
# number of rings (size 3 to 8) (size 9 to 14) (size 15 to 20)
#    0.400    2.133    0.000    1.200    9.333    3.200 
#    2.400    0.000    1.467    8.000    0.000    0.000 
#    0.000    0.000    0.000    0.000    0.000    0.000 
#
# Total GULP energy -167072.721744 kJ/mol
# GULP energy per Si atom -5569.090725 kJ/mol
# Density = 2.044667 g / cm^3
# Si number density = 20.493317 Si / 1000 Ang^3
#
#
#
# Elastic Constant Matrix: (Units=GPa)
#
#
# Indices 1 2 3 4 5 6 
#
# 1 57.0669 28.1982 12.0908 0.0000 -15.2288 0.0000
# 2 28.1982 72.1918 19.9311 0.0000 -15.6892 0.0000
# 3 12.0908 19.9311 44.9282 0.0000 -9.1104 0.0000
# 4 0.0000 0.0000 0.0000 6.4276 0.0000 -5.3397
# 5 -15.2288 -15.6892 -9.1104 0.0000 15.1132 0.0000
# 6 0.0000 0.0000 0.0000 -5.3397 0.0000 -4.1817
#
#
#
# Elastic Compliance Matrix: (Units=1/GPa)
#
#
# Indices 1 2 3 4 5 6 
#
# 1 0.025663 -0.005611 -0.000404 0.000000 0.019791 0.000000
# 2 -0.005611 0.020051 -0.004911 0.000000 0.012201 0.000000
# 3 -0.000404 -0.004911 0.026691 0.000000 0.010585 0.000000
# 4 0.000000 0.000000 0.000000 0.075494 0.000000 -0.096401
# 5 0.019791 0.012201 0.010585 0.000000 0.105156 0.000000
# 6 0.000000 0.000000 0.000000 -0.096401 0.000000 -0.116041
#
#
# Mechanical properties :
#
#
# Convention : Reuss Voigt Hill
#
# Bulk Modulus (GPa) = 19.78123 32.73633 26.25878
# Shear Modulus (GPa) = 28.45482 11.06961 19.76222
#
# Velocity S-wave (km/s) = 3.73029 2.32665 3.10873
# Velocity P-wave (km/s) = 5.31290 4.81939 5.07215
#
# Compressibility (1/GPa) = 0.05055298
#
# Stress axis : x y z
#
# Youngs Moduli (GPa) = 38.96670 49.87234 37.46524
#
# Poissons Ratio (x) = 0.27986 0.01513
# Poissons Ratio (y) = 0.21866 0.18399
# Poissons Ratio (z) = 0.01574 0.24492
#
# Static dielectric constant tensor:
#      x y z
#    x 1.759120 0.000000 0.000690 
#    y 0.000000 1.733360 0.000000 
#    z 0.000690 0.000000 1.771960 
# 
# From -- ./inp_files/92950.got.cif
#   From: 2010.05.17/outbox.cif.g08.bks.cpg/sg13_47_cif.got.tgz:92950.got - 2010.06.03 16:44:36.
