data_PCOD9234688
_publ_section_title
;
Structure prediction by ZEFSAII (Michael W. Deem and Ramdas Pophale) SiO2 
 PCOD9234688
Probable space group: P 2/C
;
_chemical_formula_sum "Si O2"
_cell_formula_units_Z 20
_cell_length_a 14.869462
_cell_length_b 13.677649
_cell_length_c 7.475594
_cell_angle_alpha 90.000000
_cell_angle_beta 143.099988
_cell_angle_gamma 90.000000
_cell_volume 912.867722
_symmetry_space_group_name_H-M "P 2/C"
_symmetry_group_IT_number 13
_symmetry_cell_setting 'monoclinic'
loop_
_space_group_symop_operation_xyz
x,y,z
-x,y,1/2-z
-x,-y,-z
x,-y,1/2+z
loop_
_atom_site_type_symbol
_atom_site_label
_atom_site_fract_x
_atom_site_fract_y
_atom_site_fract_z
Si Si1 0.000000 0.554668 0.250000
Si Si2 0.191953 0.386989 0.379911
Si Si3 0.719874 0.139260 0.259974
Si Si4 0.500000 0.699474 0.250000
Si Si5 0.863637 0.822601 0.641463
Si Si6 0.666076 0.919730 0.057269
O O1 0.869669 0.484745 0.124940
O O2 0.089033 0.615580 0.538576
O O3 0.368679 0.369870 0.623002
O O4 0.149311 0.291444 0.423643
O O5 0.755769 0.117575 0.524592
O O6 0.597903 0.226030 0.031754
O O7 0.855639 0.163933 0.340620
O O8 0.665237 0.034765 0.096645
O O9 0.719896 0.870851 0.324070
O O10 0.000000 0.868202 0.750000
O O11 0.500000 0.888001 0.750000
#
# Coordination Sequence:
#
# PCOD9234688 Si02
#       6
#     2   4   4   2   4   4
#     4  10  22  44  76  88 134 168 204 266 364 406
#     4  10  22  44  68 101 124 172 211 275 335 405
#     4  11  22  40  64  94 131 182 221 269 317 379
#     4  10  22  40  68  98 136 160 230 272 310 390
#     4  11  25  42  63  96 136 168 227 275 319 396
#     4  12  22  39  66  90 129 182 225 263 325 377
#
# _framework density 21.908981000000001
#
# number of rings (size 3 to 8) (size 9 to 14) (size 15 to 20)
#    0.000    1.200    4.000    3.000    0.000    5.600 
#    0.000    0.000    2.200    0.000    0.000    0.000 
#    0.000    0.000    0.000    0.000    0.000    0.000 
#
# Total GULP energy -111479.727914 kJ/mol
# GULP energy per Si atom -5573.986396 kJ/mol
# Density = 2.185912 g / cm^3
# Si number density = 21.908981 Si / 1000 Ang^3
#
#
#
# Elastic Constant Matrix: (Units=GPa)
#
#
# Indices 1 2 3 4 5 6 
#
# 1 107.0243 19.4690 18.0669 0.0000 15.4801 0.0000
# 2 19.4690 84.8185 34.9462 0.0000 5.7313 0.0000
# 3 18.0669 34.9462 48.1763 0.0000 7.2242 0.0000
# 4 0.0000 0.0000 0.0000 28.7153 0.0000 30.5046
# 5 15.4801 5.7313 7.2242 0.0000 47.9285 0.0000
# 6 0.0000 0.0000 0.0000 30.5046 0.0000 59.4341
#
#
#
# Elastic Compliance Matrix: (Units=1/GPa)
#
#
# Indices 1 2 3 4 5 6 
#
# 1 0.010404 -0.001090 -0.002687 0.000000 -0.002825 0.000000
# 2 -0.001090 0.016931 -0.011891 0.000000 0.000120 0.000000
# 3 -0.002687 -0.011891 0.030742 0.000000 -0.002344 0.000000
# 4 0.000000 0.000000 0.000000 0.076577 0.000000 -0.039303
# 5 -0.002825 0.000120 -0.002344 0.000000 0.022116 0.000000
# 6 0.000000 0.000000 0.000000 -0.039303 0.000000 0.036998
#
#
# Mechanical properties :
#
#
# Convention : Reuss Voigt Hill
#
# Bulk Modulus (GPa) = 37.39621 42.77591 40.08606
# Shear Modulus (GPa) = 21.36599 38.38472 29.87536
#
# Velocity S-wave (km/s) = 3.12623 4.19024 3.69672
# Velocity P-wave (km/s) = 5.48972 6.55573 6.04627
#
# Compressibility (1/GPa) = 0.02674068
#
# Stress axis : x y z
#
# Youngs Moduli (GPa) = 96.11471 59.06295 32.52916
#
# Poissons Ratio (x) = 0.06438 0.08742
# Poissons Ratio (y) = 0.10476 0.38679
# Poissons Ratio (z) = 0.25831 0.70230
#
# Static dielectric constant tensor:
#      x y z
#    x 1.929230 0.000000 0.047260 
#    y 0.000000 1.775710 0.000000 
#    z 0.047260 0.000000 1.800290 
# 
# From -- ./inp_files/21782.got.cif
#   From: 2010.05.17/outbox.cif.g08.bks.cpg/sg13_11_cif.got.tgz:21782.got - 2010.06.03 16:44:36.
