data_PCOD9234845
_publ_section_title
;
Structure prediction by ZEFSAII (Michael W. Deem and Ramdas Pophale) SiO2 
 PCOD9234845
Probable space group: P 2/C
;
_chemical_formula_sum "Si O2"
_cell_formula_units_Z 20
_cell_length_a 8.261602
_cell_length_b 8.602169
_cell_length_c 15.697567
_cell_angle_alpha 90.000000
_cell_angle_beta 59.132249
_cell_angle_gamma 90.000000
_cell_volume 957.570874
_symmetry_space_group_name_H-M "P 2/C"
_symmetry_group_IT_number 13
_symmetry_cell_setting 'monoclinic'
loop_
_space_group_symop_operation_xyz
x,y,z
-x,y,1/2-z
-x,-y,-z
x,-y,1/2+z
loop_
_atom_site_type_symbol
_atom_site_label
_atom_site_fract_x
_atom_site_fract_y
_atom_site_fract_z
Si Si1 0.461567 0.113146 0.882558
Si Si2 0.226253 0.895930 0.620970
Si Si3 0.095460 0.934828 0.389506
Si Si4 0.500000 0.612967 0.250000
Si Si5 0.090436 0.562080 0.389292
Si Si6 0.000000 0.372719 0.250000
O O1 0.533775 0.273458 0.821938
O O2 0.971912 0.979608 0.851101
O O3 0.335821 0.140244 0.002088
O O4 0.317303 0.042097 0.850745
O O5 0.364721 0.007443 0.636117
O O6 0.176639 0.741822 0.686621
O O7 0.072126 0.748789 0.389304
O O8 0.000000 0.000000 0.500000
O O9 0.312311 0.522921 0.323955
O O10 0.000000 0.500000 0.500000
O O11 0.004020 0.478917 0.331592
#
# Coordination Sequence:
#
# PCOD9234845 Si02
#       6
#     4   4   4   2   4   2
#     4   9  20  40  66  96 125 166 230 294 322 398
#     4  10  22  41  65  99 130 167 234 278 340 407
#     4   9  19  40  72  91 124 181 220 283 338 389
#     4  10  22  42  68  94 130 182 232 274 348 410
#     4  11  25  47  64 100 145 177 226 285 355 408
#     4  12  26  40  66 102 138 184 220 274 358 428
#
# _framework density 20.886182000000002
#
# number of rings (size 3 to 8) (size 9 to 14) (size 15 to 20)
#    0.000    2.000    0.000    3.600    8.400    0.000 
#   14.400    2.000    0.000    0.000    0.000    0.000 
#    0.000    0.000    0.000    0.000    0.000    0.000 
#
# Total GULP energy -111634.615161 kJ/mol
# GULP energy per Si atom -5581.730758 kJ/mol
# Density = 2.083864 g / cm^3
# Si number density = 20.886182 Si / 1000 Ang^3
#
#
#
# Elastic Constant Matrix: (Units=GPa)
#
#
# Indices 1 2 3 4 5 6 
#
# 1 118.4438 42.6311 56.4683 0.0000 4.5191 0.0000
# 2 42.6311 65.5663 29.5167 0.0000 9.0833 0.0000
# 3 56.4683 29.5167 131.0487 0.0000 3.5997 0.0000
# 4 0.0000 0.0000 0.0000 32.1161 0.0000 -5.7831
# 5 4.5191 9.0833 3.5997 0.0000 45.6346 0.0000
# 6 0.0000 0.0000 0.0000 -5.7831 0.0000 24.6078
#
#
#
# Elastic Compliance Matrix: (Units=1/GPa)
#
#
# Indices 1 2 3 4 5 6 
#
# 1 0.012676 -0.006485 -0.004011 0.000000 0.000352 0.000000
# 2 -0.006485 0.020735 -0.001784 0.000000 -0.003344 0.000000
# 3 -0.004011 -0.001784 0.009761 0.000000 -0.000018 0.000000
# 4 0.000000 0.000000 0.000000 0.032513 0.000000 0.007641
# 5 0.000352 -0.003344 -0.000018 0.000000 0.022545 0.000000
# 6 0.000000 0.000000 0.000000 0.007641 0.000000 0.042433
#
#
# Mechanical properties :
#
#
# Convention : Reuss Voigt Hill
#
# Bulk Modulus (GPa) = 53.72858 63.58790 58.65824
# Shear Modulus (GPa) = 29.16697 32.90121 31.03409
#
# Velocity S-wave (km/s) = 3.74099 3.97326 3.85888
# Velocity P-wave (km/s) = 6.66636 7.18054 6.92822
#
# Compressibility (1/GPa) = 0.01861207
#
# Stress axis : x y z
#
# Youngs Moduli (GPa) = 78.89125 48.22863 102.44472
#
# Poissons Ratio (x) = 0.31275 0.41090
# Poissons Ratio (y) = 0.51159 0.18276
# Poissons Ratio (z) = 0.31643 0.08604
#
# Static dielectric constant tensor:
#      x y z
#    x 1.807230 0.000000 0.033980 
#    y 0.000000 1.723030 0.000000 
#    z 0.033980 0.000000 1.870600 
# 
# From -- ./inp_files/63681.got.cif
#   From: 2010.05.17/outbox.cif.g08.bks.cpg/sg13_32_cif.got.tgz:63681.got - 2010.06.03 16:44:36.
