data_PCOD9234433
_publ_section_title
;
Structure prediction by ZEFSAII (Michael W. Deem and Ramdas Pophale) SiO2 
 PCOD9234433
Probable space group: P 2/C
;
_chemical_formula_sum "Si O2"
_cell_formula_units_Z 28
_cell_length_a 14.068690
_cell_length_b 9.539692
_cell_length_c 20.652692
_cell_angle_alpha 90.000000
_cell_angle_beta 150.360646
_cell_angle_gamma 90.000000
_cell_volume 1370.771923
_symmetry_space_group_name_H-M "P 2/C"
_symmetry_group_IT_number 13
_symmetry_cell_setting 'monoclinic'
loop_
_space_group_symop_operation_xyz
x,y,z
-x,y,1/2-z
-x,-y,-z
x,-y,1/2+z
loop_
_atom_site_type_symbol
_atom_site_label
_atom_site_fract_x
_atom_site_fract_y
_atom_site_fract_z
Si Si1 0.500000 0.719322 0.250000
Si Si2 0.000000 0.712217 0.750000
Si Si3 0.778057 0.640509 0.040691
Si Si4 0.424100 0.527911 0.314182
Si Si5 0.157488 0.162221 0.474459
Si Si6 0.907942 0.650044 0.923255
Si Si7 0.199824 0.552464 0.304702
Si Si8 0.283960 0.867158 0.592099
O O1 0.374334 0.626057 0.224403
O O2 0.624799 0.801849 0.375987
O O3 0.899178 0.803498 0.633431
O O4 0.851967 0.603721 0.698593
O O5 0.761763 0.640150 0.108157
O O6 0.999157 0.606949 0.155661
O O7 0.645653 0.512758 0.938099
O O8 0.695784 0.780646 0.962030
O O9 0.292485 0.392582 0.228489
O O10 0.367360 0.574888 0.352260
O O11 0.031323 0.264955 0.444286
O O12 0.154720 0.002391 0.498159
O O13 0.841301 0.758947 0.938864
O O14 0.000000 0.500000 0.000000
O O15 0.500000 0.891693 0.750000
#
# Coordination Sequence:
#
# PCOD9234433 Si02
#       8
#     2   2   4   4   4   4   4   4
#     4  12  24  38  68 106 132 182 236 278 344 412
#     4  10  22  42  68  98 134 184 228 278 344 408
#     4  10  22  39  65  97 133 182 225 275 346 403
#     4  12  21  38  68 103 140 169 231 300 334 392
#     4  12  26  45  67  95 144 184 226 279 349 415
#     4  12  24  41  70 101 130 179 233 291 340 399
#     4  10  22  41  68 102 140 174 231 290 344 402
#     4  12  25  45  66  98 140 179 226 284 343 413
#
# _framework density 20.426448000000001
#
# number of rings (size 3 to 8) (size 9 to 14) (size 15 to 20)
#    0.000    0.857    5.000    4.286    2.000    1.143 
#    0.000    0.000    0.000    2.571    0.000    0.000 
#    0.000    0.000    0.000    0.000    0.000    0.000 
#
# Total GULP energy -156082.296090 kJ/mol
# GULP energy per Si atom -5574.367718 kJ/mol
# Density = 2.037996 g / cm^3
# Si number density = 20.426448 Si / 1000 Ang^3
#
#
#
# Elastic Constant Matrix: (Units=GPa)
#
#
# Indices 1 2 3 4 5 6 
#
# 1 83.8101 44.1046 23.9477 0.0000 -20.0281 0.0000
# 2 44.1046 95.5018 44.1523 0.0000 -14.8229 0.0000
# 3 23.9477 44.1523 120.0634 0.0000 -24.5816 0.0000
# 4 0.0000 0.0000 0.0000 45.9335 0.0000 -11.5016
# 5 -20.0281 -14.8229 -24.5816 0.0000 30.6697 0.0000
# 6 0.0000 0.0000 0.0000 -11.5016 0.0000 26.3866
#
#
#
# Elastic Compliance Matrix: (Units=1/GPa)
#
#
# Indices 1 2 3 4 5 6 
#
# 1 0.017523 -0.007167 0.000926 0.000000 0.008721 0.000000
# 2 -0.007167 0.015758 -0.004503 0.000000 -0.000674 0.000000
# 3 0.000926 -0.004503 0.011339 0.000000 0.007517 0.000000
# 4 0.000000 0.000000 0.000000 0.024438 0.000000 0.010652
# 5 0.008721 -0.000674 0.007517 0.000000 0.044000 0.000000
# 6 0.000000 0.000000 0.000000 0.010652 0.000000 0.042541
#
#
# Mechanical properties :
#
#
# Convention : Reuss Voigt Hill
#
# Bulk Modulus (GPa) = 43.23029 58.19828 50.71429
# Shear Modulus (GPa) = 27.05658 33.07601 30.06629
#
# Velocity S-wave (km/s) = 3.64343 4.02839 3.84074
# Velocity P-wave (km/s) = 6.23773 7.08454 6.67458
#
# Compressibility (1/GPa) = 0.02313193
#
# Stress axis : x y z
#
# Youngs Moduli (GPa) = 57.06861 63.45881 88.18950
#
# Poissons Ratio (x) = 0.45480 -0.08167
# Poissons Ratio (y) = 0.40900 0.39715
# Poissons Ratio (z) = -0.05285 0.28578
#
# Static dielectric constant tensor:
#      x y z
#    x 1.812270 0.000000 0.016900 
#    y 0.000000 1.784100 0.000000 
#    z 0.016900 0.000000 1.835630 
# 
# From -- ./inp_files/79976.got.cif
#   From: 2010.05.17/outbox.cif.g08.bks.cpg/sg13_40_cif.got.tgz:79976.got - 2010.06.03 16:44:36.
