data_PCOD9234940
_publ_section_title
;
Structure prediction by ZEFSAII (Michael W. Deem and Ramdas Pophale) SiO2 
 PCOD9234940
Probable space group: P 2/C
;
_chemical_formula_sum "Si O2"
_cell_formula_units_Z 22
_cell_length_a 8.626730
_cell_length_b 9.115721
_cell_length_c 15.878790
_cell_angle_alpha 90.000000
_cell_angle_beta 44.818677
_cell_angle_gamma 90.000000
_cell_volume 880.158473
_symmetry_space_group_name_H-M "P 2/C"
_symmetry_group_IT_number 13
_symmetry_cell_setting 'monoclinic'
loop_
_space_group_symop_operation_xyz
x,y,z
-x,y,1/2-z
-x,-y,-z
x,-y,1/2+z
loop_
_atom_site_type_symbol
_atom_site_label
_atom_site_fract_x
_atom_site_fract_y
_atom_site_fract_z
Si Si1 0.140815 0.686630 0.433428
Si Si2 0.500000 0.452999 0.250000
Si Si3 0.000000 0.089304 0.250000
Si Si4 0.500000 0.924813 0.250000
Si Si5 0.079397 0.082762 0.386573
Si Si6 0.639836 0.664603 0.878561
Si Si7 0.836855 0.632701 0.386016
O O1 0.295485 0.544964 0.368582
O O2 0.990405 0.749348 0.567360
O O3 0.977671 0.661655 0.416741
O O4 0.333388 0.811107 0.357761
O O5 0.410890 0.380006 0.198534
O O6 0.040373 0.011436 0.147055
O O7 0.796528 0.197466 0.317348
O O8 0.330114 0.037347 0.274200
O O9 0.000000 0.000000 0.500000
O O10 0.762467 0.533510 0.884174
O O11 0.404898 0.701346 0.011241
O O12 0.000000 0.685415 0.250000
#
# Coordination Sequence:
#
# PCOD9234940 Si02
#       7
#     4   2   2   2   4   4   4
#     4  10  22  41  71  95 139 186 228 293 361 413
#     4  11  22  41  68 106 144 197 232 283 348 440
#     4  12  26  46  72 104 146 186 232 302 374 418
#     4   9  22  47  66  96 126 171 252 295 346 416
#     4  10  25  47  69 101 134 182 242 305 352 422
#     4  11  26  40  68 109 150 187 239 283 349 447
#     4  11  23  43  63 106 147 187 240 281 347 436
#
# _framework density 24.9955
#
# number of rings (size 3 to 8) (size 9 to 14) (size 15 to 20)
#    0.000    1.455    2.727    0.000   10.182    2.182 
#    6.545    3.636    0.000    0.000    0.000    0.000 
#    0.000    0.000    0.000    0.000    0.000    0.000 
#
# Total GULP energy -122610.977793 kJ/mol
# GULP energy per Si atom -5573.226263 kJ/mol
# Density = 2.493861 g / cm^3
# Si number density = 24.995500 Si / 1000 Ang^3
#
#
#
# Elastic Constant Matrix: (Units=GPa)
#
#
# Indices 1 2 3 4 5 6 
#
# 1 153.7405 37.7381 66.5952 0.0000 7.2349 0.0000
# 2 37.7381 60.6702 42.1159 0.0000 -6.8269 0.0000
# 3 66.5952 42.1159 155.0089 0.0000 -11.7604 0.0000
# 4 0.0000 0.0000 0.0000 38.8906 0.0000 -2.4061
# 5 7.2349 -6.8269 -11.7604 0.0000 55.4847 0.0000
# 6 0.0000 0.0000 0.0000 -2.4061 0.0000 15.0286
#
#
#
# Elastic Compliance Matrix: (Units=1/GPa)
#
#
# Indices 1 2 3 4 5 6 
#
# 1 0.008786 -0.003670 -0.002946 0.000000 -0.002222 0.000000
# 2 -0.003670 0.021947 -0.004213 0.000000 0.002286 0.000000
# 3 -0.002946 -0.004213 0.008996 0.000000 0.001773 0.000000
# 4 0.000000 0.000000 0.000000 0.025970 0.000000 0.004158
# 5 -0.002222 0.002286 0.001773 0.000000 0.018970 0.000000
# 6 0.000000 0.000000 0.000000 0.004158 0.000000 0.067205
#
#
# Mechanical properties :
#
#
# Convention : Reuss Voigt Hill
#
# Bulk Modulus (GPa) = 55.33643 73.59090 64.46367
# Shear Modulus (GPa) = 27.84641 36.74546 32.29594
#
# Velocity S-wave (km/s) = 3.34137 3.83833 3.59844
# Velocity P-wave (km/s) = 6.08876 7.01065 6.56590
#
# Compressibility (1/GPa) = 0.01807128
#
# Stress axis : x y z
#
# Youngs Moduli (GPa) = 113.81720 45.56416 111.15961
#
# Poissons Ratio (x) = 0.16722 0.32749
# Poissons Ratio (y) = 0.41771 0.46830
# Poissons Ratio (z) = 0.33532 0.19196
#
# Static dielectric constant tensor:
#      x y z
#    x 2.092240 0.000000 0.105710 
#    y 0.000000 2.192870 0.000000 
#    z 0.105710 0.000000 2.075210 
# 
# From -- ./inp_files/63712.got.cif
#   From: 2010.05.17/outbox.cif.g08.bks.cpg/sg13_32_cif.got.tgz:63712.got - 2010.06.03 16:44:36.
