data_PCOD9234115
_publ_section_title
;
Structure prediction by ZEFSAII (Michael W. Deem and Ramdas Pophale) SiO2 
 PCOD9234115
Probable space group: P 2/C
;
_chemical_formula_sum "Si O2"
_cell_formula_units_Z 32
_cell_length_a 11.952536
_cell_length_b 6.981309
_cell_length_c 17.955190
_cell_angle_alpha 90.000000
_cell_angle_beta 92.600830
_cell_angle_gamma 90.000000
_cell_volume 1496.715770
_symmetry_space_group_name_H-M "P 2/C"
_symmetry_group_IT_number 13
_symmetry_cell_setting 'monoclinic'
loop_
_space_group_symop_operation_xyz
x,y,z
-x,y,1/2-z
-x,-y,-z
x,-y,1/2+z
loop_
_atom_site_type_symbol
_atom_site_label
_atom_site_fract_x
_atom_site_fract_y
_atom_site_fract_z
Si Si1 0.457957 0.263915 0.825719
Si Si2 0.656456 0.631070 0.643740
Si Si3 0.869069 0.766552 0.468431
Si Si4 0.258232 0.019397 0.794971
Si Si5 0.329900 0.902338 0.131756
Si Si6 0.459159 0.184590 0.047203
Si Si7 0.087312 0.926870 0.411710
Si Si8 0.758259 0.395791 0.521360
O O1 0.500000 0.173189 0.750000
O O2 0.410716 0.473432 0.811790
O O3 0.354186 0.132375 0.845545
O O4 0.572511 0.258364 0.874620
O O5 0.569701 0.713000 0.580282
O O6 0.745087 0.512757 0.597965
O O7 0.709343 0.798157 0.693879
O O8 0.759131 0.871798 0.435017
O O9 0.829499 0.546059 0.473423
O O10 0.967996 0.823502 0.414701
O O11 0.908578 0.866443 0.546916
O O12 0.271123 0.091157 0.710675
O O13 0.140930 0.056419 0.831778
O O14 0.396379 0.096940 0.117481
O O15 0.366214 0.324245 0.007194
O O16 0.500000 0.000000 0.000000
O O17 0.168686 0.791238 0.462397
#
# Coordination Sequence:
#
# PCOD9234115 Si02
#       8
#     4   4   4   4   4   4   4   4
#     4  10  22  37  60  90 126 165 205 245 313 386
#     4  12  22  36  63  90 129 169 200 251 320 380
#     4  11  24  43  67  92 120 170 217 270 319 371
#     4  11  23  42  62  92 129 167 210 260 319 387
#     4  11  23  42  63  93 131 168 208 261 321 385
#     4  12  23  37  62  96 140 167 206 258 320 386
#     4  11  23  44  67  90 124 163 221 270 316 377
#     4  12  22  40  65  97 124 167 221 264 319 385
#
# _framework density 21.380146
#
# number of rings (size 3 to 8) (size 9 to 14) (size 15 to 20)
#    0.000    0.750    5.000    3.750    1.750    0.500 
#    0.000    0.000    0.000    0.000    0.000    0.000 
#    0.000    0.000    0.000    0.000    0.000    0.000 
#
# Total GULP energy -178563.686720 kJ/mol
# GULP energy per Si atom -5580.115210 kJ/mol
# Density = 2.133148 g / cm^3
# Si number density = 21.380146 Si / 1000 Ang^3
#
#
#
# Elastic Constant Matrix: (Units=GPa)
#
#
# Indices 1 2 3 4 5 6 
#
# 1 74.9478 10.3248 5.3434 0.0000 -20.7711 0.0000
# 2 10.3248 90.3267 3.3854 0.0000 -11.4753 0.0000
# 3 5.3434 3.3854 36.5844 0.0000 -22.2607 0.0000
# 4 0.0000 0.0000 0.0000 24.2746 0.0000 -10.8486
# 5 -20.7711 -11.4753 -22.2607 0.0000 36.2310 0.0000
# 6 0.0000 0.0000 0.0000 -10.8486 0.0000 28.7359
#
#
#
# Elastic Compliance Matrix: (Units=1/GPa)
#
#
# Indices 1 2 3 4 5 6 
#
# 1 0.016512 -0.000491 0.005269 0.000000 0.012548 0.000000
# 2 -0.000491 0.011628 0.001702 0.000000 0.004447 0.000000
# 3 0.005269 0.001702 0.045633 0.000000 0.031597 0.000000
# 4 0.000000 0.000000 0.000000 0.049557 0.000000 0.018709
# 5 0.012548 0.004447 0.031597 0.000000 0.055617 0.000000
# 6 0.000000 0.000000 0.000000 0.018709 0.000000 0.041863
#
#
# Mechanical properties :
#
#
# Convention : Reuss Voigt Hill
#
# Bulk Modulus (GPa) = 11.52959 26.66290 19.09625
# Shear Modulus (GPa) = 21.11833 30.03531 25.57682
#
# Velocity S-wave (km/s) = 3.14627 3.75216 3.46249
# Velocity P-wave (km/s) = 4.31312 5.59192 4.99363
#
# Compressibility (1/GPa) = 0.08673332
#
# Stress axis : x y z
#
# Youngs Moduli (GPa) = 60.56113 85.99777 21.91392
#
# Poissons Ratio (x) = 0.04220 -0.11547
# Poissons Ratio (y) = 0.02972 -0.03729
# Poissons Ratio (z) = -0.31910 -0.14633
#
# Static dielectric constant tensor:
#      x y z
#    x 1.808400 0.000000 -0.010660 
#    y 0.000000 1.799210 0.000000 
#    z -0.010660 0.000000 1.847760 
# 
# From -- ./inp_files/77511.got.cif
#   From: 2010.05.17/outbox.cif.g08.bks.cpg/sg13_39_cif.got.tgz:77511.got - 2010.06.03 16:44:36.
