data_PCOD9234473
_publ_section_title
;
Structure prediction by ZEFSAII (Michael W. Deem and Ramdas Pophale) SiO2 
 PCOD9234473
Probable space group: P 2/C
;
_chemical_formula_sum "Si O2"
_cell_formula_units_Z 28
_cell_length_a 24.988061
_cell_length_b 9.085391
_cell_length_c 9.594407
_cell_angle_alpha 90.000000
_cell_angle_beta 39.226436
_cell_angle_gamma 90.000000
_cell_volume 1377.454009
_symmetry_space_group_name_H-M "P 2/C"
_symmetry_group_IT_number 13
_symmetry_cell_setting 'monoclinic'
loop_
_space_group_symop_operation_xyz
x,y,z
-x,y,1/2-z
-x,-y,-z
x,-y,1/2+z
loop_
_atom_site_type_symbol
_atom_site_label
_atom_site_fract_x
_atom_site_fract_y
_atom_site_fract_z
Si Si1 0.940553 0.033552 0.747423
Si Si2 0.279727 0.473581 0.660887
Si Si3 0.165485 0.282500 0.444110
Si Si4 0.485439 0.845306 0.449192
Si Si5 0.642723 0.332469 0.735820
Si Si6 0.294028 0.203213 0.426411
Si Si7 0.217631 0.898139 0.570516
O O1 0.000000 0.980145 0.750000
O O2 0.852894 0.947627 0.897971
O O3 0.915922 0.205559 0.821331
O O4 0.000000 0.000000 0.500000
O O5 0.187350 0.544418 0.881965
O O6 0.338829 0.443852 0.675245
O O7 0.323878 0.591885 0.471746
O O8 0.275377 0.325792 0.579184
O O9 0.240921 0.236814 0.395097
O O10 0.174399 0.198243 0.279044
O O11 0.500000 0.854891 0.250000
O O12 0.550768 0.729949 0.387173
O O13 0.390781 0.800787 0.682702
O O14 0.500000 0.000000 0.500000
O O15 0.705529 0.197281 0.643592
O O16 0.260719 0.044882 0.544956
#
# Coordination Sequence:
#
# PCOD9234473 Si02
#       7
#     4   4   4   4   4   4   4
#     4  11  22  40  71 111 136 174 222 284 350 416
#     4  11  24  44  66  99 133 194 227 280 353 428
#     4  10  22  44  63 102 142 172 227 289 339 420
#     4  12  27  44  68 100 142 176 243 305 346 400
#     4  11  25  45  68  96 142 187 236 287 356 406
#     4  11  24  40  69  97 134 187 236 283 351 412
#     4  10  22  39  72  99 137 173 233 291 343 414
#
# _framework density 20.327356000000002
#
# number of rings (size 3 to 8) (size 9 to 14) (size 15 to 20)
#    0.000    1.143    4.286    1.714    6.000    0.571 
#    2.571    0.000    0.000    8.571    0.000    0.000 
#    0.000    0.000    0.000    0.000    0.000    0.000 
#
# Total GULP energy -156190.285697 kJ/mol
# GULP energy per Si atom -5578.224489 kJ/mol
# Density = 2.028109 g / cm^3
# Si number density = 20.327356 Si / 1000 Ang^3
#
#
#
# Elastic Constant Matrix: (Units=GPa)
#
#
# Indices 1 2 3 4 5 6 
#
# 1 130.6834 32.3296 54.2601 0.0000 3.4778 0.0000
# 2 32.3296 96.4262 38.6064 0.0000 -0.7508 0.0000
# 3 54.2601 38.6064 79.4724 0.0000 -2.3699 0.0000
# 4 0.0000 0.0000 0.0000 30.8230 0.0000 2.8070
# 5 3.4778 -0.7508 -2.3699 0.0000 38.1028 0.0000
# 6 0.0000 0.0000 0.0000 2.8070 0.0000 32.5130
#
#
#
# Elastic Compliance Matrix: (Units=1/GPa)
#
#
# Indices 1 2 3 4 5 6 
#
# 1 0.010810 -0.000824 -0.007024 0.000000 -0.001440 0.000000
# 2 -0.000824 0.012938 -0.005724 0.000000 -0.000026 0.000000
# 3 -0.007024 -0.005724 0.020212 0.000000 0.001785 0.000000
# 4 0.000000 0.000000 0.000000 0.032700 0.000000 -0.002823
# 5 -0.001440 -0.000026 0.001785 0.000000 0.026487 0.000000
# 6 0.000000 0.000000 0.000000 -0.002823 0.000000 0.031001
#
#
# Mechanical properties :
#
#
# Convention : Reuss Voigt Hill
#
# Bulk Modulus (GPa) = 59.45703 61.88606 60.67154
# Shear Modulus (GPa) = 29.95870 32.38016 31.16943
#
# Velocity S-wave (km/s) = 3.84319 3.99549 3.92008
# Velocity P-wave (km/s) = 7.00048 7.19695 7.09939
#
# Compressibility (1/GPa) = 0.01681887
#
# Stress axis : x y z
#
# Youngs Moduli (GPa) = 92.50349 77.29088 49.47532
#
# Poissons Ratio (x) = 0.06366 0.34750
# Poissons Ratio (y) = 0.07619 0.28318
# Poissons Ratio (z) = 0.64972 0.44238
#
# Static dielectric constant tensor:
#      x y z
#    x 1.702200 0.000000 -0.007180 
#    y 0.000000 1.816130 0.000000 
#    z -0.007180 0.000000 1.756660 
# 
# From -- ./inp_files/24506.got.cif
#   From: 2010.05.17/outbox.cif.g08.bks.cpg/sg13_13_cif.got.tgz:24506.got - 2010.06.03 16:44:36.
