data_PCOD9234290
_publ_section_title
;
Structure prediction by ZEFSAII (Michael W. Deem and Ramdas Pophale) SiO2 
 PCOD9234290
Probable space group: P 2/C
;
_chemical_formula_sum "Si O2"
_cell_formula_units_Z 28
_cell_length_a 12.026106
_cell_length_b 9.441585
_cell_length_c 18.889645
_cell_angle_alpha 90.000000
_cell_angle_beta 147.229882
_cell_angle_gamma 90.000000
_cell_volume 1160.933880
_symmetry_space_group_name_H-M "P 2/C"
_symmetry_group_IT_number 13
_symmetry_cell_setting 'monoclinic'
loop_
_space_group_symop_operation_xyz
x,y,z
-x,y,1/2-z
-x,-y,-z
x,-y,1/2+z
loop_
_atom_site_type_symbol
_atom_site_label
_atom_site_fract_x
_atom_site_fract_y
_atom_site_fract_z
Si Si1 0.624433 0.983858 0.388739
Si Si2 0.734383 0.952215 0.636242
Si Si3 0.464280 0.539943 0.400316
Si Si4 0.877431 0.290555 0.115223
Si Si5 0.989785 0.191642 0.027848
Si Si6 0.238799 0.808964 0.244141
Si Si7 0.396535 0.764506 0.807777
O O1 0.500000 0.986098 0.250000
O O2 0.599319 0.138251 0.410218
O O3 0.852668 0.936210 0.487535
O O4 0.461334 0.878377 0.341895
O O5 0.826001 0.872992 0.615835
O O6 0.715871 0.823163 0.681821
O O7 0.500000 0.000000 0.500000
O O8 0.835411 0.083942 0.733077
O O9 0.500000 0.500000 0.500000
O O10 0.670104 0.623859 0.494136
O O11 0.280930 0.652058 0.294867
O O12 0.437037 0.400222 0.338418
O O13 0.959610 0.299201 0.078413
O O14 0.000000 0.349019 0.250000
O O15 0.236192 0.191990 0.160375
O O16 0.894179 0.208517 0.898876
#
# Coordination Sequence:
#
# PCOD9234290 Si02
#       7
#     4   4   4   4   4   4   4
#     4   9  20  40  65  97 133 177 223 285 346 401
#     4  11  19  39  67  96 128 180 236 273 340 411
#     4  12  22  41  66  93 136 180 229 285 355 411
#     4  12  22  40  67  99 135 188 237 288 345 424
#     4  11  22  43  70 100 136 185 242 278 353 428
#     4  10  22  38  69 100 134 187 232 284 349 414
#     4  11  23  40  68  97 137 185 224 290 356 407
#
# _framework density 24.118514000000001
#
# number of rings (size 3 to 8) (size 9 to 14) (size 15 to 20)
#    0.000    1.143    5.714    0.857    0.000    5.714 
#    2.571    0.000   15.714    0.000    0.000    0.000 
#    0.000    0.000    0.000    0.000    0.000    0.000 
#
# Total GULP energy -155995.712268 kJ/mol
# GULP energy per Si atom -5571.275438 kJ/mol
# Density = 2.406362 g / cm^3
# Si number density = 24.118514 Si / 1000 Ang^3
#
#
#
# Elastic Constant Matrix: (Units=GPa)
#
#
# Indices 1 2 3 4 5 6 
#
# 1 50.2451 13.6171 17.4600 0.0000 -19.1463 0.0000
# 2 13.6171 138.1368 44.8505 0.0000 -0.6577 0.0000
# 3 17.4600 44.8505 163.0293 0.0000 -19.5490 0.0000
# 4 0.0000 0.0000 0.0000 38.5508 0.0000 3.1575
# 5 -19.1463 -0.6577 -19.5490 0.0000 42.1349 0.0000
# 6 0.0000 0.0000 0.0000 3.1575 0.0000 18.5097
#
#
#
# Elastic Compliance Matrix: (Units=1/GPa)
#
#
# Indices 1 2 3 4 5 6 
#
# 1 0.024919 -0.002156 -0.000764 0.000000 0.010935 0.000000
# 2 -0.002156 0.008171 -0.002244 0.000000 -0.001893 0.000000
# 3 -0.000764 -0.002244 0.007187 0.000000 0.002952 0.000000
# 4 0.000000 0.000000 0.000000 0.026307 0.000000 -0.004488
# 5 0.010935 -0.001893 0.002952 0.000000 0.030042 0.000000
# 6 0.000000 0.000000 0.000000 -0.004488 0.000000 0.054791
#
#
# Mechanical properties :
#
#
# Convention : Reuss Voigt Hill
#
# Bulk Modulus (GPa) = 33.39077 55.91849 44.65463
# Shear Modulus (GPa) = 29.11530 38.20465 33.65998
#
# Velocity S-wave (km/s) = 3.47821 3.98432 3.73984
# Velocity P-wave (km/s) = 5.47769 6.66345 6.09946
#
# Compressibility (1/GPa) = 0.02994840
#
# Stress axis : x y z
#
# Youngs Moduli (GPa) = 40.12947 122.37860 139.13815
#
# Poissons Ratio (x) = 0.26388 0.10635
# Poissons Ratio (y) = 0.08653 0.31224
# Poissons Ratio (z) = 0.03067 0.27463
#
# Static dielectric constant tensor:
#      x y z
#    x 2.132610 0.000000 0.048670 
#    y 0.000000 2.013320 0.000000 
#    z 0.048670 0.000000 2.127770 
# 
# From -- ./inp_files/80020.got.cif
#   From: 2010.05.17/outbox.cif.g08.bks.cpg/sg13_41_cif.got.tgz:80020.got - 2010.06.03 16:44:36.
