data_PCOD9234978
_publ_section_title
;
Structure prediction by ZEFSAII (Michael W. Deem and Ramdas Pophale) SiO2 
 PCOD9234978
Probable space group: P 2/C
;
_chemical_formula_sum "Si O2"
_cell_formula_units_Z 22
_cell_length_a 13.685777
_cell_length_b 8.846268
_cell_length_c 23.022715
_cell_angle_alpha 90.000000
_cell_angle_beta 21.388485
_cell_angle_gamma 90.000000
_cell_volume 1016.505041
_symmetry_space_group_name_H-M "P 2/C"
_symmetry_group_IT_number 13
_symmetry_cell_setting 'monoclinic'
loop_
_space_group_symop_operation_xyz
x,y,z
-x,y,1/2-z
-x,-y,-z
x,-y,1/2+z
loop_
_atom_site_type_symbol
_atom_site_label
_atom_site_fract_x
_atom_site_fract_y
_atom_site_fract_z
Si Si1 0.712442 0.705754 0.295715
Si Si2 0.000000 0.317339 0.750000
Si Si3 0.336167 0.827263 0.783711
Si Si4 0.299528 0.132219 0.091989
Si Si5 0.440526 0.364120 0.111386
Si Si6 0.261345 0.178258 0.843396
O O1 0.890977 0.760842 0.251464
O O2 0.426459 0.785504 0.465696
O O3 0.697219 0.525277 0.306825
O O4 0.806378 0.746396 0.180185
O O5 0.263984 0.397383 0.578539
O O6 0.500000 0.775044 0.750000
O O7 0.439473 0.733905 0.671074
O O8 0.363854 0.009944 0.768422
O O9 0.014493 0.814278 0.968187
O O10 0.299923 0.258563 0.141782
O O11 0.000000 0.076393 0.250000
O O12 0.500000 0.000000 0.000000
O O13 0.500000 0.246982 0.750000
#
# Coordination Sequence:
#
# PCOD9234978 Si02
#       6
#     4   2   4   4   4   4
#     4  11  25  41  68  99 138 180 222 285 339 406
#     4  10  22  42  62  94 136 176 220 262 346 398
#     4  10  22  44  66  96 130 178 225 279 332 404
#     4  11  26  44  68  97 133 178 230 277 339 405
#     4  11  25  40  70  97 138 177 222 286 338 403
#     4  10  23  42  67  96 135 175 228 277 336 399
#
# _framework density 21.642783999999999
#
# number of rings (size 3 to 8) (size 9 to 14) (size 15 to 20)
#    0.000    1.455    0.000    4.364   12.727    1.455 
#    6.545    0.000    0.000    0.000    0.000    0.000 
#    0.000    0.000    0.000    0.000    0.000    0.000 
#
# Total GULP energy -122779.588347 kJ/mol
# GULP energy per Si atom -5580.890379 kJ/mol
# Density = 2.159352 g / cm^3
# Si number density = 21.642784 Si / 1000 Ang^3
#
#
#
# Elastic Constant Matrix: (Units=GPa)
#
#
# Indices 1 2 3 4 5 6 
#
# 1 85.5425 12.0089 38.4422 0.0000 2.5385 0.0000
# 2 12.0089 88.7863 25.4987 0.0000 3.2270 0.0000
# 3 38.4422 25.4987 55.5354 0.0000 -3.8931 0.0000
# 4 0.0000 0.0000 0.0000 3.1493 0.0000 5.2422
# 5 2.5385 3.2270 -3.8931 0.0000 48.3552 0.0000
# 6 0.0000 0.0000 0.0000 5.2422 0.0000 11.5033
#
#
#
# Elastic Compliance Matrix: (Units=1/GPa)
#
#
# Indices 1 2 3 4 5 6 
#
# 1 0.017282 0.001397 -0.012746 0.000000 -0.002027 0.000000
# 2 0.001397 0.013175 -0.007123 0.000000 -0.001526 0.000000
# 3 -0.012746 -0.007123 0.030352 0.000000 0.003588 0.000000
# 4 0.000000 0.000000 0.000000 1.315204 0.000000 -0.599362
# 5 -0.002027 -0.001526 0.003588 0.000000 0.021177 0.000000
# 6 0.000000 0.000000 0.000000 -0.599362 0.000000 0.360072
#
#
# Mechanical properties :
#
#
# Convention : Reuss Voigt Hill
#
# Bulk Modulus (GPa) = 41.90447 42.41820 42.16133
# Shear Modulus (GPa) = 2.77444 22.86252 12.81848
#
# Velocity S-wave (km/s) = 1.13345 3.25369 2.43631
# Velocity P-wave (km/s) = 4.59531 5.81009 5.23803
#
# Compressibility (1/GPa) = 0.02386380
#
# Stress axis : x y z
#
# Youngs Moduli (GPa) = 57.86268 75.89988 32.94696
#
# Poissons Ratio (x) = -0.10602 0.41995
# Poissons Ratio (y) = -0.08082 0.23469
# Poissons Ratio (z) = 0.73754 0.54065
#
# Static dielectric constant tensor:
#      x y z
#    x 1.829790 0.000000 -0.011570 
#    y 0.000000 1.792520 0.000000 
#    z -0.011570 0.000000 1.814290 
# 
# From -- ./inp_files/87244.got.cif
#   From: 2010.05.17/outbox.cif.g08.bks.cpg/sg13_44_cif.got.tgz:87244.got - 2010.06.03 16:44:36.
