data_PCOD9234820
_publ_section_title
;
Structure prediction by ZEFSAII (Michael W. Deem and Ramdas Pophale) SiO2 
 PCOD9234820
Probable space group: P 2/C
;
_chemical_formula_sum "Si O2"
_cell_formula_units_Z 28
_cell_length_a 14.309914
_cell_length_b 4.899951
_cell_length_c 18.632879
_cell_angle_alpha 90.000000
_cell_angle_beta 59.935819
_cell_angle_gamma 90.000000
_cell_volume 1130.727934
_symmetry_space_group_name_H-M "P 2/C"
_symmetry_group_IT_number 13
_symmetry_cell_setting 'monoclinic'
loop_
_space_group_symop_operation_xyz
x,y,z
-x,y,1/2-z
-x,-y,-z
x,-y,1/2+z
loop_
_atom_site_type_symbol
_atom_site_label
_atom_site_fract_x
_atom_site_fract_y
_atom_site_fract_z
Si Si1 0.625780 0.212959 0.550920
Si Si2 0.137810 0.170761 0.017052
Si Si3 0.911263 0.848197 0.126532
Si Si4 0.945167 0.540779 0.336942
Si Si5 0.658368 0.539410 0.886636
Si Si6 0.798196 0.965953 0.310918
Si Si7 0.482041 0.301207 0.341440
O O1 0.742850 0.066308 0.510819
O O2 0.606012 0.345987 0.480164
O O3 0.611063 0.471832 0.609356
O O4 0.545586 0.981232 0.608611
O O5 0.133068 0.426982 0.072148
O O6 0.133972 0.217595 0.933694
O O7 0.025908 0.008871 0.074593
O O8 0.827740 0.969227 0.215478
O O9 0.949970 0.584065 0.153718
O O10 0.891831 0.810633 0.320693
O O11 0.000000 0.376831 0.250000
O O12 0.696040 0.226492 0.869657
O O13 0.585771 0.589523 0.844983
O O14 0.766368 0.725764 0.840518
O O15 0.500000 0.263509 0.250000
#
# Coordination Sequence:
#
# PCOD9234820 Si02
#       7
#     4   4   4   4   4   4   4
#     4  12  26  48  76 105 141 189 237 300 361 434
#     4  11  24  42  70 100 146 185 241 283 360 412
#     4  10  25  41  65 104 147 189 234 289 346 422
#     4  10  22  41  64  99 140 189 232 285 339 417
#     4  12  25  48  75 106 142 183 243 292 365 425
#     4  11  25  43  74 106 142 191 232 288 348 431
#     4  12  29  49  76 105 142 181 241 304 373 430
#
# _framework density 24.762808
#
# number of rings (size 3 to 8) (size 9 to 14) (size 15 to 20)
#    0.000    0.857    1.429    4.286   10.000    0.571 
#    0.000    0.000    0.000    0.000    0.000    0.000 
#    0.000    0.000    0.000    0.000    0.000    0.000 
#
# Total GULP energy -156430.447751 kJ/mol
# GULP energy per Si atom -5586.801705 kJ/mol
# Density = 2.470645 g / cm^3
# Si number density = 24.762808 Si / 1000 Ang^3
#
#
#
# Elastic Constant Matrix: (Units=GPa)
#
#
# Indices 1 2 3 4 5 6 
#
# 1 94.5902 2.2508 30.0940 0.0000 27.9444 0.0000
# 2 2.2508 79.4789 21.3555 0.0000 -3.3613 0.0000
# 3 30.0940 21.3555 150.9465 0.0000 38.6240 0.0000
# 4 0.0000 0.0000 0.0000 35.7441 0.0000 -18.6646
# 5 27.9444 -3.3613 38.6240 0.0000 45.9910 0.0000
# 6 0.0000 0.0000 0.0000 -18.6646 0.0000 30.1607
#
#
#
# Elastic Compliance Matrix: (Units=1/GPa)
#
#
# Indices 1 2 3 4 5 6 
#
# 1 0.012966 -0.000513 -0.000620 0.000000 -0.007395 0.000000
# 2 -0.000513 0.013479 -0.002721 0.000000 0.003582 0.000000
# 3 -0.000620 -0.002721 0.009028 0.000000 -0.007404 0.000000
# 4 0.000000 0.000000 0.000000 0.041333 0.000000 0.025579
# 5 -0.007395 0.003582 -0.007404 0.000000 0.032716 0.000000
# 6 0.000000 0.000000 0.000000 0.025579 0.000000 0.048985
#
#
# Mechanical properties :
#
#
# Convention : Reuss Voigt Hill
#
# Bulk Modulus (GPa) = 36.01830 48.04625 42.03227
# Shear Modulus (GPa) = 28.49462 40.46686 34.48074
#
# Velocity S-wave (km/s) = 3.39588 4.04688 3.73559
# Velocity P-wave (km/s) = 5.47292 6.42503 5.96800
#
# Compressibility (1/GPa) = 0.02776366
#
# Stress axis : x y z
#
# Youngs Moduli (GPa) = 77.12417 74.18834 110.76604
#
# Poissons Ratio (x) = 0.03808 0.06870
# Poissons Ratio (y) = 0.03959 0.30143
# Poissons Ratio (z) = 0.04783 0.20189
#
# Static dielectric constant tensor:
#      x y z
#    x 1.974570 0.000000 -0.080440 
#    y 0.000000 2.021140 0.000000 
#    z -0.080440 0.000000 1.992080 
# 
# From -- ./inp_files/67472.got.cif
#   From: 2010.05.17/outbox.cif.g08.bks.cpg/sg13_34_cif.got.tgz:67472.got - 2010.06.03 16:44:36.
