data_PCOD9234694
_publ_section_title
;
Structure prediction by ZEFSAII (Michael W. Deem and Ramdas Pophale) SiO2 
 PCOD9234694
Probable space group: P 2/C
;
_chemical_formula_sum "Si O2"
_cell_formula_units_Z 14
_cell_length_a 9.000276
_cell_length_b 9.098013
_cell_length_c 7.662959
_cell_angle_alpha 90.000000
_cell_angle_beta 70.585756
_cell_angle_gamma 90.000000
_cell_volume 591.800150
_symmetry_space_group_name_H-M "P 2/C"
_symmetry_group_IT_number 13
_symmetry_cell_setting 'monoclinic'
loop_
_space_group_symop_operation_xyz
x,y,z
-x,y,1/2-z
-x,-y,-z
x,-y,1/2+z
loop_
_atom_site_type_symbol
_atom_site_label
_atom_site_fract_x
_atom_site_fract_y
_atom_site_fract_z
Si Si1 0.886416 0.711164 0.533321
Si Si2 0.500000 0.342408 0.750000
Si Si3 0.190477 0.599864 0.556910
Si Si4 0.592061 0.143302 0.035668
O O1 0.810598 0.663854 0.749017
O O2 0.871526 0.566313 0.420154
O O3 0.779780 0.846097 0.507000
O O4 0.073408 0.712483 0.500159
O O5 0.643245 0.420193 0.599954
O O6 0.427695 0.250517 0.619597
O O7 0.500000 0.184433 0.250000
O O8 0.500000 0.000000 0.000000
#
# Coordination Sequence:
#
# PCOD9234694 Si02
#       4
#     4   2   4   4
#     4  10  22  42  67 101 146 172 227 282 352 409
#     4  12  24  40  72 100 134 176 236 282 346 402
#     4  10  22  40  69 107 136 178 217 292 353 407
#     4  12  25  44  68  96 136 186 232 281 330 412
#
# _framework density 23.656635000000001
#
# number of rings (size 3 to 8) (size 9 to 14) (size 15 to 20)
#    0.000    1.143    4.286    1.714    2.000    5.714 
#    0.000    1.429    6.286    0.000    0.000    0.000 
#    0.000    0.000    0.000    0.000    0.000    0.000 
#
# Total GULP energy -78072.222978 kJ/mol
# GULP energy per Si atom -5576.587356 kJ/mol
# Density = 2.360279 g / cm^3
# Si number density = 23.656635 Si / 1000 Ang^3
#
#
#
# Elastic Constant Matrix: (Units=GPa)
#
#
# Indices 1 2 3 4 5 6 
#
# 1 150.0056 43.6053 36.4588 0.0000 -7.0689 0.0000
# 2 43.6053 38.4866 6.6588 0.0000 9.9253 0.0000
# 3 36.4588 6.6588 143.8853 0.0000 -12.2307 0.0000
# 4 0.0000 0.0000 0.0000 13.5114 0.0000 -1.4054
# 5 -7.0689 9.9253 -12.2307 0.0000 54.4999 0.0000
# 6 0.0000 0.0000 0.0000 -1.4054 0.0000 27.8661
#
#
#
# Elastic Compliance Matrix: (Units=1/GPa)
#
#
# Indices 1 2 3 4 5 6 
#
# 1 0.011111 -0.013134 -0.001918 0.000000 0.003403 0.000000
# 2 -0.013134 0.043212 0.000525 0.000000 -0.009455 0.000000
# 3 -0.001918 0.000525 0.007526 0.000000 0.001345 0.000000
# 4 0.000000 0.000000 0.000000 0.074402 0.000000 0.003752
# 5 0.003403 -0.009455 0.001345 0.000000 0.020814 0.000000
# 6 0.000000 0.000000 0.000000 0.003752 0.000000 0.036075
#
#
# Mechanical properties :
#
#
# Convention : Reuss Voigt Hill
#
# Bulk Modulus (GPa) = 30.49451 56.20260 43.34856
# Shear Modulus (GPa) = 21.44751 35.55245 28.49998
#
# Velocity S-wave (km/s) = 3.01428 3.88087 3.47470
# Velocity P-wave (km/s) = 5.00329 6.62501 5.87042
#
# Compressibility (1/GPa) = 0.03279278
#
# Stress axis : x y z
#
# Youngs Moduli (GPa) = 90.00030 23.14170 132.87121
#
# Poissons Ratio (x) = 0.30395 0.25489
# Poissons Ratio (y) = 1.18210 -0.06970
# Poissons Ratio (z) = 0.17265 -0.01214
#
# Static dielectric constant tensor:
#      x y z
#    x 2.175790 0.000000 -0.026750 
#    y 0.000000 1.910250 0.000000 
#    z -0.026750 0.000000 1.885390 
# 
# From -- ./inp_files/10667.got.cif
#   From: 2010.05.17/outbox.cif.g08.bks.cpg/sg13_6_cif.got.tgz:10667.got - 2010.06.03 16:44:36.
