data_PCOD9234993
_publ_section_title
;
Structure prediction by ZEFSAII (Michael W. Deem and Ramdas Pophale) SiO2 
 PCOD9234993
Probable space group: P 2/C
;
_chemical_formula_sum "Si O2"
_cell_formula_units_Z 28
_cell_length_a 11.753589
_cell_length_b 14.747680
_cell_length_c 8.717531
_cell_angle_alpha 90.000000
_cell_angle_beta 120.200742
_cell_angle_gamma 90.000000
_cell_volume 1305.979272
_symmetry_space_group_name_H-M "P 2/C"
_symmetry_group_IT_number 13
_symmetry_cell_setting 'monoclinic'
loop_
_space_group_symop_operation_xyz
x,y,z
-x,y,1/2-z
-x,-y,-z
x,-y,1/2+z
loop_
_atom_site_type_symbol
_atom_site_label
_atom_site_fract_x
_atom_site_fract_y
_atom_site_fract_z
Si Si1 0.373763 0.889602 0.554167
Si Si2 0.237963 0.980981 0.205955
Si Si3 0.741263 0.709086 0.187223
Si Si4 0.862181 0.156071 0.237437
Si Si5 0.033392 0.829150 0.112571
Si Si6 0.618210 0.256578 0.926542
Si Si7 0.471819 0.402174 0.050938
O O1 0.500000 0.875269 0.750000
O O2 0.285009 0.955359 0.600430
O O3 0.322901 0.792227 0.456732
O O4 0.364424 0.944530 0.386008
O O5 0.154590 0.049060 0.255218
O O6 0.141250 0.895946 0.104497
O O7 0.891550 0.736800 0.299928
O O8 0.695679 0.701962 0.334387
O O9 0.682583 0.620471 0.072351
O O10 0.000000 0.181222 0.250000
O O11 0.900071 0.188871 0.433190
O O12 0.725013 0.195504 0.085178
O O13 0.000000 0.875045 0.250000
O O14 0.500000 0.208054 0.750000
O O15 0.552431 0.327624 0.001427
O O16 0.500000 0.396480 0.250000
O O17 0.500000 0.500000 0.000000
#
# Coordination Sequence:
#
# PCOD9234993 Si02
#       7
#     4   4   4   4   4   4   4
#     4  11  24  39  58  90 134 185 234 298 356 395
#     4  11  24  38  57  87 131 180 250 289 339 398
#     4  10  22  42  63  97 136 173 229 283 341 410
#     4  12  22  38  65  91 127 185 234 280 340 396
#     4  11  23  41  62  91 136 185 242 294 339 396
#     4  10  24  42  67 100 135 173 222 280 342 405
#     4  11  24  45  78 107 137 171 217 272 343 427
#
# _framework density 21.439851999999998
#
# number of rings (size 3 to 8) (size 9 to 14) (size 15 to 20)
#    0.000    1.143    1.429    5.571   10.000    0.571 
#    0.000    0.000    0.000    1.714    0.000    0.000 
#    0.000    0.000    0.000    0.000    0.000    0.000 
#
# Total GULP energy -156005.129660 kJ/mol
# GULP energy per Si atom -5571.611774 kJ/mol
# Density = 2.139105 g / cm^3
# Si number density = 21.439852 Si / 1000 Ang^3
#
#
#
# Elastic Constant Matrix: (Units=GPa)
#
#
# Indices 1 2 3 4 5 6 
#
# 1 71.4011 31.6174 40.7138 0.0000 -7.2348 0.0000
# 2 31.6174 84.7071 46.3981 0.0000 7.0385 0.0000
# 3 40.7138 46.3981 182.5238 0.0000 22.3676 0.0000
# 4 0.0000 0.0000 0.0000 25.0983 0.0000 -4.6148
# 5 -7.2348 7.0385 22.3676 0.0000 51.2636 0.0000
# 6 0.0000 0.0000 0.0000 -4.6148 0.0000 35.3604
#
#
#
# Elastic Compliance Matrix: (Units=1/GPa)
#
#
# Indices 1 2 3 4 5 6 
#
# 1 0.018928 -0.005612 -0.003399 0.000000 0.004925 0.000000
# 2 -0.005612 0.015386 -0.002434 0.000000 -0.001843 0.000000
# 3 -0.003399 -0.002434 0.007262 0.000000 -0.003314 0.000000
# 4 0.000000 0.000000 0.000000 0.040823 0.000000 0.005328
# 5 0.004925 -0.001843 -0.003314 0.000000 0.021901 0.000000
# 6 0.000000 0.000000 0.000000 0.005328 0.000000 0.028976
#
#
# Mechanical properties :
#
#
# Convention : Reuss Voigt Hill
#
# Bulk Modulus (GPa) = 53.51561 64.01007 58.76284
# Shear Modulus (GPa) = 30.78945 37.00465 33.89705
#
# Velocity S-wave (km/s) = 3.79368 4.15899 3.98053
# Velocity P-wave (km/s) = 6.64864 7.27897 6.97093
#
# Compressibility (1/GPa) = 0.01868614
#
# Stress axis : x y z
#
# Youngs Moduli (GPa) = 52.83259 64.99289 137.71044
#
# Poissons Ratio (x) = 0.36476 0.46806
# Poissons Ratio (y) = 0.29652 0.33512
# Poissons Ratio (z) = 0.17957 0.15816
#
# Static dielectric constant tensor:
#      x y z
#    x 1.900390 0.000000 -0.043510 
#    y 0.000000 1.744770 0.000000 
#    z -0.043510 0.000000 1.928320 
# 
# From -- ./inp_files/16845.got.cif
#   From: 2010.05.17/outbox.cif.g08.bks.cpg/sg13_9_cif.got.tgz:16845.got - 2010.06.03 16:44:36.
