data_PCOD9234965
_publ_section_title
;
Structure prediction by ZEFSAII (Michael W. Deem and Ramdas Pophale) SiO2 
 PCOD9234965
Probable space group: P 2/C
;
_chemical_formula_sum "Si O2"
_cell_formula_units_Z 26
_cell_length_a 12.350723
_cell_length_b 8.633833
_cell_length_c 25.999089
_cell_angle_alpha 90.000000
_cell_angle_beta 151.302216
_cell_angle_gamma 90.000000
_cell_volume 1331.272255
_symmetry_space_group_name_H-M "P 2/C"
_symmetry_group_IT_number 13
_symmetry_cell_setting 'monoclinic'
loop_
_space_group_symop_operation_xyz
x,y,z
-x,y,1/2-z
-x,-y,-z
x,-y,1/2+z
loop_
_atom_site_type_symbol
_atom_site_label
_atom_site_fract_x
_atom_site_fract_y
_atom_site_fract_z
Si Si1 0.500000 0.523774 0.250000
Si Si2 0.173143 0.768530 0.163516
Si Si3 0.000000 0.429465 0.250000
Si Si4 0.602536 0.211658 0.125688
Si Si5 0.298126 0.725951 0.593059
Si Si6 0.664661 0.644931 0.071813
Si Si7 0.500000 0.018380 0.250000
Si Si8 0.799357 0.132612 0.708804
O O1 0.343116 0.626750 0.222104
O O2 0.665020 0.418290 0.353513
O O3 0.131620 0.809320 0.206000
O O4 0.315884 0.913464 0.201582
O O5 0.941909 0.740331 0.035549
O O6 0.187869 0.318025 0.304372
O O7 0.100906 0.551423 0.333169
O O8 0.493467 0.277545 0.131659
O O9 0.678334 0.033829 0.162260
O O10 0.409971 0.234251 0.002245
O O11 0.358567 0.875835 0.652044
O O12 0.647825 0.735309 0.118651
O O13 0.500000 0.500000 0.000000
O O14 0.000000 0.115492 0.750000
#
# Coordination Sequence:
#
# PCOD9234965 Si02
#       8
#     2   4   2   4   4   4   2   4
#     4  10  26  44  72  98 130 170 230 276 336 400
#     4  11  24  44  68  97 132 172 222 273 335 392
#     4  10  22  42  60  94 134 176 216 270 322 402
#     4  11  23  41  66  96 136 173 225 269 335 399
#     4  11  23  42  70  97 130 172 217 280 335 388
#     4  10  23  39  62  89 132 175 218 266 327 396
#     4  10  22  46  64  96 130 168 218 272 328 398
#     4  12  23  42  67  96 136 177 218 273 327 400
#
# _framework density 19.530190000000001
#
# number of rings (size 3 to 8) (size 9 to 14) (size 15 to 20)
#    0.000    1.231    3.077    2.308    4.308    0.000 
#    0.000    0.000    0.000    0.000    0.000    0.000 
#    0.000    0.000    0.000    0.000    0.000    0.000 
#
# Total GULP energy -145008.466411 kJ/mol
# GULP energy per Si atom -5577.248708 kJ/mol
# Density = 1.948574 g / cm^3
# Si number density = 19.530190 Si / 1000 Ang^3
#
#
#
# Elastic Constant Matrix: (Units=GPa)
#
#
# Indices 1 2 3 4 5 6 
#
# 1 112.9167 43.4198 47.6974 0.0000 -7.3226 0.0000
# 2 43.4198 129.9829 76.4696 0.0000 -4.3660 0.0000
# 3 47.6974 76.4696 130.8619 0.0000 -18.6829 0.0000
# 4 0.0000 0.0000 0.0000 -54.9916 0.0000 11.2248
# 5 -7.3226 -4.3660 -18.6829 0.0000 35.8159 0.0000
# 6 0.0000 0.0000 0.0000 11.2248 0.0000 16.7862
#
#
#
# Elastic Compliance Matrix: (Units=1/GPa)
#
#
# Indices 1 2 3 4 5 6 
#
# 1 0.010798 -0.002012 -0.002680 0.000000 0.000565 0.000000
# 2 -0.002012 0.012279 -0.006793 0.000000 -0.002458 0.000000
# 3 -0.002680 -0.006793 0.013389 0.000000 0.005608 0.000000
# 4 0.000000 0.000000 0.000000 -0.016001 0.000000 0.010699
# 5 0.000565 -0.002458 0.005608 0.000000 0.030662 0.000000
# 6 0.000000 0.000000 0.000000 0.010699 0.000000 0.052418
#
#
# Mechanical properties :
#
#
# Convention : Reuss Voigt Hill
#
# Bulk Modulus (GPa) = 74.08983 78.77056 76.43020
# Shear Modulus (GPa) = 38.16425 13.26709 25.71567
#
# Velocity S-wave (km/s) = 4.42533 2.60919 3.63259
# Velocity P-wave (km/s) = 8.00811 7.03544 7.53748
#
# Compressibility (1/GPa) = 0.01349713
#
# Stress axis : x y z
#
# Youngs Moduli (GPa) = 92.60848 81.43915 74.69070
#
# Poissons Ratio (x) = 0.16382 0.20015
# Poissons Ratio (y) = 0.18629 0.50738
# Poissons Ratio (z) = 0.24816 0.55322
#
# Static dielectric constant tensor:
#      x y z
#    x 1.691870 0.000000 0.005700 
#    y 0.000000 1.685790 0.000000 
#    z 0.005700 0.000000 1.741160 
# 
# From -- ./inp_files/41706.got.cif
#   From: 2010.05.17/outbox.cif.g08.bks.cpg/sg13_21_cif.got.tgz:41706.got - 2010.06.03 16:44:36.
