data_PCOD9234762
_publ_section_title
;
Structure prediction by ZEFSAII (Michael W. Deem and Ramdas Pophale) SiO2 
 PCOD9234762
Probable space group: P 2/C
;
_chemical_formula_sum "Si O2"
_cell_formula_units_Z 24
_cell_length_a 5.854008
_cell_length_b 12.608713
_cell_length_c 14.044303
_cell_angle_alpha 90.000000
_cell_angle_beta 75.681970
_cell_angle_gamma 90.000000
_cell_volume 1004.431284
_symmetry_space_group_name_H-M "P 2/C"
_symmetry_group_IT_number 13
_symmetry_cell_setting 'monoclinic'
loop_
_space_group_symop_operation_xyz
x,y,z
-x,y,1/2-z
-x,-y,-z
x,-y,1/2+z
loop_
_atom_site_type_symbol
_atom_site_label
_atom_site_fract_x
_atom_site_fract_y
_atom_site_fract_z
Si Si1 0.941653 0.443385 0.130546
Si Si2 0.198437 0.362141 0.552557
Si Si3 0.281000 0.032250 0.087719
Si Si4 0.654019 0.270508 0.432599
Si Si5 0.500000 0.052346 0.750000
Si Si6 0.940530 0.841253 0.143425
Si Si7 0.500000 0.662364 0.750000
O O1 0.734502 0.409324 0.222539
O O2 0.075868 0.553198 0.134786
O O3 0.136542 0.352954 0.099218
O O4 0.806080 0.434189 0.042680
O O5 0.461971 0.313500 0.528859
O O6 0.030421 0.259562 0.576147
O O7 0.238065 0.154097 0.067587
O O8 0.351774 0.017609 0.191554
O O9 0.076272 0.946623 0.095189
O O10 0.500000 0.000000 0.000000
O O11 0.514048 0.270280 0.345491
O O12 0.332145 0.128556 0.828649
O O13 0.000000 0.822832 0.250000
#
# Coordination Sequence:
#
# PCOD9234762 Si02
#       7
#     4   4   4   4   2   4   2
#     4  10  23  39  63  90 124 162 205 255 309 365
#     4  10  22  41  61  92 122 159 210 254 303 374
#     4  11  23  41  64  94 124 167 207 254 315 366
#     4  11  22  40  65  89 124 159 209 253 308 368
#     4  10  25  41  60  96 132 159 209 258 304 382
#     4  10  23  40  61  91 124 162 206 253 310 369
#     4  10  23  39  58  94 122 163 201 254 312 364
#
# _framework density 23.894120000000001
#
# number of rings (size 3 to 8) (size 9 to 14) (size 15 to 20)
#    0.000    1.667    1.667    1.500    2.333    9.333 
#    0.000    0.000    0.000    0.000    0.000    0.000 
#    0.000    0.000    0.000    0.000    0.000    0.000 
#
# Total GULP energy -134098.456489 kJ/mol
# GULP energy per Si atom -5587.435687 kJ/mol
# Density = 2.383974 g / cm^3
# Si number density = 23.894120 Si / 1000 Ang^3
#
#
#
# Elastic Constant Matrix: (Units=GPa)
#
#
# Indices 1 2 3 4 5 6 
#
# 1 67.4379 59.2114 19.2028 0.0000 -41.0904 0.0000
# 2 59.2114 209.3223 31.5454 0.0000 -40.9748 0.0000
# 3 19.2028 31.5454 85.6812 0.0000 -19.1225 0.0000
# 4 0.0000 0.0000 0.0000 29.3487 0.0000 -5.7048
# 5 -41.0904 -40.9748 -19.1225 0.0000 62.5797 0.0000
# 6 0.0000 0.0000 0.0000 -5.7048 0.0000 23.1495
#
#
#
# Elastic Compliance Matrix: (Units=1/GPa)
#
#
# Indices 1 2 3 4 5 6 
#
# 1 0.028902 -0.004990 -0.001217 0.000000 0.015338 0.000000
# 2 -0.004990 0.006481 -0.001129 0.000000 0.000622 0.000000
# 3 -0.001217 -0.001129 0.012896 0.000000 0.002402 0.000000
# 4 0.000000 0.000000 0.000000 0.035787 0.000000 0.008819
# 5 0.015338 0.000622 0.002402 0.000000 0.027192 0.000000
# 6 0.000000 0.000000 0.000000 0.008819 0.000000 0.045371
#
#
# Mechanical properties :
#
#
# Convention : Reuss Voigt Hill
#
# Bulk Modulus (GPa) = 29.75598 64.70673 47.23136
# Shear Modulus (GPa) = 27.39697 39.84770 33.62234
#
# Velocity S-wave (km/s) = 3.38982 4.08815 3.75525
# Velocity P-wave (km/s) = 5.27271 7.03018 6.21389
#
# Compressibility (1/GPa) = 0.03360669
#
# Stress axis : x y z
#
# Youngs Moduli (GPa) = 34.60011 154.30572 77.54516
#
# Poissons Ratio (x) = 0.76992 0.09439
# Poissons Ratio (y) = 0.17264 0.08754
# Poissons Ratio (z) = 0.04211 0.17419
#
# Static dielectric constant tensor:
#      x y z
#    x 1.944170 0.000000 0.092870 
#    y 0.000000 1.865150 0.000000 
#    z 0.092870 0.000000 2.054310 
# 
# From -- ./inp_files/61066.got.cif
#   From: 2010.05.17/outbox.cif.g08.bks.cpg/sg13_31_cif.got.tgz:61066.got - 2010.06.03 16:44:36.
