data_PCOD9234903
_publ_section_title
;
Structure prediction by ZEFSAII (Michael W. Deem and Ramdas Pophale) SiO2 
 PCOD9234903
Probable space group: P 2/C
;
_chemical_formula_sum "Si O2"
_cell_formula_units_Z 18
_cell_length_a 9.845427
_cell_length_b 8.397001
_cell_length_c 22.013790
_cell_angle_alpha 90.000000
_cell_angle_beta 159.549366
_cell_angle_gamma 90.000000
_cell_volume 635.882318
_symmetry_space_group_name_H-M "P 2/C"
_symmetry_group_IT_number 13
_symmetry_cell_setting 'monoclinic'
loop_
_space_group_symop_operation_xyz
x,y,z
-x,y,1/2-z
-x,-y,-z
x,-y,1/2+z
loop_
_atom_site_type_symbol
_atom_site_label
_atom_site_fract_x
_atom_site_fract_y
_atom_site_fract_z
Si Si1 0.107808 0.547583 0.668369
Si Si2 0.000000 0.649134 0.750000
Si Si3 0.245235 0.184751 0.085494
Si Si4 0.522129 0.240955 0.664693
Si Si5 0.509389 0.045968 0.075705
O O1 0.967907 0.538009 0.679091
O O2 0.494163 0.653491 0.816352
O O3 0.187012 0.367171 0.683042
O O4 0.750888 0.642638 0.490390
O O5 0.304162 0.780096 0.853366
O O6 0.500000 0.117911 0.250000
O O7 0.228170 0.086741 0.014942
O O8 0.810165 0.189159 0.927972
O O9 0.694602 0.108419 0.689743
O O10 0.500000 0.000000 0.000000
#
# Coordination Sequence:
#
# PCOD9234903 Si02
#       5
#     4   2   4   4   4
#     4  10  22  41  68  95 141 178 230 287 355 416
#     4  10  22  44  62  96 138 182 226 300 348 420
#     4   9  21  43  69  99 136 180 229 292 352 410
#     4  11  22  43  69 101 135 185 232 293 348 421
#     4  11  22  43  73 100 137 183 237 291 346 413
#
# _framework density 28.307124999999999
#
# number of rings (size 3 to 8) (size 9 to 14) (size 15 to 20)
#    0.000    1.778    2.222    1.333    0.000    1.778 
#    8.000    3.333    0.000    0.000    0.000    0.000 
#    0.000    0.000    0.000    0.000    0.000    0.000 
#
# Total GULP energy -100272.221658 kJ/mol
# GULP energy per Si atom -5570.678981 kJ/mol
# Density = 2.824270 g / cm^3
# Si number density = 28.307125 Si / 1000 Ang^3
#
#
#
# Elastic Constant Matrix: (Units=GPa)
#
#
# Indices 1 2 3 4 5 6 
#
# 1 282.7496 60.4115 45.6053 0.0000 -15.1297 0.0000
# 2 60.4115 121.5573 12.7811 0.0000 4.7374 0.0000
# 3 45.6053 12.7811 86.8353 0.0000 -3.4080 0.0000
# 4 0.0000 0.0000 0.0000 9.3438 0.0000 8.4958
# 5 -15.1297 4.7374 -3.4080 0.0000 52.3146 0.0000
# 6 0.0000 0.0000 0.0000 8.4958 0.0000 63.3247
#
#
#
# Elastic Compliance Matrix: (Units=1/GPa)
#
#
# Indices 1 2 3 4 5 6 
#
# 1 0.004349 -0.002009 -0.001937 0.000000 0.001313 0.000000
# 2 -0.002009 0.009321 -0.000374 0.000000 -0.001449 0.000000
# 3 -0.001937 -0.000374 0.012600 0.000000 0.000295 0.000000
# 4 0.000000 0.000000 0.000000 0.121892 0.000000 -0.016353
# 5 0.001313 -0.001449 0.000295 0.000000 0.019645 0.000000
# 6 0.000000 0.000000 0.000000 -0.016353 0.000000 0.017986
#
#
# Mechanical properties :
#
#
# Convention : Reuss Voigt Hill
#
# Bulk Modulus (GPa) = 56.71939 80.97089 68.84514
# Shear Modulus (GPa) = 24.96169 49.81957 37.39063
#
# Velocity S-wave (km/s) = 2.97276 4.19975 3.63835
# Velocity P-wave (km/s) = 5.64480 7.22383 6.48257
#
# Compressibility (1/GPa) = 0.01763066
#
# Stress axis : x y z
#
# Youngs Moduli (GPa) = 229.96424 107.28885 79.36680
#
# Poissons Ratio (x) = 0.21551 0.15370
# Poissons Ratio (y) = 0.46192 0.02967
# Poissons Ratio (z) = 0.44535 0.04011
#
# Static dielectric constant tensor:
#      x y z
#    x 2.038900 0.000000 -0.015110 
#    y 0.000000 2.283770 0.000000 
#    z -0.015110 0.000000 2.448370 
# 
# From -- ./inp_files/27683.got.cif
#   From: 2010.05.17/outbox.cif.g08.bks.cpg/sg13_14_cif.got.tgz:27683.got - 2010.06.03 16:44:36.
