data_PCOD9234663
_publ_section_title
;
Structure prediction by ZEFSAII (Michael W. Deem and Ramdas Pophale) SiO2 
 PCOD9234663
Probable space group: P 2/C
;
_chemical_formula_sum "Si O2"
_cell_formula_units_Z 30
_cell_length_a 21.051437
_cell_length_b 5.229936
_cell_length_c 24.708987
_cell_angle_alpha 90.000000
_cell_angle_beta 150.559404
_cell_angle_gamma 90.000000
_cell_volume 1337.134407
_symmetry_space_group_name_H-M "P 2/C"
_symmetry_group_IT_number 13
_symmetry_cell_setting 'monoclinic'
loop_
_space_group_symop_operation_xyz
x,y,z
-x,y,1/2-z
-x,-y,-z
x,-y,1/2+z
loop_
_atom_site_type_symbol
_atom_site_label
_atom_site_fract_x
_atom_site_fract_y
_atom_site_fract_z
Si Si1 0.500000 0.323144 0.750000
Si Si2 0.134167 0.609329 0.865105
Si Si3 0.160867 0.782685 0.590186
Si Si4 0.398101 0.130294 0.462928
Si Si5 0.762384 0.639437 0.165959
Si Si6 0.611091 0.951606 0.428649
Si Si7 0.255597 0.342856 0.046532
Si Si8 0.850005 0.717634 0.353335
O O1 0.485556 0.151535 0.687181
O O2 0.634076 0.474683 0.847551
O O3 0.159521 0.437518 0.830397
O O4 0.000000 0.744364 0.750000
O O5 0.258427 0.786791 0.965915
O O6 0.135660 0.465256 0.924505
O O7 0.208768 0.817003 0.563687
O O8 0.200471 0.512788 0.646257
O O9 0.005157 0.753942 0.472124
O O10 0.199831 0.014378 0.658720
O O11 0.351615 0.420572 0.418585
O O12 0.457346 0.080200 0.565644
O O13 0.500000 0.000000 0.500000
O O14 0.278333 0.933654 0.372406
O O15 0.820639 0.642392 0.269472
O O16 0.665694 0.210356 0.444172
#
# Coordination Sequence:
#
# PCOD9234663 Si02
#       8
#     2   4   4   4   4   4   4   4
#     4  10  24  42  66  90 132 172 222 278 322 388
#     4  10  22  40  67  99 131 173 212 272 338 396
#     4  10  23  40  67  91 135 172 213 270 328 388
#     4  11  24  44  67  91 130 171 215 276 333 384
#     4  11  22  44  64  97 129 169 222 270 324 402
#     4  10  23  44  62  97 131 166 226 274 324 404
#     4  11  22  43  65  95 130 173 220 270 334 391
#     4  10  22  43  61  99 130 169 218 267 321 401
#
# _framework density 22.436036999999999
#
# number of rings (size 3 to 8) (size 9 to 14) (size 15 to 20)
#    0.000    1.600    1.333    2.400    3.733    1.600 
#   14.400    0.000    0.000    0.000    0.000    0.000 
#    0.000    0.000    0.000    0.000    0.000    0.000 
#
# Total GULP energy -167228.103514 kJ/mol
# GULP energy per Si atom -5574.270117 kJ/mol
# Density = 2.238497 g / cm^3
# Si number density = 22.436037 Si / 1000 Ang^3
#
#
#
# Elastic Constant Matrix: (Units=GPa)
#
#
# Indices 1 2 3 4 5 6 
#
# 1 89.4105 7.8967 36.4120 0.0000 -36.4770 0.0000
# 2 7.8967 80.8449 25.8854 0.0000 -14.9792 0.0000
# 3 36.4120 25.8854 115.7897 0.0000 -34.4155 0.0000
# 4 0.0000 0.0000 0.0000 8.7258 0.0000 -0.2619
# 5 -36.4770 -14.9792 -34.4155 0.0000 35.7113 0.0000
# 6 0.0000 0.0000 0.0000 -0.2619 0.0000 -16.3828
#
#
#
# Elastic Compliance Matrix: (Units=1/GPa)
#
#
# Indices 1 2 3 4 5 6 
#
# 1 0.019476 0.002022 -0.000577 0.000000 0.020186 0.000000
# 2 0.002022 0.013913 -0.001959 0.000000 0.006014 0.000000
# 3 -0.000577 -0.001959 0.012383 0.000000 0.010523 0.000000
# 4 0.000000 0.000000 0.000000 0.114548 0.000000 -0.001831
# 5 0.020186 0.006014 0.010523 0.000000 0.061285 0.000000
# 6 0.000000 0.000000 0.000000 -0.001831 0.000000 -0.061010
#
#
# Mechanical properties :
#
#
# Convention : Reuss Voigt Hill
#
# Bulk Modulus (GPa) = 22.34834 47.38147 34.86490
# Shear Modulus (GPa) = 28.32262 20.00092 24.16177
#
# Velocity S-wave (km/s) = 3.55684 2.98898 3.28520
# Velocity P-wave (km/s) = 5.18177 5.75120 5.47389
#
# Compressibility (1/GPa) = 0.04474606
#
# Stress axis : x y z
#
# Youngs Moduli (GPa) = 51.34522 71.87354 80.75318
#
# Poissons Ratio (x) = -0.14536 0.04659
# Poissons Ratio (y) = -0.10385 0.15819
# Poissons Ratio (z) = 0.02962 0.14079
#
# Static dielectric constant tensor:
#      x y z
#    x 2.012770 0.000000 0.193420 
#    y 0.000000 1.904730 0.000000 
#    z 0.193420 0.000000 2.190480 
# 
# From -- ./inp_files/88361.got.cif
#   From: 2010.05.17/outbox.cif.g08.bks.cpg/sg13_45_cif.got.tgz:88361.got - 2010.06.03 16:44:36.
