data_PCOD9234493
_publ_section_title
;
Structure prediction by ZEFSAII (Michael W. Deem and Ramdas Pophale) SiO2 
 PCOD9234493
Probable space group: P 2/C
;
_chemical_formula_sum "Si O2"
_cell_formula_units_Z 24
_cell_length_a 13.757459
_cell_length_b 7.172004
_cell_length_c 10.389422
_cell_angle_alpha 90.000000
_cell_angle_beta 115.684371
_cell_angle_gamma 90.000000
_cell_volume 923.823586
_symmetry_space_group_name_H-M "P 2/C"
_symmetry_group_IT_number 13
_symmetry_cell_setting 'monoclinic'
loop_
_space_group_symop_operation_xyz
x,y,z
-x,y,1/2-z
-x,-y,-z
x,-y,1/2+z
loop_
_atom_site_type_symbol
_atom_site_label
_atom_site_fract_x
_atom_site_fract_y
_atom_site_fract_z
Si Si1 0.996422 0.186902 0.590149
Si Si2 0.390553 0.737865 0.625564
Si Si3 0.222767 0.754946 0.172162
Si Si4 0.800303 0.828948 0.810152
Si Si5 0.308990 0.441396 0.394480
Si Si6 0.592024 0.142262 0.910662
O O1 0.097857 0.308636 0.597868
O O2 0.000000 0.170408 0.750000
O O3 0.879125 0.241511 0.468427
O O4 0.000000 0.000000 0.500000
O O5 0.500000 0.665051 0.750000
O O6 0.318759 0.808774 0.701396
O O7 0.321794 0.579988 0.519890
O O8 0.410349 0.924587 0.552036
O O9 0.296935 0.596491 0.276471
O O10 0.290879 0.820590 0.088435
O O11 0.198203 0.954134 0.230829
O O12 0.796943 0.686010 0.690004
O O13 0.408540 0.300030 0.480477
O O14 0.500000 0.164636 0.750000
#
# Coordination Sequence:
#
# PCOD9234493 Si02
#       6
#     4   4   4   4   4   4
#     4  10  22  43  70  98 134 179 227 280 340 407
#     4  10  22  40  60  86 126 169 213 269 333 402
#     4  10  23  41  63  91 128 173 219 275 341 403
#     4  10  23  41  62  92 127 168 219 274 335 403
#     4  12  22  38  64  94 127 168 222 280 336 402
#     4  10  23  42  63  93 133 177 226 278 340 411
#
# _framework density 25.978988999999999
#
# number of rings (size 3 to 8) (size 9 to 14) (size 15 to 20)
#    0.000    1.667    0.000    3.500    0.000   10.000 
#    0.000    6.667    0.000    1.000    0.000    0.000 
#    0.000    0.000    0.000    0.000    0.000    0.000 
#
# Total GULP energy -133633.935144 kJ/mol
# GULP energy per Si atom -5568.080631 kJ/mol
# Density = 2.591986 g / cm^3
# Si number density = 25.978989 Si / 1000 Ang^3
#
#
#
# Elastic Constant Matrix: (Units=GPa)
#
#
# Indices 1 2 3 4 5 6 
#
# 1 103.8634 -2.5842 27.7995 0.0000 15.5470 0.0000
# 2 -2.5842 162.0757 68.7652 0.0000 -1.6423 0.0000
# 3 27.7995 68.7652 192.9212 0.0000 16.5842 0.0000
# 4 0.0000 0.0000 0.0000 27.1937 0.0000 11.1161
# 5 15.5470 -1.6423 16.5842 0.0000 28.7988 0.0000
# 6 0.0000 0.0000 0.0000 11.1161 0.0000 12.9167
#
#
#
# Elastic Compliance Matrix: (Units=1/GPa)
#
#
# Indices 1 2 3 4 5 6 
#
# 1 0.010758 0.000704 -0.001373 0.000000 -0.004977 0.000000
# 2 0.000704 0.007427 -0.002896 0.000000 0.001711 0.000000
# 3 -0.001373 -0.002896 0.006695 0.000000 -0.003279 0.000000
# 4 0.000000 0.000000 0.000000 0.056730 0.000000 -0.048822
# 5 -0.004977 0.001711 -0.003279 0.000000 0.039396 0.000000
# 6 0.000000 0.000000 0.000000 -0.048822 0.000000 0.119435
#
#
# Mechanical properties :
#
#
# Convention : Reuss Voigt Hill
#
# Bulk Modulus (GPa) = 56.33812 71.86903 64.10357
# Shear Modulus (GPa) = 19.72468 38.10717 28.91593
#
# Velocity S-wave (km/s) = 2.75845 3.83410 3.33986
# Velocity P-wave (km/s) = 5.64610 6.87930 6.29298
#
# Compressibility (1/GPa) = 0.01774997
#
# Stress axis : x y z
#
# Youngs Moduli (GPa) = 92.95359 134.64077 149.35484
#
# Poissons Ratio (x) = -0.09475 0.20510
# Poissons Ratio (y) = -0.06541 0.43251
# Poissons Ratio (z) = 0.12765 0.38990
#
# Static dielectric constant tensor:
#      x y z
#    x 2.188980 0.000000 0.011940 
#    y 0.000000 2.254560 0.000000 
#    z 0.011940 0.000000 2.262570 
# 
# From -- ./inp_files/38631.got.cif
#   From: 2010.05.17/outbox.cif.g08.bks.cpg/sg13_20_cif.got.tgz:38631.got - 2010.06.03 16:44:36.
