data_PCOD9234193
_publ_section_title
;
Structure prediction by ZEFSAII (Michael W. Deem and Ramdas Pophale) SiO2 
 PCOD9234193
Probable space group: P 2/C
;
_chemical_formula_sum "Si O2"
_cell_formula_units_Z 32
_cell_length_a 8.457539
_cell_length_b 11.400498
_cell_length_c 20.443896
_cell_angle_alpha 90.000000
_cell_angle_beta 123.743038
_cell_angle_gamma 90.000000
_cell_volume 1639.128994
_symmetry_space_group_name_H-M "P 2/C"
_symmetry_group_IT_number 13
_symmetry_cell_setting 'monoclinic'
loop_
_space_group_symop_operation_xyz
x,y,z
-x,y,1/2-z
-x,-y,-z
x,-y,1/2+z
loop_
_atom_site_type_symbol
_atom_site_label
_atom_site_fract_x
_atom_site_fract_y
_atom_site_fract_z
Si Si1 0.047626 0.810216 0.973075
Si Si2 0.414508 0.692133 0.995375
Si Si3 0.644669 0.096751 0.561286
Si Si4 0.929706 0.053970 0.890490
Si Si5 0.789926 0.844856 0.233228
Si Si6 0.558531 0.477783 0.113150
Si Si7 0.848106 0.436015 0.419470
Si Si8 0.713201 0.415243 0.769554
O O1 0.244679 0.773224 0.983049
O O2 0.920663 0.696208 0.931607
O O3 0.934578 0.923519 0.920647
O O4 0.097657 0.848460 0.059090
O O5 0.361011 0.609071 0.922875
O O6 0.582285 0.780268 0.015705
O O7 0.497247 0.602322 0.067800
O O8 0.856231 0.068306 0.587319
O O9 0.650185 0.117666 0.641635
O O10 0.500000 0.000000 0.500000
O O11 0.789590 0.073196 0.797304
O O12 0.767236 0.713605 0.256538
O O13 0.000000 0.850938 0.250000
O O14 0.360993 0.431625 0.097279
O O15 0.703292 0.502116 0.204143
O O16 0.835234 0.517888 0.352188
O O17 0.000000 0.500000 0.500000
O O18 0.500000 0.405663 0.750000
#
# Coordination Sequence:
#
# PCOD9234193 Si02
#       8
#     4   4   4   4   4   4   4   4
#     4  11  22  40  62  88 120 161 207 246 301 363
#     4  11  21  37  65  89 120 157 204 245 306 361
#     4  11  21  40  63  88 121 159 203 250 303 361
#     4  10  23  40  62  87 122 159 206 252 297 360
#     4  10  22  38  60  89 119 154 199 254 302 353
#     4  10  22  39  59  91 123 155 199 250 302 369
#     4  11  21  37  62  88 122 159 195 248 309 357
#     4  10  22  39  62  90 122 157 202 253 305 362
#
# _framework density 19.522565
#
# number of rings (size 3 to 8) (size 9 to 14) (size 15 to 20)
#    0.000    1.500    3.750    1.500    1.750    2.000 
#    2.250    0.000    0.000    0.000    0.000    0.000 
#    0.000    0.000    0.000    0.000    0.000    0.000 
#
# Total GULP energy -178534.571848 kJ/mol
# GULP energy per Si atom -5579.205370 kJ/mol
# Density = 1.947813 g / cm^3
# Si number density = 19.522565 Si / 1000 Ang^3
#
#
#
# Elastic Constant Matrix: (Units=GPa)
#
#
# Indices 1 2 3 4 5 6 
#
# 1 25.1230 15.2768 20.2687 0.0000 -11.9923 0.0000
# 2 15.2768 102.7097 60.2999 0.0000 -8.8614 0.0000
# 3 20.2687 60.2999 153.9607 0.0000 -24.7509 0.0000
# 4 0.0000 0.0000 0.0000 17.0518 0.0000 -4.5918
# 5 -11.9923 -8.8614 -24.7509 0.0000 25.0665 0.0000
# 6 0.0000 0.0000 0.0000 -4.5918 0.0000 36.0574
#
#
#
# Elastic Compliance Matrix: (Units=1/GPa)
#
#
# Indices 1 2 3 4 5 6 
#
# 1 0.055277 -0.005372 -0.001459 0.000000 0.023107 0.000000
# 2 -0.005372 0.013171 -0.004892 0.000000 -0.002745 0.000000
# 3 -0.001459 -0.004892 0.009763 0.000000 0.007213 0.000000
# 4 0.000000 0.000000 0.000000 0.060727 0.000000 0.007733
# 5 0.023107 -0.002745 0.007213 0.000000 0.057100 0.000000
# 6 0.000000 0.000000 0.000000 0.007733 0.000000 0.028718
#
#
# Mechanical properties :
#
#
# Convention : Reuss Voigt Hill
#
# Bulk Modulus (GPa) = 18.25991 52.60937 35.43464
# Shear Modulus (GPa) = 18.76474 28.03168 23.39821
#
# Velocity S-wave (km/s) = 3.10366 3.79339 3.46572
# Velocity P-wave (km/s) = 4.71350 6.79653 5.84850
#
# Compressibility (1/GPa) = 0.05476479
#
# Stress axis : x y z
#
# Youngs Moduli (GPa) = 18.09062 75.92618 102.42913
#
# Poissons Ratio (x) = 0.40787 0.14940
# Poissons Ratio (y) = 0.09718 0.50113
# Poissons Ratio (z) = 0.02639 0.37147
#
# Static dielectric constant tensor:
#      x y z
#    x 1.721710 0.000000 -0.015150 
#    y 0.000000 1.691690 0.000000 
#    z -0.015150 0.000000 1.707660 
# 
# From -- ./inp_files/76478.got.cif
#   From: 2010.05.17/outbox.cif.g08.bks.cpg/sg13_39_cif.got.tgz:76478.got - 2010.06.03 16:44:36.
