data_PCOD9234609
_publ_section_title
;
Structure prediction by ZEFSAII (Michael W. Deem and Ramdas Pophale) SiO2 
 PCOD9234609
Probable space group: P 2/C
;
_chemical_formula_sum "Si O2"
_cell_formula_units_Z 24
_cell_length_a 14.306998
_cell_length_b 7.315886
_cell_length_c 20.101755
_cell_angle_alpha 90.000000
_cell_angle_beta 152.459061
_cell_angle_gamma 90.000000
_cell_volume 972.860579
_symmetry_space_group_name_H-M "P 2/C"
_symmetry_group_IT_number 13
_symmetry_cell_setting 'monoclinic'
loop_
_space_group_symop_operation_xyz
x,y,z
-x,y,1/2-z
-x,-y,-z
x,-y,1/2+z
loop_
_atom_site_type_symbol
_atom_site_label
_atom_site_fract_x
_atom_site_fract_y
_atom_site_fract_z
Si Si1 0.585709 0.246747 0.092737
Si Si2 0.764956 0.505142 0.110193
Si Si3 0.944980 0.272606 0.411851
Si Si4 0.650810 0.596960 0.398931
Si Si5 0.477100 0.997933 0.637245
Si Si6 0.158426 0.896460 0.531808
O O1 0.725370 0.304931 0.118079
O O2 0.526276 0.056655 0.092112
O O3 0.734877 0.328829 0.245230
O O4 0.373949 0.345774 0.940840
O O5 0.000000 0.540965 0.250000
O O6 0.673551 0.512943 0.979591
O O7 0.133947 0.374221 0.499481
O O8 0.944120 0.267588 0.491764
O O9 0.999212 0.061317 0.425793
O O10 0.500000 0.515701 0.250000
O O11 0.568861 0.793565 0.372505
O O12 0.280725 0.887149 0.540510
O O13 0.666287 0.949646 0.804136
#
# Coordination Sequence:
#
# PCOD9234609 Si02
#       6
#     4   4   4   4   4   4
#     4  10  22  40  65  86 117 174 218 246 306 371
#     4  11  24  44  63  82 128 175 209 256 306 366
#     4   9  15  31  60  89 117 164 197 240 308 371
#     4  11  20  38  62  95 126 157 200 259 317 369
#     4   9  16  33  60  94 123 156 196 254 305 367
#     4   8  14  27  56  94 130 149 184 251 313 354
#
# _framework density 24.669515000000001
#
# number of rings (size 3 to 8) (size 9 to 14) (size 15 to 20)
#    0.000    2.333    5.000    0.000    0.000    0.667 
#    6.000    5.000    0.000    0.000    0.000    0.000 
#    0.000    0.000    0.000    0.000    0.000    0.000 
#
# Total GULP energy -133818.105522 kJ/mol
# GULP energy per Si atom -5575.754397 kJ/mol
# Density = 2.461337 g / cm^3
# Si number density = 24.669515 Si / 1000 Ang^3
#
#
#
# Elastic Constant Matrix: (Units=GPa)
#
#
# Indices 1 2 3 4 5 6 
#
# 1 70.8457 16.7245 52.2361 0.0000 12.6582 0.0000
# 2 16.7245 59.5361 4.0437 0.0000 -1.3480 0.0000
# 3 52.2361 4.0437 93.0192 0.0000 18.6008 0.0000
# 4 0.0000 0.0000 0.0000 20.0489 0.0000 -1.3958
# 5 12.6582 -1.3480 18.6008 0.0000 52.3679 0.0000
# 6 0.0000 0.0000 0.0000 -1.3958 0.0000 16.4495
#
#
#
# Elastic Compliance Matrix: (Units=1/GPa)
#
#
# Indices 1 2 3 4 5 6 
#
# 1 0.026428 -0.006489 -0.014261 0.000000 -0.001490 0.000000
# 2 -0.006489 0.018467 0.002619 0.000000 0.001114 0.000000
# 3 -0.014261 0.002619 0.019314 0.000000 -0.003346 0.000000
# 4 0.000000 0.000000 0.000000 0.050174 0.000000 0.004257
# 5 -0.001490 0.001114 -0.003346 0.000000 0.020673 0.000000
# 6 0.000000 0.000000 0.000000 0.004257 0.000000 0.061154
#
#
# Mechanical properties :
#
#
# Convention : Reuss Voigt Hill
#
# Bulk Modulus (GPa) = 35.78359 41.04553 38.41456
# Shear Modulus (GPa) = 20.67918 27.79968 24.23943
#
# Velocity S-wave (km/s) = 2.89839 3.36055 3.13799
# Velocity P-wave (km/s) = 5.07322 5.63312 5.36049
#
# Compressibility (1/GPa) = 0.02794577
#
# Stress axis : x y z
#
# Youngs Moduli (GPa) = 37.83814 54.15121 51.77528
#
# Poissons Ratio (x) = 0.35140 0.73838
# Poissons Ratio (y) = 0.24554 -0.13558
# Poissons Ratio (z) = 0.53962 -0.14180
#
# Static dielectric constant tensor:
#      x y z
#    x 2.106030 0.000000 0.015470 
#    y 0.000000 2.071610 0.000000 
#    z 0.015470 0.000000 1.894210 
# 
# From -- ./inp_files/88035.got.cif
#   From: 2010.05.17/outbox.cif.g08.bks.cpg/sg13_45_cif.got.tgz:88035.got - 2010.06.03 16:44:36.
