data_PCOD9234407
_publ_section_title
;
Structure prediction by ZEFSAII (Michael W. Deem and Ramdas Pophale) SiO2 
 PCOD9234407
Probable space group: P 2/C
;
_chemical_formula_sum "Si O2"
_cell_formula_units_Z 20
_cell_length_a 12.173700
_cell_length_b 19.637832
_cell_length_c 5.163926
_cell_angle_alpha 90.000000
_cell_angle_beta 52.294331
_cell_angle_gamma 90.000000
_cell_volume 976.702112
_symmetry_space_group_name_H-M "P 2/C"
_symmetry_group_IT_number 13
_symmetry_cell_setting 'monoclinic'
loop_
_space_group_symop_operation_xyz
x,y,z
-x,y,1/2-z
-x,-y,-z
x,-y,1/2+z
loop_
_atom_site_type_symbol
_atom_site_label
_atom_site_fract_x
_atom_site_fract_y
_atom_site_fract_z
Si Si1 0.658697 0.215076 0.603672
Si Si2 0.232948 0.640742 0.581559
Si Si3 0.500000 0.547908 0.250000
Si Si4 0.000000 0.951780 0.250000
Si Si5 0.000000 0.547562 0.750000
Si Si6 0.000000 0.285414 0.750000
Si Si7 0.185425 0.827042 0.139511
O O1 0.500000 0.208587 0.750000
O O2 0.696556 0.291788 0.636104
O O3 0.715474 0.168911 0.755068
O O4 0.738083 0.200297 0.224157
O O5 0.362249 0.594260 0.476752
O O6 0.135177 0.595418 0.541246
O O7 0.121644 0.668003 0.955383
O O8 0.500000 0.500000 0.500000
O O9 0.122659 0.898739 0.142017
O O10 0.000000 0.000000 0.500000
O O11 0.000000 0.500000 0.500000
O O12 0.933360 0.230956 0.642442
#
# Coordination Sequence:
#
# PCOD9234407 Si02
#       7
#     4   4   2   2   2   2   4
#     4  11  22  40  65  96 128 169 212 276 338 388
#     4  11  23  44  65  95 121 169 218 270 341 405
#     4  12  28  46  62  88 130 170 214 270 328 412
#     4  11  22  40  68  98 134 181 216 258 316 381
#     4  12  25  40  60  84 117 160 208 264 322 394
#     4   9  21  40  70  98 125 161 214 292 334 383
#     4  10  22  39  64 101 134 162 218 274 323 372
#
# _framework density 20.477072
#
# number of rings (size 3 to 8) (size 9 to 14) (size 15 to 20)
#    0.000    1.200    1.000    4.800    0.000   12.000 
#    0.000    0.000    0.000   12.000    0.000    0.000 
#    0.000    0.000    0.000    0.000    0.000    0.000 
#
# Total GULP energy -111675.232777 kJ/mol
# GULP energy per Si atom -5583.761639 kJ/mol
# Density = 2.043047 g / cm^3
# Si number density = 20.477072 Si / 1000 Ang^3
#
#
#
# Elastic Constant Matrix: (Units=GPa)
#
#
# Indices 1 2 3 4 5 6 
#
# 1 287.9152 299.4895 -12.3549 0.0000 56.7193 0.0000
# 2 299.4895 628.3266 -107.5092 0.0000 131.1709 0.0000
# 3 -12.3549 -107.5092 148.2311 0.0000 -44.9596 0.0000
# 4 0.0000 0.0000 0.0000 -7.0406 0.0000 34.7658
# 5 56.7193 131.1709 -44.9596 0.0000 85.2201 0.0000
# 6 0.0000 0.0000 0.0000 34.7658 0.0000 -89.0666
#
#
#
# Elastic Compliance Matrix: (Units=1/GPa)
#
#
# Indices 1 2 3 4 5 6 
#
# 1 0.007491 -0.003931 -0.002266 0.000000 -0.000131 0.000000
# 2 -0.003931 0.004475 0.001931 0.000000 -0.003252 0.000000
# 3 -0.002266 0.001931 0.008945 0.000000 0.003255 0.000000
# 4 0.000000 0.000000 0.000000 0.153145 0.000000 0.059778
# 5 -0.000131 -0.003252 0.003255 0.000000 0.018544 0.000000
# 6 0.000000 0.000000 0.000000 0.059778 0.000000 0.012106
#
#
# Mechanical properties :
#
#
# Convention : Reuss Voigt Hill
#
# Bulk Modulus (GPa) = 80.78393 158.19152 119.48772
# Shear Modulus (GPa) = 23.00290 56.81242 39.90766
#
# Velocity S-wave (km/s) = 3.35528 5.27301 4.41942
# Velocity P-wave (km/s) = 7.38560 10.70017 9.19349
#
# Compressibility (1/GPa) = 0.01237870
#
# Stress axis : x y z
#
# Youngs Moduli (GPa) = 133.50011 223.48791 111.79033
#
# Poissons Ratio (x) = 0.87850 0.25335
# Poissons Ratio (y) = 0.52477 -0.21590
# Poissons Ratio (z) = 0.30255 -0.43162
#
# Static dielectric constant tensor:
#      x y z
#    x 1.767450 0.000000 0.204360 
#    y 0.000000 1.760100 0.000000 
#    z 0.204360 0.000000 1.260180 
# 
# From -- ./inp_files/3579.got.cif
#   From: 2010.05.17/outbox.cif.g08.bks.cpg/sg13_2_cif.got.tgz:3579.got - 2010.06.03 16:44:36.
