data_PCOD9234828
_publ_section_title
;
Structure prediction by ZEFSAII (Michael W. Deem and Ramdas Pophale) SiO2 
 PCOD9234828
Probable space group: P 2/C
;
_chemical_formula_sum "Si O2"
_cell_formula_units_Z 24
_cell_length_a 23.340015
_cell_length_b 10.497750
_cell_length_c 22.916228
_cell_angle_alpha 90.000000
_cell_angle_beta 12.320515
_cell_angle_gamma 90.000000
_cell_volume 1198.104296
_symmetry_space_group_name_H-M "P 2/C"
_symmetry_group_IT_number 13
_symmetry_cell_setting 'monoclinic'
loop_
_space_group_symop_operation_xyz
x,y,z
-x,y,1/2-z
-x,-y,-z
x,-y,1/2+z
loop_
_atom_site_type_symbol
_atom_site_label
_atom_site_fract_x
_atom_site_fract_y
_atom_site_fract_z
Si Si1 0.546406 0.270633 0.365704
Si Si2 0.104192 0.181192 0.988788
Si Si3 0.259591 0.634082 0.949762
Si Si4 0.251620 0.335577 0.957734
Si Si5 0.421818 0.988853 0.509707
Si Si6 0.065830 0.643906 0.415666
O O1 0.697007 0.298844 0.155250
O O2 0.791986 0.288519 0.166528
O O3 0.400877 0.133710 0.509501
O O4 0.301286 0.359366 0.632500
O O5 0.158787 0.263860 0.991964
O O6 0.320884 0.070553 0.776427
O O7 0.822937 0.107255 0.259401
O O8 0.158611 0.272093 0.878789
O O9 0.500000 0.682591 0.750000
O O10 0.304891 0.484099 0.891072
O O11 0.000000 0.646907 0.250000
O O12 0.500000 0.285655 0.750000
O O13 0.000000 0.332428 0.250000
O O14 0.500000 0.000000 0.500000
O O15 0.000000 0.500000 0.500000
#
# Coordination Sequence:
#
# PCOD9234828 Si02
#       6
#     4   4   4   4   4   4
#     4  12  24  41  64  95 130 169 221 261 325 392
#     4  12  23  41  65  94 128 170 219 258 326 384
#     4  10  22  42  66  92 127 169 213 269 333 388
#     4  10  22  41  65  92 126 166 211 267 326 382
#     4  12  23  42  64  92 133 179 211 257 320 392
#     4  12  24  38  63  98 132 163 210 279 329 385
#
# _framework density 20.031644
#
# number of rings (size 3 to 8) (size 9 to 14) (size 15 to 20)
#    0.000    0.667    3.333    5.000    0.000    4.000 
#    0.000    3.333    0.000    0.000    0.000    0.000 
#    0.000    0.000    0.000    0.000    0.000    0.000 
#
# Total GULP energy -133903.569689 kJ/mol
# GULP energy per Si atom -5579.315404 kJ/mol
# Density = 1.998605 g / cm^3
# Si number density = 20.031644 Si / 1000 Ang^3
#
#
#
# Elastic Constant Matrix: (Units=GPa)
#
#
# Indices 1 2 3 4 5 6 
#
# 1 102.8662 37.5461 14.9696 0.0000 -6.2162 0.0000
# 2 37.5461 80.5262 13.1801 0.0000 18.4944 0.0000
# 3 14.9696 13.1801 87.4956 0.0000 -4.0892 0.0000
# 4 0.0000 0.0000 0.0000 56.0167 0.0000 12.8609
# 5 -6.2162 18.4944 -4.0892 0.0000 46.4052 0.0000
# 6 0.0000 0.0000 0.0000 12.8609 0.0000 51.6657
#
#
#
# Elastic Compliance Matrix: (Units=1/GPa)
#
#
# Indices 1 2 3 4 5 6 
#
# 1 0.012553 -0.006677 -0.000943 0.000000 0.004259 0.000000
# 2 -0.006677 0.017708 -0.001905 0.000000 -0.008120 0.000000
# 3 -0.000943 -0.001905 0.011956 0.000000 0.001686 0.000000
# 4 0.000000 0.000000 0.000000 0.018934 0.000000 -0.004713
# 5 0.004259 -0.008120 0.001686 0.000000 0.025504 0.000000
# 6 0.000000 0.000000 0.000000 -0.004713 0.000000 0.020528
#
#
# Mechanical properties :
#
#
# Convention : Reuss Voigt Hill
#
# Bulk Modulus (GPa) = 43.16203 44.69775 43.92989
# Shear Modulus (GPa) = 37.32577 44.49700 40.91138
#
# Velocity S-wave (km/s) = 4.32133 4.71822 4.52413
# Velocity P-wave (km/s) = 6.81852 7.21416 7.01913
#
# Compressibility (1/GPa) = 0.02316851
#
# Stress axis : x y z
#
# Youngs Moduli (GPa) = 79.66190 56.47145 83.63874
#
# Poissons Ratio (x) = 0.37706 0.07886
# Poissons Ratio (y) = 0.53190 0.15930
# Poissons Ratio (z) = 0.07511 0.10756
#
# Static dielectric constant tensor:
#      x y z
#    x 1.689050 0.000000 -0.014330 
#    y 0.000000 1.629660 0.000000 
#    z -0.014330 0.000000 1.637920 
# 
# From -- ./inp_files/89087.got.cif
#   From: 2010.05.17/outbox.cif.g08.bks.cpg/sg13_45_cif.got.tgz:89087.got - 2010.06.03 16:44:36.
