data_PCOD9234893
_publ_section_title
;
Structure prediction by ZEFSAII (Michael W. Deem and Ramdas Pophale) SiO2 
 PCOD9234893
Probable space group: P 2/C
;
_chemical_formula_sum "Si O2"
_cell_formula_units_Z 28
_cell_length_a 27.702234
_cell_length_b 9.714323
_cell_length_c 9.359735
_cell_angle_alpha 90.000000
_cell_angle_beta 33.524965
_cell_angle_gamma 90.000000
_cell_volume 1391.124967
_symmetry_space_group_name_H-M "P 2/C"
_symmetry_group_IT_number 13
_symmetry_cell_setting 'monoclinic'
loop_
_space_group_symop_operation_xyz
x,y,z
-x,y,1/2-z
-x,-y,-z
x,-y,1/2+z
loop_
_atom_site_type_symbol
_atom_site_label
_atom_site_fract_x
_atom_site_fract_y
_atom_site_fract_z
Si Si1 0.205027 0.509444 0.712910
Si Si2 0.912639 0.583544 0.751608
Si Si3 0.913576 0.087142 0.182501
Si Si4 0.694266 0.255945 0.934035
Si Si5 0.801198 0.000676 0.710948
Si Si6 0.685287 0.766170 0.108546
Si Si7 0.496220 0.145375 0.088669
O O1 0.166047 0.525438 0.651654
O O2 0.279693 0.401555 0.567067
O O3 0.252562 0.654786 0.620076
O O4 0.121051 0.458586 0.009569
O O5 0.921441 0.749595 0.702858
O O6 0.000000 0.500000 0.500000
O O7 0.836217 0.014813 0.464220
O O8 0.882055 0.061784 0.099532
O O9 0.000000 0.000000 0.000000
O O10 0.766201 0.153918 0.824757
O O11 0.699788 0.244790 0.745817
O O12 0.596227 0.215157 0.215463
O O13 0.719645 0.907298 0.955293
O O14 0.581346 0.763066 0.341585
O O15 0.500000 0.121128 0.250000
O O16 0.500000 0.000000 0.000000
#
# Coordination Sequence:
#
# PCOD9234893 Si02
#       7
#     4   4   4   4   4   4   4
#     4  12  23  47  68  90 138 176 222 265 331 402
#     4  12  28  46  64  97 132 172 221 280 333 391
#     4  12  28  44  64  99 128 166 223 274 331 387
#     4  11  23  44  67 101 133 173 219 270 331 392
#     4  12  21  43  68  90 136 164 216 269 321 396
#     4  11  23  44  67 101 133 173 219 270 331 392
#     4  10  22  41  68 100 140 168 214 283 328 388
#
# _framework density 20.127593999999998
#
# number of rings (size 3 to 8) (size 9 to 14) (size 15 to 20)
#    0.000    0.571    7.143    0.857    4.000    2.857 
#    2.571    0.000    0.000    0.000    0.000    0.000 
#    0.000    0.000    0.000    0.000    0.000    0.000 
#
# Total GULP energy -156111.760985 kJ/mol
# GULP energy per Si atom -5575.420035 kJ/mol
# Density = 2.008178 g / cm^3
# Si number density = 20.127594 Si / 1000 Ang^3
#
#
#
# Elastic Constant Matrix: (Units=GPa)
#
#
# Indices 1 2 3 4 5 6 
#
# 1 31.0830 19.9675 20.6554 0.0000 -15.3942 0.0000
# 2 19.9675 88.8689 22.9449 0.0000 3.4852 0.0000
# 3 20.6554 22.9449 67.5950 0.0000 -24.7984 0.0000
# 4 0.0000 0.0000 0.0000 30.4327 0.0000 -5.8538
# 5 -15.3942 3.4852 -24.7984 0.0000 32.8780 0.0000
# 6 0.0000 0.0000 0.0000 -5.8538 0.0000 30.0702
#
#
#
# Elastic Compliance Matrix: (Units=1/GPa)
#
#
# Indices 1 2 3 4 5 6 
#
# 1 0.054306 -0.012194 -0.003667 0.000000 0.023954 0.000000
# 2 -0.012194 0.016050 -0.006139 0.000000 -0.012042 0.000000
# 3 -0.003667 -0.006139 0.024344 0.000000 0.017295 0.000000
# 4 0.000000 0.000000 0.000000 0.034138 0.000000 0.006646
# 5 0.023954 -0.012042 0.017295 0.000000 0.055952 0.000000
# 6 0.000000 0.000000 0.000000 0.006646 0.000000 0.034549
#
#
# Mechanical properties :
#
#
# Convention : Reuss Voigt Hill
#
# Bulk Modulus (GPa) = 19.72508 34.96472 27.34490
# Shear Modulus (GPa) = 17.84189 26.94147 22.39168
#
# Velocity S-wave (km/s) = 2.98054 3.66257 3.33901
# Velocity P-wave (km/s) = 4.65469 5.94097 5.33672
#
# Compressibility (1/GPa) = 0.05069688
#
# Stress axis : x y z
#
# Youngs Moduli (GPa) = 18.41426 62.30623 41.07852
#
# Poissons Ratio (x) = 0.75977 0.15065
# Poissons Ratio (y) = 0.22455 0.25220
# Poissons Ratio (z) = 0.06753 0.38253
#
# Static dielectric constant tensor:
#      x y z
#    x 1.760630 0.000000 0.018470 
#    y 0.000000 1.751710 0.000000 
#    z 0.018470 0.000000 1.751910 
# 
# From -- ./inp_files/24557.got.cif
#   From: 2010.05.17/outbox.cif.g08.bks.cpg/sg13_13_cif.got.tgz:24557.got - 2010.06.03 16:44:36.
