data_PCOD9234043
_publ_section_title
;
Structure prediction by ZEFSAII (Michael W. Deem and Ramdas Pophale) SiO2 
 PCOD9234043
Probable space group: P 2/C
;
_chemical_formula_sum "Si O2"
_cell_formula_units_Z 22
_cell_length_a 9.927229
_cell_length_b 5.620059
_cell_length_c 16.719607
_cell_angle_alpha 90.000000
_cell_angle_beta 102.466584
_cell_angle_gamma 90.000000
_cell_volume 910.820021
_symmetry_space_group_name_H-M "P 2/C"
_symmetry_group_IT_number 13
_symmetry_cell_setting 'monoclinic'
loop_
_space_group_symop_operation_xyz
x,y,z
-x,y,1/2-z
-x,-y,-z
x,-y,1/2+z
loop_
_atom_site_type_symbol
_atom_site_label
_atom_site_fract_x
_atom_site_fract_y
_atom_site_fract_z
Si Si1 0.698197 0.146497 0.866840
Si Si2 0.732553 0.567469 0.518046
Si Si3 0.147104 0.386437 0.813418
Si Si4 0.837010 0.108853 0.246323
Si Si5 0.492869 0.775007 0.587137
Si Si6 0.500000 0.478469 0.750000
O O1 0.626340 0.309407 0.791230
O O2 0.791660 0.959411 0.830522
O O3 0.569003 0.027534 0.896212
O O4 0.779054 0.298096 0.943722
O O5 0.846058 0.460996 0.592532
O O6 0.633143 0.744934 0.555963
O O7 0.628413 0.359380 0.476905
O O8 0.208232 0.624102 0.779746
O O9 0.000000 0.362249 0.750000
O O10 0.210605 0.121275 0.811967
O O11 0.000000 0.121548 0.250000
O O12 0.510634 0.640493 0.673288
#
# Coordination Sequence:
#
# PCOD9234043 Si02
#       6
#     4   4   4   4   4   2
#     4  11  23  38  66  97 132 175 219 277 333 400
#     4  10  23  39  63  96 138 171 218 279 336 401
#     4  10  23  45  70  94 128 181 228 277 330 393
#     4  10  24  44  68  94 130 175 228 274 326 391
#     4  10  22  39  60  97 137 173 218 268 346 395
#     4  10  22  36  60 100 128 178 220 270 324 416
#
# _framework density 24.154059
#
# number of rings (size 3 to 8) (size 9 to 14) (size 15 to 20)
#    0.000    1.818    0.000    2.182   12.727    0.000 
#    0.000    7.273    0.000    0.000    0.000    0.000 
#    0.000    0.000    0.000    0.000    0.000    0.000 
#
# Total GULP energy -122786.830598 kJ/mol
# GULP energy per Si atom -5581.219573 kJ/mol
# Density = 2.409908 g / cm^3
# Si number density = 24.154059 Si / 1000 Ang^3
#
#
#
# Elastic Constant Matrix: (Units=GPa)
#
#
# Indices 1 2 3 4 5 6 
#
# 1 50.2965 0.8430 30.1442 0.0000 12.4692 0.0000
# 2 0.8430 143.6997 37.4182 0.0000 1.6810 0.0000
# 3 30.1442 37.4182 146.8157 0.0000 23.4350 0.0000
# 4 0.0000 0.0000 0.0000 60.7376 0.0000 -12.6114
# 5 12.4692 1.6810 23.4350 0.0000 31.5822 0.0000
# 6 0.0000 0.0000 0.0000 -12.6114 0.0000 16.9004
#
#
#
# Elastic Compliance Matrix: (Units=1/GPa)
#
#
# Indices 1 2 3 4 5 6 
#
# 1 0.023946 0.001015 -0.004149 0.000000 -0.006430 0.000000
# 2 0.001015 0.007534 -0.002269 0.000000 0.000882 0.000000
# 3 -0.004149 -0.002269 0.009030 0.000000 -0.004942 0.000000
# 4 0.000000 0.000000 0.000000 0.019483 0.000000 0.014539
# 5 -0.006430 0.000882 -0.004942 0.000000 0.037822 0.000000
# 6 0.000000 0.000000 0.000000 0.014539 0.000000 0.070019
#
#
# Mechanical properties :
#
#
# Convention : Reuss Voigt Hill
#
# Bulk Modulus (GPa) = 33.66628 53.06919 43.36773
# Shear Modulus (GPa) = 26.51942 40.00447 33.26194
#
# Velocity S-wave (km/s) = 3.31709 4.07409 3.71492
# Velocity P-wave (km/s) = 5.35156 6.64453 6.03278
#
# Compressibility (1/GPa) = 0.02970332
#
# Stress axis : x y z
#
# Youngs Moduli (GPa) = 41.76121 132.73903 110.73803
#
# Poissons Ratio (x) = -0.13474 0.45945
# Poissons Ratio (y) = -0.04239 0.25129
# Poissons Ratio (z) = 0.17327 0.30122
#
# Static dielectric constant tensor:
#      x y z
#    x 1.450270 0.000000 -0.265790 
#    y 0.000000 1.969140 0.000000 
#    z -0.265790 0.000000 1.846720 
# 
# From -- ./inp_files/48846.got.cif
#   From: 2010.05.17/outbox.cif.g08.bks.cpg/sg13_25_cif.got.tgz:48846.got - 2010.06.03 16:44:36.
