data_PCOD9234658
_publ_section_title
;
Structure prediction by ZEFSAII (Michael W. Deem and Ramdas Pophale) SiO2 
 PCOD9234658
Probable space group: P 2/C
;
_chemical_formula_sum "Si O2"
_cell_formula_units_Z 22
_cell_length_a 7.553341
_cell_length_b 24.009513
_cell_length_c 5.499913
_cell_angle_alpha 90.000000
_cell_angle_beta 74.386210
_cell_angle_gamma 90.000000
_cell_volume 960.613443
_symmetry_space_group_name_H-M "P 2/C"
_symmetry_group_IT_number 13
_symmetry_cell_setting 'monoclinic'
loop_
_space_group_symop_operation_xyz
x,y,z
-x,y,1/2-z
-x,-y,-z
x,-y,1/2+z
loop_
_atom_site_type_symbol
_atom_site_label
_atom_site_fract_x
_atom_site_fract_y
_atom_site_fract_z
Si Si1 0.215276 0.974973 0.653306
Si Si2 0.696644 0.649856 0.050003
Si Si3 0.000000 0.711059 0.250000
Si Si4 0.793896 0.749183 0.722063
Si Si5 0.713337 0.520753 0.118993
Si Si6 0.389809 0.139100 0.043346
O O1 0.239352 0.909647 0.591690
O O2 0.000000 0.988958 0.750000
O O3 0.292683 0.007166 0.388533
O O4 0.500000 0.660038 0.250000
O O5 0.876106 0.671049 0.129289
O O6 0.715395 0.583822 0.019597
O O7 0.705893 0.689193 0.810506
O O8 0.841747 0.750621 0.421387
O O9 0.684682 0.798982 0.880679
O O10 0.000000 0.751389 0.750000
O O11 0.500000 0.504417 0.250000
O O12 0.791421 0.515220 0.365136
O O13 0.500000 0.126339 0.250000
O O14 0.500000 0.137163 0.750000
#
# Coordination Sequence:
#
# PCOD9234658 Si02
#       6
#     4   4   2   4   4   4
#     4  10  22  44  69  96 132 181 223 264 325 393
#     4  10  22  40  67  93 129 173 219 280 336 405
#     4  10  24  42  64  94 128 176 224 276 340 410
#     4  10  24  43  64  91 130 172 221 275 331 402
#     4   9  19  36  60  94 128 167 217 268 333 402
#     4  12  27  42  67 102 135 171 220 276 333 395
#
# _framework density 22.902028999999999
#
# number of rings (size 3 to 8) (size 9 to 14) (size 15 to 20)
#    0.000    1.818    0.000    2.182   10.182    2.182 
#    4.909    0.909    0.000    0.000    0.000    0.000 
#    0.000    0.000    0.000    0.000    0.000    0.000 
#
# Total GULP energy -122673.486476 kJ/mol
# GULP energy per Si atom -5576.067567 kJ/mol
# Density = 2.284990 g / cm^3
# Si number density = 22.902029 Si / 1000 Ang^3
#
#
#
# Elastic Constant Matrix: (Units=GPa)
#
#
# Indices 1 2 3 4 5 6 
#
# 1 54.9323 -10.2795 19.5685 0.0000 -9.6658 0.0000
# 2 -10.2795 104.0650 69.4732 0.0000 -9.7957 0.0000
# 3 19.5685 69.4732 165.4166 0.0000 -3.3182 0.0000
# 4 0.0000 0.0000 0.0000 3.3059 0.0000 3.9713
# 5 -9.6658 -9.7957 -3.3182 0.0000 23.4500 0.0000
# 6 0.0000 0.0000 0.0000 3.9713 0.0000 25.1565
#
#
#
# Elastic Compliance Matrix: (Units=1/GPa)
#
#
# Indices 1 2 3 4 5 6 
#
# 1 0.023636 0.007179 -0.005572 0.000000 0.011953 0.000000
# 2 0.007179 0.016095 -0.007436 0.000000 0.008630 0.000000
# 3 -0.005572 -0.007436 0.009747 0.000000 -0.004024 0.000000
# 4 0.000000 0.000000 0.000000 0.373278 0.000000 -0.058927
# 5 0.011953 0.008630 -0.004024 0.000000 0.050607 0.000000
# 6 0.000000 0.000000 0.000000 -0.058927 0.000000 0.049054
#
#
# Mechanical properties :
#
#
# Convention : Reuss Voigt Hill
#
# Bulk Modulus (GPa) = 26.44003 53.54869 39.99436
# Shear Modulus (GPa) = 9.14612 26.75925 17.95269
#
# Velocity S-wave (km/s) = 2.00056 3.42193 2.80284
# Velocity P-wave (km/s) = 4.11172 6.24861 5.28921
#
# Compressibility (1/GPa) = 0.03782143
#
# Stress axis : x y z
#
# Youngs Moduli (GPa) = 42.30881 62.13042 102.59807
#
# Poissons Ratio (x) = -0.44606 0.57163
# Poissons Ratio (y) = -0.30375 0.76292
# Poissons Ratio (z) = 0.23573 0.46200
#
# Static dielectric constant tensor:
#      x y z
#    x 1.884450 0.000000 0.084290 
#    y 0.000000 1.815170 0.000000 
#    z 0.084290 0.000000 2.120550 
# 
# From -- ./inp_files/2049.got.cif
#   From: 2010.05.17/outbox.cif.g08.bks.cpg/sg13_2_cif.got.tgz:2049.got - 2010.06.03 16:44:36.
