data_PCOD9234675
_publ_section_title
;
Structure prediction by ZEFSAII (Michael W. Deem and Ramdas Pophale) SiO2 
 PCOD9234675
Probable space group: P 2/C
;
_chemical_formula_sum "Si O2"
_cell_formula_units_Z 26
_cell_length_a 17.416300
_cell_length_b 5.406624
_cell_length_c 23.759902
_cell_angle_alpha 90.000000
_cell_angle_beta 29.307508
_cell_angle_gamma 90.000000
_cell_volume 1095.157290
_symmetry_space_group_name_H-M "P 2/C"
_symmetry_group_IT_number 13
_symmetry_cell_setting 'monoclinic'
loop_
_space_group_symop_operation_xyz
x,y,z
-x,y,1/2-z
-x,-y,-z
x,-y,1/2+z
loop_
_atom_site_type_symbol
_atom_site_label
_atom_site_fract_x
_atom_site_fract_y
_atom_site_fract_z
Si Si1 0.745203 0.968911 0.380184
Si Si2 0.646162 0.730867 0.614127
Si Si3 0.715948 0.688258 0.289618
Si Si4 0.000000 0.357167 0.750000
Si Si5 0.035857 0.059242 0.541385
Si Si6 0.066754 0.309031 0.311024
Si Si7 0.408532 0.237485 0.921104
O O1 0.896932 0.083838 0.253252
O O2 0.669825 0.174010 0.468078
O O3 0.660541 0.829987 0.382292
O O4 0.829670 0.768174 0.364116
O O5 0.500000 0.699117 0.750000
O O6 0.650392 0.479948 0.574142
O O7 0.808179 0.787322 0.544041
O O8 0.611666 0.983316 0.600894
O O9 0.766176 0.407955 0.272241
O O10 0.588720 0.712831 0.322780
O O11 0.880911 0.801586 0.163377
O O12 0.008981 0.492480 0.804046
O O13 0.040404 0.797907 0.571852
O O14 0.000000 0.000000 0.500000
#
# Coordination Sequence:
#
# PCOD9234675 Si02
#       7
#     4   4   4   2   4   4   4
#     4  10  24  40  72 111 156 200 255 315 398 467
#     4  12  31  52  77 115 154 206 270 333 397 460
#     4  10  25  47  73 111 153 204 259 315 394 476
#     4  10  22  40  68 114 166 194 256 322 388 468
#     4  11  27  49  80 106 149 207 271 320 396 469
#     4  10  24  41  75 108 154 196 260 317 393 465
#     4  12  29  48  80 110 163 203 259 325 402 467
#
# _framework density 23.740881000000002
#
# number of rings (size 3 to 8) (size 9 to 14) (size 15 to 20)
#    0.000    1.231    0.000    2.308   21.538    1.231 
#    0.000    0.000    0.000    0.000    0.000    0.000 
#    0.000    0.000    0.000    0.000    0.000    0.000 
#
# Total GULP energy -145266.208396 kJ/mol
# GULP energy per Si atom -5587.161861 kJ/mol
# Density = 2.368685 g / cm^3
# Si number density = 23.740881 Si / 1000 Ang^3
#
#
#
# Elastic Constant Matrix: (Units=GPa)
#
#
# Indices 1 2 3 4 5 6 
#
# 1 152.4016 59.6846 69.0455 0.0000 -17.6208 0.0000
# 2 59.6846 118.5389 39.8300 0.0000 3.4517 0.0000
# 3 69.0455 39.8300 123.4713 0.0000 4.8146 0.0000
# 4 0.0000 0.0000 0.0000 20.4233 0.0000 4.7552
# 5 -17.6208 3.4517 4.8146 0.0000 42.3567 0.0000
# 6 0.0000 0.0000 0.0000 4.7552 0.0000 22.4651
#
#
#
# Elastic Compliance Matrix: (Units=1/GPa)
#
#
# Indices 1 2 3 4 5 6 
#
# 1 0.011099 -0.004028 -0.005123 0.000000 0.005528 0.000000
# 2 -0.004028 0.010931 -0.001179 0.000000 -0.002433 0.000000
# 3 -0.005123 -0.001179 0.011474 0.000000 -0.003339 0.000000
# 4 0.000000 0.000000 0.000000 0.051502 0.000000 -0.010901
# 5 0.005528 -0.002433 -0.003339 0.000000 0.026486 0.000000
# 6 0.000000 0.000000 0.000000 -0.010901 0.000000 0.046821
#
#
# Mechanical properties :
#
#
# Convention : Reuss Voigt Hill
#
# Bulk Modulus (GPa) = 77.85140 81.28135 79.56637
# Shear Modulus (GPa) = 27.28438 32.10581 29.69509
#
# Velocity S-wave (km/s) = 3.39375 3.68141 3.54050
# Velocity P-wave (km/s) = 6.94406 7.23751 7.09231
#
# Compressibility (1/GPa) = 0.01284498
#
# Stress axis : x y z
#
# Youngs Moduli (GPa) = 90.09681 91.48171 87.15172
#
# Poissons Ratio (x) = 0.36850 0.44646
# Poissons Ratio (y) = 0.36292 0.10274
# Poissons Ratio (z) = 0.46155 0.10784
#
# Static dielectric constant tensor:
#      x y z
#    x 1.887890 0.000000 -0.016840 
#    y 0.000000 2.070330 0.000000 
#    z -0.016840 0.000000 1.941990 
# 
# From -- ./inp_files/87714.got.cif
#   From: 2010.05.17/outbox.cif.g08.bks.cpg/sg13_44_cif.got.tgz:87714.got - 2010.06.03 16:44:36.
