data_PCOD9234090
_publ_section_title
;
Structure prediction by ZEFSAII (Michael W. Deem and Ramdas Pophale) SiO2 
 PCOD9234090
Probable space group: P 2/C
;
_chemical_formula_sum "Si O2"
_cell_formula_units_Z 30
_cell_length_a 11.455290
_cell_length_b 9.137262
_cell_length_c 14.557205
_cell_angle_alpha 90.000000
_cell_angle_beta 123.108715
_cell_angle_gamma 90.000000
_cell_volume 1276.307474
_symmetry_space_group_name_H-M "P 2/C"
_symmetry_group_IT_number 13
_symmetry_cell_setting 'monoclinic'
loop_
_space_group_symop_operation_xyz
x,y,z
-x,y,1/2-z
-x,-y,-z
x,-y,1/2+z
loop_
_atom_site_type_symbol
_atom_site_label
_atom_site_fract_x
_atom_site_fract_y
_atom_site_fract_z
Si Si1 0.279559 0.430623 0.492734
Si Si2 0.862094 0.925451 0.862916
Si Si3 0.000000 0.758351 0.250000
Si Si4 0.191345 0.457000 0.755376
Si Si5 0.551207 0.264757 0.670163
Si Si6 0.826332 0.115904 0.013829
Si Si7 0.724970 0.041172 0.634582
Si Si8 0.124468 0.381430 0.062672
O O1 0.241467 0.496853 0.377653
O O2 0.433626 0.366371 0.572979
O O3 0.184835 0.288762 0.475859
O O4 0.244991 0.557912 0.549523
O O5 0.880848 0.793339 0.944291
O O6 0.019014 0.937285 0.892672
O O7 0.764611 0.926385 0.732091
O O8 0.812991 0.063301 0.903251
O O9 0.948536 0.642737 0.304932
O O10 0.859122 0.850648 0.179666
O O11 0.311603 0.364049 0.758648
O O12 0.164249 0.600937 0.686525
O O13 0.500000 0.217811 0.750000
O O14 0.600215 0.138045 0.621386
O O15 0.715217 0.040152 0.033413
O O16 0.000000 0.500000 0.000000
#
# Coordination Sequence:
#
# PCOD9234090 Si02
#       8
#     4   4   2   4   4   4   4   4
#     4  12  25  45  69 102 141 188 245 287 359 431
#     4  11  24  40  67 105 141 180 231 292 368 419
#     4  10  22  36  70 102 134 176 236 286 364 416
#     4  11  25  41  70 101 141 181 235 300 358 421
#     4  11  24  46  73  97 139 196 240 290 351 435
#     4  11  24  40  69 100 140 180 227 296 354 428
#     4  11  23  43  71 100 144 185 236 298 359 423
#     4  12  25  41  70 107 143 182 229 300 364 426
#
# _framework density 23.505309
#
# number of rings (size 3 to 8) (size 9 to 14) (size 15 to 20)
#    0.000    0.800    4.000    2.800    7.467    0.533 
#    0.000    0.000    5.867    0.000    0.000    0.000 
#    0.000    0.000    0.000    0.000    0.000    0.000 
#
# Total GULP energy -167585.914357 kJ/mol
# GULP energy per Si atom -5586.197145 kJ/mol
# Density = 2.345181 g / cm^3
# Si number density = 23.505309 Si / 1000 Ang^3
#
#
#
# Elastic Constant Matrix: (Units=GPa)
#
#
# Indices 1 2 3 4 5 6 
#
# 1 139.0167 50.4979 29.9918 0.0000 -4.3947 0.0000
# 2 50.4979 105.1999 13.0206 0.0000 -15.0641 0.0000
# 3 29.9918 13.0206 56.3240 0.0000 -12.5308 0.0000
# 4 0.0000 0.0000 0.0000 25.8593 0.0000 -9.1212
# 5 -4.3947 -15.0641 -12.5308 0.0000 34.2498 0.0000
# 6 0.0000 0.0000 0.0000 -9.1212 0.0000 48.2970
#
#
#
# Elastic Compliance Matrix: (Units=1/GPa)
#
#
# Indices 1 2 3 4 5 6 
#
# 1 0.009745 -0.004443 -0.004701 0.000000 -0.002424 0.000000
# 2 -0.004443 0.012284 0.000655 0.000000 0.005072 0.000000
# 3 -0.004701 0.000655 0.021812 0.000000 0.007665 0.000000
# 4 0.000000 0.000000 0.000000 0.041431 0.000000 0.007825
# 5 -0.002424 0.005072 0.007665 0.000000 0.033921 0.000000
# 6 0.000000 0.000000 0.000000 0.007825 0.000000 0.022183
#
#
# Mechanical properties :
#
#
# Convention : Reuss Voigt Hill
#
# Bulk Modulus (GPa) = 37.22841 54.17347 45.70094
# Shear Modulus (GPa) = 29.88497 35.48323 32.68410
#
# Velocity S-wave (km/s) = 3.56956 3.88955 3.73298
# Velocity P-wave (km/s) = 5.73251 6.57791 6.16970
#
# Compressibility (1/GPa) = 0.02686120
#
# Stress axis : x y z
#
# Youngs Moduli (GPa) = 102.61771 81.40877 45.84701
#
# Poissons Ratio (x) = 0.36169 0.21553
# Poissons Ratio (y) = 0.45592 -0.03001
# Poissons Ratio (z) = 0.48242 -0.05329
#
# Static dielectric constant tensor:
#      x y z
#    x 1.900160 0.000000 0.006040 
#    y 0.000000 1.884830 0.000000 
#    z 0.006040 0.000000 1.916990 
# 
# From -- ./inp_files/50402.got.cif
#   From: 2010.05.17/outbox.cif.g08.bks.cpg/sg13_26_cif.got.tgz:50402.got - 2010.06.03 16:44:36.
