data_PCOD9234403
_publ_section_title
;
Structure prediction by ZEFSAII (Michael W. Deem and Ramdas Pophale) SiO2 
 PCOD9234403
Probable space group: P 2/C
;
_chemical_formula_sum "Si O2"
_cell_formula_units_Z 28
_cell_length_a 5.005650
_cell_length_b 15.675257
_cell_length_c 17.696906
_cell_angle_alpha 90.000000
_cell_angle_beta 64.841571
_cell_angle_gamma 90.000000
_cell_volume 1256.857981
_symmetry_space_group_name_H-M "P 2/C"
_symmetry_group_IT_number 13
_symmetry_cell_setting 'monoclinic'
loop_
_space_group_symop_operation_xyz
x,y,z
-x,y,1/2-z
-x,-y,-z
x,-y,1/2+z
loop_
_atom_site_type_symbol
_atom_site_label
_atom_site_fract_x
_atom_site_fract_y
_atom_site_fract_z
Si Si1 0.355873 0.565056 0.692066
Si Si2 0.697367 0.948105 0.537809
Si Si3 0.680370 0.031515 0.800010
Si Si4 0.714380 0.385614 0.837153
Si Si5 0.657744 0.207043 0.885978
Si Si6 0.016261 0.228374 0.980526
Si Si7 0.195139 0.413773 0.492327
O O1 0.500000 0.604417 0.750000
O O2 0.459188 0.465875 0.674646
O O3 0.502513 0.593788 0.594538
O O4 0.000000 0.570054 0.750000
O O5 0.787467 0.848617 0.525186
O O6 0.500000 0.000000 0.500000
O O7 0.525813 0.964432 0.634885
O O8 0.000000 0.000000 0.500000
O O9 0.500000 0.061402 0.750000
O O10 0.727255 0.117114 0.841978
O O11 0.000000 0.993118 0.750000
O O12 0.590048 0.290807 0.845092
O O13 0.000000 0.384534 0.750000
O O14 0.749940 0.407285 0.923219
O O15 0.944751 0.231709 0.899514
O O16 0.340109 0.197564 0.964528
O O17 0.969095 0.325667 0.011722
O O18 0.000000 0.500000 0.500000
#
# Coordination Sequence:
#
# PCOD9234403 Si02
#       7
#     4   4   4   4   4   4   4
#     4  11  24  42  64  92 129 180 228 281 340 391
#     4  12  22  44  68  89 127 175 225 268 327 402
#     4  12  24  38  62  97 133 170 217 278 350 402
#     4  10  22  39  63  98 138 176 220 277 354 419
#     4  11  22  39  61  95 134 168 212 266 345 419
#     4  11  23  41  67  96 123 179 224 272 337 406
#     4  11  23  43  70 101 138 179 236 288 343 415
#
# _framework density 22.277773
#
# number of rings (size 3 to 8) (size 9 to 14) (size 15 to 20)
#    0.000    0.857    2.857    5.143    0.000    7.429 
#    0.000    1.429    0.000    0.000    0.000    0.000 
#    0.000    0.000    0.000    0.000    0.000    0.000 
#
# Total GULP energy -155930.816822 kJ/mol
# GULP energy per Si atom -5568.957744 kJ/mol
# Density = 2.222707 g / cm^3
# Si number density = 22.277773 Si / 1000 Ang^3
#
#
#
# Elastic Constant Matrix: (Units=GPa)
#
#
# Indices 1 2 3 4 5 6 
#
# 1 117.7527 15.8460 41.0854 0.0000 -17.2967 0.0000
# 2 15.8460 99.5979 22.1419 0.0000 -6.0346 0.0000
# 3 41.0854 22.1419 125.9032 0.0000 -20.3389 0.0000
# 4 0.0000 0.0000 0.0000 38.5249 0.0000 -13.3473
# 5 -17.2967 -6.0346 -20.3389 0.0000 36.4688 0.0000
# 6 0.0000 0.0000 0.0000 -13.3473 0.0000 23.9423
#
#
#
# Elastic Compliance Matrix: (Units=1/GPa)
#
#
# Indices 1 2 3 4 5 6 
#
# 1 0.009972 -0.000818 -0.002603 0.000000 0.003143 0.000000
# 2 -0.000818 0.010536 -0.001502 0.000000 0.000518 0.000000
# 3 -0.002603 -0.001502 0.009690 0.000000 0.003921 0.000000
# 4 0.000000 0.000000 0.000000 0.032171 0.000000 0.017935
# 5 0.003143 0.000518 0.003921 0.000000 0.031184 0.000000
# 6 0.000000 0.000000 0.000000 0.017935 0.000000 0.051765
#
#
# Mechanical properties :
#
#
# Convention : Reuss Voigt Hill
#
# Bulk Modulus (GPa) = 49.13479 55.71117 52.42298
# Shear Modulus (GPa) = 30.87436 37.39923 34.13680
#
# Velocity S-wave (km/s) = 3.72678 4.10172 3.91874
# Velocity P-wave (km/s) = 6.37353 6.89159 6.63762
#
# Compressibility (1/GPa) = 0.02035218
#
# Stress axis : x y z
#
# Youngs Moduli (GPa) = 100.27925 94.91422 103.20387
#
# Poissons Ratio (x) = 0.07760 0.26861
# Poissons Ratio (y) = 0.08198 0.15506
# Poissons Ratio (z) = 0.26100 0.14261
#
# Static dielectric constant tensor:
#      x y z
#    x 1.881900 0.000000 0.042140 
#    y 0.000000 1.933030 0.000000 
#    z 0.042140 0.000000 2.050310 
# 
# From -- ./inp_files/61528.got.cif
#   From: 2010.05.17/outbox.cif.g08.bks.cpg/sg13_31_cif.got.tgz:61528.got - 2010.06.03 16:44:36.
