data_PCOD9234105
_publ_section_title
;
Structure prediction by ZEFSAII (Michael W. Deem and Ramdas Pophale) SiO2 
 PCOD9234105
Probable space group: P 2/C
;
_chemical_formula_sum "Si O2"
_cell_formula_units_Z 28
_cell_length_a 5.606190
_cell_length_b 12.469617
_cell_length_c 21.426280
_cell_angle_alpha 90.000000
_cell_angle_beta 73.932873
_cell_angle_gamma 90.000000
_cell_volume 1439.339080
_symmetry_space_group_name_H-M "P 2/C"
_symmetry_group_IT_number 13
_symmetry_cell_setting 'monoclinic'
loop_
_space_group_symop_operation_xyz
x,y,z
-x,y,1/2-z
-x,-y,-z
x,-y,1/2+z
loop_
_atom_site_type_symbol
_atom_site_label
_atom_site_fract_x
_atom_site_fract_y
_atom_site_fract_z
Si Si1 0.449358 0.549558 0.435644
Si Si2 0.581217 0.751279 0.809790
Si Si3 0.674611 0.916145 0.901159
Si Si4 0.158898 0.457860 0.185989
Si Si5 0.746627 0.228462 0.516478
Si Si6 0.865304 0.028336 0.574805
Si Si7 0.867802 0.362453 0.091228
O O1 0.500000 0.500000 0.500000
O O2 0.648821 0.527569 0.367114
O O3 0.424894 0.675382 0.448345
O O4 0.218674 0.476383 0.430137
O O5 0.500000 0.800087 0.750000
O O6 0.731302 0.833708 0.841211
O O7 0.714610 0.639312 0.785239
O O8 0.358413 0.711944 0.870583
O O9 0.642399 0.848124 0.968366
O O10 0.409034 0.972899 0.904493
O O11 0.921123 0.989547 0.892686
O O12 0.000000 0.517723 0.250000
O O13 0.015732 0.395008 0.141994
O O14 0.820825 0.154738 0.569436
O O15 0.973399 0.292566 0.468140
O O16 0.000000 0.000000 0.500000
#
# Coordination Sequence:
#
# PCOD9234105 Si02
#       7
#     4   4   4   4   4   4   4
#     4  11  23  35  56  94 125 160 208 257 313 376
#     4  11  21  34  60  86 120 160 205 256 322 383
#     4  11  22  39  57  92 124 159 206 264 317 378
#     4  11  22  38  57  86 127 165 203 252 316 388
#     4  11  20  38  59  87 127 164 197 253 323 376
#     4  10  22  37  58  86 123 161 201 253 319 377
#     4  11  21  37  56  89 127 157 201 258 314 386
#
# _framework density 19.453374
#
# number of rings (size 3 to 8) (size 9 to 14) (size 15 to 20)
#    0.000    1.143    4.286    4.714    0.000    1.143 
#    0.000    0.000    0.000    0.000    3.714    1.000 
#    0.000    0.000    0.000    0.000    0.000    0.000 
#
# Total GULP energy -156089.549244 kJ/mol
# GULP energy per Si atom -5574.626759 kJ/mol
# Density = 1.940910 g / cm^3
# Si number density = 19.453374 Si / 1000 Ang^3
#
#
#
# Elastic Constant Matrix: (Units=GPa)
#
#
# Indices 1 2 3 4 5 6 
#
# 1 89.1588 39.8527 25.2203 0.0000 5.1681 0.0000
# 2 39.8527 106.4480 39.5280 0.0000 3.0560 0.0000
# 3 25.2203 39.5280 76.5031 0.0000 -8.0932 0.0000
# 4 0.0000 0.0000 0.0000 12.2727 0.0000 6.2012
# 5 5.1681 3.0560 -8.0932 0.0000 37.0518 0.0000
# 6 0.0000 0.0000 0.0000 6.2012 0.0000 29.6399
#
#
#
# Elastic Compliance Matrix: (Units=1/GPa)
#
#
# Indices 1 2 3 4 5 6 
#
# 1 0.013965 -0.004170 -0.002681 0.000000 -0.002190 0.000000
# 2 -0.004170 0.013069 -0.005559 0.000000 -0.001710 0.000000
# 3 -0.002681 -0.005559 0.017315 0.000000 0.004615 0.000000
# 4 0.000000 0.000000 0.000000 0.091114 0.000000 -0.019063
# 5 -0.002190 -0.001710 0.004615 0.000000 0.028444 0.000000
# 6 0.000000 0.000000 0.000000 -0.019063 0.000000 0.037727
#
#
# Mechanical properties :
#
#
# Convention : Reuss Voigt Hill
#
# Bulk Modulus (GPa) = 51.20270 53.47909 52.34090
# Shear Modulus (GPa) = 21.46267 26.96012 24.21140
#
# Velocity S-wave (km/s) = 3.32518 3.72679 3.53170
# Velocity P-wave (km/s) = 6.41251 6.78743 6.60263
#
# Compressibility (1/GPa) = 0.01953022
#
# Stress axis : x y z
#
# Youngs Moduli (GPa) = 71.60701 76.51880 57.75206
#
# Poissons Ratio (x) = 0.31908 0.15482
# Poissons Ratio (y) = 0.29860 0.32102
# Poissons Ratio (z) = 0.19197 0.42534
#
# Static dielectric constant tensor:
#      x y z
#    x 1.887260 0.000000 -0.040640 
#    y 0.000000 1.736760 0.000000 
#    z -0.040640 0.000000 1.813480 
# 
# From -- ./inp_files/73577.got.cif
#   From: 2010.05.17/outbox.cif.g08.bks.cpg/sg13_37_cif.got.tgz:73577.got - 2010.06.03 16:44:36.
