data_PCOD9234210
_publ_section_title
;
Structure prediction by ZEFSAII (Michael W. Deem and Ramdas Pophale) SiO2 
 PCOD9234210
Probable space group: P 2/C
;
_chemical_formula_sum "Si O2"
_cell_formula_units_Z 22
_cell_length_a 11.051273
_cell_length_b 7.471905
_cell_length_c 12.631060
_cell_angle_alpha 90.000000
_cell_angle_beta 71.540827
_cell_angle_gamma 90.000000
_cell_volume 989.335182
_symmetry_space_group_name_H-M "P 2/C"
_symmetry_group_IT_number 13
_symmetry_cell_setting 'monoclinic'
loop_
_space_group_symop_operation_xyz
x,y,z
-x,y,1/2-z
-x,-y,-z
x,-y,1/2+z
loop_
_atom_site_type_symbol
_atom_site_label
_atom_site_fract_x
_atom_site_fract_y
_atom_site_fract_z
Si Si1 0.288786 0.765425 0.162751
Si Si2 0.500000 0.591405 0.250000
Si Si3 0.000000 0.000000 0.500000
Si Si4 0.301268 0.485222 0.969821
Si Si5 0.776035 0.134508 0.404482
Si Si6 0.075970 0.362306 0.879790
Si Si7 0.000000 0.658881 0.750000
O O1 0.400071 0.709617 0.212067
O O2 0.157584 0.731200 0.263107
O O3 0.296936 0.969814 0.125694
O O4 0.291062 0.636479 0.060702
O O5 0.580843 0.482307 0.141455
O O6 0.130512 0.939433 0.529451
O O7 0.993728 0.795831 0.452167
O O8 0.178950 0.452415 0.929148
O O9 0.311521 0.293729 0.027260
O O10 0.874596 0.219940 0.291421
O O11 0.001648 0.527604 0.848943
#
# Coordination Sequence:
#
# PCOD9234210 Si02
#       7
#     4   2   2   4   4   4   2
#     4  11  22  46  66  97 137 175 228 292 334 417
#     4  10  24  46  72  94 130 172 236 292 366 388
#     4  10  22  38  62 102 140 186 220 270 338 404
#     4  10  23  44  66  98 129 176 228 288 343 410
#     4  11  24  37  66  98 138 180 227 267 340 411
#     4  10  22  39  66 100 142 179 228 274 334 419
#     4  12  22  40  66 100 146 190 216 270 346 402
#
# _framework density 22.237155000000001
#
# number of rings (size 3 to 8) (size 9 to 14) (size 15 to 20)
#    0.000    1.455    1.818    2.727    2.545    2.182 
#    0.000    1.818    0.000    0.000    0.000    0.000 
#    0.000    0.000    0.000    0.000    0.000    0.000 
#
# Total GULP energy -122624.450037 kJ/mol
# GULP energy per Si atom -5573.838638 kJ/mol
# Density = 2.218654 g / cm^3
# Si number density = 22.237155 Si / 1000 Ang^3
#
#
#
# Elastic Constant Matrix: (Units=GPa)
#
#
# Indices 1 2 3 4 5 6 
#
# 1 39.7208 26.3156 11.3967 0.0000 4.6682 0.0000
# 2 26.3156 145.8185 54.8087 0.0000 4.8963 0.0000
# 3 11.3967 54.8087 91.9883 0.0000 -9.7694 0.0000
# 4 0.0000 0.0000 0.0000 -0.4072 0.0000 1.1860
# 5 4.6682 4.8963 -9.7694 0.0000 34.5985 0.0000
# 6 0.0000 0.0000 0.0000 1.1860 0.0000 10.1572
#
#
#
# Elastic Compliance Matrix: (Units=1/GPa)
#
#
# Indices 1 2 3 4 5 6 
#
# 1 0.029035 -0.004669 -0.001197 0.000000 -0.003595 0.000000
# 2 -0.004669 0.009863 -0.005546 0.000000 -0.002332 0.000000
# 3 -0.001197 -0.005546 0.014870 0.000000 0.005145 0.000000
# 4 0.000000 0.000000 0.000000 -1.832624 0.000000 0.213977
# 5 -0.003595 -0.002332 0.005145 0.000000 0.031171 0.000000
# 6 0.000000 0.000000 0.000000 0.213977 0.000000 0.073469
#
#
# Mechanical properties :
#
#
# Convention : Reuss Voigt Hill
#
# Bulk Modulus (GPa) = 32.31631 51.39662 41.85646
# Shear Modulus (GPa) = -3.04678 21.20348 9.07835
#
# Velocity S-wave (km/s) = -1.17180 3.09125 2.02272
# Velocity P-wave (km/s) = 3.56838 5.99202 4.93141
#
# Compressibility (1/GPa) = 0.03094413
#
# Stress axis : x y z
#
# Youngs Moduli (GPa) = 34.44107 101.38539 67.24925
#
# Poissons Ratio (x) = 0.47340 0.08049
# Poissons Ratio (y) = 0.16082 0.37296
# Poissons Ratio (z) = 0.04122 0.56228
#
# Static dielectric constant tensor:
#      x y z
#    x 1.839590 0.000000 -0.012900 
#    y 0.000000 1.764100 0.000000 
#    z -0.012900 0.000000 1.906060 
# 
# From -- ./inp_files/48910.got.cif
#   From: 2010.05.17/outbox.cif.g08.bks.cpg/sg13_25_cif.got.tgz:48910.got - 2010.06.03 16:44:36.
