data_PCOD9234936
_publ_section_title
;
Structure prediction by ZEFSAII (Michael W. Deem and Ramdas Pophale) SiO2 
 PCOD9234936
Probable space group: P 2/C
;
_chemical_formula_sum "Si O2"
_cell_formula_units_Z 24
_cell_length_a 5.756377
_cell_length_b 10.596793
_cell_length_c 15.725031
_cell_angle_alpha 90.000000
_cell_angle_beta 96.746546
_cell_angle_gamma 90.000000
_cell_volume 952.571263
_symmetry_space_group_name_H-M "P 2/C"
_symmetry_group_IT_number 13
_symmetry_cell_setting 'monoclinic'
loop_
_space_group_symop_operation_xyz
x,y,z
-x,y,1/2-z
-x,-y,-z
x,-y,1/2+z
loop_
_atom_site_type_symbol
_atom_site_label
_atom_site_fract_x
_atom_site_fract_y
_atom_site_fract_z
Si Si1 0.104469 0.573681 0.427281
Si Si2 0.000000 0.162293 0.250000
Si Si3 0.000000 0.515271 0.250000
Si Si4 0.457691 0.704812 0.556354
Si Si5 0.281767 0.779945 0.088240
Si Si6 0.500000 0.692819 0.750000
Si Si7 0.141774 0.948377 0.585958
Si Si8 0.500000 0.349510 0.750000
O O1 0.058786 0.475256 0.348369
O O2 0.958210 0.702588 0.402126
O O3 0.000000 0.500000 0.500000
O O4 0.347034 0.615140 0.479602
O O5 0.246650 0.237575 0.251135
O O6 0.991154 0.083355 0.162793
O O7 0.744215 0.577606 0.253259
O O8 0.676128 0.757618 0.510875
O O9 0.476709 0.641460 0.650957
O O10 0.293887 0.826942 0.566662
O O11 0.472953 0.724926 0.161335
O O12 0.289391 0.926806 0.111966
O O13 0.000000 0.000000 0.500000
#
# Coordination Sequence:
#
# PCOD9234936 Si02
#       8
#     4   2   2   4   4   2   4   2
#     4  11  25  47  71 100 136 183 230 290 345 408
#     4  10  24  43  61 104 146 184 233 277 338 422
#     4  10  22  49  69 104 136 170 235 289 344 406
#     4  11  23  44  66 102 137 183 231 283 340 416
#     4  11  23  41  69 100 140 176 232 281 347 413
#     4  10  24  43  69  96 148 188 231 281 340 410
#     4  11  22  39  68  99 139 183 224 281 346 408
#     4  10  22  41  71 100 138 180 219 289 346 400
#
# _framework density 25.194965
#
# number of rings (size 3 to 8) (size 9 to 14) (size 15 to 20)
#    0.000    1.333    3.333    1.500    2.333    8.667 
#    3.000    0.833    0.000    0.000    0.000    0.000 
#    0.000    0.000    0.000    0.000    0.000    0.000 
#
# Total GULP energy -133660.874773 kJ/mol
# GULP energy per Si atom -5569.203116 kJ/mol
# Density = 2.513762 g / cm^3
# Si number density = 25.194965 Si / 1000 Ang^3
#
#
#
# Elastic Constant Matrix: (Units=GPa)
#
#
# Indices 1 2 3 4 5 6 
#
# 1 124.6697 35.2578 42.8527 0.0000 -3.2592 0.0000
# 2 35.2578 64.2237 22.7517 0.0000 9.2947 0.0000
# 3 42.8527 22.7517 247.7613 0.0000 2.5943 0.0000
# 4 0.0000 0.0000 0.0000 -66.2249 0.0000 142.1386
# 5 -3.2592 9.2947 2.5943 0.0000 42.2968 0.0000
# 6 0.0000 0.0000 0.0000 142.1386 0.0000 -152.1199
#
#
#
# Elastic Compliance Matrix: (Units=1/GPa)
#
#
# Indices 1 2 3 4 5 6 
#
# 1 0.010020 -0.005346 -0.001263 0.000000 0.002025 0.000000
# 2 -0.005346 0.019466 -0.000814 0.000000 -0.004640 0.000000
# 3 -0.001263 -0.000814 0.004331 0.000000 -0.000184 0.000000
# 4 0.000000 0.000000 0.000000 0.015018 0.000000 0.014032
# 5 0.002025 -0.004640 -0.000184 0.000000 0.024829 0.000000
# 6 0.000000 0.000000 0.000000 0.014032 0.000000 0.006538
#
#
# Mechanical properties :
#
#
# Convention : Reuss Voigt Hill
#
# Bulk Modulus (GPa) = 52.71685 70.93102 61.82393
# Shear Modulus (GPa) = 49.32246 -12.82344 18.24951
#
# Velocity S-wave (km/s) = 4.42931 -2.25848 2.69426
# Velocity P-wave (km/s) = 6.86494 4.62742 5.85408
#
# Compressibility (1/GPa) = 0.01896927
#
# Stress axis : x y z
#
# Youngs Moduli (GPa) = 99.79626 51.37264 230.87492
#
# Poissons Ratio (x) = 0.27466 0.29168
# Poissons Ratio (y) = 0.53356 0.18798
# Poissons Ratio (z) = 0.12608 0.04183
#
# Static dielectric constant tensor:
#      x y z
#    x 2.131110 0.000000 -0.051920 
#    y 0.000000 2.047170 0.000000 
#    z -0.051920 0.000000 1.956890 
# 
# From -- ./inp_files/61148.got.cif
#   From: 2010.05.17/outbox.cif.g08.bks.cpg/sg13_31_cif.got.tgz:61148.got - 2010.06.03 16:44:36.
