data_PCOD9234827
_publ_section_title
;
Structure prediction by ZEFSAII (Michael W. Deem and Ramdas Pophale) SiO2 
 PCOD9234827
Probable space group: P 2/C
;
_chemical_formula_sum "Si O2"
_cell_formula_units_Z 8
_cell_length_a 9.678199
_cell_length_b 6.608716
_cell_length_c 8.001456
_cell_angle_alpha 90.000000
_cell_angle_beta 136.064372
_cell_angle_gamma 90.000000
_cell_volume 355.096258
_symmetry_space_group_name_H-M "P 2/C"
_symmetry_group_IT_number 13
_symmetry_cell_setting 'monoclinic'
loop_
_space_group_symop_operation_xyz
x,y,z
-x,y,1/2-z
-x,-y,-z
x,-y,1/2+z
loop_
_atom_site_type_symbol
_atom_site_label
_atom_site_fract_x
_atom_site_fract_y
_atom_site_fract_z
Si Si1 0.235702 0.948947 0.459185
Si Si2 0.553841 0.265819 0.045182
O O1 0.313852 0.810315 0.680337
O O2 0.340823 0.841271 0.391968
O O3 0.000000 0.952689 0.250000
O O4 0.324871 0.175090 0.506674
O O5 0.500000 0.500000 0.000000
#
# Coordination Sequence:
#
# PCOD9234827 Si02
#       2
#     4   4
#     4  10  22  41  65  92 126 164 210 261 310 371
#     4  10  23  40  63  95 128 162 208 261 313 371
#
# _framework density 22.529101000000001
#
# number of rings (size 3 to 8) (size 9 to 14) (size 15 to 20)
#    0.000    2.000    0.000    1.500    0.000   20.000 
#    0.000    0.000    0.000    9.000    0.000    0.000 
#    0.000    0.000    0.000    0.000    0.000    0.000 
#
# Total GULP energy -44564.935099 kJ/mol
# GULP energy per Si atom -5570.616887 kJ/mol
# Density = 2.247782 g / cm^3
# Si number density = 22.529101 Si / 1000 Ang^3
#
#
#
# Elastic Constant Matrix: (Units=GPa)
#
#
# Indices 1 2 3 4 5 6 
#
# 1 148.4532 51.1356 116.7293 0.0000 39.2712 0.0000
# 2 51.1356 216.2195 84.4028 0.0000 20.9038 0.0000
# 3 116.7293 84.4028 145.2423 0.0000 27.9884 0.0000
# 4 0.0000 0.0000 0.0000 14.5233 0.0000 -4.0732
# 5 39.2712 20.9038 27.9884 0.0000 75.3519 0.0000
# 6 0.0000 0.0000 0.0000 -4.0732 0.0000 12.2395
#
#
#
# Elastic Compliance Matrix: (Units=1/GPa)
#
#
# Indices 1 2 3 4 5 6 
#
# 1 0.020528 0.002191 -0.016794 0.000000 -0.005068 0.000000
# 2 0.002191 0.006227 -0.005199 0.000000 -0.000938 0.000000
# 3 -0.016794 -0.005199 0.023092 0.000000 0.001618 0.000000
# 4 0.000000 0.000000 0.000000 0.075943 0.000000 0.025273
# 5 -0.005068 -0.000938 0.001618 0.000000 0.015572 0.000000
# 6 0.000000 0.000000 0.000000 0.025273 0.000000 0.090113
#
#
# Mechanical properties :
#
#
# Convention : Reuss Voigt Hill
#
# Bulk Modulus (GPa) = 97.63469 112.71670 105.17569
# Shear Modulus (GPa) = 18.21549 37.59943 27.90746
#
# Velocity S-wave (km/s) = 2.84655 4.08968 3.52338
# Velocity P-wave (km/s) = 7.36445 8.51122 7.95852
#
# Compressibility (1/GPa) = 0.01024226
#
# Stress axis : x y z
#
# Youngs Moduli (GPa) = 48.71497 160.59697 43.30572
#
# Poissons Ratio (x) = -0.35187 0.72729
# Poissons Ratio (y) = -0.10674 0.22513
# Poissons Ratio (z) = 0.81814 0.83487
#
# Static dielectric constant tensor:
#      x y z
#    x 1.926780 0.000000 -0.185770 
#    y 0.000000 1.918300 0.000000 
#    z -0.185770 0.000000 2.000310 
# 
# From -- ./inp_files/8212.got.cif
#   From: 2010.05.17/outbox.cif.g08.bks.cpg/sg13_5_cif.got.tgz:8212.got - 2010.06.03 16:44:36.
