data_PCOD9234348
_publ_section_title
;
Structure prediction by ZEFSAII (Michael W. Deem and Ramdas Pophale) SiO2 
 PCOD9234348
Probable space group: P 2/C
;
_chemical_formula_sum "Si O2"
_cell_formula_units_Z 24
_cell_length_a 12.258778
_cell_length_b 8.052539
_cell_length_c 24.431250
_cell_angle_alpha 90.000000
_cell_angle_beta 28.559347
_cell_angle_gamma 90.000000
_cell_volume 1152.964914
_symmetry_space_group_name_H-M "P 2/C"
_symmetry_group_IT_number 13
_symmetry_cell_setting 'monoclinic'
loop_
_space_group_symop_operation_xyz
x,y,z
-x,y,1/2-z
-x,-y,-z
x,-y,1/2+z
loop_
_atom_site_type_symbol
_atom_site_label
_atom_site_fract_x
_atom_site_fract_y
_atom_site_fract_z
Si Si1 0.000000 0.398587 0.750000
Si Si2 0.766104 0.656365 0.924586
Si Si3 0.676152 0.843132 0.338846
Si Si4 0.050653 0.637918 0.901499
Si Si5 0.682282 0.019828 0.220037
Si Si6 0.772082 0.697824 0.134754
Si Si7 0.000000 0.911627 0.750000
O O1 0.198508 0.514448 0.636652
O O2 0.110978 0.287534 0.749735
O O3 0.868999 0.593793 0.935463
O O4 0.936110 0.799422 0.829120
O O5 0.530253 0.744067 0.042819
O O6 0.609807 0.931543 0.310196
O O7 0.776245 0.985486 0.333649
O O8 0.193677 0.470741 0.846829
O O9 0.906563 0.675196 0.019439
O O10 0.201051 0.801511 0.822698
O O11 0.500000 0.045305 0.250000
O O12 0.852094 0.873872 0.124323
O O13 0.500000 0.715044 0.250000
#
# Coordination Sequence:
#
# PCOD9234348 Si02
#       7
#     2   4   4   4   4   4   2
#     4  10  24  40  66  94 126 168 220 272 330 388
#     4  11  21  39  64  92 124 167 212 272 325 383
#     4  11  22  41  63  90 127 166 214 267 326 386
#     4  11  22  39  64  92 130 167 214 263 323 389
#     4  11  22  40  65  94 129 168 214 264 324 389
#     4  10  22  39  60  90 131 170 209 261 319 389
#     4  10  22  40  60  88 124 162 214 264 314 382
#
# _framework density 20.815898000000001
#
# number of rings (size 3 to 8) (size 9 to 14) (size 15 to 20)
#    0.000    1.333    1.667    5.000    0.000    0.000 
#    0.000    0.000    3.667    0.000    0.000    0.000 
#    0.000    0.000    0.000    0.000    0.000    0.000 
#
# Total GULP energy -133628.060753 kJ/mol
# GULP energy per Si atom -5567.835865 kJ/mol
# Density = 2.076852 g / cm^3
# Si number density = 20.815898 Si / 1000 Ang^3
#
#
#
# Elastic Constant Matrix: (Units=GPa)
#
#
# Indices 1 2 3 4 5 6 
#
# 1 76.2706 26.2745 3.3315 0.0000 0.1146 0.0000
# 2 26.2745 102.1960 10.1426 0.0000 -1.0026 0.0000
# 3 3.3315 10.1426 46.1754 0.0000 -9.3562 0.0000
# 4 0.0000 0.0000 0.0000 29.6040 0.0000 -4.5500
# 5 0.1146 -1.0026 -9.3562 0.0000 23.1860 0.0000
# 6 0.0000 0.0000 0.0000 -4.5500 0.0000 30.6933
#
#
#
# Elastic Compliance Matrix: (Units=1/GPa)
#
#
# Indices 1 2 3 4 5 6 
#
# 1 0.014390 -0.003673 -0.000303 0.000000 -0.000352 0.000000
# 2 -0.003673 0.010946 -0.002221 0.000000 -0.000405 0.000000
# 3 -0.000303 -0.002221 0.024119 0.000000 0.009638 0.000000
# 4 0.000000 0.000000 0.000000 0.034567 0.000000 0.005124
# 5 -0.000352 -0.000405 0.009638 0.000000 0.047003 0.000000
# 6 0.000000 0.000000 0.000000 0.005124 0.000000 0.033340
#
#
# Mechanical properties :
#
#
# Convention : Reuss Voigt Hill
#
# Bulk Modulus (GPa) = 26.98254 33.79326 30.38790
# Shear Modulus (GPa) = 26.43914 29.02290 27.73102
#
# Velocity S-wave (km/s) = 3.56777 3.73804 3.65390
# Velocity P-wave (km/s) = 5.47381 5.90764 5.69486
#
# Compressibility (1/GPa) = 0.03706100
#
# Stress axis : x y z
#
# Youngs Moduli (GPa) = 69.49114 91.35780 41.46061
#
# Poissons Ratio (x) = 0.33557 0.01255
# Poissons Ratio (y) = 0.25525 0.09210
# Poissons Ratio (z) = 0.02104 0.20294
#
# Static dielectric constant tensor:
#      x y z
#    x 1.783270 0.000000 0.010970 
#    y 0.000000 1.790550 0.000000 
#    z 0.010970 0.000000 1.737370 
# 
# From -- ./inp_files/86318.got.cif
#   From: 2010.05.17/outbox.cif.g08.bks.cpg/sg13_44_cif.got.tgz:86318.got - 2010.06.03 16:44:36.
