data_PCOD9234597
_publ_section_title
;
Structure prediction by ZEFSAII (Michael W. Deem and Ramdas Pophale) SiO2 
 PCOD9234597
Probable space group: P 2/C
;
_chemical_formula_sum "Si O2"
_cell_formula_units_Z 30
_cell_length_a 12.960910
_cell_length_b 20.043198
_cell_length_c 5.450105
_cell_angle_alpha 90.000000
_cell_angle_beta 79.724685
_cell_angle_gamma 90.000000
_cell_volume 1393.110928
_symmetry_space_group_name_H-M "P 2/C"
_symmetry_group_IT_number 13
_symmetry_cell_setting 'monoclinic'
loop_
_space_group_symop_operation_xyz
x,y,z
-x,y,1/2-z
-x,-y,-z
x,-y,1/2+z
loop_
_atom_site_type_symbol
_atom_site_label
_atom_site_fract_x
_atom_site_fract_y
_atom_site_fract_z
Si Si1 0.500000 0.041027 0.750000
Si Si2 0.186347 0.460558 0.732015
Si Si3 0.057892 0.333808 0.965415
Si Si4 0.876365 0.956591 0.295351
Si Si5 0.391416 0.248063 0.437008
Si Si6 0.738640 0.729282 0.916274
Si Si7 0.314357 0.862675 0.258788
Si Si8 0.615742 0.622910 0.220915
O O1 0.607379 0.082607 0.673741
O O2 0.500000 0.000000 0.500000
O O3 0.171987 0.486868 0.461417
O O4 0.108176 0.401078 0.834225
O O5 0.302844 0.429676 0.706918
O O6 0.151284 0.286380 0.013494
O O7 0.000000 0.304412 0.750000
O O8 0.000000 0.348010 0.250000
O O9 0.793023 0.896742 0.288494
O O10 0.000000 0.935889 0.250000
O O11 0.860318 0.994925 0.563181
O O12 0.500000 0.254420 0.250000
O O13 0.384759 0.172359 0.522131
O O14 0.397333 0.309622 0.617889
O O15 0.277373 0.257469 0.360939
O O16 0.700761 0.798126 0.058070
O O17 0.671244 0.659660 0.967388
O O18 0.500000 0.593464 0.250000
#
# Coordination Sequence:
#
# PCOD9234597 Si02
#       8
#     2   4   4   4   4   4   4   4
#     4  12  28  44  66 100 142 184 224 274 336 398
#     4  11  26  43  69 100 134 173 232 278 330 406
#     4  11  26  46  71  97 137 176 224 283 347 401
#     4  10  23  45  69  92 127 176 224 270 331 397
#     4  11  22  39  70  97 134 177 224 271 340 416
#     4  10  24  41  66  98 131 175 220 279 335 404
#     4  11  25  41  66  99 137 172 227 279 337 397
#     4  10  22  40  64  95 133 177 219 270 341 395
#
# _framework density 21.53454
#
# number of rings (size 3 to 8) (size 9 to 14) (size 15 to 20)
#    0.000    1.333    1.333    2.400   15.867    2.667 
#    0.000    0.000    0.000    0.000    0.000    0.000 
#    0.000    0.000    0.000    0.000    0.000    0.000 
#
# Total GULP energy -167127.098741 kJ/mol
# GULP energy per Si atom -5570.903291 kJ/mol
# Density = 2.148553 g / cm^3
# Si number density = 21.534540 Si / 1000 Ang^3
#
#
#
# Elastic Constant Matrix: (Units=GPa)
#
#
# Indices 1 2 3 4 5 6 
#
# 1 101.2182 9.6267 18.0793 0.0000 13.8224 0.0000
# 2 9.6267 31.9501 -2.8342 0.0000 -1.0231 0.0000
# 3 18.0793 -2.8342 56.0678 0.0000 9.4317 0.0000
# 4 0.0000 0.0000 0.0000 12.0769 0.0000 -10.7176
# 5 13.8224 -1.0231 9.4317 0.0000 30.9804 0.0000
# 6 0.0000 0.0000 0.0000 -10.7176 0.0000 36.5845
#
#
#
# Elastic Compliance Matrix: (Units=1/GPa)
#
#
# Indices 1 2 3 4 5 6 
#
# 1 0.011389 -0.003847 -0.003152 0.000000 -0.004249 0.000000
# 2 -0.003847 0.032749 0.002556 0.000000 0.002020 0.000000
# 3 -0.003152 0.002556 0.019741 0.000000 -0.004519 0.000000
# 4 0.000000 0.000000 0.000000 0.111894 0.000000 0.032780
# 5 -0.004249 0.002020 -0.004519 0.000000 0.035617 0.000000
# 6 0.000000 0.000000 0.000000 0.032780 0.000000 0.036937
#
#
# Mechanical properties :
#
#
# Convention : Reuss Voigt Hill
#
# Bulk Modulus (GPa) = 18.18395 26.55329 22.36862
# Shear Modulus (GPa) = 18.14592 26.88598 22.51595
#
# Velocity S-wave (km/s) = 2.90598 3.53725 3.23704
# Velocity P-wave (km/s) = 4.44095 5.38890 4.93772
#
# Compressibility (1/GPa) = 0.05499354
#
# Stress axis : x y z
#
# Youngs Moduli (GPa) = 87.80580 30.53488 50.65494
#
# Poissons Ratio (x) = 0.11747 0.15967
# Poissons Ratio (y) = 0.33780 -0.12949
# Poissons Ratio (z) = 0.27677 -0.07805
#
# Static dielectric constant tensor:
#      x y z
#    x 1.772310 0.000000 -0.051400 
#    y 0.000000 1.754590 0.000000 
#    z -0.051400 0.000000 1.950590 
# 
# From -- ./inp_files/4143.got.cif
#   From: 2010.05.17/outbox.cif.g08.bks.cpg/sg13_3_cif.got.tgz:4143.got - 2010.06.03 16:44:36.
