data_PCOD9234087
_publ_section_title
;
Structure prediction by ZEFSAII (Michael W. Deem and Ramdas Pophale) SiO2 
 PCOD9234087
Probable space group: P 2/C
;
_chemical_formula_sum "Si O2"
_cell_formula_units_Z 28
_cell_length_a 13.825671
_cell_length_b 9.092023
_cell_length_c 19.690984
_cell_angle_alpha 90.000000
_cell_angle_beta 31.711400
_cell_angle_gamma 90.000000
_cell_volume 1301.078000
_symmetry_space_group_name_H-M "P 2/C"
_symmetry_group_IT_number 13
_symmetry_cell_setting 'monoclinic'
loop_
_space_group_symop_operation_xyz
x,y,z
-x,y,1/2-z
-x,-y,-z
x,-y,1/2+z
loop_
_atom_site_type_symbol
_atom_site_label
_atom_site_fract_x
_atom_site_fract_y
_atom_site_fract_z
Si Si1 0.707887 0.165239 0.646842
Si Si2 0.147738 0.319711 0.601767
Si Si3 0.889458 0.281411 0.251293
Si Si4 0.504542 0.232965 0.035521
Si Si5 0.446219 0.932259 0.127840
Si Si6 0.087757 0.549900 0.518069
Si Si7 0.859167 0.022102 0.432953
O O1 0.500000 0.129487 0.750000
O O2 0.695432 0.136878 0.734179
O O3 0.756556 0.330536 0.594722
O O4 0.835917 0.057003 0.526712
O O5 0.348539 0.333697 0.515968
O O6 0.139514 0.419185 0.539078
O O7 0.000000 0.346295 0.750000
O O8 0.128725 0.148172 0.591899
O O9 0.674934 0.305126 0.388526
O O10 0.000000 0.339821 0.250000
O O11 0.944255 0.359529 0.149226
O O12 0.966665 0.114908 0.197138
O O13 0.593822 0.140834 0.920751
O O14 0.429904 0.108225 0.131939
O O15 0.665740 0.914141 0.015866
O O16 0.000000 0.500000 0.500000
#
# Coordination Sequence:
#
# PCOD9234087 Si02
#       7
#     4   4   4   4   4   4   4
#     4   9  20  40  65  89 127 171 211 264 323 400
#     4  11  25  44  65  98 134 172 221 285 329 389
#     4  11  21  42  67  96 129 169 219 269 322 406
#     4  10  22  36  69 100 130 165 222 277 333 386
#     4   9  18  36  61 105 129 161 217 273 330 393
#     4  11  27  44  60  88 130 176 220 268 331 392
#     4   9  19  37  68  98 130 169 210 271 332 386
#
# _framework density 21.520616
#
# number of rings (size 3 to 8) (size 9 to 14) (size 15 to 20)
#    0.000    2.000    1.429    0.857    6.000    2.286 
#    0.000    9.286    0.000    0.000    0.000    0.000 
#    0.000    0.000    0.000    0.000    0.000    0.000 
#
# Total GULP energy -156265.708112 kJ/mol
# GULP energy per Si atom -5580.918147 kJ/mol
# Density = 2.147163 g / cm^3
# Si number density = 21.520616 Si / 1000 Ang^3
#
#
#
# Elastic Constant Matrix: (Units=GPa)
#
#
# Indices 1 2 3 4 5 6 
#
# 1 125.6329 41.3102 53.1940 0.0000 7.7165 0.0000
# 2 41.3102 94.4480 41.3449 0.0000 12.9185 0.0000
# 3 53.1940 41.3449 94.1668 0.0000 14.8947 0.0000
# 4 0.0000 0.0000 0.0000 6.7157 0.0000 4.3647
# 5 7.7165 12.9185 14.8947 0.0000 44.6102 0.0000
# 6 0.0000 0.0000 0.0000 4.3647 0.0000 -2.2653
#
#
#
# Elastic Compliance Matrix: (Units=1/GPa)
#
#
# Indices 1 2 3 4 5 6 
#
# 1 0.010960 -0.002627 -0.005129 0.000000 0.000578 0.000000
# 2 -0.002627 0.013904 -0.004282 0.000000 -0.002142 0.000000
# 3 -0.005129 -0.004282 0.015900 0.000000 -0.003182 0.000000
# 4 0.000000 0.000000 0.000000 0.066113 0.000000 0.127387
# 5 0.000578 -0.002142 -0.003182 0.000000 0.023999 0.000000
# 6 0.000000 0.000000 0.000000 0.127387 0.000000 -0.196002
#
#
# Mechanical properties :
#
#
# Convention : Reuss Voigt Hill
#
# Bulk Modulus (GPa) = 59.92338 65.10510 62.51424
# Shear Modulus (GPa) = -140.89627 21.70537 -59.59545
#
# Velocity S-wave (km/s) = -8.10015 3.17927 -5.26805
# Velocity P-wave (km/s) = 7.71869 6.61779 2.80919
#
# Compressibility (1/GPa) = 0.01668798
#
# Stress axis : x y z
#
# Youngs Moduli (GPa) = 91.24277 71.91938 62.89358
#
# Poissons Ratio (x) = 0.18897 0.32257
# Poissons Ratio (y) = 0.23974 0.26930
# Poissons Ratio (z) = 0.46797 0.30794
#
# Static dielectric constant tensor:
#      x y z
#    x 1.796250 0.000000 -0.043260 
#    y 0.000000 1.801610 0.000000 
#    z -0.043260 0.000000 1.778850 
# 
# From -- ./inp_files/79939.got.cif
#   From: 2010.05.17/outbox.cif.g08.bks.cpg/sg13_40_cif.got.tgz:79939.got - 2010.06.03 16:44:36.
