data_PCOD9234910
_publ_section_title
;
Structure prediction by ZEFSAII (Michael W. Deem and Ramdas Pophale) SiO2 
 PCOD9234910
Probable space group: P 2/C
;
_chemical_formula_sum "Si O2"
_cell_formula_units_Z 24
_cell_length_a 11.110361
_cell_length_b 11.491859
_cell_length_c 10.523030
_cell_angle_alpha 90.000000
_cell_angle_beta 125.369869
_cell_angle_gamma 90.000000
_cell_volume 1095.587800
_symmetry_space_group_name_H-M "P 2/C"
_symmetry_group_IT_number 13
_symmetry_cell_setting 'monoclinic'
loop_
_space_group_symop_operation_xyz
x,y,z
-x,y,1/2-z
-x,-y,-z
x,-y,1/2+z
loop_
_atom_site_type_symbol
_atom_site_label
_atom_site_fract_x
_atom_site_fract_y
_atom_site_fract_z
Si Si1 0.231305 0.336844 0.616921
Si Si2 0.316534 0.739229 0.900453
Si Si3 0.027470 0.825684 0.604811
Si Si4 0.666013 0.585569 0.834295
Si Si5 0.130976 0.063005 0.920487
Si Si6 0.358076 0.223292 0.954004
O O1 0.325383 0.294075 0.552877
O O2 0.069996 0.281714 0.499772
O O3 0.227315 0.475501 0.597281
O O4 0.297715 0.287260 0.789617
O O5 0.318327 0.636476 0.797588
O O6 0.154036 0.793945 0.782433
O O7 0.468262 0.802769 0.955763
O O8 0.125806 0.869202 0.548059
O O9 0.918754 0.933327 0.571266
O O10 0.500000 0.537332 0.750000
O O11 0.673279 0.685812 0.947880
O O12 0.276278 0.101758 0.935005
O O13 0.000000 0.106727 0.750000
#
# Coordination Sequence:
#
# PCOD9234910 Si02
#       6
#     4   4   4   4   4   4
#     4  12  23  41  68 104 137 175 220 274 335 396
#     4  11  23  43  67 104 133 175 222 277 334 393
#     4  11  25  43  70  94 135 176 220 281 337 391
#     4  10  22  41  68  99 138 179 219 274 329 393
#     4  11  22  46  70  94 129 178 226 278 332 395
#     4  11  23  43  74  97 131 180 229 268 329 403
#
# _framework density 21.906047999999998
#
# number of rings (size 3 to 8) (size 9 to 14) (size 15 to 20)
#    0.000    1.000    3.333    4.000    0.000    3.333 
#    0.000    5.000   11.000    0.000    0.000    0.000 
#    0.000    0.000    0.000    0.000    0.000    0.000 
#
# Total GULP energy -133871.788047 kJ/mol
# GULP energy per Si atom -5577.991169 kJ/mol
# Density = 2.185619 g / cm^3
# Si number density = 21.906048 Si / 1000 Ang^3
#
#
#
# Elastic Constant Matrix: (Units=GPa)
#
#
# Indices 1 2 3 4 5 6 
#
# 1 65.3322 81.0078 -8.8058 0.0000 34.1997 0.0000
# 2 81.0078 60.0645 41.9528 0.0000 3.7340 0.0000
# 3 -8.8058 41.9528 58.2115 0.0000 21.4383 0.0000
# 4 0.0000 0.0000 0.0000 -20.1743 0.0000 -27.5446
# 5 34.1997 3.7340 21.4383 0.0000 36.8463 0.0000
# 6 0.0000 0.0000 0.0000 -27.5446 0.0000 2.8058
#
#
#
# Elastic Compliance Matrix: (Units=1/GPa)
#
#
# Indices 1 2 3 4 5 6 
#
# 1 -0.002480 0.010132 -0.010369 0.000000 0.007308 0.000000
# 2 0.010132 -0.001539 0.007698 0.000000 -0.013727 0.000000
# 3 -0.010369 0.007698 0.008662 0.000000 0.003804 0.000000
# 4 0.000000 0.000000 0.000000 -0.003441 0.000000 -0.033784
# 5 0.007308 -0.013727 0.003804 0.000000 0.019535 0.000000
# 6 0.000000 0.000000 0.000000 -0.033784 0.000000 0.024744
#
#
# Mechanical properties :
#
#
# Convention : Reuss Voigt Hill
#
# Bulk Modulus (GPa) = 51.11213 45.76865 48.44039
# Shear Modulus (GPa) = 134.84732 8.52580 71.68656
#
# Velocity S-wave (km/s) = 7.85435 1.97495 5.72674
# Velocity P-wave (km/s) = 10.27801 5.11264 8.11716
#
# Compressibility (1/GPa) = 0.01956483
#
# Stress axis : x y z
#
# Youngs Moduli (GPa) = -403.26459 -649.56299 115.45298
#
# Poissons Ratio (x) = 6.58150 1.19709
# Poissons Ratio (y) = 4.08596 -0.88872
# Poissons Ratio (z) = -4.18129 5.00013
#
# Static dielectric constant tensor:
#      x y z
#    x 1.907660 0.000000 -0.067650 
#    y 0.000000 1.801890 0.000000 
#    z -0.067650 0.000000 1.832040 
# 
# From -- ./inp_files/33939.got.cif
#   From: 2010.05.17/outbox.cif.g08.bks.cpg/sg13_17_cif.got.tgz:33939.got - 2010.06.03 16:44:36.
