data_PCOD9234691
_publ_section_title
;
Structure prediction by ZEFSAII (Michael W. Deem and Ramdas Pophale) SiO2 
 PCOD9234691
Probable space group: P 2/C
;
_chemical_formula_sum "Si O2"
_cell_formula_units_Z 20
_cell_length_a 7.625542
_cell_length_b 12.125097
_cell_length_c 9.513010
_cell_angle_alpha 90.000000
_cell_angle_beta 80.398615
_cell_angle_gamma 90.000000
_cell_volume 867.255946
_symmetry_space_group_name_H-M "P 2/C"
_symmetry_group_IT_number 13
_symmetry_cell_setting 'monoclinic'
loop_
_space_group_symop_operation_xyz
x,y,z
-x,y,1/2-z
-x,-y,-z
x,-y,1/2+z
loop_
_atom_site_type_symbol
_atom_site_label
_atom_site_fract_x
_atom_site_fract_y
_atom_site_fract_z
Si Si1 0.784496 0.605604 0.783733
Si Si2 0.838141 0.581389 0.472780
Si Si3 0.122839 0.973954 0.615912
Si Si4 0.644452 0.781379 0.021616
Si Si5 0.242925 0.216373 0.678220
O O1 0.728923 0.603013 0.629067
O O2 0.746453 0.488795 0.862574
O O3 0.000000 0.623486 0.750000
O O4 0.700858 0.696109 0.894759
O O5 0.877215 0.698456 0.394867
O O6 0.000000 0.500000 0.500000
O O7 0.284750 0.899022 0.542831
O O8 0.000000 0.915549 0.750000
O O9 0.183522 0.090182 0.671846
O O10 0.000000 0.000000 0.500000
O O11 0.734737 0.756189 0.160482
O O12 0.436337 0.777915 0.080444
#
# Coordination Sequence:
#
# PCOD9234691 Si02
#       5
#     4   4   4   4   4
#     4  10  22  40  68  99 137 173 233 279 343 406
#     4  10  23  41  67 101 134 178 227 284 339 408
#     4  12  26  45  72 103 138 181 237 285 345 415
#     4  11  25  46  69 102 142 184 232 283 353 413
#     4  11  26  46  69  99 144 186 226 290 348 413
#
# _framework density 23.061245
#
# number of rings (size 3 to 8) (size 9 to 14) (size 15 to 20)
#    0.000    1.200    2.000    2.400    8.400    5.600 
#    0.000    0.000    0.000    0.000    0.000    0.000 
#    0.000    0.000    0.000    0.000    0.000    0.000 
#
# Total GULP energy -111897.498936 kJ/mol
# GULP energy per Si atom -5594.874947 kJ/mol
# Density = 2.300876 g / cm^3
# Si number density = 23.061245 Si / 1000 Ang^3
#
#
#
# Elastic Constant Matrix: (Units=GPa)
#
#
# Indices 1 2 3 4 5 6 
#
# 1 97.3037 24.0933 39.6121 0.0000 -24.2733 0.0000
# 2 24.0933 107.9677 44.2483 0.0000 -17.4604 0.0000
# 3 39.6121 44.2483 194.0633 0.0000 -20.5636 0.0000
# 4 0.0000 0.0000 0.0000 42.8733 0.0000 -16.5408
# 5 -24.2733 -17.4604 -20.5636 0.0000 29.2968 0.0000
# 6 0.0000 0.0000 0.0000 -16.5408 0.0000 4.3006
#
#
#
# Elastic Compliance Matrix: (Units=1/GPa)
#
#
# Indices 1 2 3 4 5 6 
#
# 1 0.013511 -0.000825 -0.001551 0.000000 0.009614 0.000000
# 2 -0.000825 0.010936 -0.001844 0.000000 0.004540 0.000000
# 3 -0.001551 -0.001844 0.006090 0.000000 0.001891 0.000000
# 4 0.000000 0.000000 0.000000 -0.048203 0.000000 -0.185398
# 5 0.009614 0.004540 0.001891 0.000000 0.046132 0.000000
# 6 0.000000 0.000000 0.000000 -0.185398 0.000000 -0.480546
#
#
# Mechanical properties :
#
#
# Convention : Reuss Voigt Hill
#
# Bulk Modulus (GPa) = 45.25307 68.36022 56.80665
# Shear Modulus (GPa) = -11.46069 34.71953 11.62942
#
# Velocity S-wave (km/s) = -2.23170 3.88433 2.24806
# Velocity P-wave (km/s) = 3.60901 7.05866 5.60578
#
# Compressibility (1/GPa) = 0.02209795
#
# Stress axis : x y z
#
# Youngs Moduli (GPa) = 74.01336 91.44082 164.19311
#
# Poissons Ratio (x) = 0.07540 0.25468
# Poissons Ratio (y) = 0.06103 0.30279
# Poissons Ratio (z) = 0.11480 0.16863
#
# Static dielectric constant tensor:
#      x y z
#    x 1.966040 0.000000 0.011560 
#    y 0.000000 1.857680 0.000000 
#    z 0.011560 0.000000 1.840880 
# 
# From -- ./inp_files/11699.got.cif
#   From: 2010.05.17/outbox.cif.g08.bks.cpg/sg13_6_cif.got.tgz:11699.got - 2010.06.03 16:44:36.
