data_PCOD9234778
_publ_section_title
;
Structure prediction by ZEFSAII (Michael W. Deem and Ramdas Pophale) SiO2 
 PCOD9234778
Probable space group: P 2/C
;
_chemical_formula_sum "Si O2"
_cell_formula_units_Z 26
_cell_length_a 19.799524
_cell_length_b 9.215930
_cell_length_c 7.988801
_cell_angle_alpha 90.000000
_cell_angle_beta 50.386243
_cell_angle_gamma 90.000000
_cell_volume 1122.973070
_symmetry_space_group_name_H-M "P 2/C"
_symmetry_group_IT_number 13
_symmetry_cell_setting 'monoclinic'
loop_
_space_group_symop_operation_xyz
x,y,z
-x,y,1/2-z
-x,-y,-z
x,-y,1/2+z
loop_
_atom_site_type_symbol
_atom_site_label
_atom_site_fract_x
_atom_site_fract_y
_atom_site_fract_z
Si Si1 0.000000 0.123737 0.250000
Si Si2 0.962740 0.654482 0.119462
Si Si3 0.813935 0.968215 0.056589
Si Si4 0.566180 0.086991 0.776653
Si Si5 0.234570 0.571436 0.163307
Si Si6 0.705394 0.154541 0.027846
Si Si7 0.269126 0.285763 0.957924
O O1 0.989835 0.226833 0.432455
O O2 0.916408 0.018503 0.388738
O O3 0.857669 0.622202 0.273637
O O4 0.000000 0.681965 0.250000
O O5 0.000000 0.500000 0.000000
O O6 0.778572 0.885400 0.274073
O O7 0.794416 0.852270 0.938124
O O8 0.750776 0.103281 0.126499
O O9 0.500000 0.157037 0.750000
O O10 0.636320 0.209185 0.720385
O O11 0.625519 0.952697 0.616449
O O12 0.500000 0.000000 0.000000
O O13 0.237578 0.617744 0.351357
O O14 0.308339 0.675170 0.961966
O O15 0.257882 0.402756 0.119002
#
# Coordination Sequence:
#
# PCOD9234778 Si02
#       7
#     2   4   4   4   4   4   4
#     4  12  22  42  62  96 144 176 256 294 338 424
#     4  12  23  38  65  97 139 191 244 301 350 406
#     4  10  22  41  62  93 132 180 230 289 341 419
#     4  11  23  44  73 103 131 172 227 282 354 436
#     4  11  22  43  61  96 131 180 227 275 356 413
#     4  10  22  42  65  91 132 178 219 281 359 416
#     4  10  22  41  67  94 135 176 218 286 349 415
#
# _framework density 23.152825
#
# number of rings (size 3 to 8) (size 9 to 14) (size 15 to 20)
#    0.000    1.231    3.846    4.615    0.000    5.538 
#    1.385    3.846    0.000    0.000    0.000    0.000 
#    0.000    0.000    0.000    0.000    0.000    0.000 
#
# Total GULP energy -145002.290020 kJ/mol
# GULP energy per Si atom -5577.011155 kJ/mol
# Density = 2.310013 g / cm^3
# Si number density = 23.152825 Si / 1000 Ang^3
#
#
#
# Elastic Constant Matrix: (Units=GPa)
#
#
# Indices 1 2 3 4 5 6 
#
# 1 116.9741 7.1138 29.2632 0.0000 -11.4276 0.0000
# 2 7.1138 87.1263 5.6340 0.0000 -3.7168 0.0000
# 3 29.2632 5.6340 70.2009 0.0000 -15.1206 0.0000
# 4 0.0000 0.0000 0.0000 29.5783 0.0000 0.5027
# 5 -11.4276 -3.7168 -15.1206 0.0000 48.2331 0.0000
# 6 0.0000 0.0000 0.0000 0.5027 0.0000 23.4134
#
#
#
# Elastic Compliance Matrix: (Units=1/GPa)
#
#
# Indices 1 2 3 4 5 6 
#
# 1 0.009619 -0.000498 -0.003740 0.000000 0.001068 0.000000
# 2 -0.000498 0.011582 -0.000595 0.000000 0.000588 0.000000
# 3 -0.003740 -0.000595 0.016784 0.000000 0.004330 0.000000
# 4 0.000000 0.000000 0.000000 0.033821 0.000000 -0.000726
# 5 0.001068 0.000588 0.004330 0.000000 0.022388 0.000000
# 6 0.000000 0.000000 0.000000 -0.000726 0.000000 0.042726
#
#
# Mechanical properties :
#
#
# Convention : Reuss Voigt Hill
#
# Bulk Modulus (GPa) = 35.31183 39.81368 37.56275
# Shear Modulus (GPa) = 32.04594 35.73098 33.88846
#
# Velocity S-wave (km/s) = 3.72439 3.93270 3.82996
# Velocity P-wave (km/s) = 5.81202 6.15264 5.98475
#
# Compressibility (1/GPa) = 0.02831912
#
# Stress axis : x y z
#
# Youngs Moduli (GPa) = 103.95989 86.34217 59.58037
#
# Poissons Ratio (x) = 0.04300 0.22281
# Poissons Ratio (y) = 0.05177 0.03547
# Poissons Ratio (z) = 0.38877 0.05140
#
# Static dielectric constant tensor:
#      x y z
#    x 1.970530 0.000000 0.104570 
#    y 0.000000 1.959980 0.000000 
#    z 0.104570 0.000000 1.929580 
# 
# From -- ./inp_files/22744.got.cif
#   From: 2010.05.17/outbox.cif.g08.bks.cpg/sg13_12_cif.got.tgz:22744.got - 2010.06.03 16:44:36.
