data_PCOD9234459
_publ_section_title
;
Structure prediction by ZEFSAII (Michael W. Deem and Ramdas Pophale) SiO2 
 PCOD9234459
Probable space group: P 2/C
;
_chemical_formula_sum "Si O2"
_cell_formula_units_Z 20
_cell_length_a 5.695446
_cell_length_b 5.120423
_cell_length_c 26.617729
_cell_angle_alpha 90.000000
_cell_angle_beta 91.071670
_cell_angle_gamma 90.000000
_cell_volume 776.119517
_symmetry_space_group_name_H-M "P 2/C"
_symmetry_group_IT_number 13
_symmetry_cell_setting 'monoclinic'
loop_
_space_group_symop_operation_xyz
x,y,z
-x,y,1/2-z
-x,-y,-z
x,-y,1/2+z
loop_
_atom_site_type_symbol
_atom_site_label
_atom_site_fract_x
_atom_site_fract_y
_atom_site_fract_z
Si Si1 0.211175 0.933564 0.876291
Si Si2 0.193256 0.686961 0.977940
Si Si3 0.834426 0.098991 0.797378
Si Si4 0.571033 0.318706 0.925005
Si Si5 0.419685 0.410896 0.169754
O O1 0.118301 0.863439 0.931276
O O2 0.015773 0.087009 0.844883
O O3 0.318254 0.690461 0.844245
O O4 0.437087 0.111134 0.890011
O O5 0.384983 0.502028 0.952417
O O6 0.297338 0.819478 0.028435
O O7 0.000000 0.500000 0.000000
O O8 0.000000 0.121661 0.750000
O O9 0.700571 0.824921 0.801365
O O10 0.645650 0.330800 0.799757
O O11 0.692791 0.514807 0.885653
#
# Coordination Sequence:
#
# PCOD9234459 Si02
#       5
#     4   4   4   4   4
#     4  11  25  45  75 102 149 194 240 300 370 432
#     4  10  22  39  69 104 146 193 239 293 359 438
#     4  12  28  49  75 109 142 189 252 305 372 441
#     4  10  22  42  67 107 144 193 238 291 366 440
#     4  11  25  49  72 105 149 185 241 305 365 438
#
# _framework density 25.76923
#
# number of rings (size 3 to 8) (size 9 to 14) (size 15 to 20)
#    0.000    1.200    2.000    2.400    8.400    1.600 
#    3.600    0.000    0.000    0.000    0.000    0.000 
#    0.000    0.000    0.000    0.000    0.000    0.000 
#
# Total GULP energy -111879.347302 kJ/mol
# GULP energy per Si atom -5593.967365 kJ/mol
# Density = 2.571058 g / cm^3
# Si number density = 25.769230 Si / 1000 Ang^3
#
#
#
# Elastic Constant Matrix: (Units=GPa)
#
#
# Indices 1 2 3 4 5 6 
#
# 1 55.5004 35.6731 30.3815 0.0000 -3.1545 0.0000
# 2 35.6731 145.0116 39.6617 0.0000 -14.6175 0.0000
# 3 30.3815 39.6617 81.1922 0.0000 0.1157 0.0000
# 4 0.0000 0.0000 0.0000 2.8267 0.0000 -40.5183
# 5 -3.1545 -14.6175 0.1157 0.0000 56.8011 0.0000
# 6 0.0000 0.0000 0.0000 -40.5183 0.0000 30.4103
#
#
#
# Elastic Compliance Matrix: (Units=1/GPa)
#
#
# Indices 1 2 3 4 5 6 
#
# 1 0.024590 -0.004037 -0.007230 0.000000 0.000341 0.000000
# 2 -0.004037 0.008870 -0.002825 0.000000 0.002064 0.000000
# 3 -0.007230 -0.002825 0.016403 0.000000 -0.001162 0.000000
# 4 0.000000 0.000000 0.000000 -0.019547 0.000000 -0.026044
# 5 0.000341 0.002064 -0.001162 0.000000 0.018158 0.000000
# 6 0.000000 0.000000 0.000000 -0.026044 0.000000 -0.001817
#
#
# Mechanical properties :
#
#
# Convention : Reuss Voigt Hill
#
# Bulk Modulus (GPa) = 46.12737 54.79297 50.46017
# Shear Modulus (GPa) = 60.92517 29.74016 45.33266
#
# Velocity S-wave (km/s) = 4.86764 3.40088 4.19881
# Velocity P-wave (km/s) = 7.03782 6.06057 6.56740
#
# Compressibility (1/GPa) = 0.02167910
#
# Stress axis : x y z
#
# Youngs Moduli (GPa) = 40.66711 112.74002 60.96302
#
# Poissons Ratio (x) = 0.45518 0.44074
# Poissons Ratio (y) = 0.16419 0.17223
# Poissons Ratio (z) = 0.29401 0.31850
#
# Static dielectric constant tensor:
#      x y z
#    x 2.069770 0.000000 0.066790 
#    y 0.000000 2.067440 0.000000 
#    z 0.066790 0.000000 2.084350 
# 
# From -- ./inp_files/89938.got.cif
#   From: 2010.05.17/outbox.cif.g08.bks.cpg/sg13_45_cif.got.tgz:89938.got - 2010.06.03 16:44:36.
