data_PCOD9234837
_publ_section_title
;
Structure prediction by ZEFSAII (Michael W. Deem and Ramdas Pophale) SiO2 
 PCOD9234837
Probable space group: P 2/C
;
_chemical_formula_sum "Si O2"
_cell_formula_units_Z 22
_cell_length_a 28.699252
_cell_length_b 5.083848
_cell_length_c 12.312523
_cell_angle_alpha 90.000000
_cell_angle_beta 31.938384
_cell_angle_gamma 90.000000
_cell_volume 950.323743
_symmetry_space_group_name_H-M "P 2/C"
_symmetry_group_IT_number 13
_symmetry_cell_setting 'monoclinic'
loop_
_space_group_symop_operation_xyz
x,y,z
-x,y,1/2-z
-x,-y,-z
x,-y,1/2+z
loop_
_atom_site_type_symbol
_atom_site_label
_atom_site_fract_x
_atom_site_fract_y
_atom_site_fract_z
Si Si1 0.904816 0.531829 0.633209
Si Si2 0.395250 0.549325 0.936904
Si Si3 0.137236 0.957845 0.150600
Si Si4 0.437531 0.749972 0.630596
Si Si5 0.000000 0.756153 0.250000
Si Si6 0.318277 0.066321 0.176134
O O1 0.856052 0.272571 0.772246
O O2 0.000000 0.500000 0.500000
O O3 0.927458 0.585820 0.461634
O O4 0.863560 0.779299 0.776837
O O5 0.500000 0.499274 0.750000
O O6 0.387780 0.710139 0.840535
O O7 0.342837 0.274402 0.032707
O O8 0.357570 0.772755 0.091755
O O9 0.050561 0.919923 0.244582
O O10 0.217428 0.950091 0.908055
O O11 0.500000 0.500000 0.500000
O O12 0.369229 0.779421 0.670017
O O13 0.500000 0.000000 0.500000
#
# Coordination Sequence:
#
# PCOD9234837 Si02
#       6
#     4   4   4   4   2   4
#     4  10  22  41  65  95 124 166 211 257 312 385
#     4  12  23  41  67  91 126 170 218 263 318 377
#     4  11  25  41  64  96 133 164 212 264 313 382
#     4  12  23  39  64  88 120 168 210 263 323 370
#     4  10  22  42  70  90 126 170 206 250 328 370
#     4  12  25  42  62  97 130 165 216 268 312 378
#
# _framework density 23.150006999999999
#
# number of rings (size 3 to 8) (size 9 to 14) (size 15 to 20)
#    0.000    0.727    3.636    4.909    0.000    9.455 
#    0.000    0.000    0.000    0.000    0.000    0.000 
#    0.000    0.000    0.000    0.000    0.000    0.000 
#
# Total GULP energy -122926.663439 kJ/mol
# GULP energy per Si atom -5587.575611 kJ/mol
# Density = 2.309732 g / cm^3
# Si number density = 23.150007 Si / 1000 Ang^3
#
#
#
# Elastic Constant Matrix: (Units=GPa)
#
#
# Indices 1 2 3 4 5 6 
#
# 1 33.6728 -7.6781 -11.8117 0.0000 10.8939 0.0000
# 2 -7.6781 180.0557 46.6806 0.0000 -5.8701 0.0000
# 3 -11.8117 46.6806 105.6673 0.0000 -9.3681 0.0000
# 4 0.0000 0.0000 0.0000 29.4900 0.0000 8.3968
# 5 10.8939 -5.8701 -9.3681 0.0000 31.9103 0.0000
# 6 0.0000 0.0000 0.0000 8.3968 0.0000 6.7301
#
#
#
# Elastic Compliance Matrix: (Units=1/GPa)
#
#
# Indices 1 2 3 4 5 6 
#
# 1 0.034235 0.000411 0.002686 0.000000 -0.010823 0.000000
# 2 0.000411 0.006281 -0.002709 0.000000 0.000220 0.000000
# 3 0.002686 -0.002709 0.011125 0.000000 0.001851 0.000000
# 4 0.000000 0.000000 0.000000 0.052594 0.000000 -0.065618
# 5 -0.010823 0.000220 0.001851 0.000000 0.035617 0.000000
# 6 0.000000 0.000000 0.000000 -0.065618 0.000000 0.230454
#
#
# Mechanical properties :
#
#
# Convention : Reuss Voigt Hill
#
# Bulk Modulus (GPa) = 19.07844 41.53082 30.30463
# Shear Modulus (GPa) = 12.91984 33.10642 23.01313
#
# Velocity S-wave (km/s) = 2.36496 3.78575 3.15634
# Velocity P-wave (km/s) = 3.96440 6.08999 5.13831
#
# Compressibility (1/GPa) = 0.05241520
#
# Stress axis : x y z
#
# Youngs Moduli (GPa) = 29.20991 159.21214 89.88865
#
# Poissons Ratio (x) = -0.06538 -0.24143
# Poissons Ratio (y) = -0.01200 0.24354
# Poissons Ratio (z) = -0.07845 0.43136
#
# Static dielectric constant tensor:
#      x y z
#    x 1.872030 0.000000 0.060980 
#    y 0.000000 1.968520 0.000000 
#    z 0.060980 0.000000 1.947380 
# 
# From -- ./inp_files/42520.got.cif
#   From: 2010.05.17/outbox.cif.g08.bks.cpg/sg13_22_cif.got.tgz:42520.got - 2010.06.03 16:44:36.
