data_PCOD9234867
_publ_section_title
;
Structure prediction by ZEFSAII (Michael W. Deem and Ramdas Pophale) SiO2 
 PCOD9234867
Probable space group: P 2/C
;
_chemical_formula_sum "Si O2"
_cell_formula_units_Z 20
_cell_length_a 5.910520
_cell_length_b 11.229051
_cell_length_c 17.608144
_cell_angle_alpha 90.000000
_cell_angle_beta 127.072922
_cell_angle_gamma 90.000000
_cell_volume 932.424921
_symmetry_space_group_name_H-M "P 2/C"
_symmetry_group_IT_number 13
_symmetry_cell_setting 'monoclinic'
loop_
_space_group_symop_operation_xyz
x,y,z
-x,y,1/2-z
-x,-y,-z
x,-y,1/2+z
loop_
_atom_site_type_symbol
_atom_site_label
_atom_site_fract_x
_atom_site_fract_y
_atom_site_fract_z
Si Si1 0.000000 0.550718 0.750000
Si Si2 0.291617 0.036154 0.846440
Si Si3 0.588490 0.367203 0.041295
Si Si4 0.258348 0.859060 0.510036
Si Si5 0.678337 0.235573 0.901991
Si Si6 0.500000 0.419482 0.750000
O O1 0.845379 0.623429 0.652287
O O2 0.731029 0.483971 0.739532
O O3 0.407396 0.154024 0.828199
O O4 0.000000 0.997643 0.750000
O O5 0.520444 0.930897 0.894350
O O6 0.263515 0.082240 0.927358
O O7 0.350094 0.279965 0.027403
O O8 0.500000 0.500000 0.000000
O O9 0.658114 0.302325 0.977227
O O10 0.932453 0.856442 0.465588
O O11 0.697579 0.335491 0.842011
#
# Coordination Sequence:
#
# PCOD9234867 Si02
#       6
#     2   4   4   4   4   2
#     4  12  28  44  68 108 140 190 234 296 350 430
#     4  10  22  41  66  98 134 175 230 292 352 421
#     4  11  24  44  66  97 143 180 232 289 351 414
#     4  10  23  41  65  98 135 182 228 287 356 420
#     4  11  23  41  72  97 138 182 234 291 350 427
#     4  12  26  42  74 104 140 186 246 280 360 420
#
# _framework density 21.449446999999999
#
# number of rings (size 3 to 8) (size 9 to 14) (size 15 to 20)
#    0.000    1.200    2.000    3.000    8.400    1.600 
#    0.000    0.000    0.000    0.000    0.000    0.000 
#    0.000    0.000    0.000    0.000    0.000    0.000 
#
# Total GULP energy -111559.774051 kJ/mol
# GULP energy per Si atom -5577.988703 kJ/mol
# Density = 2.140063 g / cm^3
# Si number density = 21.449447 Si / 1000 Ang^3
#
#
#
# Elastic Constant Matrix: (Units=GPa)
#
#
# Indices 1 2 3 4 5 6 
#
# 1 71.5908 29.1583 9.6016 0.0000 11.5778 0.0000
# 2 29.1583 72.7710 22.2694 0.0000 11.6293 0.0000
# 3 9.6016 22.2694 124.8161 0.0000 25.3756 0.0000
# 4 0.0000 0.0000 0.0000 34.5242 0.0000 12.2749
# 5 11.5778 11.6293 25.3756 0.0000 31.8151 0.0000
# 6 0.0000 0.0000 0.0000 12.2749 0.0000 11.9662
#
#
#
# Elastic Compliance Matrix: (Units=1/GPa)
#
#
# Indices 1 2 3 4 5 6 
#
# 1 0.017205 -0.006398 0.000735 0.000000 -0.004508 0.000000
# 2 -0.006398 0.017326 -0.002130 0.000000 -0.002306 0.000000
# 3 0.000735 -0.002130 0.009824 0.000000 -0.007325 0.000000
# 4 0.000000 0.000000 0.000000 0.045594 0.000000 -0.046771
# 5 -0.004508 -0.002306 -0.007325 0.000000 0.039757 0.000000
# 6 0.000000 0.000000 0.000000 -0.046771 0.000000 0.131546
#
#
# Mechanical properties :
#
#
# Convention : Reuss Voigt Hill
#
# Bulk Modulus (GPa) = 34.76165 43.47073 39.11619
# Shear Modulus (GPa) = 17.45636 29.53767 23.49702
#
# Velocity S-wave (km/s) = 2.85588 3.71493 3.31336
# Velocity P-wave (km/s) = 5.20732 6.22186 5.73706
#
# Compressibility (1/GPa) = 0.02876734
#
# Stress axis : x y z
#
# Youngs Moduli (GPa) = 58.12369 57.71769 101.78661
#
# Poissons Ratio (x) = 0.36928 -0.07477
# Poissons Ratio (y) = 0.37188 0.21683
# Poissons Ratio (z) = -0.04269 0.12296
#
# Static dielectric constant tensor:
#      x y z
#    x 3.107860 0.000000 0.931690 
#    y 0.000000 1.789230 0.000000 
#    z 0.931690 0.000000 2.394560 
# 
# From -- ./inp_files/43448.got.cif
#   From: 2010.05.17/outbox.cif.g08.bks.cpg/sg13_22_cif.got.tgz:43448.got - 2010.06.03 16:44:36.
