data_PCOD9234150
_publ_section_title
;
Structure prediction by ZEFSAII (Michael W. Deem and Ramdas Pophale) SiO2 
 PCOD9234150
Probable space group: P 2/C
;
_chemical_formula_sum "Si O2"
_cell_formula_units_Z 32
_cell_length_a 6.919394
_cell_length_b 23.742552
_cell_length_c 8.889356
_cell_angle_alpha 90.000000
_cell_angle_beta 130.120171
_cell_angle_gamma 90.000000
_cell_volume 1116.744379
_symmetry_space_group_name_H-M "P 2/C"
_symmetry_group_IT_number 13
_symmetry_cell_setting 'monoclinic'
loop_
_space_group_symop_operation_xyz
x,y,z
-x,y,1/2-z
-x,-y,-z
x,-y,1/2+z
loop_
_atom_site_type_symbol
_atom_site_label
_atom_site_fract_x
_atom_site_fract_y
_atom_site_fract_z
Si Si1 0.787196 0.128760 0.862037
Si Si2 0.249867 0.491431 0.727537
Si Si3 0.724974 0.960873 0.546400
Si Si4 0.693647 0.151387 0.209778
Si Si5 0.730622 0.729233 0.747751
Si Si6 0.231235 0.750702 0.199119
Si Si7 0.754481 0.370797 0.778755
Si Si8 0.745974 0.610812 0.766840
O O1 0.500000 0.139650 0.750000
O O2 0.811930 0.184881 0.762810
O O3 0.776109 0.059247 0.896230
O O4 0.028815 0.141273 0.085032
O O5 0.500000 0.491463 0.750000
O O6 0.247937 0.431017 0.809065
O O7 0.253246 0.551037 0.816490
O O8 0.000000 0.500000 0.500000
O O9 0.644494 0.901514 0.581556
O O10 0.000000 0.978264 0.750000
O O11 0.500000 0.000000 0.500000
O O12 0.500000 0.149668 0.250000
O O13 0.687532 0.213244 0.135225
O O14 0.500000 0.728133 0.750000
O O15 0.733078 0.669114 0.668711
O O16 0.991537 0.739823 0.968030
O O17 0.500000 0.748220 0.250000
O O18 0.233005 0.691095 0.291863
O O19 0.500000 0.371355 0.750000
O O20 0.003862 0.379705 0.006945
O O21 0.500000 0.610402 0.750000
#
# Coordination Sequence:
#
# PCOD9234150 Si02
#       8
#     4   4   4   4   4   4   4   4
#     4   9  18  33  52  73  97 126 159 196 239 286
#     4   8  12  16  22  36  62  96 130 164 206 252
#     4  10  22  38  54  74 100 128 159 196 240 292
#     4   9  18  33  52  73  97 126 159 196 239 286
#     4   8  13  22  37  56  78 107 142 178 219 265
#     4   8  13  22  37  56  78 107 142 178 219 265
#     4   8  12  17  26  42  66  98 133 168 209 255
#     4   8  12  17  26  42  66  98 133 168 209 255
#
# _framework density 28.654724000000002
#
# number of rings (size 3 to 8) (size 9 to 14) (size 15 to 20)
#    0.000    3.500    0.000    0.000    0.000    1.500 
#    0.000    2.500    0.000    0.000    0.000    0.000 
#    0.000    0.000    0.000   55.125    0.000  536.750 
#
# Total GULP energy -178162.431048 kJ/mol
# GULP energy per Si atom -5567.575970 kJ/mol
# Density = 2.858951 g / cm^3
# Si number density = 28.654724 Si / 1000 Ang^3
#
#
#
# Elastic Constant Matrix: (Units=GPa)
#
#
# Indices 1 2 3 4 5 6 
#
# 1 175.8710 51.8729 53.8293 0.0000 54.6216 0.0000
# 2 51.8729 256.2967 49.0198 0.0000 20.2276 0.0000
# 3 53.8293 49.0198 156.7761 0.0000 23.9486 0.0000
# 4 0.0000 0.0000 0.0000 10.9232 0.0000 22.7472
# 5 54.6216 20.2276 23.9486 0.0000 30.0153 0.0000
# 6 0.0000 0.0000 0.0000 22.7472 0.0000 -12.2123
#
#
#
# Elastic Compliance Matrix: (Units=1/GPa)
#
#
# Indices 1 2 3 4 5 6 
#
# 1 0.013328 -0.000716 -0.000821 0.000000 -0.023116 0.000000
# 2 -0.000716 0.004297 -0.000973 0.000000 -0.000817 0.000000
# 3 -0.000821 -0.000973 0.007557 0.000000 -0.003880 0.000000
# 4 0.000000 0.000000 0.000000 0.018764 0.000000 0.034951
# 5 -0.023116 -0.000817 -0.003880 0.000000 0.079029 0.000000
# 6 0.000000 0.000000 0.000000 0.034951 0.000000 -0.016783
#
#
# Mechanical properties :
#
#
# Convention : Reuss Voigt Hill
#
# Bulk Modulus (GPa) = 49.59797 99.82086 74.70941
# Shear Modulus (GPa) = 42.39684 34.69336 38.54510
#
# Velocity S-wave (km/s) = 3.85070 3.48334 3.67162
# Velocity P-wave (km/s) = 6.09236 7.14770 6.64103
#
# Compressibility (1/GPa) = 0.02016212
#
# Stress axis : x y z
#
# Youngs Moduli (GPa) = 75.03061 232.70980 132.32112
#
# Poissons Ratio (x) = 0.16663 0.10865
# Poissons Ratio (y) = 0.05372 0.12875
# Poissons Ratio (z) = 0.06161 0.22644
#
# Static dielectric constant tensor:
#      x y z
#    x 2.633730 0.000000 -0.464730 
#    y 0.000000 2.346990 0.000000 
#    z -0.464730 0.000000 2.532780 
# 
# From -- ./inp_files/48175.got.cif
#   From: 2010.05.17/outbox.cif.g08.bks.cpg/sg13_25_cif.got.tgz:48175.got - 2010.06.03 16:44:36.
