data_PCOD9234621
_publ_section_title
;
Structure prediction by ZEFSAII (Michael W. Deem and Ramdas Pophale) SiO2 
 PCOD9234621
Probable space group: P 2/C
;
_chemical_formula_sum "Si O2"
_cell_formula_units_Z 24
_cell_length_a 13.522867
_cell_length_b 9.997330
_cell_length_c 9.491034
_cell_angle_alpha 90.000000
_cell_angle_beta 79.358473
_cell_angle_gamma 90.000000
_cell_volume 1261.049871
_symmetry_space_group_name_H-M "P 2/C"
_symmetry_group_IT_number 13
_symmetry_cell_setting 'monoclinic'
loop_
_space_group_symop_operation_xyz
x,y,z
-x,y,1/2-z
-x,-y,-z
x,-y,1/2+z
loop_
_atom_site_type_symbol
_atom_site_label
_atom_site_fract_x
_atom_site_fract_y
_atom_site_fract_z
Si Si1 0.722847 0.739300 0.978605
Si Si2 0.691670 0.760704 0.656971
Si Si3 0.893736 0.145774 0.597944
Si Si4 0.574713 0.490399 0.609741
Si Si5 0.125293 0.133292 0.566043
Si Si6 0.572450 0.029399 0.611597
O O1 0.729010 0.746619 0.808017
O O2 0.827460 0.746606 0.033597
O O3 0.662120 0.610648 0.045129
O O4 0.658128 0.867813 0.044301
O O5 0.623807 0.632297 0.638070
O O6 0.786873 0.780195 0.528236
O O7 0.623722 0.893646 0.655272
O O8 0.859712 0.121861 0.769045
O O9 0.011276 0.183753 0.572238
O O10 0.877162 0.010312 0.511846
O O11 0.500000 0.439906 0.750000
O O12 0.500000 0.500000 0.500000
O O13 0.500000 0.087824 0.750000
O O14 0.500000 0.000000 0.500000
#
# Coordination Sequence:
#
# PCOD9234621 Si02
#       6
#     4   4   4   4   4   4
#     4  12  25  42  66  95 126 173 217 263 329 380
#     4  12  25  43  64  96 129 168 219 268 320 386
#     4  10  22  40  65  98 130 169 209 265 331 384
#     4  12  26  47  66  90 132 181 218 265 321 385
#     4  10  22  40  65  97 133 165 211 267 326 388
#     4  12  24  39  60  92 128 163 208 270 316 374
#
# _framework density 19.031760999999999
#
# number of rings (size 3 to 8) (size 9 to 14) (size 15 to 20)
#    0.000    0.667    5.000    3.000    4.667    2.000 
#    0.000    0.833    0.000    0.000    0.000    0.000 
#    0.000    0.000    0.000    0.000    0.000    0.000 
#
# Total GULP energy -134137.357683 kJ/mol
# GULP energy per Si atom -5589.056570 kJ/mol
# Density = 1.898844 g / cm^3
# Si number density = 19.031761 Si / 1000 Ang^3
#
#
#
# Elastic Constant Matrix: (Units=GPa)
#
#
# Indices 1 2 3 4 5 6 
#
# 1 111.5395 27.5447 58.5815 0.0000 7.4175 0.0000
# 2 27.5447 74.3520 16.2546 0.0000 4.2614 0.0000
# 3 58.5815 16.2546 153.4100 0.0000 5.8971 0.0000
# 4 0.0000 0.0000 0.0000 21.3490 0.0000 -2.3854
# 5 7.4175 4.2614 5.8971 0.0000 42.4146 0.0000
# 6 0.0000 0.0000 0.0000 -2.3854 0.0000 32.2505
#
#
#
# Elastic Compliance Matrix: (Units=1/GPa)
#
#
# Indices 1 2 3 4 5 6 
#
# 1 0.012121 -0.003502 -0.004212 0.000000 -0.001182 0.000000
# 2 -0.003502 0.014840 -0.000202 0.000000 -0.000850 0.000000
# 3 -0.004212 -0.000202 0.008163 0.000000 -0.000378 0.000000
# 4 0.000000 0.000000 0.000000 0.047231 0.000000 0.003493
# 5 -0.001182 -0.000850 -0.000378 0.000000 0.023922 0.000000
# 6 0.000000 0.000000 0.000000 0.003493 0.000000 0.031266
#
#
# Mechanical properties :
#
#
# Convention : Reuss Voigt Hill
#
# Bulk Modulus (GPa) = 51.83749 60.45146 56.14447
# Shear Modulus (GPa) = 31.28816 34.99755 33.14285
#
# Velocity S-wave (km/s) = 4.05902 4.29289 4.17760
# Velocity P-wave (km/s) = 7.01883 7.51028 7.26871
#
# Compressibility (1/GPa) = 0.01929106
#
# Stress axis : x y z
#
# Youngs Moduli (GPa) = 82.50105 67.38620 122.50544
#
# Poissons Ratio (x) = 0.23597 0.51600
# Poissons Ratio (y) = 0.28890 0.02480
# Poissons Ratio (z) = 0.34750 0.01364
#
# Static dielectric constant tensor:
#      x y z
#    x 1.659770 0.000000 -0.006830 
#    y 0.000000 1.636970 0.000000 
#    z -0.006830 0.000000 1.605020 
# 
# From -- ./inp_files/18039.got.cif
#   From: 2010.05.17/outbox.cif.g08.bks.cpg/sg13_10_cif.got.tgz:18039.got - 2010.06.03 16:44:36.
