data_PCOD9234121
_publ_section_title
;
Structure prediction by ZEFSAII (Michael W. Deem and Ramdas Pophale) SiO2 
 PCOD9234121
Probable space group: P 2/C
;
_chemical_formula_sum "Si O2"
_cell_formula_units_Z 24
_cell_length_a 15.081356
_cell_length_b 8.062229
_cell_length_c 16.633317
_cell_angle_alpha 90.000000
_cell_angle_beta 152.621836
_cell_angle_gamma 90.000000
_cell_volume 930.039383
_symmetry_space_group_name_H-M "P 2/C"
_symmetry_group_IT_number 13
_symmetry_cell_setting 'monoclinic'
loop_
_space_group_symop_operation_xyz
x,y,z
-x,y,1/2-z
-x,-y,-z
x,-y,1/2+z
loop_
_atom_site_type_symbol
_atom_site_label
_atom_site_fract_x
_atom_site_fract_y
_atom_site_fract_z
Si Si1 0.295097 0.947182 0.612509
Si Si2 0.500000 0.627942 0.750000
Si Si3 0.779350 0.621182 0.548060
Si Si4 0.121604 0.239191 0.546518
Si Si5 0.000000 0.164566 0.750000
Si Si6 0.292075 0.187943 0.346980
Si Si7 0.280987 0.214875 0.842074
O O1 0.500000 0.021089 0.750000
O O2 0.350161 0.755885 0.671150
O O3 0.197206 0.048459 0.603644
O O4 0.142264 0.945484 0.417904
O O5 0.379712 0.521112 0.590496
O O6 0.713255 0.744194 0.565778
O O7 0.000000 0.580479 0.750000
O O8 0.789876 0.688212 0.464500
O O9 0.894640 0.251329 0.350650
O O10 0.197242 0.295863 0.693396
O O11 0.137239 0.259649 0.798379
O O12 0.492518 0.247960 0.470216
O O13 0.277588 0.987729 0.338861
#
# Coordination Sequence:
#
# PCOD9234121 Si02
#       7
#     4   2   4   4   2   4   4
#     4  10  26  38  66  99 139 177 226 273 338 404
#     4  10  24  40  66 100 134 190 232 262 332 410
#     4  10  22  42  70  98 138 179 231 278 329 398
#     4  11  22  40  68 104 135 176 224 285 337 397
#     4  12  24  44  62  96 140 174 220 286 350 406
#     4  10  22  37  62 101 133 170 220 275 336 396
#     4  11  24  36  66 102 139 169 218 285 352 398
#
# _framework density 25.805358999999999
#
# number of rings (size 3 to 8) (size 9 to 14) (size 15 to 20)
#    0.500    1.000    1.667    2.500   11.667    0.000 
#    0.000    0.000    0.000   13.000    0.000    0.000 
#    0.000    0.000    0.000    0.000    0.000    0.000 
#
# Total GULP energy -134368.594003 kJ/mol
# GULP energy per Si atom -5598.691417 kJ/mol
# Density = 2.574663 g / cm^3
# Si number density = 25.805359 Si / 1000 Ang^3
#
#
#
# Elastic Constant Matrix: (Units=GPa)
#
#
# Indices 1 2 3 4 5 6 
#
# 1 183.4018 26.3819 82.6368 0.0000 9.6909 0.0000
# 2 26.3819 57.8457 37.2171 0.0000 -4.1646 0.0000
# 3 82.6368 37.2171 166.8130 0.0000 24.8617 0.0000
# 4 0.0000 0.0000 0.0000 17.9042 0.0000 4.0720
# 5 9.6909 -4.1646 24.8617 0.0000 47.9084 0.0000
# 6 0.0000 0.0000 0.0000 4.0720 0.0000 18.1700
#
#
#
# Elastic Compliance Matrix: (Units=1/GPa)
#
#
# Indices 1 2 3 4 5 6 
#
# 1 0.007084 -0.001101 -0.003290 0.000000 0.000179 0.000000
# 2 -0.001101 0.021264 -0.004885 0.000000 0.004606 0.000000
# 3 -0.003290 -0.004885 0.009406 0.000000 -0.004640 0.000000
# 4 0.000000 0.000000 0.000000 0.058853 0.000000 -0.013189
# 5 0.000179 0.004606 -0.004640 0.000000 0.023646 0.000000
# 6 0.000000 0.000000 0.000000 -0.013189 0.000000 0.057991
#
#
# Mechanical properties :
#
#
# Convention : Reuss Voigt Hill
#
# Bulk Modulus (GPa) = 52.07991 77.83689 64.95840
# Shear Modulus (GPa) = 24.60658 34.25149 29.42904
#
# Velocity S-wave (km/s) = 3.09130 3.64717 3.38068
# Velocity P-wave (km/s) = 5.74170 6.92563 6.36127
#
# Compressibility (1/GPa) = 0.01920126
#
# Stress axis : x y z
#
# Youngs Moduli (GPa) = 141.16356 47.02724 106.31210
#
# Poissons Ratio (x) = 0.05178 0.34980
# Poissons Ratio (y) = 0.15542 0.51937
# Poissons Ratio (z) = 0.46447 0.22974
#
# Static dielectric constant tensor:
#      x y z
#    x 2.017450 0.000000 -0.023430 
#    y 0.000000 2.106870 0.000000 
#    z -0.023430 0.000000 1.974160 
# 
# From -- ./inp_files/53783.got.cif
#   From: 2010.05.17/outbox.cif.g08.bks.cpg/sg13_27_cif.got.tgz:53783.got - 2010.06.03 16:44:36.
