data_PCOD9234059
_publ_section_title
;
Structure prediction by ZEFSAII (Michael W. Deem and Ramdas Pophale) SiO2 
 PCOD9234059
Probable space group: P 2/C
;
_chemical_formula_sum "Si O2"
_cell_formula_units_Z 18
_cell_length_a 18.079255
_cell_length_b 5.113943
_cell_length_c 9.005823
_cell_angle_alpha 90.000000
_cell_angle_beta 119.169711
_cell_angle_gamma 90.000000
_cell_volume 727.048746
_symmetry_space_group_name_H-M "P 2/C"
_symmetry_group_IT_number 13
_symmetry_cell_setting 'monoclinic'
loop_
_space_group_symop_operation_xyz
x,y,z
-x,y,1/2-z
-x,-y,-z
x,-y,1/2+z
loop_
_atom_site_type_symbol
_atom_site_label
_atom_site_fract_x
_atom_site_fract_y
_atom_site_fract_z
Si Si1 0.844881 0.153069 0.877180
Si Si2 0.584958 0.513432 0.415693
Si Si3 0.344593 0.178882 0.752935
Si Si4 0.500000 0.000000 0.000000
Si Si5 0.096639 0.331387 0.889803
O O1 0.865189 0.408304 0.997443
O O2 0.899036 0.906590 0.987447
O O3 0.747222 0.069762 0.807986
O O4 0.858879 0.233263 0.719270
O O5 0.500000 0.438585 0.250000
O O6 0.615695 0.286465 0.554130
O O7 0.658184 0.597181 0.374184
O O8 0.554712 0.753385 0.486510
O O9 0.426557 0.016888 0.791008
O O10 0.000000 0.387087 0.750000
#
# Coordination Sequence:
#
# PCOD9234059 Si02
#       5
#     4   4   4   2   4
#     4  12  27  46  78 111 151 190 247 302 363 445
#     4  10  22  41  60  91 125 181 232 283 352 403
#     4  11  25  40  65  93 136 177 237 286 351 414
#     4  10  22  36  62  86 132 174 226 282 344 406
#     4  12  26  50  78 112 149 193 239 304 381 446
#
# _framework density 24.757625000000001
#
# number of rings (size 3 to 8) (size 9 to 14) (size 15 to 20)
#    0.000    0.889    0.000    7.333    6.222    8.000 
#    0.000    0.000    0.000    0.000    0.000    0.000 
#    0.000    0.000    0.000    0.000    0.000    0.000 
#
# Total GULP energy -100312.794366 kJ/mol
# GULP energy per Si atom -5572.933020 kJ/mol
# Density = 2.470128 g / cm^3
# Si number density = 24.757625 Si / 1000 Ang^3
#
#
#
# Elastic Constant Matrix: (Units=GPa)
#
#
# Indices 1 2 3 4 5 6 
#
# 1 63.9234 -17.4481 -1.1887 0.0000 9.6336 0.0000
# 2 -17.4481 110.5172 31.9454 0.0000 0.9522 0.0000
# 3 -1.1887 31.9454 90.0793 0.0000 -8.5234 0.0000
# 4 0.0000 0.0000 0.0000 37.8208 0.0000 -8.1813
# 5 9.6336 0.9522 -8.5234 0.0000 36.6747 0.0000
# 6 0.0000 0.0000 0.0000 -8.1813 0.0000 28.6131
#
#
#
# Elastic Compliance Matrix: (Units=1/GPa)
#
#
# Indices 1 2 3 4 5 6 
#
# 1 0.017221 0.003153 -0.001357 0.000000 -0.004921 0.000000
# 2 0.003153 0.010704 -0.003946 0.000000 -0.002023 0.000000
# 3 -0.001357 -0.003946 0.012808 0.000000 0.003435 0.000000
# 4 0.000000 0.000000 0.000000 0.028184 0.000000 0.008058
# 5 -0.004921 -0.002023 0.003435 0.000000 0.029410 0.000000
# 6 0.000000 0.000000 0.000000 0.008058 0.000000 0.037253
#
#
# Mechanical properties :
#
#
# Convention : Reuss Voigt Hill
#
# Bulk Modulus (GPa) = 27.44666 32.34855 29.89761
# Shear Modulus (GPa) = 32.88974 37.36915 35.12945
#
# Velocity S-wave (km/s) = 3.64877 3.88931 3.77096
# Velocity P-wave (km/s) = 5.37230 5.76745 5.57338
#
# Compressibility (1/GPa) = 0.03643430
#
# Stress axis : x y z
#
# Youngs Moduli (GPa) = 58.06946 93.42115 78.07703
#
# Poissons Ratio (x) = -0.29458 0.10592
# Poissons Ratio (y) = -0.18311 0.30809
# Poissons Ratio (z) = 0.07878 0.36863
#
# Static dielectric constant tensor:
#      x y z
#    x 1.572240 0.000000 -0.132550 
#    y 0.000000 1.546080 0.000000 
#    z -0.132550 0.000000 1.946550 
# 
# From -- ./inp_files/22340.got.cif
#   From: 2010.05.17/outbox.cif.g08.bks.cpg/sg13_12_cif.got.tgz:22340.got - 2010.06.03 16:44:36.
