data_PCOD9234823
_publ_section_title
;
Structure prediction by ZEFSAII (Michael W. Deem and Ramdas Pophale) SiO2 
 PCOD9234823
Probable space group: P 2/C
;
_chemical_formula_sum "Si O2"
_cell_formula_units_Z 26
_cell_length_a 22.019485
_cell_length_b 7.020676
_cell_length_c 10.770808
_cell_angle_alpha 90.000000
_cell_angle_beta 144.511549
_cell_angle_gamma 90.000000
_cell_volume 966.641990
_symmetry_space_group_name_H-M "P 2/C"
_symmetry_group_IT_number 13
_symmetry_cell_setting 'monoclinic'
loop_
_space_group_symop_operation_xyz
x,y,z
-x,y,1/2-z
-x,-y,-z
x,-y,1/2+z
loop_
_atom_site_type_symbol
_atom_site_label
_atom_site_fract_x
_atom_site_fract_y
_atom_site_fract_z
Si Si1 0.220608 0.693172 0.879565
Si Si2 0.547574 0.738865 0.195509
Si Si3 0.232000 0.334882 0.769454
Si Si4 0.000000 0.184311 0.750000
Si Si5 0.786360 0.019655 0.959634
Si Si6 0.608305 0.177574 0.262839
Si Si7 0.996638 0.232983 0.010032
O O1 0.225493 0.565240 0.764196
O O2 0.102753 0.674303 0.743216
O O3 0.336657 0.651526 0.123735
O O4 0.218112 0.921471 0.900193
O O5 0.500000 0.680253 0.250000
O O6 0.561378 0.971322 0.223287
O O7 0.480392 0.708677 0.958931
O O8 0.241866 0.206684 0.664718
O O9 0.115624 0.282671 0.624939
O O10 0.327575 0.273126 0.018628
O O11 0.995049 0.301358 0.617468
O O12 0.895808 0.057681 0.593201
O O13 0.695141 0.867378 0.800814
O O14 0.000000 0.000000 0.000000
#
# Coordination Sequence:
#
# PCOD9234823 Si02
#       7
#     4   4   4   2   4   4   4
#     4  11  26  42  61  98 140 171 211 269 337 393
#     4  10  22  41  65  91 128 172 228 275 310 383
#     4  12  24  41  68  97 137 171 206 274 339 391
#     4  12  22  36  72  94 124 168 216 276 312 374
#     4  11  22  41  65  97 129 169 221 269 322 390
#     4  10  22  41  66  96 122 171 232 275 313 382
#     4  12  22  40  65  96 126 169 221 261 316 392
#
# _framework density 26.897237000000001
#
# number of rings (size 3 to 8) (size 9 to 14) (size 15 to 20)
#    0.000    0.923    4.615    2.308    2.154    3.077 
#    0.000    3.846    0.000    0.000    0.000    0.000 
#    0.000    0.000    0.000    0.000    0.000    0.000 
#
# Total GULP energy -144815.805697 kJ/mol
# GULP energy per Si atom -5569.838681 kJ/mol
# Density = 2.683602 g / cm^3
# Si number density = 26.897237 Si / 1000 Ang^3
#
#
#
# Elastic Constant Matrix: (Units=GPa)
#
#
# Indices 1 2 3 4 5 6 
#
# 1 83.1432 1.8293 44.6282 0.0000 -4.6769 0.0000
# 2 1.8293 96.1305 24.1579 0.0000 -3.1869 0.0000
# 3 44.6282 24.1579 199.3915 0.0000 7.1735 0.0000
# 4 0.0000 0.0000 0.0000 27.8219 0.0000 -10.3477
# 5 -4.6769 -3.1869 7.1735 0.0000 31.6283 0.0000
# 6 0.0000 0.0000 0.0000 -10.3477 0.0000 -38.6712
#
#
#
# Elastic Compliance Matrix: (Units=1/GPa)
#
#
# Indices 1 2 3 4 5 6 
#
# 1 0.013949 0.000661 -0.003306 0.000000 0.002879 0.000000
# 2 0.000661 0.010821 -0.001514 0.000000 0.001531 0.000000
# 3 -0.003306 -0.001514 0.006011 0.000000 -0.002005 0.000000
# 4 0.000000 0.000000 0.000000 0.032690 0.000000 -0.008747
# 5 0.002879 0.001531 -0.002005 0.000000 0.032652 0.000000
# 6 0.000000 0.000000 0.000000 -0.008747 0.000000 -0.023518
#
#
# Mechanical properties :
#
#
# Convention : Reuss Voigt Hill
#
# Bulk Modulus (GPa) = 44.51761 57.76622 51.14192
# Shear Modulus (GPa) = 56.55463 24.69248 40.62355
#
# Velocity S-wave (km/s) = 4.59041 3.03319 3.89051
# Velocity P-wave (km/s) = 6.68451 5.81294 6.26390
#
# Compressibility (1/GPa) = 0.02246302
#
# Stress axis : x y z
#
# Youngs Moduli (GPa) = 71.68835 92.41106 166.36919
#
# Poissons Ratio (x) = -0.06106 0.54998
# Poissons Ratio (y) = -0.04737 0.25189
# Poissons Ratio (z) = 0.23699 0.13992
#
# Static dielectric constant tensor:
#      x y z
#    x 2.124020 0.000000 -0.078760 
#    y 0.000000 2.167830 0.000000 
#    z -0.078760 0.000000 2.293440 
# 
# From -- ./inp_files/41675.got.cif
#   From: 2010.05.17/outbox.cif.g08.bks.cpg/sg13_21_cif.got.tgz:41675.got - 2010.06.03 16:44:36.
