data_PCOD9234980
_publ_section_title
;
Structure prediction by ZEFSAII (Michael W. Deem and Ramdas Pophale) SiO2 
 PCOD9234980
Probable space group: P 2/C
;
_chemical_formula_sum "Si O2"
_cell_formula_units_Z 14
_cell_length_a 12.397614
_cell_length_b 5.106037
_cell_length_c 7.790278
_cell_angle_alpha 90.000000
_cell_angle_beta 71.453592
_cell_angle_gamma 90.000000
_cell_volume 467.534593
_symmetry_space_group_name_H-M "P 2/C"
_symmetry_group_IT_number 13
_symmetry_cell_setting 'monoclinic'
loop_
_space_group_symop_operation_xyz
x,y,z
-x,y,1/2-z
-x,-y,-z
x,-y,1/2+z
loop_
_atom_site_type_symbol
_atom_site_label
_atom_site_fract_x
_atom_site_fract_y
_atom_site_fract_z
Si Si1 0.500000 0.706144 0.250000
Si Si2 0.847375 0.667259 0.414667
Si Si3 0.933278 0.786804 0.014250
Si Si4 0.601419 0.784289 0.572188
O O1 0.580075 0.688388 0.392343
O O2 0.412177 0.908938 0.395970
O O3 0.850439 0.773547 0.220070
O O4 0.868270 0.353385 0.385169
O O5 0.726285 0.701723 0.563164
O O6 0.934044 0.897580 0.455442
O O7 0.000000 0.500000 0.000000
O O8 0.500000 0.650358 0.750000
#
# Coordination Sequence:
#
# PCOD9234980 Si02
#       4
#     2   4   4   4
#     4   6  16  30  58  92 122 166 216 260 334 380
#     4  10  22  42  62  96 128 171 223 271 324 401
#     4  10  24  41  66  94 129 177 216 274 332 390
#     4   8  16  34  60  92 124 170 212 271 326 391
#
# _framework density 29.944309000000001
#
# number of rings (size 3 to 8) (size 9 to 14) (size 15 to 20)
#    1.714    1.143    0.000    0.000    4.000    9.143 
#    0.000    1.429    0.000    5.143    0.000    0.000 
#    0.000    0.000    0.000    0.000    0.000    0.000 
#
# Total GULP energy -77941.778001 kJ/mol
# GULP energy per Si atom -5567.269857 kJ/mol
# Density = 2.987615 g / cm^3
# Si number density = 29.944309 Si / 1000 Ang^3
#
#
#
# Elastic Constant Matrix: (Units=GPa)
#
#
# Indices 1 2 3 4 5 6 
#
# 1 152.0363 79.8581 59.6070 0.0000 -15.5965 0.0000
# 2 79.8581 276.6527 41.4104 0.0000 -4.9049 0.0000
# 3 59.6070 41.4104 155.2662 0.0000 -0.4845 0.0000
# 4 0.0000 0.0000 0.0000 58.3884 0.0000 18.8220
# 5 -15.5965 -4.9049 -0.4845 0.0000 71.5202 0.0000
# 6 0.0000 0.0000 0.0000 18.8220 0.0000 26.0106
#
#
#
# Elastic Compliance Matrix: (Units=1/GPa)
#
#
# Indices 1 2 3 4 5 6 
#
# 1 0.009017 -0.002139 -0.002885 0.000000 0.001800 0.000000
# 2 -0.002139 0.004277 -0.000320 0.000000 -0.000175 0.000000
# 3 -0.002885 -0.000320 0.007632 0.000000 -0.000599 0.000000
# 4 0.000000 0.000000 0.000000 0.022337 0.000000 -0.016164
# 5 0.001800 -0.000175 -0.000599 0.000000 0.014359 0.000000
# 6 0.000000 0.000000 0.000000 -0.016164 0.000000 0.050143
#
#
# Mechanical properties :
#
#
# Convention : Reuss Voigt Hill
#
# Bulk Modulus (GPa) = 97.69001 105.07849 101.38425
# Shear Modulus (GPa) = 41.02899 58.05580 49.54239
#
# Velocity S-wave (km/s) = 3.70561 4.40795 4.07195
# Velocity P-wave (km/s) = 7.14167 7.81500 7.48591
#
# Compressibility (1/GPa) = 0.01023646
#
# Stress axis : x y z
#
# Youngs Moduli (GPa) = 110.90399 233.81607 131.03083
#
# Poissons Ratio (x) = 0.50012 0.37809
# Poissons Ratio (y) = 0.23722 0.04194
# Poissons Ratio (z) = 0.32001 0.07484
#
# Static dielectric constant tensor:
#      x y z
#    x 1.724370 0.000000 -0.160510 
#    y 0.000000 2.157720 0.000000 
#    z -0.160510 0.000000 2.121030 
# 
# From -- ./inp_files/14293.got.cif
#   From: 2010.05.17/outbox.cif.g08.bks.cpg/sg13_8_cif.got.tgz:14293.got - 2010.06.03 16:44:36.
