data_PCOD9234359
_publ_section_title
;
Structure prediction by ZEFSAII (Michael W. Deem and Ramdas Pophale) SiO2 
 PCOD9234359
Probable space group: P 2/C
;
_chemical_formula_sum "Si O2"
_cell_formula_units_Z 28
_cell_length_a 11.831951
_cell_length_b 5.906497
_cell_length_c 19.500853
_cell_angle_alpha 90.000000
_cell_angle_beta 105.888558
_cell_angle_gamma 90.000000
_cell_volume 1310.759232
_symmetry_space_group_name_H-M "P 2/C"
_symmetry_group_IT_number 13
_symmetry_cell_setting 'monoclinic'
loop_
_space_group_symop_operation_xyz
x,y,z
-x,y,1/2-z
-x,-y,-z
x,-y,1/2+z
loop_
_atom_site_type_symbol
_atom_site_label
_atom_site_fract_x
_atom_site_fract_y
_atom_site_fract_z
Si Si1 0.500000 0.000000 0.000000
Si Si2 0.781194 0.399580 0.697167
Si Si3 0.156662 0.220011 0.182982
Si Si4 0.874042 0.888663 0.971053
Si Si5 0.338314 0.764125 0.075902
Si Si6 0.631826 0.130961 0.772440
Si Si7 0.000000 0.920365 0.250000
Si Si8 0.709818 0.371855 0.538856
O O1 0.561425 0.072218 0.937095
O O2 0.390060 0.182332 0.968279
O O3 0.823513 0.576953 0.761142
O O4 0.672076 0.267515 0.712637
O O5 0.890809 0.229847 0.706627
O O6 0.741460 0.488559 0.616545
O O7 0.131141 0.263215 0.099003
O O8 0.274489 0.069217 0.204311
O O9 0.050840 0.072233 0.197085
O O10 0.782666 0.095984 0.947884
O O11 0.825876 0.743314 0.026313
O O12 0.000000 0.000000 0.000000
O O13 0.358037 0.709902 0.158607
O O14 0.334724 0.554586 0.023527
O O15 0.500000 0.043950 0.750000
#
# Coordination Sequence:
#
# PCOD9234359 Si02
#       8
#     2   4   4   4   4   4   2   4
#     4  10  22  40  60  86 122 160 206 258 308 366
#     4  11  23  38  62  92 122 162 207 253 315 376
#     4  10  22  40  63  90 124 163 204 256 312 370
#     4  10  22  40  63  91 125 164 207 258 315 372
#     4  10  22  39  61  89 122 161 209 261 314 372
#     4  10  22  40  59  86 122 160 205 256 310 376
#     4  10  22  40  60  88 124 158 206 254 300 374
#     4  11  23  39  63  92 123 162 209 261 314 374
#
# _framework density 21.361666
#
# number of rings (size 3 to 8) (size 9 to 14) (size 15 to 20)
#    0.000    1.714    0.000    3.429    0.000    9.143 
#    0.000    1.429    0.000    0.000    0.000    0.000 
#    0.000    0.000    0.000    0.000    0.000    0.000 
#
# Total GULP energy -155906.723106 kJ/mol
# GULP energy per Si atom -5568.097254 kJ/mol
# Density = 2.131305 g / cm^3
# Si number density = 21.361666 Si / 1000 Ang^3
#
#
#
# Elastic Constant Matrix: (Units=GPa)
#
#
# Indices 1 2 3 4 5 6 
#
# 1 138.7903 14.6819 39.9194 0.0000 -18.0559 0.0000
# 2 14.6819 29.9299 19.5054 0.0000 -6.6735 0.0000
# 3 39.9194 19.5054 103.8887 0.0000 -21.3081 0.0000
# 4 0.0000 0.0000 0.0000 24.1701 0.0000 -10.2466
# 5 -18.0559 -6.6735 -21.3081 0.0000 10.2366 0.0000
# 6 0.0000 0.0000 0.0000 -10.2466 0.0000 1.9592
#
#
#
# Elastic Compliance Matrix: (Units=1/GPa)
#
#
# Indices 1 2 3 4 5 6 
#
# 1 0.009384 -0.001008 -0.000273 0.000000 0.015327 0.000000
# 2 -0.001008 0.040029 -0.003735 0.000000 0.016543 0.000000
# 3 -0.000273 -0.003735 0.017160 0.000000 0.032802 0.000000
# 4 0.000000 0.000000 0.000000 -0.033990 0.000000 -0.177769
# 5 0.015327 0.016543 0.032802 0.000000 0.203788 0.000000
# 6 0.000000 0.000000 0.000000 -0.177769 0.000000 -0.419329
#
#
# Mechanical properties :
#
#
# Convention : Reuss Voigt Hill
#
# Bulk Modulus (GPa) = 17.68642 46.75803 32.22223
# Shear Modulus (GPa) = -32.45088 20.50667 -5.97211
#
# Velocity S-wave (km/s) = -3.90181 3.10171 -1.67385
# Velocity P-wave (km/s) = 3.46430 5.89608 3.37360
#
# Compressibility (1/GPa) = 0.05654054
#
# Stress axis : x y z
#
# Youngs Moduli (GPa) = 106.56178 24.98208 58.27561
#
# Poissons Ratio (x) = 0.02518 0.01591
# Poissons Ratio (y) = 0.10741 0.21767
# Poissons Ratio (z) = 0.02909 0.09331
#
# Static dielectric constant tensor:
#      x y z
#    x 1.734890 0.000000 0.004900 
#    y 0.000000 1.792280 0.000000 
#    z 0.004900 0.000000 1.788170 
# 
# From -- ./inp_files/77555.got.cif
#   From: 2010.05.17/outbox.cif.g08.bks.cpg/sg13_39_cif.got.tgz:77555.got - 2010.06.03 16:44:36.
