data_PCOD9234330
_publ_section_title
;
Structure prediction by ZEFSAII (Michael W. Deem and Ramdas Pophale) SiO2 
 PCOD9234330
Probable space group: P 2/C
;
_chemical_formula_sum "Si O2"
_cell_formula_units_Z 32
_cell_length_a 11.393335
_cell_length_b 18.679007
_cell_length_c 7.676634
_cell_angle_alpha 90.000000
_cell_angle_beta 120.739715
_cell_angle_gamma 90.000000
_cell_volume 1404.172450
_symmetry_space_group_name_H-M "P 2/C"
_symmetry_group_IT_number 13
_symmetry_cell_setting 'monoclinic'
loop_
_space_group_symop_operation_xyz
x,y,z
-x,y,1/2-z
-x,-y,-z
x,-y,1/2+z
loop_
_atom_site_type_symbol
_atom_site_label
_atom_site_fract_x
_atom_site_fract_y
_atom_site_fract_z
Si Si1 0.626316 0.408347 0.601615
Si Si2 0.739533 0.167211 0.236875
Si Si3 0.663648 0.426678 0.218996
Si Si4 0.164459 0.289029 0.607801
Si Si5 0.863845 0.691442 0.825570
Si Si6 0.626289 0.932725 0.928388
Si Si7 0.643376 0.838919 0.281476
Si Si8 0.915080 0.939344 0.028227
O O1 0.643408 0.409382 0.406310
O O2 0.462176 0.396477 0.494613
O O3 0.658724 0.488114 0.693511
O O4 0.733237 0.352924 0.762743
O O5 0.754386 0.249449 0.303563
O O6 0.636426 0.131467 0.294311
O O7 0.881196 0.126931 0.380588
O O8 0.706509 0.143243 0.016814
O O9 0.805062 0.388331 0.282415
O O10 0.139684 0.287670 0.380983
O O11 0.250130 0.218002 0.719921
O O12 0.005440 0.299861 0.537772
O O13 0.500000 0.976246 0.750000
O O14 0.620190 0.899874 0.117407
O O15 0.772999 0.968763 0.002883
O O16 0.500000 0.807174 0.250000
O O17 0.000000 0.908771 0.250000
O O18 0.000000 0.000000 0.000000
#
# Coordination Sequence:
#
# PCOD9234330 Si02
#       8
#     4   4   4   4   4   4   4   4
#     4  10  22  39  59  91 118 175 226 275 343 408
#     4   9  23  41  68  98 143 173 234 281 344 412
#     4  10  22  39  62  84 126 168 225 286 333 411
#     4  10  24  37  59  92 127 172 224 273 346 421
#     4  10  22  42  59  92 129 173 216 282 344 401
#     4  10  22  42  70 103 139 179 232 285 341 413
#     4  11  21  39  67 104 139 186 226 296 358 407
#     4  10  24  46  71 106 142 188 229 282 340 420
#
# _framework density 22.789221999999999
#
# number of rings (size 3 to 8) (size 9 to 14) (size 15 to 20)
#    0.750    1.250    1.250    0.750    7.000    3.000 
#    2.250    0.625    0.000    0.000    0.000    0.000 
#    0.000    0.000    0.000    0.000    0.000    0.000 
#
# Total GULP energy -178268.236541 kJ/mol
# GULP energy per Si atom -5570.882392 kJ/mol
# Density = 2.273735 g / cm^3
# Si number density = 22.789222 Si / 1000 Ang^3
#
#
#
# Elastic Constant Matrix: (Units=GPa)
#
#
# Indices 1 2 3 4 5 6 
#
# 1 70.4964 19.6948 34.7199 0.0000 14.8287 0.0000
# 2 19.6948 61.0930 41.6678 0.0000 8.8571 0.0000
# 3 34.7199 41.6678 162.9037 0.0000 17.6162 0.0000
# 4 0.0000 0.0000 0.0000 524.3963 0.0000 74.8566
# 5 14.8287 8.8571 17.6162 0.0000 33.2704 0.0000
# 6 0.0000 0.0000 0.0000 74.8566 0.0000 40.8995
#
#
#
# Elastic Compliance Matrix: (Units=1/GPa)
#
#
# Indices 1 2 3 4 5 6 
#
# 1 0.017404 -0.003240 -0.002265 0.000000 -0.005695 0.000000
# 2 -0.003240 0.020671 -0.004410 0.000000 -0.001724 0.000000
# 3 -0.002265 -0.004410 0.007970 0.000000 -0.002036 0.000000
# 4 0.000000 0.000000 0.000000 0.002581 0.000000 -0.004725
# 5 -0.005695 -0.001724 -0.002036 0.000000 0.034132 0.000000
# 6 0.000000 0.000000 0.000000 -0.004725 0.000000 0.033097
#
#
# Mechanical properties :
#
#
# Convention : Reuss Voigt Hill
#
# Bulk Modulus (GPa) = 38.14775 54.07313 46.11044
# Shear Modulus (GPa) = 34.62047 132.94061 83.78054
#
# Velocity S-wave (km/s) = 3.90187 7.64601 6.06985
# Velocity P-wave (km/s) = 6.08894 10.08601 8.33075
#
# Compressibility (1/GPa) = 0.02621387
#
# Stress axis : x y z
#
# Youngs Moduli (GPa) = 57.45913 48.37716 125.47806
#
# Poissons Ratio (x) = 0.15675 0.28416
# Poissons Ratio (y) = 0.18618 0.55339
# Poissons Ratio (z) = 0.13012 0.21336
#
# Static dielectric constant tensor:
#      x y z
#    x 2.243330 0.000000 0.173620 
#    y 0.000000 1.930860 0.000000 
#    z 0.173620 0.000000 1.936090 
# 
# From -- ./inp_files/17304.got.cif
#   From: 2010.05.17/outbox.cif.g08.bks.cpg/sg13_9_cif.got.tgz:17304.got - 2010.06.03 16:44:36.
