data_PCOD9234461
_publ_section_title
;
Structure prediction by ZEFSAII (Michael W. Deem and Ramdas Pophale) SiO2 
 PCOD9234461
Probable space group: P 2/C
;
_chemical_formula_sum "Si O2"
_cell_formula_units_Z 32
_cell_length_a 15.094195
_cell_length_b 5.583226
_cell_length_c 16.623491
_cell_angle_alpha 90.000000
_cell_angle_beta 108.189987
_cell_angle_gamma 90.000000
_cell_volume 1330.923739
_symmetry_space_group_name_H-M "P 2/C"
_symmetry_group_IT_number 13
_symmetry_cell_setting 'monoclinic'
loop_
_space_group_symop_operation_xyz
x,y,z
-x,y,1/2-z
-x,-y,-z
x,-y,1/2+z
loop_
_atom_site_type_symbol
_atom_site_label
_atom_site_fract_x
_atom_site_fract_y
_atom_site_fract_z
Si Si1 0.092505 0.970227 0.245925
Si Si2 0.919065 0.199937 0.958579
Si Si3 0.869594 0.644623 0.865194
Si Si4 0.460033 0.820334 0.647040
Si Si5 0.246384 0.921369 0.555605
Si Si6 0.252096 0.417593 0.802213
Si Si7 0.467446 0.318472 0.834791
Si Si8 0.825638 0.255646 0.091535
O O1 0.182003 0.803736 0.275940
O O2 0.000000 0.836855 0.250000
O O3 0.083501 0.120203 0.161303
O O4 0.110020 0.168987 0.318131
O O5 0.896522 0.309761 0.039977
O O6 0.066565 0.588676 0.101455
O O7 0.810070 0.122012 0.909673
O O8 0.000000 0.000000 0.000000
O O9 0.786163 0.591094 0.779102
O O10 0.820705 0.705210 0.936723
O O11 0.500000 0.808715 0.750000
O O12 0.349796 0.865593 0.611282
O O13 0.504351 0.060397 0.621765
O O14 0.484810 0.560528 0.617811
O O15 0.234537 0.033303 0.463408
O O16 0.357518 0.351384 0.813188
O O17 0.238551 0.543383 0.885633
O O18 0.500000 0.306964 0.750000
#
# Coordination Sequence:
#
# PCOD9234461 Si02
#       8
#     4   4   4   4   4   4   4   4
#     4  11  27  48  70 109 150 201 259 314 388 475
#     4  10  25  46  73 111 147 202 264 324 394 468
#     4  11  24  42  78 105 146 199 264 319 385 457
#     4  10  22  39  69 109 148 188 257 325 392 463
#     4  10  24  43  72 109 150 198 258 323 397 463
#     4  11  25  46  74 104 155 201 255 323 397 472
#     4  10  23  39  72 107 145 191 258 321 388 456
#     4   9  26  45  70 103 155 200 247 315 407 459
#
# _framework density 24.043453
#
# number of rings (size 3 to 8) (size 9 to 14) (size 15 to 20)
#    0.750    1.000    0.000    2.250   17.500    2.500 
#    0.000    1.250    0.000    0.000    0.000    0.000 
#    0.000    0.000    0.000    0.000    0.000    0.000 
#
# Total GULP energy -178256.363819 kJ/mol
# GULP energy per Si atom -5570.511369 kJ/mol
# Density = 2.398873 g / cm^3
# Si number density = 24.043453 Si / 1000 Ang^3
#
#
#
# Elastic Constant Matrix: (Units=GPa)
#
#
# Indices 1 2 3 4 5 6 
#
# 1 141.1996 22.5858 22.1233 0.0000 5.6851 0.0000
# 2 22.5858 110.6235 8.3519 0.0000 -5.3468 0.0000
# 3 22.1233 8.3519 80.5612 0.0000 -2.6218 0.0000
# 4 0.0000 0.0000 0.0000 15.4885 0.0000 1.9570
# 5 5.6851 -5.3468 -2.6218 0.0000 36.2951 0.0000
# 6 0.0000 0.0000 0.0000 1.9570 0.0000 34.9177
#
#
#
# Elastic Compliance Matrix: (Units=1/GPa)
#
#
# Indices 1 2 3 4 5 6 
#
# 1 0.007700 -0.001496 -0.002011 0.000000 -0.001572 0.000000
# 2 -0.001496 0.009461 -0.000518 0.000000 0.001591 0.000000
# 3 -0.002011 -0.000518 0.013057 0.000000 0.001182 0.000000
# 4 0.000000 0.000000 0.000000 0.065024 0.000000 -0.003644
# 5 -0.001572 0.001591 0.001182 0.000000 0.028118 0.000000
# 6 0.000000 0.000000 0.000000 -0.003644 0.000000 0.028843
#
#
# Mechanical properties :
#
#
# Convention : Reuss Voigt Hill
#
# Bulk Modulus (GPa) = 45.10945 48.72291 46.91618
# Shear Modulus (GPa) = 29.82536 35.96183 32.89360
#
# Velocity S-wave (km/s) = 3.52586 3.87163 3.70278
# Velocity P-wave (km/s) = 5.94794 6.34779 6.15112
#
# Compressibility (1/GPa) = 0.02216831
#
# Stress axis : x y z
#
# Youngs Moduli (GPa) = 129.87359 105.69533 76.58599
#
# Poissons Ratio (x) = 0.15814 0.15398
# Poissons Ratio (y) = 0.19432 0.03969
# Poissons Ratio (z) = 0.26111 0.05477
#
# Static dielectric constant tensor:
#      x y z
#    x 1.877310 0.000000 -0.056050 
#    y 0.000000 2.094170 0.000000 
#    z -0.056050 0.000000 1.990460 
# 
# From -- ./inp_files/79347.got.cif
#   From: 2010.05.17/outbox.cif.g08.bks.cpg/sg13_40_cif.got.tgz:79347.got - 2010.06.03 16:44:36.
