data_PCOD9234592
_publ_section_title
;
Structure prediction by ZEFSAII (Michael W. Deem and Ramdas Pophale) SiO2 
 PCOD9234592
Probable space group: P 2/C
;
_chemical_formula_sum "Si O2"
_cell_formula_units_Z 32
_cell_length_a 15.774917
_cell_length_b 11.261172
_cell_length_c 12.487434
_cell_angle_alpha 90.000000
_cell_angle_beta 144.577084
_cell_angle_gamma 90.000000
_cell_volume 1285.753190
_symmetry_space_group_name_H-M "P 2/C"
_symmetry_group_IT_number 13
_symmetry_cell_setting 'monoclinic'
loop_
_space_group_symop_operation_xyz
x,y,z
-x,y,1/2-z
-x,-y,-z
x,-y,1/2+z
loop_
_atom_site_type_symbol
_atom_site_label
_atom_site_fract_x
_atom_site_fract_y
_atom_site_fract_z
Si Si1 0.391139 0.429196 0.739250
Si Si2 0.877602 0.173983 0.462401
Si Si3 0.836487 0.722078 0.604106
Si Si4 0.634952 0.709562 0.573576
Si Si5 0.429355 0.907596 0.346490
Si Si6 0.195881 0.199095 0.769977
Si Si7 0.792417 0.003816 0.037278
Si Si8 0.838909 0.383933 0.585409
O O1 0.500000 0.431104 0.750000
O O2 0.270972 0.326098 0.598110
O O3 0.287353 0.545150 0.611231
O O4 0.506452 0.389255 0.952299
O O5 0.724867 0.210943 0.250947
O O6 0.883796 0.048339 0.529950
O O7 0.878721 0.269670 0.556932
O O8 0.028472 0.192815 0.553987
O O9 0.766477 0.660276 0.636697
O O10 0.000000 0.690651 0.750000
O O11 0.834200 0.864236 0.615408
O O12 0.544691 0.812649 0.421850
O O13 0.311914 0.837423 0.299961
O O14 0.500000 0.000000 0.500000
O O15 0.361183 0.979369 0.179365
O O16 0.211659 0.325075 0.852102
O O17 0.209340 0.092566 0.871224
O O18 0.000000 0.446132 0.750000
#
# Coordination Sequence:
#
# PCOD9234592 Si02
#       8
#     4   4   4   4   4   4   4   4
#     4  10  22  40  64  93 129 171 220 280 343 399
#     4  10  22  42  64  94 133 173 224 280 328 398
#     4  11  23  39  65  91 126 175 223 274 335 403
#     4  11  24  40  60  97 134 166 221 279 341 407
#     4  12  24  40  63 100 141 182 214 280 342 400
#     4  10  24  42  67  96 134 182 229 272 338 405
#     4  11  22  40  65  94 132 177 224 270 334 405
#     4   9  20  44  68  91 127 177 231 278 334 401
#
# _framework density 24.888137
#
# number of rings (size 3 to 8) (size 9 to 14) (size 15 to 20)
#    0.000    1.500    2.500    3.000    1.750    3.500 
#    0.000    1.250    0.000    8.250    0.000    0.000 
#    0.000    0.000    0.000    0.000    0.000    0.000 
#
# Total GULP energy -178329.446602 kJ/mol
# GULP energy per Si atom -5572.795206 kJ/mol
# Density = 2.483149 g / cm^3
# Si number density = 24.888137 Si / 1000 Ang^3
#
#
#
# Elastic Constant Matrix: (Units=GPa)
#
#
# Indices 1 2 3 4 5 6 
#
# 1 75.4288 26.0620 35.1037 0.0000 38.1543 0.0000
# 2 26.0620 132.7912 40.0834 0.0000 9.1571 0.0000
# 3 35.1037 40.0834 147.9092 0.0000 20.4395 0.0000
# 4 0.0000 0.0000 0.0000 41.0569 0.0000 2.9353
# 5 38.1543 9.1571 20.4395 0.0000 36.7131 0.0000
# 6 0.0000 0.0000 0.0000 2.9353 0.0000 -8.4937
#
#
#
# Elastic Compliance Matrix: (Units=1/GPa)
#
#
# Indices 1 2 3 4 5 6 
#
# 1 0.030321 -0.003241 -0.002248 0.000000 -0.029452 0.000000
# 2 -0.003241 0.008574 -0.001868 0.000000 0.002270 0.000000
# 3 -0.002248 -0.001868 0.008031 0.000000 -0.001669 0.000000
# 4 0.000000 0.000000 0.000000 0.023769 0.000000 0.008214
# 5 -0.029452 0.002270 -0.001669 0.000000 0.058209 0.000000
# 6 0.000000 0.000000 0.000000 0.008214 0.000000 -0.114895
#
#
# Mechanical properties :
#
#
# Convention : Reuss Voigt Hill
#
# Bulk Modulus (GPa) = 31.04435 62.06973 46.55704
# Shear Modulus (GPa) = 126.70488 30.84725 78.77607
#
# Velocity S-wave (km/s) = 7.14285 3.52438 5.63212
# Velocity P-wave (km/s) = 8.97372 6.44634 7.81291
#
# Compressibility (1/GPa) = 0.03221198
#
# Stress axis : x y z
#
# Youngs Moduli (GPa) = 32.98018 116.63016 124.51280
#
# Poissons Ratio (x) = 0.37805 0.27989
# Poissons Ratio (y) = 0.10690 0.23259
# Poissons Ratio (z) = 0.07414 0.21786
#
# Static dielectric constant tensor:
#      x y z
#    x 2.039670 0.000000 0.005990 
#    y 0.000000 2.006520 0.000000 
#    z 0.005990 0.000000 2.091190 
# 
# From -- ./inp_files/55844.got.cif
#   From: 2010.05.17/outbox.cif.g08.bks.cpg/sg13_28_cif.got.tgz:55844.got - 2010.06.03 16:44:36.
