data_PCOD9234339
_publ_section_title
;
Structure prediction by ZEFSAII (Michael W. Deem and Ramdas Pophale) SiO2 
 PCOD9234339
Probable space group: P 2/C
;
_chemical_formula_sum "Si O2"
_cell_formula_units_Z 16
_cell_length_a 5.257650
_cell_length_b 16.358498
_cell_length_c 9.048789
_cell_angle_alpha 90.000000
_cell_angle_beta 93.340937
_cell_angle_gamma 90.000000
_cell_volume 776.938814
_symmetry_space_group_name_H-M "P 2/C"
_symmetry_group_IT_number 13
_symmetry_cell_setting 'monoclinic'
loop_
_space_group_symop_operation_xyz
x,y,z
-x,y,1/2-z
-x,-y,-z
x,-y,1/2+z
loop_
_atom_site_type_symbol
_atom_site_label
_atom_site_fract_x
_atom_site_fract_y
_atom_site_fract_z
Si Si1 0.018390 0.088840 0.928420
Si Si2 0.463111 0.635375 0.920441
Si Si3 0.524133 0.191281 0.927859
Si Si4 0.251631 0.530374 0.350048
O O1 0.271905 0.141994 0.970535
O O2 0.000000 0.080167 0.750000
O O3 0.771069 0.138083 0.970645
O O4 0.000000 0.000000 0.000000
O O5 0.500000 0.654179 0.750000
O O6 0.254552 0.562456 0.911556
O O7 0.428780 0.719777 0.002960
O O8 0.696130 0.590915 0.012784
O O9 0.500000 0.200475 0.750000
O O10 0.500000 0.536669 0.250000
O O11 0.000000 0.548448 0.250000
#
# Coordination Sequence:
#
# PCOD9234339 Si02
#       4
#     4   4   4   4
#     4  10  22  40  62  87 116 153 195 241 298 359
#     4  10  23  39  62  93 122 158 209 255 296 350
#     4  10  22  39  60  87 121 158 194 239 300 362
#     4  10  23  42  62  85 123 167 203 248 306 359
#
# _framework density 20.593644999999999
#
# number of rings (size 3 to 8) (size 9 to 14) (size 15 to 20)
#    0.000    2.000    0.000    1.500    0.000   21.000 
#    0.000    0.000    0.000    0.000    0.000    0.000 
#    0.000    0.000    0.000    0.000    0.000    0.000 
#
# Total GULP energy -89390.231573 kJ/mol
# GULP energy per Si atom -5586.889473 kJ/mol
# Density = 2.054677 g / cm^3
# Si number density = 20.593645 Si / 1000 Ang^3
#
#
#
# Elastic Constant Matrix: (Units=GPa)
#
#
# Indices 1 2 3 4 5 6 
#
# 1 145.9254 56.0320 57.1620 0.0000 24.2650 0.0000
# 2 56.0320 179.9597 59.0337 0.0000 7.5646 0.0000
# 3 57.1620 59.0337 82.8936 0.0000 22.5201 0.0000
# 4 0.0000 0.0000 0.0000 25.9275 0.0000 15.4491
# 5 24.2650 7.5646 22.5201 0.0000 20.3226 0.0000
# 6 0.0000 0.0000 0.0000 15.4491 0.0000 -15.5595
#
#
#
# Elastic Compliance Matrix: (Units=1/GPa)
#
#
# Indices 1 2 3 4 5 6 
#
# 1 0.010208 -0.001578 -0.003955 0.000000 -0.007219 0.000000
# 2 -0.001578 0.007770 -0.005969 0.000000 0.005605 0.000000
# 3 -0.003955 -0.005969 0.024544 0.000000 -0.020255 0.000000
# 4 0.000000 0.000000 0.000000 0.024232 0.000000 0.024060
# 5 -0.007219 0.005605 -0.020255 0.000000 0.078184 0.000000
# 6 0.000000 0.000000 0.000000 0.024060 0.000000 -0.040380
#
#
# Mechanical properties :
#
#
# Convention : Reuss Voigt Hill
#
# Bulk Modulus (GPa) = 51.22793 83.69266 67.46030
# Shear Modulus (GPa) = 37.29451 21.90817 29.60134
#
# Velocity S-wave (km/s) = 4.26017 3.26518 3.79542
# Velocity P-wave (km/s) = 7.00916 7.41239 7.21359
#
# Compressibility (1/GPa) = 0.01952060
#
# Stress axis : x y z
#
# Youngs Moduli (GPa) = 97.96164 128.69420 40.74315
#
# Poissons Ratio (x) = 0.20304 0.16112
# Poissons Ratio (y) = 0.15455 0.24318
# Poissons Ratio (z) = 0.38739 0.76814
#
# Static dielectric constant tensor:
#      x y z
#    x 1.783280 0.000000 -0.031640 
#    y 0.000000 1.713150 0.000000 
#    z -0.031640 0.000000 1.741410 
# 
# From -- ./inp_files/8978.got.cif
#   From: 2010.05.17/outbox.cif.g08.bks.cpg/sg13_5_cif.got.tgz:8978.got - 2010.06.03 16:44:36.
