data_PCOD9234794
_publ_section_title
;
Structure prediction by ZEFSAII (Michael W. Deem and Ramdas Pophale) SiO2 
 PCOD9234794
Probable space group: P 2/C
;
_chemical_formula_sum "Si O2"
_cell_formula_units_Z 26
_cell_length_a 9.729938
_cell_length_b 10.777579
_cell_length_c 19.970682
_cell_angle_alpha 90.000000
_cell_angle_beta 143.913534
_cell_angle_gamma 90.000000
_cell_volume 1233.512407
_symmetry_space_group_name_H-M "P 2/C"
_symmetry_group_IT_number 13
_symmetry_cell_setting 'monoclinic'
loop_
_space_group_symop_operation_xyz
x,y,z
-x,y,1/2-z
-x,-y,-z
x,-y,1/2+z
loop_
_atom_site_type_symbol
_atom_site_label
_atom_site_fract_x
_atom_site_fract_y
_atom_site_fract_z
Si Si1 0.174182 0.202916 0.119928
Si Si2 0.234000 0.712966 0.798271
Si Si3 0.500000 0.595134 0.750000
Si Si4 0.000000 0.729443 0.250000
Si Si5 0.353304 0.220759 0.585502
Si Si6 0.470868 0.145113 0.984205
Si Si7 0.500000 0.029983 0.750000
Si Si8 0.690121 0.444416 0.715011
O O1 0.186345 0.242843 0.203437
O O2 0.336632 0.305249 0.146688
O O3 0.284027 0.065931 0.157831
O O4 0.909698 0.212158 0.992423
O O5 0.310417 0.568295 0.830180
O O6 0.000000 0.726584 0.750000
O O7 0.435758 0.792792 0.911830
O O8 0.684098 0.507130 0.785345
O O9 0.211987 0.810284 0.362512
O O10 0.106587 0.642478 0.233372
O O11 0.365307 0.185128 0.512800
O O12 0.504192 0.122643 0.688174
O O13 0.463341 0.357322 0.629038
O O14 0.500000 0.000000 0.000000
#
# Coordination Sequence:
#
# PCOD9234794 Si02
#       8
#     4   4   2   2   4   4   2   4
#     4  10  22  41  63  96 124 173 220 266 330 392
#     4  11  21  40  69  95 130 170 212 272 328 387
#     4   9  21  40  64  90 131 161 220 268 316 405
#     4  10  24  42  64  94 134 170 218 278 330 390
#     4  11  23  39  64  91 129 171 219 270 328 389
#     4  11  25  41  64  98 132 172 220 272 330 396
#     4  11  23  42  62  90 133 173 218 274 324 391
#     4  10  22  41  63  99 128 172 219 267 332 393
#
# _framework density 21.078021
#
# number of rings (size 3 to 8) (size 9 to 14) (size 15 to 20)
#    0.000    1.538    2.308    1.846    1.077    8.000 
#    0.000   13.846    0.000    0.000    0.000    0.000 
#    0.000    0.000    0.000    0.000    0.000    0.000 
#
# Total GULP energy -144990.028150 kJ/mol
# GULP energy per Si atom -5576.539544 kJ/mol
# Density = 2.103005 g / cm^3
# Si number density = 21.078021 Si / 1000 Ang^3
#
#
#
# Elastic Constant Matrix: (Units=GPa)
#
#
# Indices 1 2 3 4 5 6 
#
# 1 65.9589 13.7720 16.2127 0.0000 8.2942 0.0000
# 2 13.7720 137.8857 52.2328 0.0000 2.9466 0.0000
# 3 16.2127 52.2328 65.3144 0.0000 25.4733 0.0000
# 4 0.0000 0.0000 0.0000 7.5948 0.0000 -7.3671
# 5 8.2942 2.9466 25.4733 0.0000 39.6752 0.0000
# 6 0.0000 0.0000 0.0000 -7.3671 0.0000 20.4770
#
#
#
# Elastic Compliance Matrix: (Units=1/GPa)
#
#
# Indices 1 2 3 4 5 6 
#
# 1 0.016192 -0.000370 -0.003221 0.000000 -0.001290 0.000000
# 2 -0.000370 0.011649 -0.011896 0.000000 0.006850 0.000000
# 3 -0.003221 -0.011896 0.033373 0.000000 -0.019870 0.000000
# 4 0.000000 0.000000 0.000000 0.202255 0.000000 0.072767
# 5 -0.001290 0.006850 -0.019870 0.000000 0.037723 0.000000
# 6 0.000000 0.000000 0.000000 0.072767 0.000000 0.075015
#
#
# Mechanical properties :
#
#
# Convention : Reuss Voigt Hill
#
# Bulk Modulus (GPa) = 33.06676 48.17711 40.62194
# Shear Modulus (GPa) = 11.98295 26.01216 18.99755
#
# Velocity S-wave (km/s) = 2.38692 3.51677 3.00542
# Velocity P-wave (km/s) = 4.82891 6.27666 5.59977
#
# Compressibility (1/GPa) = 0.03024185
#
# Stress axis : x y z
#
# Youngs Moduli (GPa) = 61.75913 85.84295 29.96458
#
# Poissons Ratio (x) = 0.03174 0.09650
# Poissons Ratio (y) = 0.02283 0.35645
# Poissons Ratio (z) = 0.19890 1.02116
#
# Static dielectric constant tensor:
#      x y z
#    x 1.819710 0.000000 -0.012690 
#    y 0.000000 1.868160 0.000000 
#    z -0.012690 0.000000 1.760770 
# 
# From -- ./inp_files/86328.got.cif
#   From: 2010.05.17/outbox.cif.g08.bks.cpg/sg13_44_cif.got.tgz:86328.got - 2010.06.03 16:44:36.
