data_PCOD9234452
_publ_section_title
;
Structure prediction by ZEFSAII (Michael W. Deem and Ramdas Pophale) SiO2 
 PCOD9234452
Probable space group: P 2/C
;
_chemical_formula_sum "Si O2"
_cell_formula_units_Z 20
_cell_length_a 11.006621
_cell_length_b 5.495432
_cell_length_c 15.328123
_cell_angle_alpha 90.000000
_cell_angle_beta 93.438531
_cell_angle_gamma 90.000000
_cell_volume 925.469841
_symmetry_space_group_name_H-M "P 2/C"
_symmetry_group_IT_number 13
_symmetry_cell_setting 'monoclinic'
loop_
_space_group_symop_operation_xyz
x,y,z
-x,y,1/2-z
-x,-y,-z
x,-y,1/2+z
loop_
_atom_site_type_symbol
_atom_site_label
_atom_site_fract_x
_atom_site_fract_y
_atom_site_fract_z
Si Si1 0.895353 0.794967 0.997318
Si Si2 0.969900 0.583043 0.648206
Si Si3 0.605160 0.552110 0.434349
Si Si4 0.479225 0.930378 0.647441
Si Si5 0.739362 0.829279 0.568842
O O1 0.929673 0.636481 0.083516
O O2 0.772830 0.935223 0.014098
O O3 0.914465 0.681173 0.902262
O O4 0.000000 0.000000 0.000000
O O5 0.852333 0.763325 0.636396
O O6 0.000000 0.530306 0.750000
O O7 0.500000 0.500000 0.500000
O O8 0.399329 0.687095 0.625479
O O9 0.722906 0.610129 0.498314
O O10 0.572975 0.811037 0.388198
O O11 0.500000 0.953417 0.750000
O O12 0.611782 0.880312 0.609896
#
# Coordination Sequence:
#
# PCOD9234452 Si02
#       5
#     4   4   4   4   4
#     4   9  21  41  62  89 127 168 217 268 345 394
#     4  10  22  41  64  95 130 165 228 287 326 408
#     4  10  22  41  67  92 133 175 219 272 335 408
#     4  11  24  42  64 104 138 170 226 285 329 408
#     4  10  22  39  68  87 128 183 216 268 352 403
#
# _framework density 21.610643
#
# number of rings (size 3 to 8) (size 9 to 14) (size 15 to 20)
#    0.000    2.000    0.000    3.000    8.400    4.800 
#    7.200    0.000    0.000    0.000    0.000    0.000 
#    0.000    0.000    0.000    0.000    0.000    0.000 
#
# Total GULP energy -111537.943384 kJ/mol
# GULP energy per Si atom -5576.897169 kJ/mol
# Density = 2.156146 g / cm^3
# Si number density = 21.610643 Si / 1000 Ang^3
#
#
#
# Elastic Constant Matrix: (Units=GPa)
#
#
# Indices 1 2 3 4 5 6 
#
# 1 86.4084 26.8782 47.0290 0.0000 1.0918 0.0000
# 2 26.8782 135.6345 69.2758 0.0000 7.3680 0.0000
# 3 47.0290 69.2758 186.5487 0.0000 11.5599 0.0000
# 4 0.0000 0.0000 0.0000 23.7367 0.0000 0.7518
# 5 1.0918 7.3680 11.5599 0.0000 28.5826 0.0000
# 6 0.0000 0.0000 0.0000 0.7518 0.0000 38.6292
#
#
#
# Elastic Compliance Matrix: (Units=1/GPa)
#
#
# Indices 1 2 3 4 5 6 
#
# 1 0.013589 -0.001192 -0.003046 0.000000 0.001020 0.000000
# 2 -0.001192 0.009231 -0.003060 0.000000 -0.001097 0.000000
# 3 -0.003046 -0.003060 0.007394 0.000000 -0.002085 0.000000
# 4 0.000000 0.000000 0.000000 0.042155 0.000000 -0.000820
# 5 0.001020 -0.001097 -0.002085 0.000000 0.036073 0.000000
# 6 0.000000 0.000000 0.000000 -0.000820 0.000000 0.025903
#
#
# Mechanical properties :
#
#
# Convention : Reuss Voigt Hill
#
# Bulk Modulus (GPa) = 64.02955 77.21752 70.62354
# Shear Modulus (GPa) = 32.43644 35.88361 34.16003
#
# Velocity S-wave (km/s) = 3.87841 4.07929 3.98012
# Velocity P-wave (km/s) = 7.05331 7.61553 7.33980
#
# Compressibility (1/GPa) = 0.01561779
#
# Stress axis : x y z
#
# Youngs Moduli (GPa) = 73.58948 108.32728 135.24742
#
# Poissons Ratio (x) = 0.12917 0.41199
# Poissons Ratio (y) = 0.08775 0.41379
# Poissons Ratio (z) = 0.22417 0.33143
#
# Static dielectric constant tensor:
#      x y z
#    x 1.879040 0.000000 -0.006420 
#    y 0.000000 1.893530 0.000000 
#    z -0.006420 0.000000 1.765290 
# 
# From -- ./inp_files/48647.got.cif
#   From: 2010.05.17/outbox.cif.g08.bks.cpg/sg13_25_cif.got.tgz:48647.got - 2010.06.03 16:44:36.
