data_PCOD9234479
_publ_section_title
;
Structure prediction by ZEFSAII (Michael W. Deem and Ramdas Pophale) SiO2 
 PCOD9234479
Probable space group: P 2/C
;
_chemical_formula_sum "Si O2"
_cell_formula_units_Z 28
_cell_length_a 15.244261
_cell_length_b 7.698515
_cell_length_c 14.627659
_cell_angle_alpha 90.000000
_cell_angle_beta 131.425741
_cell_angle_gamma 90.000000
_cell_volume 1287.186999
_symmetry_space_group_name_H-M "P 2/C"
_symmetry_group_IT_number 13
_symmetry_cell_setting 'monoclinic'
loop_
_space_group_symop_operation_xyz
x,y,z
-x,y,1/2-z
-x,-y,-z
x,-y,1/2+z
loop_
_atom_site_type_symbol
_atom_site_label
_atom_site_fract_x
_atom_site_fract_y
_atom_site_fract_z
Si Si1 0.609870 0.065997 0.963044
Si Si2 0.834174 0.758644 0.702251
Si Si3 0.749515 0.045776 0.379970
Si Si4 0.929801 0.238307 0.061077
Si Si5 0.622208 0.137845 0.639285
Si Si6 0.897964 0.642436 0.049766
Si Si7 0.159608 0.641855 0.273112
O O1 0.713086 0.152690 0.093283
O O2 0.578259 0.904187 0.006434
O O3 0.662045 0.001231 0.903900
O O4 0.494505 0.186015 0.883868
O O5 0.890399 0.760557 0.639810
O O6 0.821570 0.562270 0.726215
O O7 0.935485 0.825996 0.840296
O O8 0.849403 0.898267 0.454808
O O9 0.677234 0.016379 0.238593
O O10 0.811023 0.231188 0.436253
O O11 0.906051 0.441787 0.020946
O O12 0.730833 0.263514 0.695566
O O13 0.855344 0.659543 0.126631
O O14 0.034264 0.699701 0.145598
#
# Coordination Sequence:
#
# PCOD9234479 Si02
#       7
#     4   4   4   4   4   4   4
#     4  10  22  40  58  78 116 153 193 238 275 337
#     4   8  16  34  59  81 112 149 184 233 288 333
#     4  11  21  37  63  82 114 155 185 235 295 333
#     4   8  17  33  57  90 110 142 192 230 283 351
#     4  11  23  37  56  86 111 150 201 231 276 341
#     4   9  18  35  60  84 118 150 181 236 290 337
#     4   9  18  35  57  86 114 147 191 232 284 343
#
# _framework density 21.752860999999999
#
# number of rings (size 3 to 8) (size 9 to 14) (size 15 to 20)
#    0.000    2.571    1.429    2.143    2.000    2.286 
#    2.571    1.429    0.000    1.714    0.000    0.000 
#    0.000    0.000    0.000    0.000    0.000    0.000 
#
# Total GULP energy -156025.816324 kJ/mol
# GULP energy per Si atom -5572.350583 kJ/mol
# Density = 2.170335 g / cm^3
# Si number density = 21.752861 Si / 1000 Ang^3
#
#
#
# Elastic Constant Matrix: (Units=GPa)
#
#
# Indices 1 2 3 4 5 6 
#
# 1 75.4502 13.0181 29.5782 0.0000 4.9884 0.0000
# 2 13.0181 40.5789 21.5448 0.0000 4.6477 0.0000
# 3 29.5782 21.5448 76.4571 0.0000 -0.8964 0.0000
# 4 0.0000 0.0000 0.0000 -3.7072 0.0000 -2.6495
# 5 4.9884 4.6477 -0.8964 0.0000 33.3177 0.0000
# 6 0.0000 0.0000 0.0000 -2.6495 0.0000 6.1767
#
#
#
# Elastic Compliance Matrix: (Units=1/GPa)
#
#
# Indices 1 2 3 4 5 6 
#
# 1 0.015948 -0.001840 -0.005678 0.000000 -0.002284 0.000000
# 2 -0.001840 0.029810 -0.007736 0.000000 -0.004091 0.000000
# 3 -0.005678 -0.007736 0.017484 0.000000 0.002400 0.000000
# 4 0.000000 0.000000 0.000000 -0.206452 0.000000 -0.088558
# 5 -0.002284 -0.004091 0.002400 0.000000 0.030991 0.000000
# 6 0.000000 0.000000 0.000000 -0.088558 0.000000 0.123912
#
#
# Mechanical properties :
#
#
# Convention : Reuss Voigt Hill
#
# Bulk Modulus (GPa) = 30.54997 35.64095 33.09546
# Shear Modulus (GPa) = 94.14086 15.71377 54.92732
#
# Velocity S-wave (km/s) = 6.58570 2.69062 5.03045
# Velocity P-wave (km/s) = 8.47957 5.10614 6.99914
#
# Compressibility (1/GPa) = 0.03273326
#
# Stress axis : x y z
#
# Youngs Moduli (GPa) = 62.70314 33.54625 57.19552
#
# Poissons Ratio (x) = 0.06173 0.32475
# Poissons Ratio (y) = 0.11538 0.44247
# Poissons Ratio (z) = 0.35603 0.25952
#
# Static dielectric constant tensor:
#      x y z
#    x 1.919030 0.000000 0.053690 
#    y 0.000000 1.810040 0.000000 
#    z 0.053690 0.000000 1.819730 
# 
# From -- ./inp_files/49965.got.cif
#   From: 2010.05.17/outbox.cif.g08.bks.cpg/sg13_25_cif.got.tgz:49965.got - 2010.06.03 16:44:36.
