data_PCOD9234008
_publ_section_title
;
Structure prediction by ZEFSAII (Michael W. Deem and Ramdas Pophale) SiO2 
 PCOD9234008
Probable space group: P 2/C
;
_chemical_formula_sum "Si O2"
_cell_formula_units_Z 20
_cell_length_a 5.722871
_cell_length_b 8.690394
_cell_length_c 15.300665
_cell_angle_alpha 90.000000
_cell_angle_beta 89.476769
_cell_angle_gamma 90.000000
_cell_volume 760.931601
_symmetry_space_group_name_H-M "P 2/C"
_symmetry_group_IT_number 13
_symmetry_cell_setting 'monoclinic'
loop_
_space_group_symop_operation_xyz
x,y,z
-x,y,1/2-z
-x,-y,-z
x,-y,1/2+z
loop_
_atom_site_type_symbol
_atom_site_label
_atom_site_fract_x
_atom_site_fract_y
_atom_site_fract_z
Si Si1 0.255812 0.792613 0.143949
Si Si2 0.757426 0.201169 0.655728
Si Si3 0.501441 0.658912 0.651770
Si Si4 0.242868 0.892324 0.955342
Si Si5 0.000441 0.591425 0.908998
O O1 0.250845 0.853821 0.243018
O O2 0.511390 0.716776 0.137760
O O3 0.002494 0.710873 0.141087
O O4 0.254633 0.901642 0.059568
O O5 0.767700 0.050199 0.595934
O O6 0.500000 0.721879 0.750000
O O7 0.538013 0.792572 0.580365
O O8 0.252754 0.578719 0.635315
O O9 0.751023 0.569669 0.641945
O O10 0.032755 0.774972 0.932000
O O11 0.000000 0.500000 0.000000
#
# Coordination Sequence:
#
# PCOD9234008 Si02
#       5
#     4   4   4   4   4
#     4  10  22  37  55  86 124 165 203 259 303 370
#     4  10  22  35  56  83 126 157 214 247 309 371
#     4  10  23  38  66  93 126 154 213 257 317 364
#     4  10  24  35  68  85 128 165 211 253 319 361
#     4  10  23  41  66  90 124 159 214 262 318 374
#
# _framework density 26.283569
#
# number of rings (size 3 to 8) (size 9 to 14) (size 15 to 20)
#    1.200    0.800    0.000    2.400    8.400    1.600 
#    0.000    0.000   13.200    0.000    0.000    0.000 
#    0.000    0.000    0.000    0.000    0.000    0.000 
#
# Total GULP energy -111549.627561 kJ/mol
# GULP energy per Si atom -5577.481378 kJ/mol
# Density = 2.622375 g / cm^3
# Si number density = 26.283569 Si / 1000 Ang^3
#
#
#
# Elastic Constant Matrix: (Units=GPa)
#
#
# Indices 1 2 3 4 5 6 
#
# 1 295.3872 64.8098 35.0126 0.0000 -17.2081 0.0000
# 2 64.8098 75.5866 15.9363 0.0000 -10.2519 0.0000
# 3 35.0126 15.9363 153.5283 0.0000 -8.4175 0.0000
# 4 0.0000 0.0000 0.0000 -8.2666 0.0000 7.1743
# 5 -17.2081 -10.2519 -8.4175 0.0000 39.0534 0.0000
# 6 0.0000 0.0000 0.0000 7.1743 0.0000 44.0499
#
#
#
# Elastic Compliance Matrix: (Units=1/GPa)
#
#
# Indices 1 2 3 4 5 6 
#
# 1 0.004250 -0.003409 -0.000569 0.000000 0.000856 0.000000
# 2 -0.003409 0.016689 -0.000807 0.000000 0.002705 0.000000
# 3 -0.000569 -0.000807 0.006782 0.000000 0.000999 0.000000
# 4 0.000000 0.000000 0.000000 -0.105988 0.000000 0.017262
# 5 0.000856 0.002705 0.000999 0.000000 0.026909 0.000000
# 6 0.000000 0.000000 0.000000 0.017262 0.000000 0.019890
#
#
# Mechanical properties :
#
#
# Convention : Reuss Voigt Hill
#
# Bulk Modulus (GPa) = 55.08476 84.00216 69.54346
# Shear Modulus (GPa) = -315.49142 42.21690 -136.63726
#
# Velocity S-wave (km/s) = -10.96788 4.01210 -7.21794
# Velocity P-wave (km/s) = 11.80631 7.31382 6.55351
#
# Compressibility (1/GPa) = 0.01815384
#
# Stress axis : x y z
#
# Youngs Moduli (GPa) = 235.26745 59.91811 147.45647
#
# Poissons Ratio (x) = 0.20423 0.08385
# Poissons Ratio (y) = 0.80192 0.11895
# Poissons Ratio (z) = 0.13378 0.04834
#
# Static dielectric constant tensor:
#      x y z
#    x 2.132260 0.000000 -0.013960 
#    y 0.000000 2.045430 0.000000 
#    z -0.013960 0.000000 1.964750 
# 
# From -- ./inp_files/43586.got.cif
#   From: 2010.05.17/outbox.cif.g08.bks.cpg/sg13_22_cif.got.tgz:43586.got - 2010.06.03 16:44:36.
