data_PCOD9234494
_publ_section_title
;
Structure prediction by ZEFSAII (Michael W. Deem and Ramdas Pophale) SiO2 
 PCOD9234494
Probable space group: P 2/C
;
_chemical_formula_sum "Si O2"
_cell_formula_units_Z 16
_cell_length_a 5.733224
_cell_length_b 5.189619
_cell_length_c 17.963174
_cell_angle_alpha 90.000000
_cell_angle_beta 87.028289
_cell_angle_gamma 90.000000
_cell_volume 533.744057
_symmetry_space_group_name_H-M "P 2/C"
_symmetry_group_IT_number 13
_symmetry_cell_setting 'monoclinic'
loop_
_space_group_symop_operation_xyz
x,y,z
-x,y,1/2-z
-x,-y,-z
x,-y,1/2+z
loop_
_atom_site_type_symbol
_atom_site_label
_atom_site_fract_x
_atom_site_fract_y
_atom_site_fract_z
Si Si1 0.951979 0.762881 0.908485
Si Si2 0.247634 0.360766 0.281256
Si Si3 0.379537 0.749485 0.466609
Si Si4 0.712854 0.739253 0.341420
O O1 0.812251 0.518501 0.878515
O O2 0.205956 0.703901 0.869149
O O3 0.852180 0.020760 0.872078
O O4 0.883890 0.760086 0.997057
O O5 0.500000 0.250456 0.250000
O O6 0.257880 0.649688 0.244379
O O7 0.000000 0.261625 0.250000
O O8 0.500000 0.500000 0.500000
O O9 0.452383 0.762949 0.379468
O O10 0.500000 0.000000 0.500000
#
# Coordination Sequence:
#
# PCOD9234494 Si02
#       4
#     4   4   4   4
#     4   9  18  34  56  84 115 153 195 243 294 350
#     4  10  22  40  60  88 122 160 200 246 300 358
#     4   8  14  28  53  80 110 146 192 240 290 344
#     4   9  18  34  56  84 115 153 195 243 294 350
#
# _framework density 29.976913
#
# number of rings (size 3 to 8) (size 9 to 14) (size 15 to 20)
#    0.000    3.000    0.000    0.000    0.000    9.000 
#    0.000   21.250    0.000    0.000    0.000   52.500 
#    0.000    0.000    0.000    0.000    0.000    0.000 
#
# Total GULP energy -89345.523172 kJ/mol
# GULP energy per Si atom -5584.095198 kJ/mol
# Density = 2.990868 g / cm^3
# Si number density = 29.976913 Si / 1000 Ang^3
#
#
#
# Elastic Constant Matrix: (Units=GPa)
#
#
# Indices 1 2 3 4 5 6 
#
# 1 144.7608 50.5931 80.7575 0.0000 -21.6191 0.0000
# 2 50.5931 214.6418 37.6932 0.0000 4.2370 0.0000
# 3 80.7575 37.6932 312.8796 0.0000 -66.4739 0.0000
# 4 0.0000 0.0000 0.0000 24.3310 0.0000 0.6065
# 5 -21.6191 4.2370 -66.4739 0.0000 76.8473 0.0000
# 6 0.0000 0.0000 0.0000 0.6065 0.0000 58.8174
#
#
#
# Elastic Compliance Matrix: (Units=1/GPa)
#
#
# Indices 1 2 3 4 5 6 
#
# 1 0.008680 -0.001744 -0.001827 0.000000 0.000958 0.000000
# 2 -0.001744 0.005165 -0.000413 0.000000 -0.001132 0.000000
# 3 -0.001827 -0.000413 0.004426 0.000000 0.003338 0.000000
# 4 0.000000 0.000000 0.000000 0.041110 0.000000 -0.000424
# 5 0.000958 -0.001132 0.003338 0.000000 0.016232 0.000000
# 6 0.000000 0.000000 0.000000 -0.000424 0.000000 0.017006
#
#
# Mechanical properties :
#
#
# Convention : Reuss Voigt Hill
#
# Bulk Modulus (GPa) = 97.04776 112.26332 104.65554
# Shear Modulus (GPa) = 48.06737 65.54836 56.80787
#
# Velocity S-wave (km/s) = 4.00869 4.68121 4.35794
# Velocity P-wave (km/s) = 7.33966 8.17004 7.76596
#
# Compressibility (1/GPa) = 0.01030421
#
# Stress axis : x y z
#
# Youngs Moduli (GPa) = 115.21328 193.61775 225.91401
#
# Poissons Ratio (x) = 0.33767 0.41267
# Poissons Ratio (y) = 0.20093 0.09322
# Poissons Ratio (z) = 0.21046 0.07990
#
# Static dielectric constant tensor:
#      x y z
#    x 2.365030 0.000000 -0.007840 
#    y 0.000000 2.303620 0.000000 
#    z -0.007840 0.000000 2.594110 
# 
# From -- ./inp_files/89762.got.cif
#   From: 2010.05.17/outbox.cif.g08.bks.cpg/sg13_45_cif.got.tgz:89762.got - 2010.06.03 16:44:36.
