data_PCOD9234235
_publ_section_title
;
Structure prediction by ZEFSAII (Michael W. Deem and Ramdas Pophale) SiO2 
 PCOD9234235
Probable space group: P 2/C
;
_chemical_formula_sum "Si O2"
_cell_formula_units_Z 22
_cell_length_a 5.067202
_cell_length_b 5.125029
_cell_length_c 31.118848
_cell_angle_alpha 90.000000
_cell_angle_beta 105.910991
_cell_angle_gamma 90.000000
_cell_volume 777.181737
_symmetry_space_group_name_H-M "P 2/C"
_symmetry_group_IT_number 13
_symmetry_cell_setting 'monoclinic'
loop_
_space_group_symop_operation_xyz
x,y,z
-x,y,1/2-z
-x,-y,-z
x,-y,1/2+z
loop_
_atom_site_type_symbol
_atom_site_label
_atom_site_fract_x
_atom_site_fract_y
_atom_site_fract_z
Si Si1 0.497496 0.616175 0.884066
Si Si2 0.819416 0.232770 0.838320
Si Si3 0.160491 0.634567 0.795264
Si Si4 0.457464 0.307364 0.958797
Si Si5 0.500000 0.236471 0.750000
Si Si6 0.936185 0.014003 0.929944
O O1 0.609761 0.379069 0.860559
O O2 0.346570 0.779481 0.839466
O O3 0.325505 0.491972 0.915233
O O4 0.750048 0.756823 0.918958
O O5 0.673656 0.080220 0.792874
O O6 0.972590 0.062593 0.880160
O O7 0.979654 0.456253 0.819393
O O8 0.323627 0.428795 0.772387
O O9 0.000000 0.785656 0.750000
O O10 0.736755 0.198690 0.949904
O O11 0.242428 0.075928 0.959872
O O12 0.500000 0.500000 0.000000
#
# Coordination Sequence:
#
# PCOD9234235 Si02
#       6
#     4   4   4   4   2   4
#     4  10  22  38  63  92 130 171 222 274 339 412
#     4   9  18  36  57  86 127 166 216 266 327 389
#     4   9  16  33  60  86 124 169 214 266 332 394
#     4  11  25  44  65  96 131 167 221 284 340 406
#     4   8  16  30  56  86 116 172 204 262 322 388
#     4  11  24  40  68  93 126 172 218 268 342 405
#
# _framework density 28.307406
#
# number of rings (size 3 to 8) (size 9 to 14) (size 15 to 20)
#    0.000    2.182    1.818    0.545    2.545    1.455 
#    0.000    5.455    0.000    9.818    0.000    0.000 
#    0.000    0.000    0.000    0.000    0.000    0.000 
#
# Total GULP energy -122867.075873 kJ/mol
# GULP energy per Si atom -5584.867085 kJ/mol
# Density = 2.824298 g / cm^3
# Si number density = 28.307406 Si / 1000 Ang^3
#
#
#
# Elastic Constant Matrix: (Units=GPa)
#
#
# Indices 1 2 3 4 5 6 
#
# 1 104.2680 15.3195 50.1589 0.0000 -15.7400 0.0000
# 2 15.3195 69.9640 36.4708 0.0000 -16.1406 0.0000
# 3 50.1589 36.4708 200.9974 0.0000 -28.4057 0.0000
# 4 0.0000 0.0000 0.0000 44.3032 0.0000 -35.6090
# 5 -15.7400 -16.1406 -28.4057 0.0000 42.3298 0.0000
# 6 0.0000 0.0000 0.0000 -35.6090 0.0000 29.2351
#
#
#
# Elastic Compliance Matrix: (Units=1/GPa)
#
#
# Indices 1 2 3 4 5 6 
#
# 1 0.011165 -0.000693 -0.002332 0.000000 0.002322 0.000000
# 2 -0.000693 0.016655 -0.002196 0.000000 0.004619 0.000000
# 3 -0.002332 -0.002196 0.006314 0.000000 0.002532 0.000000
# 4 0.000000 0.000000 0.000000 1.074456 0.000000 1.308709
# 5 0.002322 0.004619 0.002532 0.000000 0.027948 0.000000
# 6 0.000000 0.000000 0.000000 1.308709 0.000000 1.628240
#
#
# Mechanical properties :
#
#
# Convention : Reuss Voigt Hill
#
# Bulk Modulus (GPa) = 42.21126 64.34754 53.27940
# Shear Modulus (GPa) = 1.79655 41.39228 21.59441
#
# Velocity S-wave (km/s) = 0.79752 3.82808 2.76498
# Velocity P-wave (km/s) = 3.97393 6.50538 5.39037
#
# Compressibility (1/GPa) = 0.02369036
#
# Stress axis : x y z
#
# Youngs Moduli (GPa) = 89.56544 60.04059 158.38908
#
# Poissons Ratio (x) = 0.04162 0.36940
# Poissons Ratio (y) = 0.06209 0.34787
# Poissons Ratio (z) = 0.20889 0.13187
#
# Static dielectric constant tensor:
#      x y z
#    x 2.636140 0.000000 0.435150 
#    y 0.000000 2.242330 0.000000 
#    z 0.435150 0.000000 2.347040 
# 
# From -- ./inp_files/94565.got.cif
#   From: 2010.05.17/outbox.cif.g08.bks.cpg/sg13_48_cif.got.tgz:94565.got - 2010.06.03 16:44:36.
