data_PCOD9234038
_publ_section_title
;
Structure prediction by ZEFSAII (Michael W. Deem and Ramdas Pophale) SiO2 
 PCOD9234038
Probable space group: P 2/C
;
_chemical_formula_sum "Si O2"
_cell_formula_units_Z 26
_cell_length_a 23.249942
_cell_length_b 6.825768
_cell_length_c 18.278318
_cell_angle_alpha 90.000000
_cell_angle_beta 154.633477
_cell_angle_gamma 90.000000
_cell_volume 1242.700415
_symmetry_space_group_name_H-M "P 2/C"
_symmetry_group_IT_number 13
_symmetry_cell_setting 'monoclinic'
loop_
_space_group_symop_operation_xyz
x,y,z
-x,y,1/2-z
-x,-y,-z
x,-y,1/2+z
loop_
_atom_site_type_symbol
_atom_site_label
_atom_site_fract_x
_atom_site_fract_y
_atom_site_fract_z
Si Si1 0.224286 0.996178 0.467650
Si Si2 0.506071 0.290282 0.542984
Si Si3 0.701369 0.711743 0.572312
Si Si4 0.111584 0.394473 0.765784
Si Si5 0.000000 0.695099 0.750000
Si Si6 0.693378 0.031563 0.283925
Si Si7 0.921941 0.177363 0.446919
O O1 0.292175 0.111172 0.478341
O O2 0.317394 0.934315 0.642091
O O3 0.125648 0.158275 0.390575
O O4 0.145379 0.805938 0.347648
O O5 0.500000 0.500000 0.500000
O O6 0.437569 0.295730 0.544059
O O7 0.651618 0.191152 0.717119
O O8 0.413785 0.158726 0.384016
O O9 0.750170 0.510221 0.591300
O O10 0.815302 0.747917 0.765085
O O11 0.019509 0.548089 0.704489
O O12 0.029588 0.331624 0.599972
O O13 0.837251 0.096190 0.418664
O O14 0.000000 0.000000 0.500000
#
# Coordination Sequence:
#
# PCOD9234038 Si02
#       7
#     4   4   4   4   2   4   4
#     4  11  22  40  61  92 132 161 211 263 320 387
#     4  10  24  45  65  87 121 167 222 267 311 382
#     4  10  24  39  61  96 124 168 218 264 312 380
#     4  11  22  37  62  93 134 170 205 258 328 382
#     4  10  22  36  58  94 130 172 206 254 314 396
#     4  10  24  41  65  89 121 168 208 261 325 371
#     4  11  21  38  63  94 129 165 206 260 316 384
#
# _framework density 20.922180000000001
#
# number of rings (size 3 to 8) (size 9 to 14) (size 15 to 20)
#    0.000    1.538    1.538    2.769    4.308    6.769 
#    0.000    0.000    0.000    0.000    0.000    0.000 
#    0.000    0.000    0.000    0.000    0.000    0.000 
#
# Total GULP energy -145212.079878 kJ/mol
# GULP energy per Si atom -5585.079995 kJ/mol
# Density = 2.087456 g / cm^3
# Si number density = 20.922180 Si / 1000 Ang^3
#
#
#
# Elastic Constant Matrix: (Units=GPa)
#
#
# Indices 1 2 3 4 5 6 
#
# 1 91.2666 42.1536 18.1545 0.0000 -16.8650 0.0000
# 2 42.1536 118.0060 9.2172 0.0000 0.0562 0.0000
# 3 18.1545 9.2172 21.5534 0.0000 -5.6803 0.0000
# 4 0.0000 0.0000 0.0000 11.6001 0.0000 -7.4809
# 5 -16.8650 0.0562 -5.6803 0.0000 26.0865 0.0000
# 6 0.0000 0.0000 0.0000 -7.4809 0.0000 35.9402
#
#
#
# Elastic Compliance Matrix: (Units=1/GPa)
#
#
# Indices 1 2 3 4 5 6 
#
# 1 0.016979 -0.005312 -0.009689 0.000000 0.008878 0.000000
# 2 -0.005312 0.010449 -0.000960 0.000000 -0.003666 0.000000
# 3 -0.009689 -0.000960 0.056564 0.000000 0.006055 0.000000
# 4 0.000000 0.000000 0.000000 0.099573 0.000000 0.020726
# 5 0.008878 -0.003666 0.006055 0.000000 0.045400 0.000000
# 6 0.000000 0.000000 0.000000 0.020726 0.000000 0.032138
#
#
# Mechanical properties :
#
#
# Convention : Reuss Voigt Hill
#
# Bulk Modulus (GPa) = 19.20572 41.09738 30.15155
# Shear Modulus (GPa) = 16.10923 25.47874 20.79399
#
# Velocity S-wave (km/s) = 2.77783 3.49346 3.15599
# Velocity P-wave (km/s) = 4.41451 5.99650 5.26526
#
# Compressibility (1/GPa) = 0.05206782
#
# Stress axis : x y z
#
# Youngs Moduli (GPa) = 58.89777 95.70720 17.67912
#
# Poissons Ratio (x) = 0.50844 0.17130
# Poissons Ratio (y) = 0.31289 0.01697
# Poissons Ratio (z) = 0.57069 0.09185
#
# Static dielectric constant tensor:
#      x y z
#    x 1.766420 0.000000 -0.007410 
#    y 0.000000 1.748870 0.000000 
#    z -0.007410 0.000000 1.756230 
# 
# From -- ./inp_files/70197.got.cif
#   From: 2010.05.17/outbox.cif.g08.bks.cpg/sg13_36_cif.got.tgz:70197.got - 2010.06.03 16:44:36.
