data_PCOD9234585
_publ_section_title
;
Structure prediction by ZEFSAII (Michael W. Deem and Ramdas Pophale) SiO2 
 PCOD9234585
Probable space group: P 2/C
;
_chemical_formula_sum "Si O2"
_cell_formula_units_Z 28
_cell_length_a 12.802235
_cell_length_b 22.332374
_cell_length_c 5.094057
_cell_angle_alpha 90.000000
_cell_angle_beta 74.913179
_cell_angle_gamma 90.000000
_cell_volume 1406.213930
_symmetry_space_group_name_H-M "P 2/C"
_symmetry_group_IT_number 13
_symmetry_cell_setting 'monoclinic'
loop_
_space_group_symop_operation_xyz
x,y,z
-x,y,1/2-z
-x,-y,-z
x,-y,1/2+z
loop_
_atom_site_type_symbol
_atom_site_label
_atom_site_fract_x
_atom_site_fract_y
_atom_site_fract_z
Si Si1 0.571993 0.825791 0.459673
Si Si2 0.872606 0.540059 0.815534
Si Si3 0.397367 0.317480 0.492456
Si Si4 0.876536 0.224281 0.387984
Si Si5 0.120725 0.022429 0.835879
Si Si6 0.267381 0.341629 0.072925
Si Si7 0.817182 0.850634 0.415227
O O1 0.500000 0.837428 0.250000
O O2 0.589060 0.753760 0.471646
O O3 0.691077 0.853206 0.413769
O O4 0.500000 0.845524 0.750000
O O5 0.850969 0.510200 0.548874
O O6 0.801863 0.598572 0.908012
O O7 0.000000 0.555460 0.750000
O O8 0.500000 0.337788 0.250000
O O9 0.301940 0.332350 0.351878
O O10 0.366384 0.342996 0.798398
O O11 0.801465 0.282384 0.444280
O O12 0.871398 0.194356 0.674733
O O13 0.000000 0.240382 0.250000
O O14 0.834762 0.176961 0.193439
O O15 0.129509 0.085486 0.683944
O O16 0.172646 0.976903 0.591375
O O17 0.000000 0.000000 0.000000
#
# Coordination Sequence:
#
# PCOD9234585 Si02
#       7
#     4   4   4   4   4   4   4
#     4  11  21  38  63  91 126 161 209 261 319 380
#     4  10  22  40  64  91 121 172 225 264 307 376
#     4  11  22  37  62  92 127 165 212 258 321 395
#     4  12  25  37  59  95 132 168 191 258 335 381
#     4  10  23  40  62  85 117 169 216 246 292 370
#     4  12  21  41  61  92 131 164 211 259 329 384
#     4  12  24  41  62  93 130 162 209 262 313 376
#
# _framework density 19.911621
#
# number of rings (size 3 to 8) (size 9 to 14) (size 15 to 20)
#    0.000    0.857    2.857    5.571    6.000    0.000 
#    0.000    4.286    0.000   11.143    0.000    0.000 
#    0.000    0.000    0.000    0.000    0.000    0.000 
#
# Total GULP energy -156295.569677 kJ/mol
# GULP energy per Si atom -5581.984631 kJ/mol
# Density = 1.986630 g / cm^3
# Si number density = 19.911621 Si / 1000 Ang^3
#
#
#
# Elastic Constant Matrix: (Units=GPa)
#
#
# Indices 1 2 3 4 5 6 
#
# 1 67.4123 19.5629 28.5340 0.0000 -6.3904 0.0000
# 2 19.5629 75.1052 14.1194 0.0000 -14.6311 0.0000
# 3 28.5340 14.1194 117.4298 0.0000 0.0608 0.0000
# 4 0.0000 0.0000 0.0000 -376.9252 0.0000 10.8856
# 5 -6.3904 -14.6311 0.0608 0.0000 39.2418 0.0000
# 6 0.0000 0.0000 0.0000 10.8856 0.0000 16.6279
#
#
#
# Elastic Compliance Matrix: (Units=1/GPa)
#
#
# Indices 1 2 3 4 5 6 
#
# 1 0.017651 -0.003570 -0.003861 0.000000 0.001549 0.000000
# 2 -0.003570 0.015439 -0.000992 0.000000 0.005177 0.000000
# 3 -0.003861 -0.000992 0.009574 0.000000 -0.001013 0.000000
# 4 0.000000 0.000000 0.000000 -0.002604 0.000000 0.001705
# 5 0.001549 0.005177 -0.001013 0.000000 0.027667 0.000000
# 6 0.000000 0.000000 0.000000 0.001705 0.000000 0.059024
#
#
# Mechanical properties :
#
#
# Convention : Reuss Voigt Hill
#
# Bulk Modulus (GPa) = 38.73017 42.70889 40.71953
# Shear Modulus (GPa) = 32.85108 -51.02903 -9.08898
#
# Velocity S-wave (km/s) = 4.06623 -5.06788 -2.13882
# Velocity P-wave (km/s) = 6.44507 3.57054 3.79409
#
# Compressibility (1/GPa) = 0.02581966
#
# Stress axis : x y z
#
# Youngs Moduli (GPa) = 56.65389 64.76925 104.45460
#
# Poissons Ratio (x) = 0.23123 0.40325
# Poissons Ratio (y) = 0.20226 0.10358
# Poissons Ratio (z) = 0.21871 0.06423
#
# Static dielectric constant tensor:
#      x y z
#    x 1.804930 0.000000 0.050020 
#    y 0.000000 1.679620 0.000000 
#    z 0.050020 0.000000 1.735110 
# 
# From -- ./inp_files/4100.got.cif
#   From: 2010.05.17/outbox.cif.g08.bks.cpg/sg13_3_cif.got.tgz:4100.got - 2010.06.03 16:44:36.
