data_PCOD9234833
_publ_section_title
;
Structure prediction by ZEFSAII (Michael W. Deem and Ramdas Pophale) SiO2 
 PCOD9234833
Probable space group: P 2/C
;
_chemical_formula_sum "Si O2"
_cell_formula_units_Z 20
_cell_length_a 10.012245
_cell_length_b 5.608792
_cell_length_c 19.110143
_cell_angle_alpha 90.000000
_cell_angle_beta 133.721128
_cell_angle_gamma 90.000000
_cell_volume 775.586436
_symmetry_space_group_name_H-M "P 2/C"
_symmetry_group_IT_number 13
_symmetry_cell_setting 'monoclinic'
loop_
_space_group_symop_operation_xyz
x,y,z
-x,y,1/2-z
-x,-y,-z
x,-y,1/2+z
loop_
_atom_site_type_symbol
_atom_site_label
_atom_site_fract_x
_atom_site_fract_y
_atom_site_fract_z
Si Si1 0.798454 0.990919 0.144668
Si Si2 0.130761 0.685056 0.612342
Si Si3 0.704472 0.830114 0.345023
Si Si4 0.431006 0.753794 0.053699
Si Si5 0.177377 0.375737 0.968674
O O1 0.642192 0.845719 0.134162
O O2 0.848002 0.805305 0.101684
O O3 0.000000 0.061628 0.250000
O O4 0.663318 0.176009 0.054438
O O5 0.256009 0.444797 0.662150
O O6 0.104573 0.704296 0.518454
O O7 0.954892 0.602229 0.591786
O O8 0.186596 0.951902 0.650508
O O9 0.500000 0.884330 0.250000
O O10 0.687811 0.854545 0.423537
O O11 0.387437 0.471810 0.047602
#
# Coordination Sequence:
#
# PCOD9234833 Si02
#       5
#     4   4   4   4   4
#     4  11  24  43  68  98 134 191 236 288 348 431
#     4  10  23  39  70  98 136 179 232 289 357 412
#     4  11  23  42  67 106 140 185 229 297 350 422
#     4  10  24  43  65  98 143 180 236 294 350 417
#     4  10  22  41  65  93 135 177 231 291 354 413
#
# _framework density 25.786936000000001
#
# number of rings (size 3 to 8) (size 9 to 14) (size 15 to 20)
#    0.000    1.600    2.000    1.200    5.600    3.200 
#    0.000    0.000    0.000    0.000    0.000    0.000 
#    0.000    0.000    0.000    0.000    0.000    0.000 
#
# Total GULP energy -111474.148402 kJ/mol
# GULP energy per Si atom -5573.707420 kJ/mol
# Density = 2.572824 g / cm^3
# Si number density = 25.786936 Si / 1000 Ang^3
#
#
#
# Elastic Constant Matrix: (Units=GPa)
#
#
# Indices 1 2 3 4 5 6 
#
# 1 126.1656 41.1890 -2.6504 0.0000 16.6448 0.0000
# 2 41.1890 98.7308 6.7356 0.0000 2.9252 0.0000
# 3 -2.6504 6.7356 61.5010 0.0000 13.8835 0.0000
# 4 0.0000 0.0000 0.0000 22.0808 0.0000 6.3475
# 5 16.6448 2.9252 13.8835 0.0000 34.2808 0.0000
# 6 0.0000 0.0000 0.0000 6.3475 0.0000 57.2554
#
#
#
# Elastic Compliance Matrix: (Units=1/GPa)
#
#
# Indices 1 2 3 4 5 6 
#
# 1 0.010041 -0.004173 0.002102 0.000000 -0.005371 0.000000
# 2 -0.004173 0.011946 -0.001888 0.000000 0.001772 0.000000
# 3 0.002102 -0.001888 0.018437 0.000000 -0.008326 0.000000
# 4 0.000000 0.000000 0.000000 0.046779 0.000000 -0.005186
# 5 -0.005371 0.001772 -0.008326 0.000000 0.034999 0.000000
# 6 0.000000 0.000000 0.000000 -0.005186 0.000000 0.018041
#
#
# Mechanical properties :
#
#
# Convention : Reuss Voigt Hill
#
# Bulk Modulus (GPa) = 30.76390 41.88285 36.32338
# Shear Modulus (GPa) = 31.44716 38.79829 35.12273
#
# Velocity S-wave (km/s) = 3.49592 3.88309 3.69458
# Velocity P-wave (km/s) = 5.31519 6.03172 5.68476
#
# Compressibility (1/GPa) = 0.03250563
#
# Stress axis : x y z
#
# Youngs Moduli (GPa) = 99.58906 83.71053 54.23892
#
# Poissons Ratio (x) = 0.34935 -0.11402
# Poissons Ratio (y) = 0.41562 0.10241
# Poissons Ratio (z) = -0.20936 0.15805
#
# Static dielectric constant tensor:
#      x y z
#    x 2.128620 0.000000 0.046540 
#    y 0.000000 2.174180 0.000000 
#    z 0.046540 0.000000 2.144520 
# 
# From -- ./inp_files/77364.got.cif
#   From: 2010.05.17/outbox.cif.g08.bks.cpg/sg13_39_cif.got.tgz:77364.got - 2010.06.03 16:44:36.
