data_PCOD9234714
_publ_section_title
;
Structure prediction by ZEFSAII (Michael W. Deem and Ramdas Pophale) SiO2 
 PCOD9234714
Probable space group: P 2/C
;
_chemical_formula_sum "Si O2"
_cell_formula_units_Z 18
_cell_length_a 16.060676
_cell_length_b 8.217993
_cell_length_c 10.745826
_cell_angle_alpha 90.000000
_cell_angle_beta 37.740326
_cell_angle_gamma 90.000000
_cell_volume 868.120986
_symmetry_space_group_name_H-M "P 2/C"
_symmetry_group_IT_number 13
_symmetry_cell_setting 'monoclinic'
loop_
_space_group_symop_operation_xyz
x,y,z
-x,y,1/2-z
-x,-y,-z
x,-y,1/2+z
loop_
_atom_site_type_symbol
_atom_site_label
_atom_site_fract_x
_atom_site_fract_y
_atom_site_fract_z
Si Si1 0.074290 0.057341 0.037718
Si Si2 0.361335 0.454968 0.594933
Si Si3 0.500000 0.674683 0.250000
Si Si4 0.925065 0.450197 0.462796
Si Si5 0.376226 0.117138 0.672480
O O1 0.071628 0.254082 0.046324
O O2 0.000000 0.994944 0.250000
O O3 0.235075 0.020424 0.849314
O O4 0.000000 0.000000 0.000000
O O5 0.500000 0.500000 0.500000
O O6 0.381860 0.559065 0.446675
O O7 0.357998 0.259239 0.590070
O O8 0.230610 0.502984 0.830780
O O9 0.578755 0.786197 0.256490
O O10 0.000000 0.512280 0.250000
O O11 0.000000 0.500000 0.500000
O O12 0.500000 0.000000 0.500000
#
# Coordination Sequence:
#
# PCOD9234714 Si02
#       5
#     4   4   2   4   4
#     4  10  24  43  63  93 134 169 215 270 333 392
#     4   9  21  39  62  94 127 169 213 262 331 383
#     4  10  22  40  70  90 136 170 222 286 328 396
#     4  10  23  40  66  95 129 167 218 267 326 391
#     4  10  23  41  65  98 126 176 223 270 331 396
#
# _framework density 20.734438000000001
#
# number of rings (size 3 to 8) (size 9 to 14) (size 15 to 20)
#    0.000    2.222    0.000    0.000   15.556    3.556 
#    4.000    0.000    0.000    0.000    0.000    0.000 
#    0.000    0.000    0.000    0.000    0.000    0.000 
#
# Total GULP energy -100413.086238 kJ/mol
# GULP energy per Si atom -5578.504791 kJ/mol
# Density = 2.068725 g / cm^3
# Si number density = 20.734438 Si / 1000 Ang^3
#
#
#
# Elastic Constant Matrix: (Units=GPa)
#
#
# Indices 1 2 3 4 5 6 
#
# 1 121.8398 19.9715 94.7001 0.0000 -0.3316 0.0000
# 2 19.9715 33.9434 59.3790 0.0000 4.1228 0.0000
# 3 94.7001 59.3790 242.0299 0.0000 -12.1390 0.0000
# 4 0.0000 0.0000 0.0000 29.8129 0.0000 7.9212
# 5 -0.3316 4.1228 -12.1390 0.0000 42.6851 0.0000
# 6 0.0000 0.0000 0.0000 7.9212 0.0000 40.5218
#
#
#
# Elastic Compliance Matrix: (Units=1/GPa)
#
#
# Indices 1 2 3 4 5 6 
#
# 1 0.011985 0.002642 -0.005423 0.000000 -0.001704 0.000000
# 2 0.002642 0.055597 -0.015158 0.000000 -0.009660 0.000000
# 3 -0.005423 -0.015158 0.010189 0.000000 0.004320 0.000000
# 4 0.000000 0.000000 0.000000 0.035380 0.000000 -0.006916
# 5 -0.001704 -0.009660 0.004320 0.000000 0.025576 0.000000
# 6 0.000000 0.000000 0.000000 -0.006916 0.000000 0.026030
#
#
# Mechanical properties :
#
#
# Convention : Reuss Voigt Hill
#
# Bulk Modulus (GPa) = 23.87053 82.87937 53.37495
# Shear Modulus (GPa) = 23.29923 37.52144 30.41033
#
# Velocity S-wave (km/s) = 3.35580 4.25858 3.83385
# Velocity P-wave (km/s) = 5.15293 8.01494 6.73765
#
# Compressibility (1/GPa) = 0.04189266
#
# Stress axis : x y z
#
# Youngs Moduli (GPa) = 83.43865 17.98660 98.14283
#
# Poissons Ratio (x) = -0.04753 0.53224
# Poissons Ratio (y) = -0.22047 1.48769
# Poissons Ratio (z) = 0.45250 0.27265
#
# Static dielectric constant tensor:
#      x y z
#    x 1.726800 0.000000 0.021630 
#    y 0.000000 1.781330 0.000000 
#    z 0.021630 0.000000 1.793990 
# 
# From -- ./inp_files/27819.got.cif
#   From: 2010.05.17/outbox.cif.g08.bks.cpg/sg13_14_cif.got.tgz:27819.got - 2010.06.03 16:44:36.
