data_PCOD9234489
_publ_section_title
;
Structure prediction by ZEFSAII (Michael W. Deem and Ramdas Pophale) SiO2 
 PCOD9234489
Probable space group: P 2/C
;
_chemical_formula_sum "Si O2"
_cell_formula_units_Z 28
_cell_length_a 15.076153
_cell_length_b 14.310830
_cell_length_c 9.959315
_cell_angle_alpha 90.000000
_cell_angle_beta 130.755240
_cell_angle_gamma 90.000000
_cell_volume 1627.685496
_symmetry_space_group_name_H-M "P 2/C"
_symmetry_group_IT_number 13
_symmetry_cell_setting 'monoclinic'
loop_
_space_group_symop_operation_xyz
x,y,z
-x,y,1/2-z
-x,-y,-z
x,-y,1/2+z
loop_
_atom_site_type_symbol
_atom_site_label
_atom_site_fract_x
_atom_site_fract_y
_atom_site_fract_z
Si Si1 0.631848 0.700546 0.327371
Si Si2 0.361774 0.700208 0.655342
Si Si3 0.587644 0.898431 0.712591
Si Si4 0.252864 0.608173 0.290548
Si Si5 0.247017 0.614047 0.797784
Si Si6 0.584707 0.103839 0.705970
Si Si7 0.992477 0.595516 0.578721
O O1 0.500000 0.702723 0.250000
O O2 0.647192 0.630293 0.219268
O O3 0.706531 0.665545 0.525435
O O4 0.662774 0.804890 0.306434
O O5 0.500000 0.692987 0.750000
O O6 0.338147 0.807211 0.678273
O O7 0.283768 0.666739 0.453199
O O8 0.325716 0.638084 0.747182
O O9 0.500000 0.908043 0.750000
O O10 0.503304 0.877457 0.503855
O O11 0.642111 0.001463 0.743661
O O12 0.249005 0.498126 0.320780
O O13 0.131767 0.635417 0.094455
O O14 0.111670 0.645505 0.649987
O O15 0.500000 0.097478 0.750000
O O16 0.000000 0.583410 0.750000
O O17 0.000000 0.500000 0.500000
#
# Coordination Sequence:
#
# PCOD9234489 Si02
#       7
#     4   4   4   4   4   4   4
#     4  11  20  33  52  80 111 144 176 214 274 338
#     4  11  22  35  52  82 117 146 174 216 271 339
#     4   9  17  32  50  74 106 140 179 221 259 311
#     4  11  23  36  54  76 109 146 184 224 266 312
#     4  11  23  36  54  76 109 144 186 226 261 317
#     4   9  17  30  52  74 102 142 181 219 261 311
#     4  10  22  40  60  78  99 137 199 245 263 296
#
# _framework density 17.20234
#
# number of rings (size 3 to 8) (size 9 to 14) (size 15 to 20)
#    0.000    1.714    1.429    5.143    6.000    3.429 
#    0.000    0.000    0.000    0.000    0.000    6.000 
#    0.000    0.000    0.000    0.000    0.000    0.000 
#
# Total GULP energy -155901.743480 kJ/mol
# GULP energy per Si atom -5567.919410 kJ/mol
# Density = 1.716319 g / cm^3
# Si number density = 17.202340 Si / 1000 Ang^3
#
#
#
# Elastic Constant Matrix: (Units=GPa)
#
#
# Indices 1 2 3 4 5 6 
#
# 1 53.1946 23.9701 26.2777 0.0000 -9.9125 0.0000
# 2 23.9701 102.4173 65.3759 0.0000 11.5351 0.0000
# 3 26.2777 65.3759 127.7813 0.0000 -19.7932 0.0000
# 4 0.0000 0.0000 0.0000 21.9014 0.0000 -14.3314
# 5 -9.9125 11.5351 -19.7932 0.0000 30.5861 0.0000
# 6 0.0000 0.0000 0.0000 -14.3314 0.0000 2.7291
#
#
#
# Elastic Compliance Matrix: (Units=1/GPa)
#
#
# Indices 1 2 3 4 5 6 
#
# 1 0.023728 -0.006912 0.000280 0.000000 0.010478 0.000000
# 2 -0.006912 0.021274 -0.012284 0.000000 -0.018213 0.000000
# 3 0.000280 -0.012284 0.016432 0.000000 0.015357 0.000000
# 4 0.000000 0.000000 0.000000 -0.018742 0.000000 -0.098419
# 5 0.010478 -0.018213 0.015357 0.000000 0.052897 0.000000
# 6 0.000000 0.000000 0.000000 -0.098419 0.000000 -0.150406
#
#
# Mechanical properties :
#
#
# Convention : Reuss Voigt Hill
#
# Bulk Modulus (GPa) = 42.37049 57.18227 49.77638
# Shear Modulus (GPa) = -548.45615 22.22797 -263.11409
#
# Velocity S-wave (km/s) = -17.87508 3.59855 -12.38081
# Velocity P-wave (km/s) = 20.03349 7.11190 13.24314
#
# Compressibility (1/GPa) = 0.02360133
#
# Stress axis : x y z
#
# Youngs Moduli (GPa) = 42.14473 47.00497 60.85684
#
# Poissons Ratio (x) = 0.32490 -0.01703
# Poissons Ratio (y) = 0.29131 0.74758
# Poissons Ratio (z) = -0.01179 0.57742
#
# Static dielectric constant tensor:
#      x y z
#    x 1.609410 0.000000 0.019340 
#    y 0.000000 1.665610 0.000000 
#    z 0.019340 0.000000 1.618240 
# 
# From -- ./inp_files/19594.got.cif
#   From: 2010.05.17/outbox.cif.g08.bks.cpg/sg13_10_cif.got.tgz:19594.got - 2010.06.03 16:44:36.
