data_PCOD9234620
_publ_section_title
;
Structure prediction by ZEFSAII (Michael W. Deem and Ramdas Pophale) SiO2 
 PCOD9234620
Probable space group: P 2/C
;
_chemical_formula_sum "Si O2"
_cell_formula_units_Z 24
_cell_length_a 10.989452
_cell_length_b 12.115961
_cell_length_c 8.586725
_cell_angle_alpha 90.000000
_cell_angle_beta 93.792347
_cell_angle_gamma 90.000000
_cell_volume 1140.799823
_symmetry_space_group_name_H-M "P 2/C"
_symmetry_group_IT_number 13
_symmetry_cell_setting 'monoclinic'
loop_
_space_group_symop_operation_xyz
x,y,z
-x,y,1/2-z
-x,-y,-z
x,-y,1/2+z
loop_
_atom_site_type_symbol
_atom_site_label
_atom_site_fract_x
_atom_site_fract_y
_atom_site_fract_z
Si Si1 0.662627 0.921311 0.882381
Si Si2 0.605789 0.141222 0.030034
Si Si3 0.408975 0.438069 0.111164
Si Si4 0.978598 0.378429 0.064532
Si Si5 0.726248 0.661519 0.384714
Si Si6 0.213540 0.734133 0.451300
O O1 0.536093 0.879458 0.949105
O O2 0.666105 0.885380 0.702623
O O3 0.764862 0.857064 0.985633
O O4 0.656442 0.051936 0.910559
O O5 0.628553 0.261883 0.963783
O O6 0.500000 0.391667 0.250000
O O7 0.325401 0.540598 0.162080
O O8 0.500000 0.500000 0.000000
O O9 0.316738 0.346218 0.038262
O O10 0.000000 0.376332 0.250000
O O11 0.841280 0.347629 0.008487
O O12 0.000000 0.500000 0.000000
O O13 0.080317 0.304403 0.990835
O O14 0.767778 0.719294 0.229951
#
# Coordination Sequence:
#
# PCOD9234620 Si02
#       6
#     4   4   4   4   4   4
#     4  10  22  40  65  97 130 173 211 266 321 384
#     4  10  22  40  66  95 134 168 216 262 324 383
#     4  12  26  39  60  95 132 168 206 262 323 382
#     4  12  26  44  65  91 127 174 220 265 319 381
#     4  12  25  43  65  94 129 173 216 267 320 384
#     4  12  25  42  67  92 131 170 218 264 323 381
#
# _framework density 21.037873000000001
#
# number of rings (size 3 to 8) (size 9 to 14) (size 15 to 20)
#    0.000    0.667    3.333    4.500    7.000    1.333 
#    0.000    0.833    0.000    0.000    0.000    0.000 
#    0.000    0.000    0.000    0.000    0.000    0.000 
#
# Total GULP energy -134328.455099 kJ/mol
# GULP energy per Si atom -5597.018962 kJ/mol
# Density = 2.098999 g / cm^3
# Si number density = 21.037873 Si / 1000 Ang^3
#
#
#
# Elastic Constant Matrix: (Units=GPa)
#
#
# Indices 1 2 3 4 5 6 
#
# 1 57.6311 1.9807 -1.9245 0.0000 10.6741 0.0000
# 2 1.9807 78.1152 -0.8856 0.0000 4.0822 0.0000
# 3 -1.9245 -0.8856 83.8011 0.0000 0.9328 0.0000
# 4 0.0000 0.0000 0.0000 30.3570 0.0000 0.7584
# 5 10.6741 4.0822 0.9328 0.0000 34.5768 0.0000
# 6 0.0000 0.0000 0.0000 0.7584 0.0000 31.4627
#
#
#
# Elastic Compliance Matrix: (Units=1/GPa)
#
#
# Indices 1 2 3 4 5 6 
#
# 1 0.018426 -0.000165 0.000485 0.000000 -0.005682 0.000000
# 2 -0.000165 0.012885 0.000149 0.000000 -0.001474 0.000000
# 3 0.000485 0.000149 0.011951 0.000000 -0.000490 0.000000
# 4 0.000000 0.000000 0.000000 0.032961 0.000000 -0.000795
# 5 -0.005682 -0.001474 -0.000490 0.000000 0.030862 0.000000
# 6 0.000000 0.000000 0.000000 -0.000795 0.000000 0.031803
#
#
# Mechanical properties :
#
#
# Convention : Reuss Voigt Hill
#
# Bulk Modulus (GPa) = 22.62498 24.20984 23.41741
# Shear Modulus (GPa) = 32.74744 33.97110 33.35927
#
# Velocity S-wave (km/s) = 3.94965 4.02277 3.98638
# Velocity P-wave (km/s) = 5.61938 5.75409 5.68713
#
# Compressibility (1/GPa) = 0.04419894
#
# Stress axis : x y z
#
# Youngs Moduli (GPa) = 54.27129 77.61258 83.67386
#
# Poissons Ratio (x) = 0.01279 -0.04055
# Poissons Ratio (y) = 0.00894 -0.01245
# Poissons Ratio (z) = -0.02630 -0.01155
#
# Static dielectric constant tensor:
#      x y z
#    x 1.656080 0.000000 0.020900 
#    y 0.000000 1.750930 0.000000 
#    z 0.020900 0.000000 1.758940 
# 
# From -- ./inp_files/15879.got.cif
#   From: 2010.05.17/outbox.cif.g08.bks.cpg/sg13_8_cif.got.tgz:15879.got - 2010.06.03 16:44:36.
