data_PCOD9234480
_publ_section_title
;
Structure prediction by ZEFSAII (Michael W. Deem and Ramdas Pophale) SiO2 
 PCOD9234480
Probable space group: P 2/C
;
_chemical_formula_sum "Si O2"
_cell_formula_units_Z 28
_cell_length_a 23.155793
_cell_length_b 7.763404
_cell_length_c 24.437393
_cell_angle_alpha 90.000000
_cell_angle_beta 17.208463
_cell_angle_gamma 90.000000
_cell_volume 1299.681814
_symmetry_space_group_name_H-M "P 2/C"
_symmetry_group_IT_number 13
_symmetry_cell_setting 'monoclinic'
loop_
_space_group_symop_operation_xyz
x,y,z
-x,y,1/2-z
-x,-y,-z
x,-y,1/2+z
loop_
_atom_site_type_symbol
_atom_site_label
_atom_site_fract_x
_atom_site_fract_y
_atom_site_fract_z
Si Si1 0.724998 0.317778 0.477019
Si Si2 0.710047 0.960373 0.905783
Si Si3 0.037168 0.146901 0.906894
Si Si4 0.225007 0.307128 0.448489
Si Si5 0.256312 0.291348 0.919775
Si Si6 0.690156 0.275468 0.007492
Si Si7 0.256529 0.123253 0.805420
O O1 0.491599 0.294612 0.697808
O O2 0.798633 0.241044 0.468450
O O3 0.753220 0.523356 0.441562
O O4 0.787950 0.203586 0.368934
O O5 0.819571 0.010853 0.751800
O O6 0.728061 0.128455 0.928777
O O7 0.485680 0.910640 0.096582
O O8 0.168120 0.235599 0.835564
O O9 0.932548 0.242522 0.951703
O O10 0.852077 0.058047 0.102943
O O11 0.197333 0.510684 0.473623
O O12 0.452700 0.276103 0.226923
O O13 0.215520 0.233305 0.518684
O O14 0.193763 0.189956 0.922401
#
# Coordination Sequence:
#
# PCOD9234480 Si02
#       7
#     4   4   4   4   4   4   4
#     4   8  17  33  58  92 112 145 196 237 291 358
#     4  11  21  37  64  83 116 156 189 238 301 338
#     4  11  23  37  57  86 114 153 201 232 283 350
#     4   9  18  35  58  87 115 147 194 236 292 354
#     4   8  16  34  60  82 113 153 190 238 296 339
#     4   9  18  35  61  86 117 150 184 242 297 348
#     4  10  22  40  58  80 117 155 197 242 276 338
#
# _framework density 21.543735999999999
#
# number of rings (size 3 to 8) (size 9 to 14) (size 15 to 20)
#    0.000    2.571    1.429    2.143    2.000    2.286 
#    2.571    0.000    0.000    3.429    0.000    0.000 
#    0.000    0.000    0.000    0.000    0.000    0.000 
#
# Total GULP energy -156029.792388 kJ/mol
# GULP energy per Si atom -5572.492585 kJ/mol
# Density = 2.149470 g / cm^3
# Si number density = 21.543736 Si / 1000 Ang^3
#
#
#
# Elastic Constant Matrix: (Units=GPa)
#
#
# Indices 1 2 3 4 5 6 
#
# 1 163.3230 43.9392 40.3894 0.0000 -21.0813 0.0000
# 2 43.9392 43.7848 11.9624 0.0000 -4.0824 0.0000
# 3 40.3894 11.9624 65.2126 0.0000 -14.0064 0.0000
# 4 0.0000 0.0000 0.0000 -18.0147 0.0000 -26.5936
# 5 -21.0813 -4.0824 -14.0064 0.0000 40.5535 0.0000
# 6 0.0000 0.0000 0.0000 -26.5936 0.0000 0.0891
#
#
#
# Elastic Compliance Matrix: (Units=1/GPa)
#
#
# Indices 1 2 3 4 5 6 
#
# 1 0.009714 -0.008427 -0.003854 0.000000 0.002870 0.000000
# 2 -0.008427 0.031391 -0.000865 0.000000 -0.001520 0.000000
# 3 -0.003854 -0.000865 0.018828 0.000000 0.004412 0.000000
# 4 0.000000 0.000000 0.000000 -0.000126 0.000000 -0.037518
# 5 0.002870 -0.001520 0.004412 0.000000 0.027522 0.000000
# 6 0.000000 0.000000 0.000000 -0.037518 0.000000 0.025415
#
#
# Mechanical properties :
#
#
# Convention : Reuss Voigt Hill
#
# Bulk Modulus (GPa) = 29.72700 51.65584 40.69142
# Shear Modulus (GPa) = 33.27820 16.26087 24.76953
#
# Velocity S-wave (km/s) = 3.93451 2.75031 3.39445
# Velocity P-wave (km/s) = 5.87102 5.84079 5.85593
#
# Compressibility (1/GPa) = 0.03363945
#
# Stress axis : x y z
#
# Youngs Moduli (GPa) = 102.94882 31.85658 53.11334
#
# Poissons Ratio (x) = 0.26847 0.20469
# Poissons Ratio (y) = 0.86758 0.04595
# Poissons Ratio (z) = 0.39674 0.02756
#
# Static dielectric constant tensor:
#      x y z
#    x 1.960060 0.000000 -0.051240 
#    y 0.000000 1.776470 0.000000 
#    z -0.051240 0.000000 1.827230 
# 
# From -- ./inp_files/88452.got.cif
#   From: 2010.05.17/outbox.cif.g08.bks.cpg/sg13_45_cif.got.tgz:88452.got - 2010.06.03 16:44:36.
