data_PCOD9234289
_publ_section_title
;
Structure prediction by ZEFSAII (Michael W. Deem and Ramdas Pophale) SiO2 
 PCOD9234289
Probable space group: P 2/C
;
_chemical_formula_sum "Si O2"
_cell_formula_units_Z 28
_cell_length_a 18.083861
_cell_length_b 13.191453
_cell_length_c 11.344466
_cell_angle_alpha 90.000000
_cell_angle_beta 156.084821
_cell_angle_gamma 90.000000
_cell_volume 1097.069700
_symmetry_space_group_name_H-M "P 2/C"
_symmetry_group_IT_number 13
_symmetry_cell_setting 'monoclinic'
loop_
_space_group_symop_operation_xyz
x,y,z
-x,y,1/2-z
-x,-y,-z
x,-y,1/2+z
loop_
_atom_site_type_symbol
_atom_site_label
_atom_site_fract_x
_atom_site_fract_y
_atom_site_fract_z
Si Si1 0.200841 0.709027 0.290420
Si Si2 0.221318 0.490387 0.355109
Si Si3 0.187195 0.330003 0.498238
Si Si4 0.374241 0.168405 0.387735
Si Si5 0.325960 0.925442 0.573360
Si Si6 0.141705 0.644774 0.555433
Si Si7 0.229289 0.862139 0.924801
O O1 0.287720 0.604526 0.468886
O O2 0.259503 0.821056 0.416982
O O3 0.995033 0.694810 0.045343
O O4 0.250283 0.698327 0.222253
O O5 0.275889 0.408958 0.534956
O O6 0.270789 0.438082 0.303717
O O7 0.000000 0.500000 0.000000
O O8 0.124043 0.227552 0.336244
O O9 0.000000 0.388604 0.250000
O O10 0.386096 0.098572 0.292672
O O11 0.573239 0.171746 0.734331
O O12 0.245198 0.137512 0.307512
O O13 0.279957 0.271574 0.208011
O O14 0.500000 0.961275 0.750000
O O15 0.189679 0.020305 0.391135
O O16 0.000000 0.610700 0.250000
#
# Coordination Sequence:
#
# PCOD9234289 Si02
#       7
#     4   4   4   4   4   4   4
#     4  11  25  39  67 103 135 179 228 279 339 404
#     4  10  22  38  68  99 133 181 219 274 345 405
#     4  12  22  43  67 105 136 174 232 284 337 406
#     4  11  22  43  70  95 128 182 227 274 346 409
#     4  12  25  45  67  94 136 180 229 280 345 409
#     4  11  21  41  67 100 137 171 225 280 337 409
#     4  11  25  43  70  98 131 183 229 278 346 408
#
# _framework density 25.522534
#
# number of rings (size 3 to 8) (size 9 to 14) (size 15 to 20)
#    0.000    0.857    7.143    1.286    6.000    0.000 
#    2.571    2.857    0.000    3.429    0.000    0.000 
#    0.000    0.000    0.000    0.000    0.000    0.000 
#
# Total GULP energy -155955.195123 kJ/mol
# GULP energy per Si atom -5569.828397 kJ/mol
# Density = 2.546444 g / cm^3
# Si number density = 25.522534 Si / 1000 Ang^3
#
#
#
# Elastic Constant Matrix: (Units=GPa)
#
#
# Indices 1 2 3 4 5 6 
#
# 1 117.0126 42.7478 34.8596 0.0000 -46.3651 0.0000
# 2 42.7478 194.9740 39.6604 0.0000 -18.5188 0.0000
# 3 34.8596 39.6604 50.8403 0.0000 -19.3098 0.0000
# 4 0.0000 0.0000 0.0000 34.3692 0.0000 -4.1463
# 5 -46.3651 -18.5188 -19.3098 0.0000 48.2287 0.0000
# 6 0.0000 0.0000 0.0000 -4.1463 0.0000 10.6755
#
#
#
# Elastic Compliance Matrix: (Units=1/GPa)
#
#
# Indices 1 2 3 4 5 6 
#
# 1 0.015317 -0.001193 -0.004898 0.000000 0.012306 0.000000
# 2 -0.001193 0.006200 -0.004187 0.000000 -0.000443 0.000000
# 3 -0.004898 -0.004187 0.028180 0.000000 0.004967 0.000000
# 4 0.000000 0.000000 0.000000 0.030526 0.000000 0.011856
# 5 0.012306 -0.000443 0.004967 0.000000 0.034384 0.000000
# 6 0.000000 0.000000 0.000000 0.011856 0.000000 0.098277
#
#
# Mechanical properties :
#
#
# Convention : Reuss Voigt Hill
#
# Bulk Modulus (GPa) = 34.31430 66.37363 50.34396
# Shear Modulus (GPa) = 20.56308 35.02527 27.79418
#
# Velocity S-wave (km/s) = 2.84154 3.70851 3.30359
# Velocity P-wave (km/s) = 4.92338 6.66332 5.85830
#
# Compressibility (1/GPa) = 0.02914237
#
# Stress axis : x y z
#
# Youngs Moduli (GPa) = 65.28532 161.28843 35.48612
#
# Poissons Ratio (x) = 0.19245 0.17380
# Poissons Ratio (y) = 0.07790 0.14857
# Poissons Ratio (z) = 0.31975 0.67526
#
# Static dielectric constant tensor:
#      x y z
#    x 2.159550 0.000000 0.043000 
#    y 0.000000 2.229370 0.000000 
#    z 0.043000 0.000000 2.111080 
# 
# From -- ./inp_files/40839.got.cif
#   From: 2010.05.17/outbox.cif.g08.bks.cpg/sg13_21_cif.got.tgz:40839.got - 2010.06.03 16:44:36.
