data_PCOD9234703
_publ_section_title
;
Structure prediction by ZEFSAII (Michael W. Deem and Ramdas Pophale) SiO2 
 PCOD9234703
Probable space group: P 2/C
;
_chemical_formula_sum "Si O2"
_cell_formula_units_Z 30
_cell_length_a 13.475110
_cell_length_b 5.365368
_cell_length_c 16.610967
_cell_angle_alpha 90.000000
_cell_angle_beta 89.068033
_cell_angle_gamma 90.000000
_cell_volume 1200.796170
_symmetry_space_group_name_H-M "P 2/C"
_symmetry_group_IT_number 13
_symmetry_cell_setting 'monoclinic'
loop_
_space_group_symop_operation_xyz
x,y,z
-x,y,1/2-z
-x,-y,-z
x,-y,1/2+z
loop_
_atom_site_type_symbol
_atom_site_label
_atom_site_fract_x
_atom_site_fract_y
_atom_site_fract_z
Si Si1 0.593032 0.275050 0.026064
Si Si2 0.257812 0.514362 0.584998
Si Si3 0.036949 0.692301 0.091097
Si Si4 0.594656 0.126016 0.396233
Si Si5 0.961163 0.807571 0.592898
Si Si6 0.304320 0.578951 0.264775
Si Si7 0.500000 0.661368 0.750000
Si Si8 0.253468 0.083389 0.352461
O O1 0.683649 0.450727 0.997826
O O2 0.573628 0.118088 0.945691
O O3 0.483475 0.326870 0.062636
O O4 0.648670 0.107523 0.093028
O O5 0.146905 0.420229 0.584504
O O6 0.290308 0.802261 0.594511
O O7 0.301157 0.402681 0.668024
O O8 0.973403 0.468019 0.130380
O O9 0.004697 0.751909 0.999375
O O10 0.024924 0.966219 0.129796
O O11 0.563047 0.154458 0.305428
O O12 0.848125 0.900955 0.595958
O O13 0.417794 0.521144 0.288816
O O14 0.250521 0.326381 0.294919
O O15 0.261330 0.825008 0.305146
#
# Coordination Sequence:
#
# PCOD9234703 Si02
#       8
#     4   4   4   4   4   4   2   4
#     4  11  24  40  72 101 140 179 243 290 341 409
#     4  11  25  43  67 101 142 181 233 292 351 419
#     4  10  22  40  70 103 132 178 225 295 349 408
#     4  10  24  41  67 104 137 187 230 287 346 418
#     4  10  22  42  70 101 135 172 235 285 352 410
#     4  11  28  43  72  97 148 188 232 277 367 416
#     4  10  22  48  66  98 152 188 234 280 354 428
#     4  12  25  48  69 105 138 189 230 296 347 423
#
# _framework density 24.983422000000001
#
# number of rings (size 3 to 8) (size 9 to 14) (size 15 to 20)
#    0.000    1.333    2.667    1.200    7.467    5.867 
#    0.000    4.000    0.000    0.000    0.000    0.000 
#    0.000    0.000    0.000    0.000    0.000    0.000 
#
# Total GULP energy -167432.934582 kJ/mol
# GULP energy per Si atom -5581.097819 kJ/mol
# Density = 2.492656 g / cm^3
# Si number density = 24.983422 Si / 1000 Ang^3
#
#
#
# Elastic Constant Matrix: (Units=GPa)
#
#
# Indices 1 2 3 4 5 6 
#
# 1 117.7461 29.9566 -8.6684 0.0000 -5.7937 0.0000
# 2 29.9566 152.9890 25.4484 0.0000 -5.0444 0.0000
# 3 -8.6684 25.4484 51.7967 0.0000 -1.3810 0.0000
# 4 0.0000 0.0000 0.0000 31.7751 0.0000 -13.6795
# 5 -5.7937 -5.0444 -1.3810 0.0000 31.0147 0.0000
# 6 0.0000 0.0000 0.0000 -13.6795 0.0000 35.7370
#
#
#
# Elastic Compliance Matrix: (Units=1/GPa)
#
#
# Indices 1 2 3 4 5 6 
#
# 1 0.009331 -0.002226 0.002695 0.000000 0.001501 0.000000
# 2 -0.002226 0.007680 -0.004129 0.000000 0.000650 0.000000
# 3 0.002695 -0.004129 0.021807 0.000000 0.000803 0.000000
# 4 0.000000 0.000000 0.000000 0.037681 0.000000 0.014423
# 5 0.001501 0.000650 0.000803 0.000000 0.032665 0.000000
# 6 0.000000 0.000000 0.000000 0.014423 0.000000 0.033503
#
#
# Mechanical properties :
#
#
# Convention : Reuss Voigt Hill
#
# Bulk Modulus (GPa) = 31.74563 46.22279 38.98421
# Shear Modulus (GPa) = 31.15526 38.09171 34.62348
#
# Velocity S-wave (km/s) = 3.53517 3.90895 3.72675
# Velocity P-wave (km/s) = 5.42195 6.23817 5.84432
#
# Compressibility (1/GPa) = 0.03150040
#
# Stress axis : x y z
#
# Youngs Moduli (GPa) = 107.16404 130.19994 45.85629
#
# Poissons Ratio (x) = 0.28983 -0.12360
# Poissons Ratio (y) = 0.23855 0.18933
# Poissons Ratio (z) = -0.28885 0.53756
#
# Static dielectric constant tensor:
#      x y z
#    x 1.985630 0.000000 -0.024760 
#    y 0.000000 2.145300 0.000000 
#    z -0.024760 0.000000 2.046290 
# 
# From -- ./inp_files/67375.got.cif
#   From: 2010.05.17/outbox.cif.g08.bks.cpg/sg13_34_cif.got.tgz:67375.got - 2010.06.03 16:44:36.
