data_PCOD9234981
_publ_section_title
;
Structure prediction by ZEFSAII (Michael W. Deem and Ramdas Pophale) SiO2 
 PCOD9234981
Probable space group: P 2/C
;
_chemical_formula_sum "Si O2"
_cell_formula_units_Z 20
_cell_length_a 18.417842
_cell_length_b 11.431505
_cell_length_c 7.794565
_cell_angle_alpha 90.000000
_cell_angle_beta 35.180758
_cell_angle_gamma 90.000000
_cell_volume 945.530462
_symmetry_space_group_name_H-M "P 2/C"
_symmetry_group_IT_number 13
_symmetry_cell_setting 'monoclinic'
loop_
_space_group_symop_operation_xyz
x,y,z
-x,y,1/2-z
-x,-y,-z
x,-y,1/2+z
loop_
_atom_site_type_symbol
_atom_site_label
_atom_site_fract_x
_atom_site_fract_y
_atom_site_fract_z
Si Si1 0.000000 0.705191 0.750000
Si Si2 0.655636 0.139084 0.140242
Si Si3 0.948150 0.875658 0.160967
Si Si4 0.500000 0.051212 0.750000
Si Si5 0.590317 0.583183 0.213994
Si Si6 0.281106 0.635314 0.203447
O O1 0.002930 0.784218 0.574099
O O2 0.130886 0.637636 0.494314
O O3 0.554433 0.125250 0.487212
O O4 0.612564 0.035640 0.094650
O O5 0.796307 0.122428 0.942413
O O6 0.661743 0.263015 0.028745
O O7 0.000000 0.849700 0.250000
O O8 0.000000 0.000000 0.000000
O O9 0.500000 0.643058 0.250000
O O10 0.500000 0.500000 0.500000
O O11 0.667047 0.656194 0.204525
O O12 0.677744 0.491691 0.943368
#
# Coordination Sequence:
#
# PCOD9234981 Si02
#       6
#     2   4   4   2   4   4
#     4  10  24  42  64  96 128 174 216 266 334 374
#     4  10  23  41  63  96 132 169 216 264 320 387
#     4  11  21  40  64  92 129 175 220 265 312 385
#     4  10  22  42  62  96 132 178 206 260 334 372
#     4   9  20  42  66  94 121 164 211 264 328 376
#     4  10  22  44  65  97 131 163 220 270 319 393
#
# _framework density 21.152145999999998
#
# number of rings (size 3 to 8) (size 9 to 14) (size 15 to 20)
#    0.000    2.000    1.000    1.200    7.000    0.800 
#   19.800    0.000    0.000    0.000    0.000    0.000 
#    0.000    0.000    0.000    0.000    0.000    0.000 
#
# Total GULP energy -111765.040841 kJ/mol
# GULP energy per Si atom -5588.252042 kJ/mol
# Density = 2.110400 g / cm^3
# Si number density = 21.152146 Si / 1000 Ang^3
#
#
#
# Elastic Constant Matrix: (Units=GPa)
#
#
# Indices 1 2 3 4 5 6 
#
# 1 190.1835 51.1507 46.6217 0.0000 -5.9916 0.0000
# 2 51.1507 73.4245 43.7383 0.0000 -7.3577 0.0000
# 3 46.6217 43.7383 94.0270 0.0000 -5.4676 0.0000
# 4 0.0000 0.0000 0.0000 22.2827 0.0000 -2.1655
# 5 -5.9916 -7.3577 -5.4676 0.0000 35.5664 0.0000
# 6 0.0000 0.0000 0.0000 -2.1655 0.0000 26.8401
#
#
#
# Elastic Compliance Matrix: (Units=1/GPa)
#
#
# Indices 1 2 3 4 5 6 
#
# 1 0.006636 -0.003673 -0.001575 0.000000 0.000116 0.000000
# 2 -0.003673 0.021109 -0.007850 0.000000 0.002541 0.000000
# 3 -0.001575 -0.007850 0.015093 0.000000 0.000431 0.000000
# 4 0.000000 0.000000 0.000000 0.045233 0.000000 0.003649
# 5 0.000116 0.002541 0.000431 0.000000 0.028728 0.000000
# 6 0.000000 0.000000 0.000000 0.003649 0.000000 0.037552
#
#
# Mechanical properties :
#
#
# Convention : Reuss Voigt Hill
#
# Bulk Modulus (GPa) = 60.09120 71.18404 65.63762
# Shear Modulus (GPa) = 26.86816 31.34612 29.10714
#
# Velocity S-wave (km/s) = 3.56790 3.85377 3.71359
# Velocity P-wave (km/s) = 6.74121 7.31631 7.03464
#
# Compressibility (1/GPa) = 0.01664137
#
# Stress axis : x y z
#
# Youngs Moduli (GPa) = 150.70108 47.37275 66.25611
#
# Poissons Ratio (x) = 0.17400 0.10435
# Poissons Ratio (y) = 0.55351 0.52014
# Poissons Ratio (z) = 0.23734 0.37189
#
# Static dielectric constant tensor:
#      x y z
#    x 1.798390 0.000000 0.001530 
#    y 0.000000 1.708690 0.000000 
#    z 0.001530 0.000000 1.739140 
# 
# From -- ./inp_files/21709.got.cif
#   From: 2010.05.17/outbox.cif.g08.bks.cpg/sg13_11_cif.got.tgz:21709.got - 2010.06.03 16:44:36.
