data_PCOD9234570
_publ_section_title
;
Structure prediction by ZEFSAII (Michael W. Deem and Ramdas Pophale) SiO2 
 PCOD9234570
Probable space group: P 2/C
;
_chemical_formula_sum "Si O2"
_cell_formula_units_Z 14
_cell_length_a 13.539493
_cell_length_b 4.878342
_cell_length_c 12.204339
_cell_angle_alpha 90.000000
_cell_angle_beta 137.242491
_cell_angle_gamma 90.000000
_cell_volume 547.258837
_symmetry_space_group_name_H-M "P 2/C"
_symmetry_group_IT_number 13
_symmetry_cell_setting 'monoclinic'
loop_
_space_group_symop_operation_xyz
x,y,z
-x,y,1/2-z
-x,-y,-z
x,-y,1/2+z
loop_
_atom_site_type_symbol
_atom_site_label
_atom_site_fract_x
_atom_site_fract_y
_atom_site_fract_z
Si Si1 0.719889 0.895665 0.628161
Si Si2 0.637105 0.564549 0.931755
Si Si3 0.128792 0.330967 0.044369
Si Si4 0.000000 0.952846 0.750000
O O1 0.600384 0.695064 0.478967
O O2 0.766961 0.847742 0.790484
O O3 0.692136 0.198136 0.559633
O O4 0.866609 0.786918 0.688404
O O5 0.500000 0.661865 0.750000
O O6 0.755865 0.500136 0.933765
O O7 0.050787 0.134775 0.893567
O O8 0.000000 0.500000 0.000000
#
# Coordination Sequence:
#
# PCOD9234570 Si02
#       4
#     4   4   4   2
#     4  11  23  41  66  94 129 171 213 263 320 377
#     4  11  26  44  64  95 132 170 216 265 315 380
#     4  11  22  41  69  97 130 169 214 264 322 381
#     4  10  22  40  64 100 132 162 214 270 320 380
#
# _framework density 25.582042999999999
#
# number of rings (size 3 to 8) (size 9 to 14) (size 15 to 20)
#    0.000    1.143    0.000    6.857    0.000   10.286 
#    0.000    0.000    0.000    0.000    0.000    0.000 
#    0.000    0.000    0.000    0.000    0.000    0.000 
#
# Total GULP energy -78253.503038 kJ/mol
# GULP energy per Si atom -5589.535931 kJ/mol
# Density = 2.552382 g / cm^3
# Si number density = 25.582043 Si / 1000 Ang^3
#
#
#
# Elastic Constant Matrix: (Units=GPa)
#
#
# Indices 1 2 3 4 5 6 
#
# 1 76.2218 7.3065 29.2934 0.0000 -11.0640 0.0000
# 2 7.3065 69.1262 25.0439 0.0000 -27.0563 0.0000
# 3 29.2934 25.0439 169.9288 0.0000 -41.8114 0.0000
# 4 0.0000 0.0000 0.0000 6.4323 0.0000 10.8295
# 5 -11.0640 -27.0563 -41.8114 0.0000 42.3171 0.0000
# 6 0.0000 0.0000 0.0000 10.8295 0.0000 10.8370
#
#
#
# Elastic Compliance Matrix: (Units=1/GPa)
#
#
# Indices 1 2 3 4 5 6 
#
# 1 0.014144 -0.000129 -0.002021 0.000000 0.001619 0.000000
# 2 -0.000129 0.019304 0.000272 0.000000 0.012578 0.000000
# 3 -0.002021 0.000272 0.008067 0.000000 0.007616 0.000000
# 4 0.000000 0.000000 0.000000 -0.227806 0.000000 0.227648
# 5 0.001619 0.012578 0.007616 0.000000 0.039621 0.000000
# 6 0.000000 0.000000 0.000000 0.227648 0.000000 -0.135214
#
#
# Mechanical properties :
#
#
# Convention : Reuss Voigt Hill
#
# Bulk Modulus (GPa) = 26.48403 48.72938 37.60670
# Shear Modulus (GPa) = -18.82945 28.82615 4.99835
#
# Velocity S-wave (km/s) = -2.71595 3.36044 1.39932
# Velocity P-wave (km/s) = 0.73476 5.84349 4.16451
#
# Compressibility (1/GPa) = 0.03775860
#
# Stress axis : x y z
#
# Youngs Moduli (GPa) = 70.70336 51.80186 123.96045
#
# Poissons Ratio (x) = 0.00670 0.25051
# Poissons Ratio (y) = 0.00914 -0.03371
# Poissons Ratio (z) = 0.14288 -0.01409
#
# Static dielectric constant tensor:
#      x y z
#    x 2.073620 0.000000 0.052900 
#    y 0.000000 1.972630 0.000000 
#    z 0.052900 0.000000 2.082450 
# 
# From -- ./inp_files/17660.got.cif
#   From: 2010.05.17/outbox.cif.g08.bks.cpg/sg13_9_cif.got.tgz:17660.got - 2010.06.03 16:44:36.
