data_PCOD9234244
_publ_section_title
;
Structure prediction by ZEFSAII (Michael W. Deem and Ramdas Pophale) SiO2 
 PCOD9234244
Probable space group: P 2/C
;
_chemical_formula_sum "Si O2"
_cell_formula_units_Z 18
_cell_length_a 6.598693
_cell_length_b 9.638183
_cell_length_c 15.696535
_cell_angle_alpha 90.000000
_cell_angle_beta 125.074149
_cell_angle_gamma 90.000000
_cell_volume 817.009896
_symmetry_space_group_name_H-M "P 2/C"
_symmetry_group_IT_number 13
_symmetry_cell_setting 'monoclinic'
loop_
_space_group_symop_operation_xyz
x,y,z
-x,y,1/2-z
-x,-y,-z
x,-y,1/2+z
loop_
_atom_site_type_symbol
_atom_site_label
_atom_site_fract_x
_atom_site_fract_y
_atom_site_fract_z
Si Si1 0.500000 0.971892 0.250000
Si Si2 0.269116 0.907943 0.858864
Si Si3 0.259647 0.597857 0.861625
Si Si4 0.968393 0.894938 0.069986
Si Si5 0.785805 0.409332 0.487711
O O1 0.243513 0.887594 0.178036
O O2 0.544793 0.061370 0.174407
O O3 0.296325 0.755310 0.906962
O O4 0.000000 0.899820 0.750000
O O5 0.232163 0.034240 0.915331
O O6 0.249142 0.476238 0.927703
O O7 0.000000 0.595316 0.750000
O O8 0.521062 0.578912 0.876250
O O9 0.875998 0.747227 0.017160
O O10 0.000000 0.000000 0.000000
O O11 0.000000 0.500000 0.500000
#
# Coordination Sequence:
#
# PCOD9234244 Si02
#       5
#     2   4   4   4   4
#     4  10  22  38  64  94 124 162 206 260 316 366
#     4   9  20  40  64  91 121 160 211 254 304 367
#     4  10  23  42  64  88 123 165 207 256 308 371
#     4  11  23  39  64  94 126 164 208 261 311 368
#     4  11  25  41  61  93 127 163 207 255 314 374
#
# _framework density 22.031558
#
# number of rings (size 3 to 8) (size 9 to 14) (size 15 to 20)
#    0.000    1.778    0.000    2.667    0.000   16.000 
#    0.000    0.000    0.000    1.333    0.000    0.000 
#    0.000    0.000    0.000    0.000    0.000    0.000 
#
# Total GULP energy -100458.414446 kJ/mol
# GULP energy per Si atom -5581.023025 kJ/mol
# Density = 2.198141 g / cm^3
# Si number density = 22.031558 Si / 1000 Ang^3
#
#
#
# Elastic Constant Matrix: (Units=GPa)
#
#
# Indices 1 2 3 4 5 6 
#
# 1 142.3389 67.6762 46.6969 0.0000 26.4145 0.0000
# 2 67.6762 154.9022 41.3187 0.0000 2.8002 0.0000
# 3 46.6969 41.3187 82.4948 0.0000 35.7180 0.0000
# 4 0.0000 0.0000 0.0000 26.8070 0.0000 -2.6402
# 5 26.4145 2.8002 35.7180 0.0000 58.2602 0.0000
# 6 0.0000 0.0000 0.0000 -2.6402 0.0000 30.0719
#
#
#
# Elastic Compliance Matrix: (Units=1/GPa)
#
#
# Indices 1 2 3 4 5 6 
#
# 1 0.010178 -0.003670 -0.002725 0.000000 -0.002768 0.000000
# 2 -0.003670 0.009082 -0.004088 0.000000 0.003734 0.000000
# 3 -0.002725 -0.004088 0.020546 0.000000 -0.011164 0.000000
# 4 0.000000 0.000000 0.000000 0.037629 0.000000 0.003304
# 5 -0.002768 0.003734 -0.011164 0.000000 0.025084 0.000000
# 6 0.000000 0.000000 0.000000 0.003304 0.000000 0.033544
#
#
# Mechanical properties :
#
#
# Convention : Reuss Voigt Hill
#
# Bulk Modulus (GPa) = 53.07838 76.79107 64.93472
# Shear Modulus (GPa) = 30.61694 37.96409 34.29051
#
# Velocity S-wave (km/s) = 3.73189 4.15561 3.94944
# Velocity P-wave (km/s) = 6.53557 7.61289 7.09471
#
# Compressibility (1/GPa) = 0.01884006
#
# Stress axis : x y z
#
# Youngs Moduli (GPa) = 98.25231 110.10821 48.67166
#
# Poissons Ratio (x) = 0.40408 0.13263
# Poissons Ratio (y) = 0.36057 0.19897
# Poissons Ratio (z) = 0.26773 0.45013
#
# Static dielectric constant tensor:
#      x y z
#    x 1.869930 0.000000 0.045210 
#    y 0.000000 1.629910 0.000000 
#    z 0.045210 0.000000 1.882010 
# 
# From -- ./inp_files/60542.got.cif
#   From: 2010.05.17/outbox.cif.g08.bks.cpg/sg13_31_cif.got.tgz:60542.got - 2010.06.03 16:44:36.
