data_PCOD9234744
_publ_section_title
;
Structure prediction by ZEFSAII (Michael W. Deem and Ramdas Pophale) SiO2 
 PCOD9234744
Probable space group: P 2/C
;
_chemical_formula_sum "Si O2"
_cell_formula_units_Z 24
_cell_length_a 7.742636
_cell_length_b 19.093861
_cell_length_c 13.861595
_cell_angle_alpha 90.000000
_cell_angle_beta 145.756450
_cell_angle_gamma 90.000000
_cell_volume 1153.139590
_symmetry_space_group_name_H-M "P 2/C"
_symmetry_group_IT_number 13
_symmetry_cell_setting 'monoclinic'
loop_
_space_group_symop_operation_xyz
x,y,z
-x,y,1/2-z
-x,-y,-z
x,-y,1/2+z
loop_
_atom_site_type_symbol
_atom_site_label
_atom_site_fract_x
_atom_site_fract_y
_atom_site_fract_z
Si Si1 0.692894 0.344373 0.051899
Si Si2 0.500000 0.587855 0.750000
Si Si3 0.526530 0.927617 0.143060
Si Si4 0.608671 0.768687 0.190932
Si Si5 0.894476 0.647267 0.078455
Si Si6 0.000000 0.971551 0.750000
Si Si7 0.392340 0.532429 0.348912
O O1 0.000000 0.357527 0.250000
O O2 0.663811 0.267664 0.994794
O O3 0.402512 0.348846 0.990513
O O4 0.637081 0.404693 0.946320
O O5 0.232880 0.636598 0.586851
O O6 0.611515 0.533605 0.721386
O O7 0.500000 0.937513 0.250000
O O8 0.656936 0.849101 0.187564
O O9 0.764144 0.982299 0.205509
O O10 0.215376 0.933762 0.932351
O O11 0.500000 0.766936 0.250000
O O12 0.896314 0.715721 0.313905
O O13 0.081463 0.576505 0.190026
O O14 0.500000 0.500000 0.500000
#
# Coordination Sequence:
#
# PCOD9234744 Si02
#       7
#     4   2   4   4   4   2   4
#     4  11  26  41  65  89 123 167 222 274 334 408
#     4  12  26  38  68  88 126 158 224 278 350 404
#     4  10  22  43  70 108 148 183 234 284 334 408
#     4  10  24  43  68  93 136 174 215 271 332 391
#     4  11  26  46  61  92 126 169 218 275 336 409
#     4  10  22  40  76 108 142 192 228 274 354 396
#     4  11  24  41  64  86 119 162 211 277 346 397
#
# _framework density 20.812746000000001
#
# number of rings (size 3 to 8) (size 9 to 14) (size 15 to 20)
#    0.000    1.333    1.667    3.000   12.833    0.000 
#    0.000    0.000    1.833    0.000    0.000    0.000 
#    0.000    0.000    0.000    0.000    0.000    0.000 
#
# Total GULP energy -133858.097543 kJ/mol
# GULP energy per Si atom -5577.420731 kJ/mol
# Density = 2.076538 g / cm^3
# Si number density = 20.812746 Si / 1000 Ang^3
#
#
#
# Elastic Constant Matrix: (Units=GPa)
#
#
# Indices 1 2 3 4 5 6 
#
# 1 64.2452 33.5791 39.0249 0.0000 -4.1269 0.0000
# 2 33.5791 115.7983 50.7217 0.0000 -1.9540 0.0000
# 3 39.0249 50.7217 163.5289 0.0000 -3.6085 0.0000
# 4 0.0000 0.0000 0.0000 22.0633 0.0000 -7.5954
# 5 -4.1269 -1.9540 -3.6085 0.0000 36.8333 0.0000
# 6 0.0000 0.0000 0.0000 -7.5954 0.0000 23.4322
#
#
#
# Elastic Compliance Matrix: (Units=1/GPa)
#
#
# Indices 1 2 3 4 5 6 
#
# 1 0.019974 -0.004273 -0.003404 0.000000 0.001678 0.000000
# 2 -0.004273 0.010909 -0.002367 0.000000 -0.000132 0.000000
# 3 -0.003404 -0.002367 0.007667 0.000000 0.000244 0.000000
# 4 0.000000 0.000000 0.000000 0.051017 0.000000 0.016537
# 5 0.001678 -0.000132 0.000244 0.000000 0.027354 0.000000
# 6 0.000000 0.000000 0.000000 0.016537 0.000000 0.048037
#
#
# Mechanical properties :
#
#
# Convention : Reuss Voigt Hill
#
# Bulk Modulus (GPa) = 54.16371 65.58042 59.87207
# Shear Modulus (GPa) = 26.15050 31.14887 28.64969
#
# Velocity S-wave (km/s) = 3.54851 3.87282 3.71421
# Velocity P-wave (km/s) = 6.54752 7.18168 6.87192
#
# Compressibility (1/GPa) = 0.01846255
#
# Stress axis : x y z
#
# Youngs Moduli (GPa) = 50.06434 91.66542 130.42691
#
# Poissons Ratio (x) = 0.39165 0.44403
# Poissons Ratio (y) = 0.21391 0.30872
# Poissons Ratio (z) = 0.17044 0.21697
#
# Static dielectric constant tensor:
#      x y z
#    x 1.843380 0.000000 -0.028720 
#    y 0.000000 1.741570 0.000000 
#    z -0.028720 0.000000 1.817160 
# 
# From -- ./inp_files/48140.got.cif
#   From: 2010.05.17/outbox.cif.g08.bks.cpg/sg13_25_cif.got.tgz:48140.got - 2010.06.03 16:44:36.
