data_PCOD9234217
_publ_section_title
;
Structure prediction by ZEFSAII (Michael W. Deem and Ramdas Pophale) SiO2 
 PCOD9234217
Probable space group: P 2/C
;
_chemical_formula_sum "Si O2"
_cell_formula_units_Z 22
_cell_length_a 17.097912
_cell_length_b 6.762739
_cell_length_c 7.978538
_cell_angle_alpha 90.000000
_cell_angle_beta 99.745725
_cell_angle_gamma 90.000000
_cell_volume 909.234531
_symmetry_space_group_name_H-M "P 2/C"
_symmetry_group_IT_number 13
_symmetry_cell_setting 'monoclinic'
loop_
_space_group_symop_operation_xyz
x,y,z
-x,y,1/2-z
-x,-y,-z
x,-y,1/2+z
loop_
_atom_site_type_symbol
_atom_site_label
_atom_site_fract_x
_atom_site_fract_y
_atom_site_fract_z
Si Si1 0.617469 0.162196 0.054229
Si Si2 0.080577 0.603367 0.679420
Si Si3 0.746067 0.820056 0.106404
Si Si4 0.500000 0.073655 0.750000
Si Si5 0.918955 0.812751 0.182458
Si Si6 0.256639 0.569992 0.735402
O O1 0.668475 0.341382 0.141446
O O2 0.680443 0.983999 0.054135
O O3 0.553909 0.071868 0.159668
O O4 0.563176 0.202997 0.874413
O O5 0.078250 0.707573 0.498393
O O6 0.079931 0.362954 0.679012
O O7 0.170336 0.630135 0.781959
O O8 0.000000 0.651122 0.750000
O O9 0.833695 0.913734 0.158744
O O10 0.735775 0.667741 0.257007
O O11 0.744883 0.672794 0.946631
O O12 0.000000 0.927334 0.250000
#
# Coordination Sequence:
#
# PCOD9234217 Si02
#       6
#     4   4   4   2   4   4
#     4  11  22  46  63  88 120 152 195 242 306 357
#     4   9  16  29  49  80 117 155 193 234 279 332
#     4  10  22  38  62  91 121 157 200 241 289 349
#     4  10  24  42  70  82 116 158 188 246 306 368
#     4   9  16  29  49  80 117 155 193 234 279 332
#     4  10  22  38  62  91 121 157 200 241 289 349
#
# _framework density 24.196176000000001
#
# number of rings (size 3 to 8) (size 9 to 14) (size 15 to 20)
#    0.000    2.182    1.818    2.182    2.545    1.455 
#    0.000    6.364    0.000    4.364    0.000    0.000 
#    0.000    0.000    0.000    0.000    0.000    0.000 
#
# Total GULP energy -122862.039622 kJ/mol
# GULP energy per Si atom -5584.638165 kJ/mol
# Density = 2.414110 g / cm^3
# Si number density = 24.196176 Si / 1000 Ang^3
#
#
#
# Elastic Constant Matrix: (Units=GPa)
#
#
# Indices 1 2 3 4 5 6 
#
# 1 188.0081 16.5199 48.6060 0.0000 44.8585 0.0000
# 2 16.5199 47.5667 0.7896 0.0000 14.8542 0.0000
# 3 48.6060 0.7896 57.8068 0.0000 32.3510 0.0000
# 4 0.0000 0.0000 0.0000 13.5427 0.0000 35.0388
# 5 44.8585 14.8542 32.3510 0.0000 52.4420 0.0000
# 6 0.0000 0.0000 0.0000 35.0388 0.0000 85.5928
#
#
#
# Elastic Compliance Matrix: (Units=1/GPa)
#
#
# Indices 1 2 3 4 5 6 
#
# 1 0.007335 -0.001492 -0.004387 0.000000 -0.003145 0.000000
# 2 -0.001492 0.024396 0.006223 0.000000 -0.009472 0.000000
# 3 -0.004387 0.006223 0.030223 0.000000 -0.016655 0.000000
# 4 0.000000 0.000000 0.000000 -1.248459 0.000000 0.511076
# 5 -0.003145 -0.009472 -0.016655 0.000000 0.034716 0.000000
# 6 0.000000 0.000000 0.000000 0.511076 0.000000 -0.197534
#
#
# Mechanical properties :
#
#
# Convention : Reuss Voigt Hill
#
# Bulk Modulus (GPa) = 15.96390 47.24582 31.60486
# Shear Modulus (GPa) = -3.76186 45.47990 20.85902
#
# Velocity S-wave (km/s) = -1.24824 4.34018 2.93930
# Velocity P-wave (km/s) = 2.12945 6.68466 4.96081
#
# Compressibility (1/GPa) = 0.06264134
#
# Stress axis : x y z
#
# Youngs Moduli (GPa) = 136.34095 40.99003 33.08742
#
# Poissons Ratio (x) = 0.06117 0.14514
# Poissons Ratio (y) = 0.20346 -0.20589
# Poissons Ratio (z) = 0.59807 -0.25507
#
# Static dielectric constant tensor:
#      x y z
#    x 1.941550 0.000000 -0.041210 
#    y 0.000000 1.890240 0.000000 
#    z -0.041210 0.000000 2.013730 
# 
# From -- ./inp_files/17998.got.cif
#   From: 2010.05.17/outbox.cif.g08.bks.cpg/sg13_9_cif.got.tgz:17998.got - 2010.06.03 16:44:36.
