data_PCOD9234229
_publ_section_title
;
Structure prediction by ZEFSAII (Michael W. Deem and Ramdas Pophale) SiO2 
 PCOD9234229
Probable space group: P 2/C
;
_chemical_formula_sum "Si O2"
_cell_formula_units_Z 28
_cell_length_a 11.730419
_cell_length_b 10.100709
_cell_length_c 14.180272
_cell_angle_alpha 90.000000
_cell_angle_beta 61.588586
_cell_angle_gamma 90.000000
_cell_volume 1477.788755
_symmetry_space_group_name_H-M "P 2/C"
_symmetry_group_IT_number 13
_symmetry_cell_setting 'monoclinic'
loop_
_space_group_symop_operation_xyz
x,y,z
-x,y,1/2-z
-x,-y,-z
x,-y,1/2+z
loop_
_atom_site_type_symbol
_atom_site_label
_atom_site_fract_x
_atom_site_fract_y
_atom_site_fract_z
Si Si1 0.497751 0.069458 0.863344
Si Si2 0.215927 0.009982 0.670079
Si Si3 0.288507 0.161095 0.467487
Si Si4 0.083299 0.912717 0.899228
Si Si5 0.379585 0.665224 0.502018
Si Si6 0.896566 0.265504 0.366707
Si Si7 0.473209 0.398520 0.372735
O O1 0.500000 0.093211 0.750000
O O2 0.639798 0.032347 0.845987
O O3 0.404913 0.945229 0.919380
O O4 0.437424 0.197308 0.939195
O O5 0.203956 0.117327 0.591473
O O6 0.121110 0.005874 0.796509
O O7 0.180333 0.865163 0.642288
O O8 0.209325 0.139056 0.403068
O O9 0.350959 0.305166 0.445708
O O10 0.992527 0.791091 0.906824
O O11 0.000000 0.000000 0.000000
O O12 0.224582 0.649553 0.552514
O O13 0.445937 0.547822 0.416555
O O14 0.415102 0.651783 0.599146
O O15 0.000000 0.320042 0.250000
O O16 0.500000 0.387747 0.250000
#
# Coordination Sequence:
#
# PCOD9234229 Si02
#       7
#     4   4   4   4   4   4   4
#     4  12  21  35  65  95 122 155 204 260 310 364
#     4  11  21  36  59  95 124 157 200 260 304 356
#     4  12  22  37  63  94 123 157 202 256 311 363
#     4  11  22  37  57  93 127 164 200 252 302 369
#     4  11  23  45  62  89 125 162 205 254 314 369
#     4  10  22  38  63  86 123 167 204 241 302 373
#     4  11  26  41  65  90 126 158 203 262 319 364
#
# _framework density 18.947227000000002
#
# number of rings (size 3 to 8) (size 9 to 14) (size 15 to 20)
#    0.000    0.857    5.714    2.143    4.000    0.000 
#    0.000    0.714    3.143    0.000    0.000    0.000 
#    0.000    0.000    0.000    0.000    0.000    0.000 
#
# Total GULP energy -156215.389382 kJ/mol
# GULP energy per Si atom -5579.121049 kJ/mol
# Density = 1.890410 g / cm^3
# Si number density = 18.947227 Si / 1000 Ang^3
#
#
#
# Elastic Constant Matrix: (Units=GPa)
#
#
# Indices 1 2 3 4 5 6 
#
# 1 72.8811 14.7914 33.5769 0.0000 0.9863 0.0000
# 2 14.7914 50.8007 6.9589 0.0000 -0.8057 0.0000
# 3 33.5769 6.9589 83.0362 0.0000 22.2862 0.0000
# 4 0.0000 0.0000 0.0000 12.6634 0.0000 -3.3291
# 5 0.9863 -0.8057 22.2862 0.0000 31.5854 0.0000
# 6 0.0000 0.0000 0.0000 -3.3291 0.0000 23.1881
#
#
#
# Elastic Compliance Matrix: (Units=1/GPa)
#
#
# Indices 1 2 3 4 5 6 
#
# 1 0.018415 -0.004108 -0.008536 0.000000 0.005343 0.000000
# 2 -0.004108 0.020941 -0.000335 0.000000 0.000899 0.000000
# 3 -0.008536 -0.000335 0.019064 0.000000 -0.013193 0.000000
# 4 0.000000 0.000000 0.000000 0.082065 0.000000 0.011782
# 5 0.005343 0.000899 -0.013193 0.000000 0.040825 0.000000
# 6 0.000000 0.000000 0.000000 0.011782 0.000000 0.044817
#
#
# Mechanical properties :
#
#
# Convention : Reuss Voigt Hill
#
# Bulk Modulus (GPa) = 30.80586 35.26360 33.03473
# Shear Modulus (GPa) = 19.01821 23.58008 21.29914
#
# Velocity S-wave (km/s) = 3.17163 3.53159 3.35644
# Velocity P-wave (km/s) = 5.45036 5.93982 5.70034
#
# Compressibility (1/GPa) = 0.03246136
#
# Stress axis : x y z
#
# Youngs Moduli (GPa) = 54.30343 47.75321 52.45576
#
# Poissons Ratio (x) = 0.19616 0.44777
# Poissons Ratio (y) = 0.22307 0.01758
# Poissons Ratio (z) = 0.46355 0.01601
#
# Static dielectric constant tensor:
#      x y z
#    x 1.693840 0.000000 0.013320 
#    y 0.000000 1.639770 0.000000 
#    z 0.013320 0.000000 1.699800 
# 
# From -- ./inp_files/50254.got.cif
#   From: 2010.05.17/outbox.cif.g08.bks.cpg/sg13_26_cif.got.tgz:50254.got - 2010.06.03 16:44:36.
