data_PCOD9234791
_publ_section_title
;
Structure prediction by ZEFSAII (Michael W. Deem and Ramdas Pophale) SiO2 
 PCOD9234791
Probable space group: P 2/C
;
_chemical_formula_sum "Si O2"
_cell_formula_units_Z 26
_cell_length_a 12.006092
_cell_length_b 12.305956
_cell_length_c 12.040323
_cell_angle_alpha 90.000000
_cell_angle_beta 134.972216
_cell_angle_gamma 90.000000
_cell_volume 1258.492587
_symmetry_space_group_name_H-M "P 2/C"
_symmetry_group_IT_number 13
_symmetry_cell_setting 'monoclinic'
loop_
_space_group_symop_operation_xyz
x,y,z
-x,y,1/2-z
-x,-y,-z
x,-y,1/2+z
loop_
_atom_site_type_symbol
_atom_site_label
_atom_site_fract_x
_atom_site_fract_y
_atom_site_fract_z
Si Si1 0.420116 0.101232 0.386956
Si Si2 0.836583 0.286435 0.775077
Si Si3 0.500000 0.234907 0.250000
Si Si4 0.185803 0.352508 0.999194
Si Si5 0.169342 0.054217 0.611963
Si Si6 0.339278 0.808908 0.061379
Si Si7 0.314246 0.583854 0.137532
O O1 0.530528 0.162167 0.378939
O O2 0.369998 0.174594 0.454283
O O3 0.500000 0.000000 0.500000
O O4 0.282043 0.045753 0.220448
O O5 0.814684 0.315589 0.630376
O O6 0.810152 0.160199 0.792298
O O7 0.725117 0.366270 0.768760
O O8 0.019799 0.312838 0.931163
O O9 0.342408 0.301586 0.163501
O O10 0.209450 0.480958 0.032274
O O11 0.219501 0.103571 0.528308
O O12 0.000000 0.000000 0.500000
O O13 0.500000 0.819554 0.250000
O O14 0.277977 0.687846 0.036093
O O15 0.500000 0.558089 0.250000
#
# Coordination Sequence:
#
# PCOD9234791 Si02
#       7
#     4   4   2   4   4   4   4
#     4  12  23  40  63  92 130 169 213 268 320 382
#     4  10  24  43  66  89 136 171 212 268 329 388
#     4  12  26  38  64 102 128 162 228 268 318 386
#     4  11  23  43  63  98 128 171 211 272 330 380
#     4  11  23  42  64  94 128 172 216 263 325 387
#     4  10  22  41  63  93 127 169 215 261 324 390
#     4  10  22  41  67  94 125 169 218 265 326 391
#
# _framework density 20.659635000000002
#
# number of rings (size 3 to 8) (size 9 to 14) (size 15 to 20)
#    0.000    1.231    2.308    3.231    4.308    4.923 
#    0.000    6.154    0.000    0.000    0.000    0.000 
#    0.000    0.000    0.000    0.000    0.000    0.000 
#
# Total GULP energy -145191.941108 kJ/mol
# GULP energy per Si atom -5584.305427 kJ/mol
# Density = 2.061261 g / cm^3
# Si number density = 20.659635 Si / 1000 Ang^3
#
#
#
# Elastic Constant Matrix: (Units=GPa)
#
#
# Indices 1 2 3 4 5 6 
#
# 1 92.5838 23.0210 4.4103 0.0000 -5.7935 0.0000
# 2 23.0210 89.8105 9.7697 0.0000 -7.0753 0.0000
# 3 4.4103 9.7697 21.3050 0.0000 4.8773 0.0000
# 4 0.0000 0.0000 0.0000 19.6999 0.0000 7.9340
# 5 -5.7935 -7.0753 4.8773 0.0000 47.3418 0.0000
# 6 0.0000 0.0000 0.0000 7.9340 0.0000 35.4245
#
#
#
# Elastic Compliance Matrix: (Units=1/GPa)
#
#
# Indices 1 2 3 4 5 6 
#
# 1 0.011621 -0.002733 -0.001418 0.000000 0.001160 0.000000
# 2 -0.002733 0.012625 -0.005714 0.000000 0.002141 0.000000
# 3 -0.001418 -0.005714 0.051296 0.000000 -0.006312 0.000000
# 4 0.000000 0.000000 0.000000 0.055794 0.000000 -0.012496
# 5 0.001160 0.002141 -0.006312 0.000000 0.022235 0.000000
# 6 0.000000 0.000000 0.000000 -0.012496 0.000000 0.031028
#
#
# Mechanical properties :
#
#
# Convention : Reuss Voigt Hill
#
# Bulk Modulus (GPa) = 17.91708 30.90012 24.40860
# Shear Modulus (GPa) = 22.42820 31.59313 27.01067
#
# Velocity S-wave (km/s) = 3.29843 3.91477 3.61974
# Velocity P-wave (km/s) = 4.81638 5.95173 5.41390
#
# Compressibility (1/GPa) = 0.05581266
#
# Stress axis : x y z
#
# Youngs Moduli (GPa) = 86.05313 79.20548 19.49463
#
# Poissons Ratio (x) = 0.21648 0.02764
# Poissons Ratio (y) = 0.23520 0.11139
# Poissons Ratio (z) = 0.12200 0.45258
#
# Static dielectric constant tensor:
#      x y z
#    x 1.073240 0.000000 -0.458400 
#    y 0.000000 1.688990 0.000000 
#    z -0.458400 0.000000 1.426880 
# 
# From -- ./inp_files/33996.got.cif
#   From: 2010.05.17/outbox.cif.g08.bks.cpg/sg13_17_cif.got.tgz:33996.got - 2010.06.03 16:44:36.
