data_PCOD9234420
_publ_section_title
;
Structure prediction by ZEFSAII (Michael W. Deem and Ramdas Pophale) SiO2 
 PCOD9234420
Probable space group: P 2/C
;
_chemical_formula_sum "Si O2"
_cell_formula_units_Z 26
_cell_length_a 9.040506
_cell_length_b 21.186551
_cell_length_c 8.140815
_cell_angle_alpha 90.000000
_cell_angle_beta 130.601789
_cell_angle_gamma 90.000000
_cell_volume 1183.876098
_symmetry_space_group_name_H-M "P 2/C"
_symmetry_group_IT_number 13
_symmetry_cell_setting 'monoclinic'
loop_
_space_group_symop_operation_xyz
x,y,z
-x,y,1/2-z
-x,-y,-z
x,-y,1/2+z
loop_
_atom_site_type_symbol
_atom_site_label
_atom_site_fract_x
_atom_site_fract_y
_atom_site_fract_z
Si Si1 0.000000 0.717911 0.750000
Si Si2 0.588891 0.418195 0.542811
Si Si3 0.670077 0.830509 0.108538
Si Si4 0.694474 0.698977 0.284726
Si Si5 0.953836 0.929599 0.410319
Si Si6 0.224556 0.821521 0.698788
Si Si7 0.773739 0.517082 0.867214
O O1 0.135324 0.762864 0.733726
O O2 0.870438 0.678477 0.529369
O O3 0.646371 0.345536 0.596196
O O4 0.661828 0.451252 0.760643
O O5 0.363447 0.435096 0.342585
O O6 0.726645 0.452734 0.508881
O O7 0.734911 0.770369 0.260547
O O8 0.745975 0.893973 0.251727
O O9 0.439091 0.832502 0.923638
O O10 0.752471 0.816638 0.983647
O O11 0.500000 0.697985 0.250000
O O12 0.000000 0.928684 0.250000
O O13 0.088720 0.882795 0.613675
O O14 0.000000 0.000000 0.500000
O O15 0.000000 0.500000 0.000000
#
# Coordination Sequence:
#
# PCOD9234420 Si02
#       7
#     2   4   4   4   4   4   4
#     4  12  24  44  68 100 140 188 236 286 354 436
#     4  10  25  44  71 102 142 173 235 294 344 427
#     4  10  22  45  67  96 142 180 227 294 360 415
#     4  12  26  44  68 106 138 182 234 293 359 430
#     4  10  22  39  64  99 136 182 237 291 347 422
#     4  10  22  41  69  94 132 186 230 288 354 419
#     4  10  22  47  72 100 135 187 225 282 357 414
#
# _framework density 21.961759000000001
#
# number of rings (size 3 to 8) (size 9 to 14) (size 15 to 20)
#    0.000    1.538    3.077    0.462    5.385    4.308 
#    5.538    0.000    0.000    0.000    0.000    0.000 
#    0.000    0.000    0.000    0.000    0.000    0.000 
#
# Total GULP energy -145000.873015 kJ/mol
# GULP energy per Si atom -5576.956654 kJ/mol
# Density = 2.191177 g / cm^3
# Si number density = 21.961759 Si / 1000 Ang^3
#
#
#
# Elastic Constant Matrix: (Units=GPa)
#
#
# Indices 1 2 3 4 5 6 
#
# 1 99.5672 14.5869 47.9339 0.0000 19.7863 0.0000
# 2 14.5869 76.1407 38.2306 0.0000 6.3570 0.0000
# 3 47.9339 38.2306 133.8407 0.0000 27.3759 0.0000
# 4 0.0000 0.0000 0.0000 46.7438 0.0000 -7.2169
# 5 19.7863 6.3570 27.3759 0.0000 29.2230 0.0000
# 6 0.0000 0.0000 0.0000 -7.2169 0.0000 4.2609
#
#
#
# Elastic Compliance Matrix: (Units=1/GPa)
#
#
# Indices 1 2 3 4 5 6 
#
# 1 0.012796 -0.000297 -0.003388 0.000000 -0.005425 0.000000
# 2 -0.000297 0.015361 -0.004501 0.000000 0.001077 0.000000
# 3 -0.003388 -0.004501 0.011506 0.000000 -0.007505 0.000000
# 4 0.000000 0.000000 0.000000 0.028968 0.000000 0.049065
# 5 -0.005425 0.001077 -0.007505 0.000000 0.044690 0.000000
# 6 0.000000 0.000000 0.000000 0.049065 0.000000 0.317795
#
#
# Mechanical properties :
#
#
# Convention : Reuss Voigt Hill
#
# Bulk Modulus (GPa) = 42.93841 56.78350 49.86095
# Shear Modulus (GPa) = 10.98289 29.96536 20.47412
#
# Velocity S-wave (km/s) = 2.23870 3.69783 3.05661
# Velocity P-wave (km/s) = 5.12604 6.64407 5.93380
#
# Compressibility (1/GPa) = 0.02328917
#
# Stress axis : x y z
#
# Youngs Moduli (GPa) = 78.14719 65.10058 86.91090
#
# Poissons Ratio (x) = 0.01935 0.29448
# Poissons Ratio (y) = 0.02323 0.39123
# Poissons Ratio (z) = 0.26479 0.29305
#
# Static dielectric constant tensor:
#      x y z
#    x 1.849360 0.000000 -0.043630 
#    y 0.000000 1.820270 0.000000 
#    z -0.043630 0.000000 1.750890 
# 
# From -- ./inp_files/13682.got.cif
#   From: 2010.05.17/outbox.cif.g08.bks.cpg/sg13_7_cif.got.tgz:13682.got - 2010.06.03 16:44:36.
