data_PCOD9234674
_publ_section_title
;
Structure prediction by ZEFSAII (Michael W. Deem and Ramdas Pophale) SiO2 
 PCOD9234674
Probable space group: P 2/C
;
_chemical_formula_sum "Si O2"
_cell_formula_units_Z 24
_cell_length_a 22.989100
_cell_length_b 5.141753
_cell_length_c 21.057925
_cell_angle_alpha 90.000000
_cell_angle_beta 22.127743
_cell_angle_gamma 90.000000
_cell_volume 937.590229
_symmetry_space_group_name_H-M "P 2/C"
_symmetry_group_IT_number 13
_symmetry_cell_setting 'monoclinic'
loop_
_space_group_symop_operation_xyz
x,y,z
-x,y,1/2-z
-x,-y,-z
x,-y,1/2+z
loop_
_atom_site_type_symbol
_atom_site_label
_atom_site_fract_x
_atom_site_fract_y
_atom_site_fract_z
Si Si1 0.000000 0.385164 0.750000
Si Si2 0.753727 0.897226 0.352915
Si Si3 0.500000 0.675158 0.750000
Si Si4 0.087419 0.161991 0.466587
Si Si5 0.748947 0.041718 0.077971
Si Si6 0.250643 0.714017 0.532716
Si Si7 0.336038 0.587204 0.635257
O O1 0.120988 0.208668 0.590264
O O2 0.090837 0.571832 0.706821
O O3 0.685070 0.631500 0.396448
O O4 0.732002 0.027553 0.443803
O O5 0.684458 0.127388 0.376744
O O6 0.936064 0.828214 0.163724
O O7 0.409566 0.838276 0.788115
O O8 0.612144 0.483875 0.598608
O O9 0.216652 0.036240 0.382473
O O10 0.185793 0.399094 0.335356
O O11 0.000000 0.000000 0.500000
O O12 0.753794 0.766589 0.038403
O O13 0.500000 0.500000 0.500000
#
# Coordination Sequence:
#
# PCOD9234674 Si02
#       7
#     2   4   2   4   4   4   4
#     4  10  22  40  68 110 132 184 240 302 380 454
#     4  11  25  45  75 100 150 191 255 316 375 460
#     4  10  26  42  66 110 142 190 238 314 390 472
#     4  10  24  47  72 106 146 199 259 311 377 466
#     4  11  23  44  73 100 148 188 242 312 389 447
#     4  11  24  43  69 107 142 184 247 310 387 449
#     4  11  26  46  70 107 144 202 251 311 380 454
#
# _framework density 25.597536999999999
#
# number of rings (size 3 to 8) (size 9 to 14) (size 15 to 20)
#    0.000    1.333    0.000    4.000    9.333    1.333 
#   15.000    0.000    0.000    0.000    0.000    0.000 
#    0.000    0.000    0.000    0.000    0.000    0.000 
#
# Total GULP energy -134000.635996 kJ/mol
# GULP energy per Si atom -5583.359833 kJ/mol
# Density = 2.553928 g / cm^3
# Si number density = 25.597537 Si / 1000 Ang^3
#
#
#
# Elastic Constant Matrix: (Units=GPa)
#
#
# Indices 1 2 3 4 5 6 
#
# 1 176.8059 48.1175 52.5890 0.0000 -31.6142 0.0000
# 2 48.1175 119.3351 50.6257 0.0000 -5.3490 0.0000
# 3 52.5890 50.6257 145.6090 0.0000 -43.2288 0.0000
# 4 0.0000 0.0000 0.0000 38.7334 0.0000 -9.4893
# 5 -31.6142 -5.3490 -43.2288 0.0000 30.3578 0.0000
# 6 0.0000 0.0000 0.0000 -9.4893 0.0000 40.4398
#
#
#
# Elastic Compliance Matrix: (Units=1/GPa)
#
#
# Indices 1 2 3 4 5 6 
#
# 1 0.007832 -0.003142 0.000902 0.000000 0.008887 0.000000
# 2 -0.003142 0.011636 -0.005671 0.000000 -0.009298 0.000000
# 3 0.000902 -0.005671 0.014718 0.000000 0.020899 0.000000
# 4 0.000000 0.000000 0.000000 0.027392 0.000000 0.006428
# 5 0.008887 -0.009298 0.020899 0.000000 0.070317 0.000000
# 6 0.000000 0.000000 0.000000 0.006428 0.000000 0.026236
#
#
# Mechanical properties :
#
#
# Convention : Reuss Voigt Hill
#
# Bulk Modulus (GPa) = 54.45480 82.71269 68.58374
# Shear Modulus (GPa) = 27.76643 41.26740 34.51691
#
# Velocity S-wave (km/s) = 3.29710 4.01953 3.67610
# Velocity P-wave (km/s) = 5.98449 7.34337 6.69848
#
# Compressibility (1/GPa) = 0.01836386
#
# Stress axis : x y z
#
# Youngs Moduli (GPa) = 127.68431 85.94115 67.94464
#
# Poissons Ratio (x) = 0.27006 -0.06132
# Poissons Ratio (y) = 0.40123 0.38531
# Poissons Ratio (z) = -0.11523 0.48737
#
# Static dielectric constant tensor:
#      x y z
#    x 2.172390 0.000000 0.067620 
#    y 0.000000 2.041710 0.000000 
#    z 0.067620 0.000000 2.163890 
# 
# From -- ./inp_files/88720.got.cif
#   From: 2010.05.17/outbox.cif.g08.bks.cpg/sg13_45_cif.got.tgz:88720.got - 2010.06.03 16:44:36.
