data_PCOD9234012
_publ_section_title
;
Structure prediction by ZEFSAII (Michael W. Deem and Ramdas Pophale) SiO2 
 PCOD9234012
Probable space group: P 2/C
;
_chemical_formula_sum "Si O2"
_cell_formula_units_Z 28
_cell_length_a 26.469895
_cell_length_b 5.005590
_cell_length_c 24.201877
_cell_angle_alpha 90.000000
_cell_angle_beta 155.416878
_cell_angle_gamma 90.000000
_cell_volume 1334.023180
_symmetry_space_group_name_H-M "P 2/C"
_symmetry_group_IT_number 13
_symmetry_cell_setting 'monoclinic'
loop_
_space_group_symop_operation_xyz
x,y,z
-x,y,1/2-z
-x,-y,-z
x,-y,1/2+z
loop_
_atom_site_type_symbol
_atom_site_label
_atom_site_fract_x
_atom_site_fract_y
_atom_site_fract_z
Si Si1 0.176106 0.115848 0.704618
Si Si2 0.744113 0.703316 0.622695
Si Si3 0.861666 0.003330 0.449847
Si Si4 0.408194 0.836962 0.782008
Si Si5 0.507854 0.681148 0.321066
Si Si6 0.414536 0.668790 0.453772
Si Si7 0.982224 0.528333 0.380478
O O1 0.307616 0.200544 0.812409
O O2 0.092835 0.364998 0.639987
O O3 0.210047 0.950581 0.793768
O O4 0.125094 0.947333 0.603078
O O5 0.647916 0.736699 0.478160
O O6 0.663895 0.517945 0.583571
O O7 0.870612 0.566649 0.731579
O O8 0.726496 0.085170 0.333141
O O9 0.948276 0.207043 0.568299
O O10 0.918572 0.706358 0.513163
O O11 0.438657 0.539301 0.790223
O O12 0.442839 0.039974 0.768306
O O13 0.503622 0.866153 0.927992
O O14 0.500000 0.598355 0.250000
O O15 0.500000 0.500000 0.500000
#
# Coordination Sequence:
#
# PCOD9234012 Si02
#       7
#     4   4   4   4   4   4   4
#     4  11  22  37  60  90 133 177 219 248 299 373
#     4  10  22  39  63  89 123 165 213 261 308 380
#     4  12  25  36  62  88 137 173 209 254 295 377
#     4  11  24  42  63  98 127 163 210 263 336 381
#     4  11  24  46  72  95 121 155 211 280 340 390
#     4  10  22  35  58  92 134 171 206 257 316 377
#     4  11  24  40  56  90 130 179 220 242 295 364
#
# _framework density 20.989139999999999
#
# number of rings (size 3 to 8) (size 9 to 14) (size 15 to 20)
#    0.000    1.143    2.857    3.000   10.000    1.143 
#    0.000    0.000    0.000    5.143    0.000    0.000 
#    0.000    0.000    0.000    0.000    0.000    0.000 
#
# Total GULP energy -156123.994558 kJ/mol
# GULP energy per Si atom -5575.856949 kJ/mol
# Density = 2.094137 g / cm^3
# Si number density = 20.989140 Si / 1000 Ang^3
#
#
#
# Elastic Constant Matrix: (Units=GPa)
#
#
# Indices 1 2 3 4 5 6 
#
# 1 42.7134 6.6633 34.9116 0.0000 12.4336 0.0000
# 2 6.6633 90.1951 19.5128 0.0000 13.2063 0.0000
# 3 34.9116 19.5128 91.6933 0.0000 22.9208 0.0000
# 4 0.0000 0.0000 0.0000 37.4228 0.0000 10.9741
# 5 12.4336 13.2063 22.9208 0.0000 36.1149 0.0000
# 6 0.0000 0.0000 0.0000 10.9741 0.0000 29.2150
#
#
#
# Elastic Compliance Matrix: (Units=1/GPa)
#
#
# Indices 1 2 3 4 5 6 
#
# 1 0.034565 0.000735 -0.012213 0.000000 -0.004418 0.000000
# 2 0.000735 0.011955 -0.001982 0.000000 -0.003366 0.000000
# 3 -0.012213 -0.001982 0.017526 0.000000 -0.006194 0.000000
# 4 0.000000 0.000000 0.000000 0.030030 0.000000 -0.011280
# 5 -0.004418 -0.003366 -0.006194 0.000000 0.034372 0.000000
# 6 0.000000 0.000000 0.000000 -0.011280 0.000000 0.038466
#
#
# Mechanical properties :
#
#
# Convention : Reuss Voigt Hill
#
# Bulk Modulus (GPa) = 26.93507 38.53081 32.73294
# Shear Modulus (GPa) = 24.24735 31.45148 27.84941
#
# Velocity S-wave (km/s) = 3.40256 3.87520 3.64655
# Velocity P-wave (km/s) = 5.31952 6.19841 5.77570
#
# Compressibility (1/GPa) = 0.03712631
#
# Stress axis : x y z
#
# Youngs Moduli (GPa) = 28.93093 83.65020 57.05851
#
# Poissons Ratio (x) = -0.06152 0.69683
# Poissons Ratio (y) = -0.02128 0.11312
# Poissons Ratio (z) = 0.35332 0.16583
#
# Static dielectric constant tensor:
#      x y z
#    x 1.732950 0.000000 0.024120 
#    y 0.000000 1.836280 0.000000 
#    z 0.024120 0.000000 1.821030 
# 
# From -- ./inp_files/81962.got.cif
#   From: 2010.05.17/outbox.cif.g08.bks.cpg/sg13_41_cif.got.tgz:81962.got - 2010.06.03 16:44:36.
