data_PCOD9234332
_publ_section_title
;
Structure prediction by ZEFSAII (Michael W. Deem and Ramdas Pophale) SiO2 
 PCOD9234332
Probable space group: P 2/C
;
_chemical_formula_sum "Si O2"
_cell_formula_units_Z 28
_cell_length_a 5.423838
_cell_length_b 8.831169
_cell_length_c 30.728885
_cell_angle_alpha 90.000000
_cell_angle_beta 61.385262
_cell_angle_gamma 90.000000
_cell_volume 1292.102230
_symmetry_space_group_name_H-M "P 2/C"
_symmetry_group_IT_number 13
_symmetry_cell_setting 'monoclinic'
loop_
_space_group_symop_operation_xyz
x,y,z
-x,y,1/2-z
-x,-y,-z
x,-y,1/2+z
loop_
_atom_site_type_symbol
_atom_site_label
_atom_site_fract_x
_atom_site_fract_y
_atom_site_fract_z
Si Si1 0.201454 0.179007 0.616184
Si Si2 0.095440 0.637874 0.042334
Si Si3 0.225444 0.086058 0.951849
Si Si4 0.669097 0.620793 0.691156
Si Si5 0.705671 0.519544 0.352805
Si Si6 0.675310 0.651154 0.943848
Si Si7 0.088160 0.905270 0.876167
O O1 0.062643 0.291212 0.593112
O O2 0.446041 0.097318 0.567482
O O3 0.305934 0.298046 0.642718
O O4 0.014870 0.039444 0.646841
O O5 0.109290 0.458597 0.048062
O O6 0.865300 0.737251 0.037737
O O7 0.395265 0.675321 0.995115
O O8 0.211395 0.998418 0.906667
O O9 0.000000 0.000000 0.000000
O O10 0.500000 0.632718 0.750000
O O11 0.483116 0.531784 0.671438
O O12 0.722128 0.784648 0.664729
O O13 0.971973 0.541998 0.675382
O O14 0.593175 0.442718 0.407154
O O15 0.835737 0.801034 0.916110
#
# Coordination Sequence:
#
# PCOD9234332 Si02
#       7
#     4   4   4   4   4   4   4
#     4  10  22  39  59  91 132 177 215 267 329 398
#     4   9  19  35  53  84 129 174 223 267 308 384
#     4  11  22  33  58  90 133 182 220 267 325 400
#     4  11  25  47  74  99 125 164 224 285 348 407
#     4  10  24  42  72  94 130 170 218 275 340 403
#     4   9  18  37  56  89 125 172 222 268 319 381
#     4  10  23  37  62  90 130 170 213 274 331 397
#
# _framework density 21.670113000000001
#
# number of rings (size 3 to 8) (size 9 to 14) (size 15 to 20)
#    0.000    2.000    0.000    2.143   14.000    2.286 
#    0.000    3.571    3.143    0.000    0.000    0.000 
#    0.000    0.000    0.000    0.000    0.000    0.000 
#
# Total GULP energy -156242.640838 kJ/mol
# GULP energy per Si atom -5580.094316 kJ/mol
# Density = 2.162079 g / cm^3
# Si number density = 21.670113 Si / 1000 Ang^3
#
#
#
# Elastic Constant Matrix: (Units=GPa)
#
#
# Indices 1 2 3 4 5 6 
#
# 1 68.2363 38.9484 28.2657 0.0000 -1.9851 0.0000
# 2 38.9484 151.3126 49.5542 0.0000 4.5731 0.0000
# 3 28.2657 49.5542 98.9377 0.0000 -4.1021 0.0000
# 4 0.0000 0.0000 0.0000 12.3116 0.0000 1.1610
# 5 -1.9851 4.5731 -4.1021 0.0000 24.4022 0.0000
# 6 0.0000 0.0000 0.0000 1.1610 0.0000 29.4641
#
#
#
# Elastic Compliance Matrix: (Units=1/GPa)
#
#
# Indices 1 2 3 4 5 6 
#
# 1 0.018144 -0.003640 -0.003294 0.000000 0.001604 0.000000
# 2 -0.003640 0.008751 -0.003447 0.000000 -0.002516 0.000000
# 3 -0.003294 -0.003447 0.012880 0.000000 0.002543 0.000000
# 4 0.000000 0.000000 0.000000 0.081527 0.000000 -0.003213
# 5 0.001604 -0.002516 0.002543 0.000000 0.042010 0.000000
# 6 0.000000 0.000000 0.000000 -0.003213 0.000000 0.034066
#
#
# Mechanical properties :
#
#
# Convention : Reuss Voigt Hill
#
# Bulk Modulus (GPa) = 52.59664 61.33592 56.96628
# Shear Modulus (GPa) = 22.27394 26.68346 24.47870
#
# Velocity S-wave (km/s) = 3.20951 3.51286 3.36461
# Velocity P-wave (km/s) = 6.16918 6.69473 6.43732
#
# Compressibility (1/GPa) = 0.01901262
#
# Stress axis : x y z
#
# Youngs Moduli (GPa) = 55.11541 114.27521 77.63686
#
# Poissons Ratio (x) = 0.41597 0.25572
# Poissons Ratio (y) = 0.20062 0.26764
# Poissons Ratio (z) = 0.18154 0.39394
#
# Static dielectric constant tensor:
#      x y z
#    x 1.926780 0.000000 0.018760 
#    y 0.000000 1.822410 0.000000 
#    z 0.018760 0.000000 1.768150 
# 
# From -- ./inp_files/94964.got.cif
#   From: 2010.05.17/outbox.cif.g08.bks.cpg/sg13_48_cif.got.tgz:94964.got - 2010.06.03 16:44:36.
