data_PCOD9234361
_publ_section_title
;
Structure prediction by ZEFSAII (Michael W. Deem and Ramdas Pophale) SiO2 
 PCOD9234361
Probable space group: P 2/C
;
_chemical_formula_sum "Si O2"
_cell_formula_units_Z 30
_cell_length_a 6.088632
_cell_length_b 9.162434
_cell_length_c 26.929605
_cell_angle_alpha 90.000000
_cell_angle_beta 83.667591
_cell_angle_gamma 90.000000
_cell_volume 1493.147469
_symmetry_space_group_name_H-M "P 2/C"
_symmetry_group_IT_number 13
_symmetry_cell_setting 'monoclinic'
loop_
_space_group_symop_operation_xyz
x,y,z
-x,y,1/2-z
-x,-y,-z
x,-y,1/2+z
loop_
_atom_site_type_symbol
_atom_site_label
_atom_site_fract_x
_atom_site_fract_y
_atom_site_fract_z
Si Si1 0.819911 0.956796 0.071000
Si Si2 0.855035 0.211973 0.299031
Si Si3 0.500000 0.595982 0.750000
Si Si4 0.791476 0.151014 0.465997
Si Si5 0.759900 0.514116 0.974514
Si Si6 0.914054 0.495437 0.695835
Si Si7 0.609821 0.008805 0.876392
Si Si8 0.863478 0.282964 0.887731
O O1 0.976926 0.833988 0.090017
O O2 0.653009 0.004011 0.118262
O O3 0.719660 0.881946 0.024130
O O4 0.957667 0.094340 0.047260
O O5 0.656607 0.301457 0.278613
O O6 0.755046 0.089322 0.336391
O O7 0.000000 0.149882 0.250000
O O8 0.000908 0.340974 0.320559
O O9 0.651238 0.502273 0.709181
O O10 0.770447 0.320205 0.455321
O O11 0.660437 0.055071 0.429795
O O12 0.778745 0.393622 0.931397
O O13 0.500000 0.500000 0.000000
O O14 0.000000 0.500000 0.000000
O O15 0.000000 0.469888 0.750000
O O16 0.009637 0.376865 0.656571
O O17 0.674224 0.178120 0.870560
#
# Coordination Sequence:
#
# PCOD9234361 Si02
#       8
#     4   4   2   4   4   4   4   4
#     4  10  22  39  61  89 125 164 213 257 321 386
#     4   9  20  39  62  87 116 155 210 260 318 387
#     4   8  18  38  66  86 116 154 206 266 320 382
#     4  10  22  41  61  87 124 168 213 266 312 384
#     4  12  26  44  68  97 131 174 222 275 330 389
#     4   9  20  41  63  90 121 160 211 265 327 389
#     4  11  23  38  62  88 122 174 206 261 325 390
#     4  11  24  40  60  93 131 162 213 268 326 391
#
# _framework density 20.091785999999999
#
# number of rings (size 3 to 8) (size 9 to 14) (size 15 to 20)
#    0.000    2.133    1.333    2.000    1.867    8.000 
#    0.000    0.000    0.000    0.000    0.000    0.000 
#    0.000    0.000    0.000    0.000    0.000    0.000 
#
# Total GULP energy -167147.988533 kJ/mol
# GULP energy per Si atom -5571.599618 kJ/mol
# Density = 2.004606 g / cm^3
# Si number density = 20.091786 Si / 1000 Ang^3
#
#
#
# Elastic Constant Matrix: (Units=GPa)
#
#
# Indices 1 2 3 4 5 6 
#
# 1 71.2894 31.2040 38.6116 0.0000 -34.5964 0.0000
# 2 31.2040 124.8653 50.1470 0.0000 -31.2988 0.0000
# 3 38.6116 50.1470 96.0086 0.0000 -34.5827 0.0000
# 4 0.0000 0.0000 0.0000 33.0504 0.0000 -4.3742
# 5 -34.5964 -31.2988 -34.5827 0.0000 32.8383 0.0000
# 6 0.0000 0.0000 0.0000 -4.3742 0.0000 16.2778
#
#
#
# Elastic Compliance Matrix: (Units=1/GPa)
#
#
# Indices 1 2 3 4 5 6 
#
# 1 0.028821 0.000767 -0.001274 0.000000 0.029753 0.000000
# 2 0.000767 0.011122 -0.003236 0.000000 0.008002 0.000000
# 3 -0.001274 -0.003236 0.017761 0.000000 0.014278 0.000000
# 4 0.000000 0.000000 0.000000 0.031373 0.000000 0.008431
# 5 0.029753 0.008002 0.014278 0.000000 0.084461 0.000000
# 6 0.000000 0.000000 0.000000 0.008431 0.000000 0.063699
#
#
# Mechanical properties :
#
#
# Convention : Reuss Voigt Hill
#
# Bulk Modulus (GPa) = 19.91289 59.12095 39.51692
# Shear Modulus (GPa) = 19.12326 27.91335 23.51830
#
# Velocity S-wave (km/s) = 3.08846 3.73136 3.42503
# Velocity P-wave (km/s) = 4.75927 6.93206 5.94576
#
# Compressibility (1/GPa) = 0.05021872
#
# Stress axis : x y z
#
# Youngs Moduli (GPa) = 34.69731 89.91192 56.30186
#
# Poissons Ratio (x) = -0.06900 0.07175
# Poissons Ratio (y) = -0.02663 0.18217
# Poissons Ratio (z) = 0.04422 0.29092
#
# Static dielectric constant tensor:
#      x y z
#    x 1.841150 0.000000 -0.009400 
#    y 0.000000 1.673960 0.000000 
#    z -0.009400 0.000000 1.695860 
# 
# From -- ./inp_files/95013.got.cif
#   From: 2010.05.17/outbox.cif.g08.bks.cpg/sg13_48_cif.got.tgz:95013.got - 2010.06.03 16:44:36.
