data_PCOD9234287
_publ_section_title
;
Structure prediction by ZEFSAII (Michael W. Deem and Ramdas Pophale) SiO2 
 PCOD9234287
Probable space group: P 2/C
;
_chemical_formula_sum "Si O2"
_cell_formula_units_Z 24
_cell_length_a 15.324260
_cell_length_b 8.481941
_cell_length_c 15.240216
_cell_angle_alpha 90.000000
_cell_angle_beta 141.319939
_cell_angle_gamma 90.000000
_cell_volume 1238.014600
_symmetry_space_group_name_H-M "P 2/C"
_symmetry_group_IT_number 13
_symmetry_cell_setting 'monoclinic'
loop_
_space_group_symop_operation_xyz
x,y,z
-x,y,1/2-z
-x,-y,-z
x,-y,1/2+z
loop_
_atom_site_type_symbol
_atom_site_label
_atom_site_fract_x
_atom_site_fract_y
_atom_site_fract_z
Si Si1 0.471975 0.328670 0.432509
Si Si2 0.195585 0.398544 0.976627
Si Si3 0.500000 0.408657 0.250000
Si Si4 0.000000 0.645730 0.750000
Si Si5 0.232410 0.198153 0.826159
Si Si6 0.815550 0.830042 0.729668
Si Si7 0.015486 0.683715 0.486373
O O1 0.500000 0.500000 0.500000
O O2 0.475528 0.330875 0.327971
O O3 0.605475 0.227484 0.566659
O O4 0.326306 0.255945 0.350573
O O5 0.202370 0.293384 0.893528
O O6 0.076154 0.528405 0.875792
O O7 0.141285 0.296126 0.014892
O O8 0.345804 0.478571 0.111952
O O9 0.876243 0.746885 0.691854
O O10 0.128830 0.267331 0.671955
O O11 0.205762 0.012557 0.807249
O O12 0.936184 0.792666 0.895516
O O13 0.000000 0.500000 0.500000
#
# Coordination Sequence:
#
# PCOD9234287 Si02
#       7
#     4   4   2   2   4   4   4
#     4  11  23  44  70  96 131 180 226 272 331 408
#     4  11  21  41  66  91 127 171 225 265 326 397
#     4  10  22  38  68  96 120 170 224 276 324 388
#     4  12  24  40  66  96 128 180 220 270 320 406
#     4  11  25  41  66  96 135 172 213 281 340 384
#     4  12  25  42  64  98 138 169 220 277 337 389
#     4  12  21  41  66  93 126 174 222 267 317 401
#
# _framework density 19.385877000000001
#
# number of rings (size 3 to 8) (size 9 to 14) (size 15 to 20)
#    0.000    0.667    5.000    4.000    2.333    0.000 
#    0.000    0.000    0.000    1.000    0.000    0.000 
#    0.000    0.000    0.000    0.000    0.000    0.000 
#
# Total GULP energy -133767.823755 kJ/mol
# GULP energy per Si atom -5573.659323 kJ/mol
# Density = 1.934175 g / cm^3
# Si number density = 19.385877 Si / 1000 Ang^3
#
#
#
# Elastic Constant Matrix: (Units=GPa)
#
#
# Indices 1 2 3 4 5 6 
#
# 1 93.6708 23.5002 24.7443 0.0000 6.8068 0.0000
# 2 23.5002 109.0962 36.1119 0.0000 -3.5030 0.0000
# 3 24.7443 36.1119 112.6071 0.0000 13.9977 0.0000
# 4 0.0000 0.0000 0.0000 37.0809 0.0000 -28.0959
# 5 6.8068 -3.5030 13.9977 0.0000 34.5244 0.0000
# 6 0.0000 0.0000 0.0000 -28.0959 0.0000 138.5849
#
#
#
# Elastic Compliance Matrix: (Units=1/GPa)
#
#
# Indices 1 2 3 4 5 6 
#
# 1 0.011769 -0.002029 -0.001708 0.000000 -0.001834 0.000000
# 2 -0.002029 0.010814 -0.003378 0.000000 0.002867 0.000000
# 3 -0.001708 -0.003378 0.010889 0.000000 -0.004421 0.000000
# 4 0.000000 0.000000 0.000000 0.031862 0.000000 0.006460
# 5 -0.001834 0.002867 -0.004421 0.000000 0.031410 0.000000
# 6 0.000000 0.000000 0.000000 0.006460 0.000000 0.008525
#
#
# Mechanical properties :
#
#
# Convention : Reuss Voigt Hill
#
# Bulk Modulus (GPa) = 51.97039 53.78746 52.87892
# Shear Modulus (GPa) = 39.71020 57.43921 48.57470
#
# Velocity S-wave (km/s) = 4.53084 5.44920 5.01110
# Velocity P-wave (km/s) = 7.36464 8.20960 7.79858
#
# Compressibility (1/GPa) = 0.01924173
#
# Stress axis : x y z
#
# Youngs Moduli (GPa) = 84.96896 92.47639 91.83922
#
# Poissons Ratio (x) = 0.18762 0.15682
# Poissons Ratio (y) = 0.17239 0.31027
# Poissons Ratio (z) = 0.14509 0.31242
#
# Static dielectric constant tensor:
#      x y z
#    x 1.799270 0.000000 -0.074580 
#    y 0.000000 1.663290 0.000000 
#    z -0.074580 0.000000 1.714270 
# 
# From -- ./inp_files/53241.got.cif
#   From: 2010.05.17/outbox.cif.g08.bks.cpg/sg13_27_cif.got.tgz:53241.got - 2010.06.03 16:44:36.
