data_PCOD9234558
_publ_section_title
;
Structure prediction by ZEFSAII (Michael W. Deem and Ramdas Pophale) SiO2 
 PCOD9234558
Probable space group: P 2/C
;
_chemical_formula_sum "Si O2"
_cell_formula_units_Z 16
_cell_length_a 18.844373
_cell_length_b 4.735670
_cell_length_c 15.190450
_cell_angle_alpha 90.000000
_cell_angle_beta 23.902389
_cell_angle_gamma 90.000000
_cell_volume 549.264397
_symmetry_space_group_name_H-M "P 2/C"
_symmetry_group_IT_number 13
_symmetry_cell_setting 'monoclinic'
loop_
_space_group_symop_operation_xyz
x,y,z
-x,y,1/2-z
-x,-y,-z
x,-y,1/2+z
loop_
_atom_site_type_symbol
_atom_site_label
_atom_site_fract_x
_atom_site_fract_y
_atom_site_fract_z
Si Si1 0.706967 0.147863 0.166684
Si Si2 0.681245 0.282606 0.841326
Si Si3 0.230169 0.740494 0.646408
Si Si4 0.500000 0.665732 0.750000
Si Si5 0.000000 0.471375 0.250000
O O1 0.534186 0.279537 0.412077
O O2 0.737145 0.951401 0.352049
O O3 0.625031 0.130307 0.162420
O O4 0.734898 0.861337 0.187881
O O5 0.799064 0.554425 0.731053
O O6 0.602137 0.553653 0.072629
O O7 0.106364 0.707945 0.702294
O O8 0.124550 0.330189 0.548778
#
# Coordination Sequence:
#
# PCOD9234558 Si02
#       5
#     4   4   4   2   2
#     4   9  20  39  64  93 128 170 215 265 321 385
#     4  10  22  41  65  90 126 174 218 256 317 397
#     4  10  22  40  63  92 127 169 215 264 319 383
#     4   8  18  36  58  86 122 164 210 256 314 384
#     4  10  22  42  66 100 136 168 214 278 332 374
#
# _framework density 29.129871000000001
#
# number of rings (size 3 to 8) (size 9 to 14) (size 15 to 20)
#    0.000    2.500    0.000    0.000    0.000   18.000 
#    0.000   12.500    0.000    0.000    0.000    0.000 
#    0.000    0.000    0.000    0.000    0.000    0.000 
#
# Total GULP energy -89538.454900 kJ/mol
# GULP energy per Si atom -5596.153431 kJ/mol
# Density = 2.906357 g / cm^3
# Si number density = 29.129871 Si / 1000 Ang^3
#
#
#
# Elastic Constant Matrix: (Units=GPa)
#
#
# Indices 1 2 3 4 5 6 
#
# 1 96.6499 -6.7440 13.6173 0.0000 -4.4395 0.0000
# 2 -6.7440 135.3201 40.9039 0.0000 -16.5696 0.0000
# 3 13.6173 40.9039 148.7270 0.0000 -3.8314 0.0000
# 4 0.0000 0.0000 0.0000 49.1126 0.0000 -2.7819
# 5 -4.4395 -16.5696 -3.8314 0.0000 46.4778 0.0000
# 6 0.0000 0.0000 0.0000 -2.7819 0.0000 10.7885
#
#
#
# Elastic Compliance Matrix: (Units=1/GPa)
#
#
# Indices 1 2 3 4 5 6 
#
# 1 0.010654 0.001063 -0.001234 0.000000 0.001295 0.000000
# 2 0.001063 0.008518 -0.002364 0.000000 0.002943 0.000000
# 3 -0.001234 -0.002364 0.007478 0.000000 -0.000344 0.000000
# 4 0.000000 0.000000 0.000000 0.020663 0.000000 0.005328
# 5 0.001295 0.002943 -0.000344 0.000000 0.022660 0.000000
# 6 0.000000 0.000000 0.000000 0.005328 0.000000 0.094065
#
#
# Mechanical properties :
#
#
# Convention : Reuss Voigt Hill
#
# Bulk Modulus (GPa) = 46.34270 52.91683 49.62976
# Shear Modulus (GPa) = 28.36029 43.47044 35.91536
#
# Velocity S-wave (km/s) = 3.12361 3.86722 3.51513
# Velocity P-wave (km/s) = 5.38078 6.17623 5.79217
#
# Compressibility (1/GPa) = 0.02157837
#
# Stress axis : x y z
#
# Youngs Moduli (GPa) = 93.86005 117.40049 133.72433
#
# Poissons Ratio (x) = -0.12475 0.16507
# Poissons Ratio (y) = -0.09974 0.31614
# Poissons Ratio (z) = 0.11586 0.27755
#
# Static dielectric constant tensor:
#      x y z
#    x 2.395950 0.000000 0.145000 
#    y 0.000000 2.289660 0.000000 
#    z 0.145000 0.000000 2.447880 
# 
# From -- ./inp_files/35104.got.cif
#   From: 2010.05.17/outbox.cif.g08.bks.cpg/sg13_18_cif.got.tgz:35104.got - 2010.06.03 16:44:36.
