data_PCOD9234481
_publ_section_title
;
Structure prediction by ZEFSAII (Michael W. Deem and Ramdas Pophale) SiO2 
 PCOD9234481
Probable space group: P 2/C
;
_chemical_formula_sum "Si O2"
_cell_formula_units_Z 28
_cell_length_a 12.870512
_cell_length_b 8.950538
_cell_length_c 12.541362
_cell_angle_alpha 90.000000
_cell_angle_beta 115.919733
_cell_angle_gamma 90.000000
_cell_volume 1299.409600
_symmetry_space_group_name_H-M "P 2/C"
_symmetry_group_IT_number 13
_symmetry_cell_setting 'monoclinic'
loop_
_space_group_symop_operation_xyz
x,y,z
-x,y,1/2-z
-x,-y,-z
x,-y,1/2+z
loop_
_atom_site_type_symbol
_atom_site_label
_atom_site_fract_x
_atom_site_fract_y
_atom_site_fract_z
Si Si1 0.705363 0.685848 0.547571
Si Si2 0.624972 0.844537 0.292649
Si Si3 0.126319 0.424529 0.542659
Si Si4 0.797138 0.938068 0.739460
Si Si5 0.694475 0.573662 0.192163
Si Si6 0.034168 0.830307 0.524723
Si Si7 0.876488 0.227588 0.655490
O O1 0.656957 0.763856 0.418564
O O2 0.815554 0.593479 0.547213
O O3 0.727963 0.827187 0.632848
O O4 0.646560 0.562135 0.599313
O O5 0.500000 0.918345 0.250000
O O6 0.613663 0.700652 0.208172
O O7 0.716516 0.965656 0.285767
O O8 0.219734 0.477716 0.671818
O O9 0.000000 0.500000 0.500000
O O10 0.085530 0.255084 0.545108
O O11 0.892720 0.829482 0.835385
O O12 0.860485 0.063112 0.697047
O O13 0.775145 0.672927 0.153073
O O14 0.118588 0.780070 0.468727
O O15 0.000000 0.000000 0.500000
O O16 0.000000 0.287634 0.750000
#
# Coordination Sequence:
#
# PCOD9234481 Si02
#       7
#     4   4   4   4   4   4   4
#     4  11  24  40  62  95 127 161 214 262 314 381
#     4  10  24  48  68  87 120 159 211 279 332 376
#     4  11  22  34  54  87 130 169 194 236 290 360
#     4  11  23  38  60  91 125 163 211 263 312 374
#     4  10  22  40  58  89 124 161 210 248 306 376
#     4  12  20  31  52  83 121 164 208 235 281 359
#     4  11  19  34  55  79 125 172 205 242 296 361
#
# _framework density 21.548248000000001
#
# number of rings (size 3 to 8) (size 9 to 14) (size 15 to 20)
#    0.000    1.143    2.857    5.143    0.000    3.429 
#    0.000    0.714    0.000    0.000    0.000    0.000 
#    0.000    0.000    0.000    0.000    0.000    0.000 
#
# Total GULP energy -156042.617655 kJ/mol
# GULP energy per Si atom -5572.950631 kJ/mol
# Density = 2.149920 g / cm^3
# Si number density = 21.548248 Si / 1000 Ang^3
#
#
#
# Elastic Constant Matrix: (Units=GPa)
#
#
# Indices 1 2 3 4 5 6 
#
# 1 52.0913 7.1903 12.0341 0.0000 0.5914 0.0000
# 2 7.1903 62.7955 33.5620 0.0000 -10.5434 0.0000
# 3 12.0341 33.5620 67.4274 0.0000 -26.1112 0.0000
# 4 0.0000 0.0000 0.0000 34.2247 0.0000 -10.5270
# 5 0.5914 -10.5434 -26.1112 0.0000 19.7892 0.0000
# 6 0.0000 0.0000 0.0000 -10.5270 0.0000 20.5673
#
#
#
# Elastic Compliance Matrix: (Units=1/GPa)
#
#
# Indices 1 2 3 4 5 6 
#
# 1 0.021234 0.000061 -0.008288 0.000000 -0.011538 0.000000
# 2 0.000061 0.021994 -0.013130 0.000000 -0.005609 0.000000
# 3 -0.008288 -0.013130 0.041372 0.000000 0.047841 0.000000
# 4 0.000000 0.000000 0.000000 0.034678 0.000000 0.017749
# 5 -0.011538 -0.005609 0.047841 0.000000 0.111013 0.000000
# 6 0.000000 0.000000 0.000000 0.017749 0.000000 0.057706
#
#
# Mechanical properties :
#
#
# Convention : Reuss Voigt Hill
#
# Bulk Modulus (GPa) = 23.87494 31.98743 27.93118
# Shear Modulus (GPa) = 14.50649 23.55143 19.02896
#
# Velocity S-wave (km/s) = 2.59744 3.30959 2.97490
# Velocity P-wave (km/s) = 4.48324 5.42966 4.97899
#
# Compressibility (1/GPa) = 0.04188492
#
# Stress axis : x y z
#
# Youngs Moduli (GPa) = 47.09339 45.46770 24.17104
#
# Poissons Ratio (x) = -0.00278 0.20034
# Poissons Ratio (y) = -0.00288 0.31737
# Poissons Ratio (z) = 0.39033 0.59700
#
# Static dielectric constant tensor:
#      x y z
#    x 1.819810 0.000000 -0.002040 
#    y 0.000000 1.854520 0.000000 
#    z -0.002040 0.000000 1.871740 
# 
# From -- ./inp_files/36506.got.cif
#   From: 2010.05.17/outbox.cif.g08.bks.cpg/sg13_19_cif.got.tgz:36506.got - 2010.06.03 16:44:36.
