data_PCOD9234541
_publ_section_title
;
Structure prediction by ZEFSAII (Michael W. Deem and Ramdas Pophale) SiO2 
 PCOD9234541
Probable space group: P 2/C
;
_chemical_formula_sum "Si O2"
_cell_formula_units_Z 26
_cell_length_a 8.734273
_cell_length_b 9.431464
_cell_length_c 12.669573
_cell_angle_alpha 90.000000
_cell_angle_beta 80.706262
_cell_angle_gamma 90.000000
_cell_volume 1029.981165
_symmetry_space_group_name_H-M "P 2/C"
_symmetry_group_IT_number 13
_symmetry_cell_setting 'monoclinic'
loop_
_space_group_symop_operation_xyz
x,y,z
-x,y,1/2-z
-x,-y,-z
x,-y,1/2+z
loop_
_atom_site_type_symbol
_atom_site_label
_atom_site_fract_x
_atom_site_fract_y
_atom_site_fract_z
Si Si1 0.500000 0.938377 0.250000
Si Si2 0.722038 0.697848 0.316556
Si Si3 0.635389 0.699537 0.921043
Si Si4 0.968121 0.109141 0.864625
Si Si5 0.727762 0.044824 0.546893
Si Si6 0.831029 0.410500 0.222797
Si Si7 0.676707 0.576562 0.543022
O O1 0.624897 0.829719 0.285809
O O2 0.397008 0.014560 0.352998
O O3 0.890884 0.746773 0.334416
O O4 0.736680 0.559597 0.242449
O O5 0.649643 0.651097 0.434249
O O6 0.754544 0.701942 0.810533
O O7 0.481739 0.630218 0.886844
O O8 0.635035 0.847392 0.982069
O O9 0.691783 0.585038 0.003144
O O10 0.000000 0.026098 0.750000
O O11 0.132931 0.121371 0.903344
O O12 0.834673 0.049717 0.957437
O O13 0.816427 0.373540 0.101461
O O14 0.000000 0.433447 0.250000
#
# Coordination Sequence:
#
# PCOD9234541 Si02
#       7
#     2   4   4   4   4   4   4
#     4  12  22  44  74 102 132 190 236 294 350 424
#     4  11  24  41  71  98 139 183 237 291 353 433
#     4  10  22  41  65  93 136 177 227 290 350 424
#     4  11  25  47  71 102 141 186 235 298 360 424
#     4  11  25  45  73 101 135 189 241 296 352 426
#     4  11  25  37  63 101 139 184 225 289 358 432
#     4  10  22  40  63 100 134 180 228 289 350 425
#
# _framework density 25.243179999999999
#
# number of rings (size 3 to 8) (size 9 to 14) (size 15 to 20)
#    0.000    1.231    3.077    1.846    8.615    2.462 
#    2.769    0.000    0.000    0.000    0.000    0.000 
#    0.000    0.000    0.000    0.000    0.000    0.000 
#
# Total GULP energy -145152.792585 kJ/mol
# GULP energy per Si atom -5582.799715 kJ/mol
# Density = 2.518573 g / cm^3
# Si number density = 25.243180 Si / 1000 Ang^3
#
#
#
# Elastic Constant Matrix: (Units=GPa)
#
#
# Indices 1 2 3 4 5 6 
#
# 1 46.0517 7.1131 16.8168 0.0000 -3.3885 0.0000
# 2 7.1131 29.6163 17.0448 0.0000 -5.5333 0.0000
# 3 16.8168 17.0448 113.1148 0.0000 -6.1598 0.0000
# 4 0.0000 0.0000 0.0000 12.3105 0.0000 -3.2465
# 5 -3.3885 -5.5333 -6.1598 0.0000 65.3436 0.0000
# 6 0.0000 0.0000 0.0000 -3.2465 0.0000 26.1216
#
#
#
# Elastic Compliance Matrix: (Units=1/GPa)
#
#
# Indices 1 2 3 4 5 6 
#
# 1 0.023402 -0.003857 -0.002864 0.000000 0.000617 0.000000
# 2 -0.003857 0.038058 -0.005023 0.000000 0.002549 0.000000
# 3 -0.002864 -0.005023 0.010044 0.000000 0.000373 0.000000
# 4 0.000000 0.000000 0.000000 0.083984 0.000000 0.010438
# 5 0.000617 0.002549 0.000373 0.000000 0.015587 0.000000
# 6 0.000000 0.000000 0.000000 0.010438 0.000000 0.039580
#
#
# Mechanical properties :
#
#
# Convention : Reuss Voigt Hill
#
# Bulk Modulus (GPa) = 20.82632 30.08135 25.45384
# Shear Modulus (GPa) = 19.98819 30.60901 25.29860
#
# Velocity S-wave (km/s) = 2.81699 3.48597 3.16918
# Velocity P-wave (km/s) = 4.34152 5.30520 4.84737
#
# Compressibility (1/GPa) = 0.04801616
#
# Stress axis : x y z
#
# Youngs Moduli (GPa) = 42.73172 26.27541 99.56613
#
# Poissons Ratio (x) = 0.10134 0.28520
# Poissons Ratio (y) = 0.16481 0.50009
# Poissons Ratio (z) = 0.12240 0.13197
#
# Static dielectric constant tensor:
#      x y z
#    x 2.035120 0.000000 -0.118730 
#    y 0.000000 2.047060 0.000000 
#    z -0.118730 0.000000 2.190660 
# 
# From -- ./inp_files/29500.got.cif
#   From: 2010.05.17/outbox.cif.g08.bks.cpg/sg13_15_cif.got.tgz:29500.got - 2010.06.03 16:44:36.
