data_PCOD9234191
_publ_section_title
;
Structure prediction by ZEFSAII (Michael W. Deem and Ramdas Pophale) SiO2 
 PCOD9234191
Probable space group: P 2/C
;
_chemical_formula_sum "Si O2"
_cell_formula_units_Z 20
_cell_length_a 13.314034
_cell_length_b 7.488041
_cell_length_c 23.586042
_cell_angle_alpha 90.000000
_cell_angle_beta 157.364913
_cell_angle_gamma 90.000000
_cell_volume 904.974634
_symmetry_space_group_name_H-M "P 2/C"
_symmetry_group_IT_number 13
_symmetry_cell_setting 'monoclinic'
loop_
_space_group_symop_operation_xyz
x,y,z
-x,y,1/2-z
-x,-y,-z
x,-y,1/2+z
loop_
_atom_site_type_symbol
_atom_site_label
_atom_site_fract_x
_atom_site_fract_y
_atom_site_fract_z
Si Si1 0.540708 0.293219 0.204878
Si Si2 0.912516 0.182216 0.983292
Si Si3 0.576627 0.703674 0.212559
Si Si4 0.734597 0.345280 0.675940
Si Si5 0.336728 0.323681 0.983809
O O1 0.500000 0.238880 0.250000
O O2 0.466891 0.502654 0.161335
O O3 0.849633 0.264549 0.358458
O O4 0.403186 0.217818 0.076327
O O5 0.650989 0.168486 0.883869
O O6 0.822116 0.298699 0.882535
O O7 0.000000 0.000000 0.000000
O O8 0.668739 0.758748 0.198827
O O9 0.673089 0.243823 0.585127
O O10 0.552662 0.520489 0.588132
O O11 0.040374 0.395195 0.836337
#
# Coordination Sequence:
#
# PCOD9234191 Si02
#       5
#     4   4   4   4   4
#     4  11  21  34  63  89 122 154 205 253 307 367
#     4  11  24  39  56  90 128 160 205 255 317 372
#     4  10  22  38  60  88 118 162 210 258 303 376
#     4   9  18  34  54  87 126 159 198 258 305 366
#     4   9  19  31  55  90 124 159 199 254 314 356
#
# _framework density 22.100066000000002
#
# number of rings (size 3 to 8) (size 9 to 14) (size 15 to 20)
#    0.000    2.000    2.000    1.800   14.000    0.000 
#    0.000    0.000    0.000    1.200    5.200    0.000 
#    0.000    0.000    0.000    0.000    0.000    0.000 
#
# Total GULP energy -111371.129041 kJ/mol
# GULP energy per Si atom -5568.556452 kJ/mol
# Density = 2.204977 g / cm^3
# Si number density = 22.100066 Si / 1000 Ang^3
#
#
#
# Elastic Constant Matrix: (Units=GPa)
#
#
# Indices 1 2 3 4 5 6 
#
# 1 173.9501 9.6261 78.2081 0.0000 -28.8175 0.0000
# 2 9.6261 30.8963 4.1192 0.0000 8.7761 0.0000
# 3 78.2081 4.1192 156.7420 0.0000 -16.6787 0.0000
# 4 0.0000 0.0000 0.0000 8.6355 0.0000 8.4770
# 5 -28.8175 8.7761 -16.6787 0.0000 51.1317 0.0000
# 6 0.0000 0.0000 0.0000 8.4770 0.0000 14.8131
#
#
#
# Elastic Compliance Matrix: (Units=1/GPa)
#
#
# Indices 1 2 3 4 5 6 
#
# 1 0.008200 -0.003215 -0.003581 0.000000 0.004005 0.000000
# 2 -0.003215 0.035663 -0.000183 0.000000 -0.007993 0.000000
# 3 -0.003581 -0.000183 0.008246 0.000000 0.000703 0.000000
# 4 0.000000 0.000000 0.000000 0.264238 0.000000 -0.151214
# 5 0.004005 -0.007993 0.000703 0.000000 0.023416 0.000000
# 6 0.000000 0.000000 0.000000 -0.151214 0.000000 0.154042
#
#
# Mechanical properties :
#
#
# Convention : Reuss Voigt Hill
#
# Bulk Modulus (GPa) = 26.21208 60.61057 43.41133
# Shear Modulus (GPa) = 9.60649 32.89173 21.24911
#
# Velocity S-wave (km/s) = 2.08716 3.86205 3.10416
# Velocity P-wave (km/s) = 4.20651 6.88275 5.70381
#
# Compressibility (1/GPa) = 0.03815034
#
# Stress axis : x y z
#
# Youngs Moduli (GPa) = 121.94785 28.04028 121.26681
#
# Poissons Ratio (x) = 0.09016 0.43424
# Poissons Ratio (y) = 0.39209 0.02225
# Poissons Ratio (z) = 0.43668 0.00514
#
# Static dielectric constant tensor:
#      x y z
#    x 1.899020 0.000000 -0.048830 
#    y 0.000000 1.841160 0.000000 
#    z -0.048830 0.000000 1.902330 
# 
# From -- ./inp_files/41436.got.cif
#   From: 2010.05.17/outbox.cif.g08.bks.cpg/sg13_21_cif.got.tgz:41436.got - 2010.06.03 16:44:36.
