data_PCOD9234093
_publ_section_title
;
Structure prediction by ZEFSAII (Michael W. Deem and Ramdas Pophale) SiO2 
 PCOD9234093
Probable space group: P 2/C
;
_chemical_formula_sum "Si O2"
_cell_formula_units_Z 32
_cell_length_a 23.192348
_cell_length_b 10.708994
_cell_length_c 22.141000
_cell_angle_alpha 90.000000
_cell_angle_beta 18.018890
_cell_angle_gamma 90.000000
_cell_volume 1701.035657
_symmetry_space_group_name_H-M "P 2/C"
_symmetry_group_IT_number 13
_symmetry_cell_setting 'monoclinic'
loop_
_space_group_symop_operation_xyz
x,y,z
-x,y,1/2-z
-x,-y,-z
x,-y,1/2+z
loop_
_atom_site_type_symbol
_atom_site_label
_atom_site_fract_x
_atom_site_fract_y
_atom_site_fract_z
Si Si1 0.754551 0.757186 0.432071
Si Si2 0.525852 0.523716 0.792865
Si Si3 0.548027 0.600358 0.004801
Si Si4 0.783958 0.034979 0.812767
Si Si5 0.180126 0.281651 0.496043
Si Si6 0.148218 0.214682 0.304839
Si Si7 0.777743 0.087715 0.141281
Si Si8 0.286761 0.837575 0.245351
O O1 0.610176 0.644724 0.568019
O O2 0.708843 0.884970 0.443224
O O3 0.779891 0.775458 0.478109
O O4 0.959158 0.714656 0.205023
O O5 0.500000 0.470694 0.750000
O O6 0.490214 0.445320 0.888767
O O7 0.732352 0.581560 0.591459
O O8 0.423984 0.722769 0.115150
O O9 0.500000 0.500000 0.000000
O O10 0.760763 0.649931 0.790586
O O11 0.714130 0.104029 0.821274
O O12 0.008908 0.051932 0.586841
O O13 0.767799 0.885319 0.826607
O O14 0.278153 0.191696 0.350478
O O15 0.212540 0.154244 0.303975
O O16 0.923936 0.208632 0.529836
O O17 0.670386 0.957398 0.254889
#
# Coordination Sequence:
#
# PCOD9234093 Si02
#       8
#     4   4   4   4   4   4   4   4
#     4   9  17  31  53  76  96 124 163 205 247 291
#     4  10  22  37  49  69 103 136 168 205 243 285
#     4  12  24  34  51  76  97 132 182 209 228 283
#     4   8  15  31  53  76 101 124 152 199 258 307
#     4   9  17  31  53  76  96 124 163 205 247 291
#     4   9  19  34  51  74 103 129 156 201 255 296
#     4   8  15  31  53  76 101 124 152 199 258 307
#     4   9  19  34  51  74 103 129 156 201 255 296
#
# _framework density 18.812068
#
# number of rings (size 3 to 8) (size 9 to 14) (size 15 to 20)
#    0.000    2.750    0.000    3.000    0.000    4.500 
#    0.000    1.250    0.000    1.500    0.000    0.000 
#    0.000    0.000    0.000    0.000    0.000    0.000 
#
# Total GULP energy -178332.618024 kJ/mol
# GULP energy per Si atom -5572.894313 kJ/mol
# Density = 1.876925 g / cm^3
# Si number density = 18.812068 Si / 1000 Ang^3
#
#
#
# Elastic Constant Matrix: (Units=GPa)
#
#
# Indices 1 2 3 4 5 6 
#
# 1 26.3952 3.6699 0.5452 0.0000 2.7544 0.0000
# 2 3.6699 27.2661 -1.6953 0.0000 -0.1471 0.0000
# 3 0.5452 -1.6953 49.1623 0.0000 -5.4430 0.0000
# 4 0.0000 0.0000 0.0000 30.5734 0.0000 2.1607
# 5 2.7544 -0.1471 -5.4430 0.0000 20.8081 0.0000
# 6 0.0000 0.0000 0.0000 2.1607 0.0000 24.2876
#
#
#
# Elastic Compliance Matrix: (Units=1/GPa)
#
#
# Indices 1 2 3 4 5 6 
#
# 1 0.039240 -0.005388 -0.001236 0.000000 -0.005556 0.000000
# 2 -0.005388 0.037502 0.001505 0.000000 0.001372 0.000000
# 3 -0.001236 0.001505 0.021035 0.000000 0.005677 0.000000
# 4 0.000000 0.000000 0.000000 0.032915 0.000000 -0.002928
# 5 -0.005556 0.001372 0.005677 0.000000 0.050288 0.000000
# 6 0.000000 0.000000 0.000000 -0.002928 0.000000 0.041434
#
#
# Mechanical properties :
#
#
# Convention : Reuss Voigt Hill
#
# Bulk Modulus (GPa) = 11.42368 11.98481 11.70424
# Shear Modulus (GPa) = 19.09618 21.82072 20.45845
#
# Velocity S-wave (km/s) = 3.18952 3.40947 3.30133
# Velocity P-wave (km/s) = 4.43281 4.67803 4.55707
#
# Compressibility (1/GPa) = 0.08753750
#
# Stress axis : x y z
#
# Youngs Moduli (GPa) = 25.48414 26.66537 47.54007
#
# Poissons Ratio (x) = 0.14368 0.05876
# Poissons Ratio (y) = 0.13732 -0.07154
# Poissons Ratio (z) = 0.03150 -0.04013
#
# Static dielectric constant tensor:
#      x y z
#    x 1.663450 0.000000 -0.018740 
#    y 0.000000 1.641850 0.000000 
#    z -0.018740 0.000000 1.752070 
# 
# From -- ./inp_files/88925.got.cif
#   From: 2010.05.17/outbox.cif.g08.bks.cpg/sg13_45_cif.got.tgz:88925.got - 2010.06.03 16:44:36.
