data_PCOD9234825
_publ_section_title
;
Structure prediction by ZEFSAII (Michael W. Deem and Ramdas Pophale) SiO2 
 PCOD9234825
Probable space group: P 2/C
;
_chemical_formula_sum "Si O2"
_cell_formula_units_Z 28
_cell_length_a 25.207853
_cell_length_b 9.249855
_cell_length_c 9.849966
_cell_angle_alpha 90.000000
_cell_angle_beta 140.726236
_cell_angle_gamma 90.000000
_cell_volume 1453.876036
_symmetry_space_group_name_H-M "P 2/C"
_symmetry_group_IT_number 13
_symmetry_cell_setting 'monoclinic'
loop_
_space_group_symop_operation_xyz
x,y,z
-x,y,1/2-z
-x,-y,-z
x,-y,1/2+z
loop_
_atom_site_type_symbol
_atom_site_label
_atom_site_fract_x
_atom_site_fract_y
_atom_site_fract_z
Si Si1 0.164282 0.169996 0.377363
Si Si2 0.504703 0.362431 0.603183
Si Si3 0.346405 0.141587 0.605055
Si Si4 0.833230 0.830096 0.106661
Si Si5 0.092537 0.664475 0.493658
Si Si6 0.095503 0.675057 0.994104
Si Si7 0.356472 0.133036 0.301414
O O1 0.254893 0.177038 0.484371
O O2 0.156424 0.254668 0.502665
O O3 0.145944 0.000416 0.363804
O O4 0.100851 0.249315 0.149772
O O5 0.500000 0.409069 0.750000
O O6 0.500000 0.500000 0.500000
O O7 0.590516 0.274386 0.754183
O O8 0.427552 0.252929 0.426946
O O9 0.344124 0.103824 0.439201
O O10 0.379491 0.008966 0.761635
O O11 0.849910 0.744561 0.001597
O O12 0.887308 0.758693 0.332663
O O13 0.733801 0.819627 0.935970
O O14 0.112944 0.495142 0.549767
O O15 0.000000 0.672812 0.250000
O O16 0.000000 0.690482 0.750000
#
# Coordination Sequence:
#
# PCOD9234825 Si02
#       7
#     4   4   4   4   4   4   4
#     4  11  23  40  63  92 123 159 213 260 311 368
#     4  10  23  42  62  96 132 164 207 250 300 366
#     4  10  22  41  65  92 124 162 205 253 310 368
#     4  11  23  40  63  92 123 159 213 260 311 368
#     4  11  23  41  61  86 125 164 203 259 316 379
#     4  11  25  41  61  90 123 168 211 255 320 381
#     4  10  22  41  65  92 124 162 205 253 310 368
#
# _framework density 19.258863000000002
#
# number of rings (size 3 to 8) (size 9 to 14) (size 15 to 20)
#    0.000    1.429    1.429    3.000    6.000    9.143 
#    0.000    0.000    0.000    0.000    0.000    0.000 
#    0.000    0.000    0.000    0.000    0.000    0.000 
#
# Total GULP energy -156468.320506 kJ/mol
# GULP energy per Si atom -5588.154304 kJ/mol
# Density = 1.921503 g / cm^3
# Si number density = 19.258863 Si / 1000 Ang^3
#
#
#
# Elastic Constant Matrix: (Units=GPa)
#
#
# Indices 1 2 3 4 5 6 
#
# 1 68.4691 39.0479 9.6991 0.0000 -5.8007 0.0000
# 2 39.0479 112.0509 46.7236 0.0000 2.6380 0.0000
# 3 9.6991 46.7236 76.5487 0.0000 -9.0258 0.0000
# 4 0.0000 0.0000 0.0000 914.3970 0.0000 -4.8747
# 5 -5.8007 2.6380 -9.0258 0.0000 18.2908 0.0000
# 6 0.0000 0.0000 0.0000 -4.8747 0.0000 11.8823
#
#
#
# Elastic Compliance Matrix: (Units=1/GPa)
#
#
# Indices 1 2 3 4 5 6 
#
# 1 0.019875 -0.008813 0.003986 0.000000 0.009541 0.000000
# 2 -0.008813 0.016458 -0.010128 0.000000 -0.010166 0.000000
# 3 0.003986 -0.010128 0.020239 0.000000 0.012712 0.000000
# 4 0.000000 0.000000 0.000000 0.001096 0.000000 0.000450
# 5 0.009541 -0.010166 0.012712 0.000000 0.065437 0.000000
# 6 0.000000 0.000000 0.000000 0.000450 0.000000 0.084344
#
#
# Mechanical properties :
#
#
# Convention : Reuss Voigt Hill
#
# Bulk Modulus (GPa) = 37.50560 49.77888 43.64224
# Shear Modulus (GPa) = 20.30500 199.68722 109.99611
#
# Velocity S-wave (km/s) = 3.25055 10.19367 7.56561
# Velocity P-wave (km/s) = 5.79697 12.82386 9.95129
#
# Compressibility (1/GPa) = 0.02666269
#
# Stress axis : x y z
#
# Youngs Moduli (GPa) = 50.31542 60.76096 49.40939
#
# Poissons Ratio (x) = 0.53546 -0.19693
# Poissons Ratio (y) = 0.44341 0.50040
# Poissons Ratio (z) = -0.20054 0.61536
#
# Static dielectric constant tensor:
#      x y z
#    x 1.725230 0.000000 -0.005260 
#    y 0.000000 1.640790 0.000000 
#    z -0.005260 0.000000 1.684910 
# 
# From -- ./inp_files/24472.got.cif
#   From: 2010.05.17/outbox.cif.g08.bks.cpg/sg13_13_cif.got.tgz:24472.got - 2010.06.03 16:44:36.
