data_PCOD9234161
_publ_section_title
;
Structure prediction by ZEFSAII (Michael W. Deem and Ramdas Pophale) SiO2 
 PCOD9234161
Probable space group: P 2/C
;
_chemical_formula_sum "Si O2"
_cell_formula_units_Z 20
_cell_length_a 25.903433
_cell_length_b 4.299353
_cell_length_c 7.915324
_cell_angle_alpha 90.000000
_cell_angle_beta 49.084434
_cell_angle_gamma 90.000000
_cell_volume 666.138453
_symmetry_space_group_name_H-M "P 2/C"
_symmetry_group_IT_number 13
_symmetry_cell_setting 'monoclinic'
loop_
_space_group_symop_operation_xyz
x,y,z
-x,y,1/2-z
-x,-y,-z
x,-y,1/2+z
loop_
_atom_site_type_symbol
_atom_site_label
_atom_site_fract_x
_atom_site_fract_y
_atom_site_fract_z
Si Si1 0.103244 0.268079 0.531276
Si Si2 0.000000 0.234742 0.250000
Si Si3 0.201348 0.310182 0.592818
Si Si4 0.500000 0.708036 0.250000
Si Si5 0.301776 0.708968 0.142096
Si Si6 0.599143 0.707185 0.303970
O O1 0.051596 0.520968 0.726190
O O2 0.151409 0.129186 0.573848
O O3 0.152582 0.456827 0.301370
O O4 0.054527 0.006659 0.554550
O O5 0.253041 0.497104 0.361836
O O6 0.249205 0.131040 0.624655
O O7 0.549703 0.879953 0.276531
O O8 0.450512 0.499305 0.472554
O O9 0.350955 0.881190 0.171071
O O10 0.351655 0.503556 0.917705
#
# Coordination Sequence:
#
# PCOD9234161 Si02
#       6
#     4   2   4   2   4   4
#     4  10  22  38  58  82 110 142 186 234 286 342
#     4  10  24  40  60  84 112 144 180 234 292 344
#     4   9  18  32  50  72  98 135 192 234 280 337
#     4   8  12  16  28  60  96 140 192 234 280 330
#     4   8  14  26  42  62  92 140 192 234 280 330
#     4   8  12  19  34  57  96 140 192 234 280 330
#
# _framework density 30.023785
#
# number of rings (size 3 to 8) (size 9 to 14) (size 15 to 20)
#    0.000    3.200    0.000    0.000    0.000    6.400 
#    0.000    0.000    0.000    0.000    0.000    0.000 
#    0.000    0.000    0.000    0.000    0.000 25740.000 
#
# Total GULP energy -111909.806915 kJ/mol
# GULP energy per Si atom -5595.490346 kJ/mol
# Density = 2.995545 g / cm^3
# Si number density = 30.023785 Si / 1000 Ang^3
#
#
#
# Elastic Constant Matrix: (Units=GPa)
#
#
# Indices 1 2 3 4 5 6 
#
# 1 284.7629 52.5391 64.0740 0.0000 -6.8839 0.0000
# 2 52.5391 98.6703 72.7639 0.0000 -13.4201 0.0000
# 3 64.0740 72.7639 245.1160 0.0000 -18.0645 0.0000
# 4 0.0000 0.0000 0.0000 96.3663 0.0000 -11.8253
# 5 -6.8839 -13.4201 -18.0645 0.0000 30.1247 0.0000
# 6 0.0000 0.0000 0.0000 -11.8253 0.0000 -28.1877
#
#
#
# Elastic Compliance Matrix: (Units=1/GPa)
#
#
# Indices 1 2 3 4 5 6 
#
# 1 0.003947 -0.001736 -0.000530 0.000000 -0.000190 0.000000
# 2 -0.001736 0.014130 -0.003459 0.000000 0.003824 0.000000
# 3 -0.000530 -0.003459 0.005359 0.000000 0.001552 0.000000
# 4 0.000000 0.000000 0.000000 0.009869 0.000000 -0.004140
# 5 -0.000190 0.003824 0.001552 0.000000 0.035786 0.000000
# 6 0.000000 0.000000 0.000000 -0.004140 0.000000 -0.033740
#
#
# Mechanical properties :
#
#
# Convention : Reuss Voigt Hill
#
# Bulk Modulus (GPa) = 83.43451 111.92256 97.67854
# Shear Modulus (GPa) = 98.42942 48.93883 73.68413
#
# Velocity S-wave (km/s) = 5.73193 4.04171 4.95935
# Velocity P-wave (km/s) = 8.46501 7.69022 8.08690
#
# Compressibility (1/GPa) = 0.01198545
#
# Stress axis : x y z
#
# Youngs Moduli (GPa) = 253.37188 70.77077 186.58580
#
# Poissons Ratio (x) = 0.12288 0.09893
# Poissons Ratio (y) = 0.43993 0.64538
# Poissons Ratio (z) = 0.13435 0.24479
#
# Static dielectric constant tensor:
#      x y z
#    x 2.305460 0.000000 0.003190 
#    y 0.000000 2.237930 0.000000 
#    z 0.003190 0.000000 2.248370 
# 
# From -- ./inp_files/24274.got.cif
#   From: 2010.05.17/outbox.cif.g08.bks.cpg/sg13_13_cif.got.tgz:24274.got - 2010.06.03 16:44:36.
