data_PCOD9234962
_publ_section_title
;
Structure prediction by ZEFSAII (Michael W. Deem and Ramdas Pophale) SiO2 
 PCOD9234962
Probable space group: P 2/C
;
_chemical_formula_sum "Si O2"
_cell_formula_units_Z 28
_cell_length_a 25.172494
_cell_length_b 12.748690
_cell_length_c 20.335524
_cell_angle_alpha 90.000000
_cell_angle_beta 166.695967
_cell_angle_gamma 90.000000
_cell_volume 1501.751983
_symmetry_space_group_name_H-M "P 2/C"
_symmetry_group_IT_number 13
_symmetry_cell_setting 'monoclinic'
loop_
_space_group_symop_operation_xyz
x,y,z
-x,y,1/2-z
-x,-y,-z
x,-y,1/2+z
loop_
_atom_site_type_symbol
_atom_site_label
_atom_site_fract_x
_atom_site_fract_y
_atom_site_fract_z
Si Si1 0.500000 0.517759 0.250000
Si Si2 0.000000 0.204711 0.250000
Si Si3 0.533827 0.122725 0.466223
Si Si4 0.991059 0.564714 0.166845
Si Si5 0.714531 0.281752 0.243754
Si Si6 0.362838 0.377912 0.716117
Si Si7 0.165909 0.963045 0.048761
Si Si8 0.041500 0.098091 0.599711
O O1 0.491751 0.578680 0.170346
O O2 0.747419 0.461389 0.539279
O O3 0.962414 0.128338 0.143395
O O4 0.218160 0.281042 0.512630
O O5 0.405718 0.223668 0.339625
O O6 0.709913 0.141815 0.619653
O O7 0.684805 0.084440 0.711245
O O8 0.351547 0.030449 0.231133
O O9 0.000000 0.617920 0.250000
O O10 0.881880 0.633886 0.978070
O O11 0.822685 0.463391 0.978725
O O12 0.851349 0.190240 0.368906
O O13 0.527863 0.336869 0.972455
O O14 0.987378 0.045895 0.864080
O O15 0.000000 0.000000 0.500000
#
# Coordination Sequence:
#
# PCOD9234962 Si02
#       8
#     2   2   4   4   4   4   4   4
#     4  10  22  42  60  84 134 156 198 266 312 358
#     4  12  20  38  62  84 126 160 202 256 320 366
#     4   9  18  38  59  81 120 155 200 250 292 364
#     4  10  23  44  62  87 124 161 205 264 311 371
#     4  11  22  38  68  91 119 166 210 248 316 375
#     4  11  23  40  62  95 122 161 205 260 318 376
#     4   9  19  35  56  84 116 160 193 245 304 362
#     4   9  20  36  58  88 119 152 202 250 297 366
#
# _framework density 18.644888999999999
#
# number of rings (size 3 to 8) (size 9 to 14) (size 15 to 20)
#    0.000    2.000    3.571    1.286    0.000    6.286 
#    5.143    0.000    0.000    0.000    0.000    0.000 
#    0.000    0.000    0.000    0.000    0.000    0.000 
#
# Total GULP energy -155949.559977 kJ/mol
# GULP energy per Si atom -5569.627142 kJ/mol
# Density = 1.860245 g / cm^3
# Si number density = 18.644889 Si / 1000 Ang^3
#
#
#
# Elastic Constant Matrix: (Units=GPa)
#
#
# Indices 1 2 3 4 5 6 
#
# 1 56.1586 32.7548 55.0748 0.0000 20.8931 0.0000
# 2 32.7548 70.7254 50.7724 0.0000 -2.0469 0.0000
# 3 55.0748 50.7724 103.4379 0.0000 11.3958 0.0000
# 4 0.0000 0.0000 0.0000 4.3332 0.0000 13.0997
# 5 20.8931 -2.0469 11.3958 0.0000 39.8108 0.0000
# 6 0.0000 0.0000 0.0000 13.0997 0.0000 0.2857
#
#
#
# Elastic Compliance Matrix: (Units=1/GPa)
#
#
# Indices 1 2 3 4 5 6 
#
# 1 0.051439 -0.010057 -0.020053 0.000000 -0.021772 0.000000
# 2 -0.010057 0.024545 -0.007655 0.000000 0.008731 0.000000
# 3 -0.020053 -0.007655 0.023735 0.000000 0.003336 0.000000
# 4 0.000000 0.000000 0.000000 -0.001677 0.000000 0.076893
# 5 -0.021772 0.008731 0.003336 0.000000 0.036039 0.000000
# 6 0.000000 0.000000 0.000000 0.076893 0.000000 -0.025435
#
#
# Mechanical properties :
#
#
# Convention : Reuss Voigt Hill
#
# Bulk Modulus (GPa) = 41.34258 56.39175 48.86717
# Shear Modulus (GPa) = 26.00940 15.00060 20.50500
#
# Velocity S-wave (km/s) = 3.73901 2.83952 3.31987
# Velocity P-wave (km/s) = 6.39234 6.40791 6.40013
#
# Compressibility (1/GPa) = 0.02418814
#
# Stress axis : x y z
#
# Youngs Moduli (GPa) = 19.44061 40.74161 42.13262
#
# Poissons Ratio (x) = 0.40974 0.84489
# Poissons Ratio (y) = 0.19552 0.32252
# Poissons Ratio (z) = 0.38984 0.31188
#
# Static dielectric constant tensor:
#      x y z
#    x 1.620340 0.000000 0.026140 
#    y 0.000000 1.691230 0.000000 
#    z 0.026140 0.000000 1.663720 
# 
# From -- ./inp_files/89712.got.cif
#   From: 2010.05.17/outbox.cif.g08.bks.cpg/sg13_45_cif.got.tgz:89712.got - 2010.06.03 16:44:36.
