data_PCOD9234018
_publ_section_title
;
Structure prediction by ZEFSAII (Michael W. Deem and Ramdas Pophale) SiO2 
 PCOD9234018
Probable space group: P 2/C
;
_chemical_formula_sum "Si O2"
_cell_formula_units_Z 22
_cell_length_a 10.646709
_cell_length_b 11.479755
_cell_length_c 9.759157
_cell_angle_alpha 90.000000
_cell_angle_beta 73.389759
_cell_angle_gamma 90.000000
_cell_volume 1143.006968
_symmetry_space_group_name_H-M "P 2/C"
_symmetry_group_IT_number 13
_symmetry_cell_setting 'monoclinic'
loop_
_space_group_symop_operation_xyz
x,y,z
-x,y,1/2-z
-x,-y,-z
x,-y,1/2+z
loop_
_atom_site_type_symbol
_atom_site_label
_atom_site_fract_x
_atom_site_fract_y
_atom_site_fract_z
Si Si1 0.722546 0.494546 0.050414
Si Si2 0.579790 0.740565 0.504989
Si Si3 0.318397 0.143043 0.194563
Si Si4 0.149697 0.629612 0.747191
Si Si5 0.642127 0.023400 0.034608
Si Si6 0.500000 0.348894 0.750000
O O1 0.831243 0.447971 0.122190
O O2 0.622264 0.572930 0.167932
O O3 0.638981 0.381735 0.030258
O O4 0.774105 0.565669 0.902802
O O5 0.452913 0.783138 0.629710
O O6 0.681305 0.846297 0.478601
O O7 0.533058 0.730181 0.366367
O O8 0.213521 0.243854 0.257068
O O9 0.344934 0.044707 0.305239
O O10 0.279820 0.078559 0.064625
O O11 0.000000 0.640254 0.750000
O O12 0.500000 0.000000 0.000000
#
# Coordination Sequence:
#
# PCOD9234018 Si02
#       6
#     4   4   4   4   4   2
#     4  12  23  41  65  94 130 164 214 266 322 385
#     4  11  21  35  62  95 131 158 192 268 336 376
#     4  11  23  41  62  94 131 163 209 260 320 382
#     4  12  26  45  65  89 128 180 221 259 304 373
#     4  10  22  35  62  91 125 161 199 256 326 380
#     4  12  22  32  64 104 128 156 204 264 342 388
#
# _framework density 19.247477
#
# number of rings (size 3 to 8) (size 9 to 14) (size 15 to 20)
#    0.000    0.727    5.455    4.364    5.091    0.000 
#    0.000    0.909    0.000    0.000    0.000    0.000 
#    0.000    0.000    0.000    0.000    0.000    0.000 
#
# Total GULP energy -122555.425405 kJ/mol
# GULP energy per Si atom -5570.701155 kJ/mol
# Density = 1.920367 g / cm^3
# Si number density = 19.247477 Si / 1000 Ang^3
#
#
#
# Elastic Constant Matrix: (Units=GPa)
#
#
# Indices 1 2 3 4 5 6 
#
# 1 56.3664 14.6721 38.5724 0.0000 9.6692 0.0000
# 2 14.6721 61.3067 31.3176 0.0000 0.0833 0.0000
# 3 38.5724 31.3176 111.1050 0.0000 33.1431 0.0000
# 4 0.0000 0.0000 0.0000 42.0068 0.0000 12.7831
# 5 9.6692 0.0833 33.1431 0.0000 24.8181 0.0000
# 6 0.0000 0.0000 0.0000 12.7831 0.0000 23.2170
#
#
#
# Elastic Compliance Matrix: (Units=1/GPa)
#
#
# Indices 1 2 3 4 5 6 
#
# 1 0.023475 -0.001336 -0.008388 0.000000 0.002060 0.000000
# 2 -0.001336 0.021472 -0.009511 0.000000 0.013150 0.000000
# 3 -0.008388 -0.009511 0.022620 0.000000 -0.026908 0.000000
# 4 0.000000 0.000000 0.000000 0.028597 0.000000 -0.015745
# 5 0.002060 0.013150 -0.026908 0.000000 0.075381 0.000000
# 6 0.000000 0.000000 0.000000 -0.015745 0.000000 0.051741
#
#
# Mechanical properties :
#
#
# Convention : Reuss Voigt Hill
#
# Bulk Modulus (GPa) = 34.36759 44.21136 39.28947
# Shear Modulus (GPa) = 18.41911 27.62276 23.02094
#
# Velocity S-wave (km/s) = 3.09684 3.79243 3.46215
# Velocity P-wave (km/s) = 5.53910 6.49588 6.03648
#
# Compressibility (1/GPa) = 0.02909718
#
# Stress axis : x y z
#
# Youngs Moduli (GPa) = 42.59764 46.57214 44.20793
#
# Poissons Ratio (x) = 0.06223 0.37081
# Poissons Ratio (y) = 0.05692 0.42048
# Poissons Ratio (z) = 0.35730 0.44296
#
# Static dielectric constant tensor:
#      x y z
#    x 1.690000 0.000000 -0.003580 
#    y 0.000000 1.742370 0.000000 
#    z -0.003580 0.000000 1.803400 
# 
# From -- ./inp_files/15773.got.cif
#   From: 2010.05.17/outbox.cif.g08.bks.cpg/sg13_8_cif.got.tgz:15773.got - 2010.06.03 16:44:36.
