data_PCOD9234272
_publ_section_title
;
Structure prediction by ZEFSAII (Michael W. Deem and Ramdas Pophale) SiO2 
 PCOD9234272
Probable space group: P 2/C
;
_chemical_formula_sum "Si O2"
_cell_formula_units_Z 24
_cell_length_a 5.314673
_cell_length_b 11.150089
_cell_length_c 20.184895
_cell_angle_alpha 90.000000
_cell_angle_beta 60.198353
_cell_angle_gamma 90.000000
_cell_volume 1037.950359
_symmetry_space_group_name_H-M "P 2/C"
_symmetry_group_IT_number 13
_symmetry_cell_setting 'monoclinic'
loop_
_space_group_symop_operation_xyz
x,y,z
-x,y,1/2-z
-x,-y,-z
x,-y,1/2+z
loop_
_atom_site_type_symbol
_atom_site_label
_atom_site_fract_x
_atom_site_fract_y
_atom_site_fract_z
Si Si1 0.787491 0.965708 0.096760
Si Si2 0.500000 0.159400 0.750000
Si Si3 0.605631 0.831645 0.451808
Si Si4 0.433990 0.216019 0.392022
Si Si5 0.976924 0.346291 0.826540
Si Si6 0.772538 0.575103 0.668361
Si Si7 0.000000 0.251181 0.250000
O O1 0.549873 0.924226 0.181198
O O2 0.642365 0.911545 0.049327
O O3 0.094937 0.906616 0.075670
O O4 0.790397 0.108889 0.093143
O O5 0.223577 0.245720 0.786718
O O6 0.513833 0.785438 0.536256
O O7 0.694256 0.723015 0.390115
O O8 0.329415 0.345722 0.380193
O O9 0.713126 0.183290 0.310299
O O10 0.056759 0.452770 0.866385
O O11 0.000000 0.403259 0.750000
O O12 0.500000 0.539324 0.750000
O O13 0.941681 0.666400 0.693819
#
# Coordination Sequence:
#
# PCOD9234272 Si02
#       7
#     4   2   4   4   4   4   2
#     4  11  25  43  70 102 139 184 223 292 344 418
#     4  10  22  38  66  96 128 170 242 270 344 406
#     4  11  26  44  71 101 141 185 225 291 351 411
#     4  11  26  43  66 101 140 179 235 278 361 419
#     4  11  20  41  67  95 136 177 237 285 343 416
#     4  10  22  40  65  97 129 186 227 292 342 409
#     4  10  24  40  66  92 130 178 224 280 334 412
#
# _framework density 23.122492999999999
#
# number of rings (size 3 to 8) (size 9 to 14) (size 15 to 20)
#    0.000    1.333    3.333    1.000    8.167    2.000 
#    0.000    0.833    0.000    0.000    0.000    0.000 
#    0.000    0.000    0.000    0.000    0.000    0.000 
#
# Total GULP energy -134096.044431 kJ/mol
# GULP energy per Si atom -5587.335185 kJ/mol
# Density = 2.306987 g / cm^3
# Si number density = 23.122493 Si / 1000 Ang^3
#
#
#
# Elastic Constant Matrix: (Units=GPa)
#
#
# Indices 1 2 3 4 5 6 
#
# 1 65.3283 13.6347 2.3081 0.0000 -10.3750 0.0000
# 2 13.6347 78.6953 40.5228 0.0000 -12.5054 0.0000
# 3 2.3081 40.5228 114.7939 0.0000 -1.9593 0.0000
# 4 0.0000 0.0000 0.0000 25.3622 0.0000 -8.7489
# 5 -10.3750 -12.5054 -1.9593 0.0000 34.7397 0.0000
# 6 0.0000 0.0000 0.0000 -8.7489 0.0000 13.1434
#
#
#
# Elastic Compliance Matrix: (Units=1/GPa)
#
#
# Indices 1 2 3 4 5 6 
#
# 1 0.016455 -0.002535 0.000633 0.000000 0.004037 0.000000
# 2 -0.002535 0.016955 -0.005849 0.000000 0.005016 0.000000
# 3 0.000633 -0.005849 0.010741 0.000000 -0.001311 0.000000
# 4 0.000000 0.000000 0.000000 0.051181 0.000000 0.034068
# 5 0.004037 0.005016 -0.001311 0.000000 0.031723 0.000000
# 6 0.000000 0.000000 0.000000 0.034068 0.000000 0.098761
#
#
# Mechanical properties :
#
#
# Convention : Reuss Voigt Hill
#
# Bulk Modulus (GPa) = 34.90490 41.30542 38.10516
# Shear Modulus (GPa) = 19.93074 28.13920 24.03497
#
# Velocity S-wave (km/s) = 2.93911 3.49228 3.22757
# Velocity P-wave (km/s) = 5.16200 5.84499 5.51408
#
# Compressibility (1/GPa) = 0.02864928
#
# Stress axis : x y z
#
# Youngs Moduli (GPa) = 60.77072 58.97824 93.10299
#
# Poissons Ratio (x) = 0.14954 -0.05894
# Poissons Ratio (y) = 0.15408 0.54453
# Poissons Ratio (z) = -0.03847 0.34495
#
# Static dielectric constant tensor:
#      x y z
#    x 2.021360 0.000000 0.072970 
#    y 0.000000 1.843690 0.000000 
#    z 0.072970 0.000000 1.903960 
# 
# From -- ./inp_files/61060.got.cif
#   From: 2010.05.17/outbox.cif.g08.bks.cpg/sg13_31_cif.got.tgz:61060.got - 2010.06.03 16:44:36.
