data_PCOD9234257
_publ_section_title
;
Structure prediction by ZEFSAII (Michael W. Deem and Ramdas Pophale) SiO2 
 PCOD9234257
Probable space group: P 2/C
;
_chemical_formula_sum "Si O2"
_cell_formula_units_Z 18
_cell_length_a 13.456944
_cell_length_b 5.059253
_cell_length_c 21.834608
_cell_angle_alpha 90.000000
_cell_angle_beta 37.916026
_cell_angle_gamma 90.000000
_cell_volume 913.491038
_symmetry_space_group_name_H-M "P 2/C"
_symmetry_group_IT_number 13
_symmetry_cell_setting 'monoclinic'
loop_
_space_group_symop_operation_xyz
x,y,z
-x,y,1/2-z
-x,-y,-z
x,-y,1/2+z
loop_
_atom_site_type_symbol
_atom_site_label
_atom_site_fract_x
_atom_site_fract_y
_atom_site_fract_z
Si Si1 0.022198 0.430032 0.417684
Si Si2 0.486690 0.039908 0.934557
Si Si3 0.500000 0.687513 0.250000
Si Si4 0.662836 0.459829 0.052067
Si Si5 0.234343 0.920815 0.294012
O O1 0.143769 0.643676 0.329969
O O2 0.000000 0.500000 0.500000
O O3 0.848755 0.462480 0.470626
O O4 0.104027 0.144476 0.372344
O O5 0.367522 0.830574 0.959527
O O6 0.422951 0.331890 0.950948
O O7 0.658093 0.005886 0.816869
O O8 0.500000 0.000000 0.000000
O O9 0.575465 0.508016 0.159885
O O10 0.360807 0.868456 0.287806
#
# Coordination Sequence:
#
# PCOD9234257 Si02
#       5
#     4   4   2   4   4
#     4  12  24  39  61 100 136 159 197 259 333 386
#     4  11  25  46  66  89 124 174 224 259 297 370
#     4  10  22  38  64  98 126 174 204 264 318 384
#     4  11  24  40  67  93 130 164 212 260 321 372
#     4  11  24  39  64  92 131 166 210 254 318 373
#
# _framework density 19.704626999999999
#
# number of rings (size 3 to 8) (size 9 to 14) (size 15 to 20)
#    0.000    0.889    2.222    5.333    6.222    1.778 
#    0.000    6.667    0.000    0.000    0.000    0.000 
#    0.000    0.000    0.000    0.000    0.000    0.000 
#
# Total GULP energy -100729.790904 kJ/mol
# GULP energy per Si atom -5596.099495 kJ/mol
# Density = 1.965978 g / cm^3
# Si number density = 19.704627 Si / 1000 Ang^3
#
#
#
# Elastic Constant Matrix: (Units=GPa)
#
#
# Indices 1 2 3 4 5 6 
#
# 1 69.1475 -11.7608 47.3624 0.0000 9.9245 0.0000
# 2 -11.7608 54.2738 -8.4137 0.0000 -1.0569 0.0000
# 3 47.3624 -8.4137 61.4499 0.0000 -0.5168 0.0000
# 4 0.0000 0.0000 0.0000 35.6583 0.0000 -17.6380
# 5 9.9245 -1.0569 -0.5168 0.0000 43.2055 0.0000
# 6 0.0000 0.0000 0.0000 -17.6380 0.0000 29.4214
#
#
#
# Elastic Compliance Matrix: (Units=1/GPa)
#
#
# Indices 1 2 3 4 5 6 
#
# 1 0.033665 0.003175 -0.025580 0.000000 -0.007961 0.000000
# 2 0.003175 0.019134 0.000171 0.000000 -0.000259 0.000000
# 3 -0.025580 0.000171 0.036065 0.000000 0.006311 0.000000
# 4 0.000000 0.000000 0.000000 0.039866 0.000000 0.023899
# 5 -0.007961 -0.000259 0.006311 0.000000 0.025043 0.000000
# 6 0.000000 0.000000 0.000000 0.023899 0.000000 0.048316
#
#
# Mechanical properties :
#
#
# Convention : Reuss Voigt Hill
#
# Bulk Modulus (GPa) = 22.52420 26.58297 24.55359
# Shear Modulus (GPa) = 19.13091 32.16926 25.65009
#
# Velocity S-wave (km/s) = 3.11928 4.04490 3.61186
# Velocity P-wave (km/s) = 4.94257 5.94432 5.46644
#
# Compressibility (1/GPa) = 0.04439669
#
# Stress axis : x y z
#
# Youngs Moduli (GPa) = 29.70429 52.26169 27.72742
#
# Poissons Ratio (x) = -0.16591 0.70926
# Poissons Ratio (y) = -0.09430 -0.00474
# Poissons Ratio (z) = 0.75983 -0.00893
#
# Static dielectric constant tensor:
#      x y z
#    x 1.678650 0.000000 -0.019950 
#    y 0.000000 1.680520 0.000000 
#    z -0.019950 0.000000 1.693280 
# 
# From -- ./inp_files/51998.got.cif
#   From: 2010.05.17/outbox.cif.g08.bks.cpg/sg13_26_cif.got.tgz:51998.got - 2010.06.03 16:44:36.
