data_PCOD9234761
_publ_section_title
;
Structure prediction by ZEFSAII (Michael W. Deem and Ramdas Pophale) SiO2 
 PCOD9234761
Probable space group: P 2/C
;
_chemical_formula_sum "Si O2"
_cell_formula_units_Z 20
_cell_length_a 8.683265
_cell_length_b 22.021456
_cell_length_c 5.192899
_cell_angle_alpha 90.000000
_cell_angle_beta 116.756546
_cell_angle_gamma 90.000000
_cell_volume 886.656018
_symmetry_space_group_name_H-M "P 2/C"
_symmetry_group_IT_number 13
_symmetry_cell_setting 'monoclinic'
loop_
_space_group_symop_operation_xyz
x,y,z
-x,y,1/2-z
-x,-y,-z
x,-y,1/2+z
loop_
_atom_site_type_symbol
_atom_site_label
_atom_site_fract_x
_atom_site_fract_y
_atom_site_fract_z
Si Si1 0.690874 0.830413 0.998293
Si Si2 0.807343 0.773994 0.593121
Si Si3 0.115430 0.357582 0.576578
Si Si4 0.303190 0.526213 0.337783
Si Si5 0.288206 0.964184 0.595346
O O1 0.500000 0.837828 0.750000
O O2 0.756413 0.777963 0.853689
O O3 0.774623 0.895935 0.008009
O O4 0.702572 0.812968 0.305642
O O5 0.816721 0.706837 0.479580
O O6 0.000000 0.799171 0.750000
O O7 0.272197 0.403867 0.748797
O O8 0.000000 0.351155 0.750000
O O9 0.000000 0.381156 0.250000
O O10 0.500000 0.500000 0.500000
O O11 0.220428 0.512526 0.548434
O O12 0.500000 0.963997 0.750000
O O13 0.234173 0.009759 0.328916
#
# Coordination Sequence:
#
# PCOD9234761 Si02
#       5
#     4   4   4   4   4
#     4  11  22  39  63  97 125 160 220 269 315 373
#     4  11  23  42  63  88 129 173 209 255 323 376
#     4  11  23  41  66  91 121 165 216 250 293 379
#     4  10  22  41  61  91 126 158 196 251 313 367
#     4   9  17  31  55  86 121 161 204 261 316 368
#
# _framework density 22.556660999999998
#
# number of rings (size 3 to 8) (size 9 to 14) (size 15 to 20)
#    0.000    1.600    0.000    6.000    0.000    5.600 
#   10.800    0.000    0.000   12.000    0.000    0.000 
#    0.000    0.000    0.000    0.000    0.000    0.000 
#
# Total GULP energy -111551.418141 kJ/mol
# GULP energy per Si atom -5577.570907 kJ/mol
# Density = 2.250532 g / cm^3
# Si number density = 22.556661 Si / 1000 Ang^3
#
#
#
# Elastic Constant Matrix: (Units=GPa)
#
#
# Indices 1 2 3 4 5 6 
#
# 1 35.8016 12.0191 9.5446 0.0000 -8.5749 0.0000
# 2 12.0191 95.3949 20.6785 0.0000 4.5700 0.0000
# 3 9.5446 20.6785 107.8749 0.0000 -19.3793 0.0000
# 4 0.0000 0.0000 0.0000 374.6327 0.0000 3.2349
# 5 -8.5749 4.5700 -19.3793 0.0000 35.6481 0.0000
# 6 0.0000 0.0000 0.0000 3.2349 0.0000 22.9269
#
#
#
# Elastic Compliance Matrix: (Units=1/GPa)
#
#
# Indices 1 2 3 4 5 6 
#
# 1 0.031355 -0.004198 -0.000574 0.000000 0.007768 0.000000
# 2 -0.004198 0.011761 -0.002588 0.000000 -0.003924 0.000000
# 3 -0.000574 -0.002588 0.010918 0.000000 0.006129 0.000000
# 4 0.000000 0.000000 0.000000 0.002673 0.000000 -0.000377
# 5 0.007768 -0.003924 0.006129 0.000000 0.033756 0.000000
# 6 0.000000 0.000000 0.000000 -0.000377 0.000000 0.043670
#
#
# Mechanical properties :
#
#
# Convention : Reuss Voigt Hill
#
# Bulk Modulus (GPa) = 25.43677 35.95063 30.69370
# Shear Modulus (GPa) = 30.87258 99.76350 65.31804
#
# Velocity S-wave (km/s) = 3.70357 6.65762 5.38704
# Velocity P-wave (km/s) = 5.43965 8.66436 7.23398
#
# Compressibility (1/GPa) = 0.03931317
#
# Stress axis : x y z
#
# Youngs Moduli (GPa) = 31.89308 85.02911 91.59270
#
# Poissons Ratio (x) = 0.35697 0.05257
# Poissons Ratio (y) = 0.13389 0.23704
# Poissons Ratio (z) = 0.01830 0.22005
#
# Static dielectric constant tensor:
#      x y z
#    x 1.863860 0.000000 -0.015650 
#    y 0.000000 1.864810 0.000000 
#    z -0.015650 0.000000 1.860980 
# 
# From -- ./inp_files/2203.got.cif
#   From: 2010.05.17/outbox.cif.g08.bks.cpg/sg13_2_cif.got.tgz:2203.got - 2010.06.03 16:44:36.
