data_PCOD9234696
_publ_section_title
;
Structure prediction by ZEFSAII (Michael W. Deem and Ramdas Pophale) SiO2 
 PCOD9234696
Probable space group: P 2/C
;
_chemical_formula_sum "Si O2"
_cell_formula_units_Z 26
_cell_length_a 22.958100
_cell_length_b 9.548518
_cell_length_c 12.500606
_cell_angle_alpha 90.000000
_cell_angle_beta 154.249089
_cell_angle_gamma 90.000000
_cell_volume 1190.562935
_symmetry_space_group_name_H-M "P 2/C"
_symmetry_group_IT_number 13
_symmetry_cell_setting 'monoclinic'
loop_
_space_group_symop_operation_xyz
x,y,z
-x,y,1/2-z
-x,-y,-z
x,-y,1/2+z
loop_
_atom_site_type_symbol
_atom_site_label
_atom_site_fract_x
_atom_site_fract_y
_atom_site_fract_z
Si Si1 0.724191 0.341471 0.983174
Si Si2 0.857719 0.581392 0.335334
Si Si3 0.953816 0.190102 0.845238
Si Si4 0.000000 0.393961 0.750000
Si Si5 0.500000 0.576972 0.250000
Si Si6 0.217365 0.945565 0.843270
Si Si7 0.605312 0.666470 0.053095
Si Si8 0.500000 0.916900 0.750000
O O1 0.624949 0.333051 0.921780
O O2 0.655880 0.356139 0.755854
O O3 0.812284 0.474521 0.165880
O O4 0.777937 0.184506 0.068127
O O5 0.952108 0.699202 0.440953
O O6 0.729763 0.657621 0.175848
O O7 0.920297 0.490095 0.534707
O O8 0.914576 0.286483 0.680393
O O9 0.846333 0.075667 0.699844
O O10 0.097957 0.113351 0.067582
O O11 0.520954 0.470478 0.382194
O O12 0.363177 0.993667 0.041001
O O13 0.527331 0.809164 0.894693
#
# Coordination Sequence:
#
# PCOD9234696 Si02
#       8
#     4   4   4   2   2   4   4   2
#     4  11  22  42  67 103 134 181 233 288 352 411
#     4  11  23  44  71 102 138 174 237 297 347 411
#     4  11  25  47  67 106 143 179 230 293 350 417
#     4  12  24  42  78 104 132 184 234 298 346 414
#     4   9  21  40  64 100 140 172 234 296 334 412
#     4  11  25  45  70  98 149 182 228 291 346 419
#     4  10  22  40  69  99 132 187 228 286 352 412
#     4  11  23  48  68  98 142 188 234 278 348 426
#
# _framework density 21.838408000000001
#
# number of rings (size 3 to 8) (size 9 to 14) (size 15 to 20)
#    0.000    1.231    3.077    2.308    2.154    1.846 
#    5.538    0.000    0.000    0.000    0.000    0.000 
#    0.000    0.000    0.000    0.000    0.000    0.000 
#
# Total GULP energy -144952.975201 kJ/mol
# GULP energy per Si atom -5575.114431 kJ/mol
# Density = 2.178870 g / cm^3
# Si number density = 21.838408 Si / 1000 Ang^3
#
#
#
# Elastic Constant Matrix: (Units=GPa)
#
#
# Indices 1 2 3 4 5 6 
#
# 1 72.5346 55.2113 39.4003 0.0000 12.7542 0.0000
# 2 55.2113 149.7140 61.6612 0.0000 -5.0371 0.0000
# 3 39.4003 61.6612 102.9335 0.0000 -8.0090 0.0000
# 4 0.0000 0.0000 0.0000 -24.2601 0.0000 24.5337
# 5 12.7542 -5.0371 -8.0090 0.0000 50.6667 0.0000
# 6 0.0000 0.0000 0.0000 24.5337 0.0000 20.2515
#
#
#
# Elastic Compliance Matrix: (Units=1/GPa)
#
#
# Indices 1 2 3 4 5 6 
#
# 1 0.022962 -0.006451 -0.005492 0.000000 -0.007290 0.000000
# 2 -0.006451 0.010680 -0.003766 0.000000 0.002090 0.000000
# 3 -0.005492 -0.003766 0.014328 0.000000 0.003273 0.000000
# 4 0.000000 0.000000 0.000000 -0.018525 0.000000 0.022442
# 5 -0.007290 0.002090 0.003273 0.000000 0.022297 0.000000
# 6 0.000000 0.000000 0.000000 0.022442 0.000000 0.022192
#
#
# Mechanical properties :
#
#
# Convention : Reuss Voigt Hill
#
# Bulk Modulus (GPa) = 60.41622 70.85865 65.63743
# Shear Modulus (GPa) = 45.09883 20.59224 32.84553
#
# Velocity S-wave (km/s) = 4.54928 3.07406 3.88238
# Velocity P-wave (km/s) = 7.43773 6.71692 7.08650
#
# Compressibility (1/GPa) = 0.01655185
#
# Stress axis : x y z
#
# Youngs Moduli (GPa) = 43.55028 93.63564 69.79576
#
# Poissons Ratio (x) = 0.60407 0.38331
# Poissons Ratio (y) = 0.28095 0.26282
# Poissons Ratio (z) = 0.23917 0.35259
#
# Static dielectric constant tensor:
#      x y z
#    x 1.819760 0.000000 0.050930 
#    y 0.000000 1.787790 0.000000 
#    z 0.050930 0.000000 1.888690 
# 
# From -- ./inp_files/41705.got.cif
#   From: 2010.05.17/outbox.cif.g08.bks.cpg/sg13_21_cif.got.tgz:41705.got - 2010.06.03 16:44:36.
