data_PCOD9234947
_publ_section_title
;
Structure prediction by ZEFSAII (Michael W. Deem and Ramdas Pophale) SiO2 
 PCOD9234947
Probable space group: P 2/C
;
_chemical_formula_sum "Si O2"
_cell_formula_units_Z 28
_cell_length_a 8.172120
_cell_length_b 23.986008
_cell_length_c 12.651801
_cell_angle_alpha 90.000000
_cell_angle_beta 35.791115
_cell_angle_gamma 90.000000
_cell_volume 1450.360992
_symmetry_space_group_name_H-M "P 2/C"
_symmetry_group_IT_number 13
_symmetry_cell_setting 'monoclinic'
loop_
_space_group_symop_operation_xyz
x,y,z
-x,y,1/2-z
-x,-y,-z
x,-y,1/2+z
loop_
_atom_site_type_symbol
_atom_site_label
_atom_site_fract_x
_atom_site_fract_y
_atom_site_fract_z
Si Si1 0.330172 0.054845 0.058969
Si Si2 0.000000 0.428763 0.250000
Si Si3 0.734104 0.503640 0.213798
Si Si4 0.496593 0.375877 0.873757
Si Si5 0.532867 0.172005 0.403752
Si Si6 0.500000 0.104561 0.750000
Si Si7 0.979105 0.812972 0.491973
Si Si8 0.736022 0.738279 0.311166
O O1 0.417702 0.109959 0.079068
O O2 0.000000 0.046480 0.250000
O O3 0.408454 0.068493 0.897725
O O4 0.500000 0.000000 0.000000
O O5 0.795730 0.465875 0.283457
O O6 0.809414 0.392208 0.426123
O O7 0.500000 0.487070 0.250000
O O8 0.671391 0.566388 0.285861
O O9 0.000000 0.500000 0.000000
O O10 0.500000 0.359687 0.750000
O O11 0.608728 0.322950 0.877117
O O12 0.258359 0.172819 0.471749
O O13 0.471504 0.214833 0.531813
O O14 0.802399 0.190082 0.192859
O O15 0.774012 0.141771 0.631853
O O16 0.139850 0.757922 0.366708
O O17 0.000000 0.737627 0.250000
#
# Coordination Sequence:
#
# PCOD9234947 Si02
#       8
#     4   2   4   4   4   2   4   4
#     4  12  28  44  67 101 133 171 221 272 327 400
#     4  12  24  46  70  96 138 194 218 290 354 394
#     4  11  23  44  70  98 135 181 231 280 344 416
#     4  11  25  42  63 103 134 171 234 278 334 409
#     4  10  22  46  67  96 132 174 223 264 336 400
#     4  12  24  42  68 100 128 178 218 266 342 380
#     4  10  22  41  72  93 131 175 216 271 328 400
#     4  10  23  41  68  97 135 178 217 281 339 391
#
# _framework density 19.305537000000001
#
# number of rings (size 3 to 8) (size 9 to 14) (size 15 to 20)
#    0.000    1.143    5.714    0.429    4.000    2.857 
#    1.286    0.000    0.000    0.000    0.000    0.000 
#    0.000    0.000    0.000    0.000    0.000    0.000 
#
# Total GULP energy -156307.295312 kJ/mol
# GULP energy per Si atom -5582.403404 kJ/mol
# Density = 1.926160 g / cm^3
# Si number density = 19.305537 Si / 1000 Ang^3
#
#
#
# Elastic Constant Matrix: (Units=GPa)
#
#
# Indices 1 2 3 4 5 6 
#
# 1 65.2113 41.0470 45.3934 0.0000 2.4882 0.0000
# 2 41.0470 100.1149 59.4830 0.0000 -0.7146 0.0000
# 3 45.3934 59.4830 160.0423 0.0000 -3.0928 0.0000
# 4 0.0000 0.0000 0.0000 21.1362 0.0000 -3.3283
# 5 2.4882 -0.7146 -3.0928 0.0000 33.4853 0.0000
# 6 0.0000 0.0000 0.0000 -3.3283 0.0000 34.9704
#
#
#
# Elastic Compliance Matrix: (Units=1/GPa)
#
#
# Indices 1 2 3 4 5 6 
#
# 1 0.022456 -0.006947 -0.003829 0.000000 -0.002171 0.000000
# 2 -0.006947 0.014970 -0.003584 0.000000 0.000505 0.000000
# 3 -0.003829 -0.003584 0.008686 0.000000 0.001010 0.000000
# 4 0.000000 0.000000 0.000000 0.048032 0.000000 0.004572
# 5 -0.002171 0.000505 0.001010 0.000000 0.030129 0.000000
# 6 0.000000 0.000000 0.000000 0.004572 0.000000 0.029031
#
#
# Mechanical properties :
#
#
# Convention : Reuss Voigt Hill
#
# Bulk Modulus (GPa) = 57.49930 68.57948 63.03939
# Shear Modulus (GPa) = 26.62113 29.88138 28.25125
#
# Velocity S-wave (km/s) = 3.71743 3.93849 3.82956
# Velocity P-wave (km/s) = 6.94797 7.50218 7.23038
#
# Compressibility (1/GPa) = 0.01739152
#
# Stress axis : x y z
#
# Youngs Moduli (GPa) = 44.53154 66.80168 115.13011
#
# Poissons Ratio (x) = 0.46410 0.44084
# Poissons Ratio (y) = 0.30938 0.41257
# Poissons Ratio (z) = 0.17052 0.23939
#
# Static dielectric constant tensor:
#      x y z
#    x 1.613500 0.000000 0.041640 
#    y 0.000000 1.666090 0.000000 
#    z 0.041640 0.000000 1.649060 
# 
# From -- ./inp_files/48228.got.cif
#   From: 2010.05.17/outbox.cif.g08.bks.cpg/sg13_25_cif.got.tgz:48228.got - 2010.06.03 16:44:36.
