data_PCOD9234571
_publ_section_title
;
Structure prediction by ZEFSAII (Michael W. Deem and Ramdas Pophale) SiO2 
 PCOD9234571
Probable space group: P 2/C
;
_chemical_formula_sum "Si O2"
_cell_formula_units_Z 24
_cell_length_a 14.455217
_cell_length_b 8.372118
_cell_length_c 8.464387
_cell_angle_alpha 90.000000
_cell_angle_beta 99.836812
_cell_angle_gamma 90.000000
_cell_volume 1009.306843
_symmetry_space_group_name_H-M "P 2/C"
_symmetry_group_IT_number 13
_symmetry_cell_setting 'monoclinic'
loop_
_space_group_symop_operation_xyz
x,y,z
-x,y,1/2-z
-x,-y,-z
x,-y,1/2+z
loop_
_atom_site_type_symbol
_atom_site_label
_atom_site_fract_x
_atom_site_fract_y
_atom_site_fract_z
Si Si1 0.750660 0.667317 0.048074
Si Si2 0.500000 0.867943 0.750000
Si Si3 0.000000 0.879620 0.750000
Si Si4 0.458469 0.334326 0.916515
Si Si5 0.824359 0.313794 0.062536
Si Si6 0.855461 0.122059 0.786982
Si Si7 0.700234 0.133403 0.243949
O O1 0.655618 0.664752 0.125486
O O2 0.800518 0.497575 0.073983
O O3 0.826282 0.805544 0.110338
O O4 0.712373 0.715837 0.864493
O O5 0.482976 0.780441 0.574041
O O6 0.400873 0.944789 0.761592
O O7 0.913921 0.764448 0.677316
O O8 0.945855 0.013652 0.838267
O O9 0.500000 0.308253 0.750000
O O10 0.500000 0.500000 0.000000
O O11 0.733527 0.209740 0.088722
O O12 0.851560 0.277409 0.892133
O O13 0.771976 0.004219 0.804517
#
# Coordination Sequence:
#
# PCOD9234571 Si02
#       7
#     4   2   2   4   4   4   4
#     4  11  25  42  66 104 134 179 234 288 342 416
#     4  10  22  40  64 100 144 188 248 288 342 432
#     4  10  24  46  70 102 132 178 218 286 362 424
#     4  11  23  39  65  99 146 193 238 294 357 410
#     4  11  23  41  71  97 133 172 229 284 342 415
#     4  11  24  46  71  96 136 181 225 285 358 421
#     4  10  22  43  64  97 140 181 227 282 345 413
#
# _framework density 23.778696
#
# number of rings (size 3 to 8) (size 9 to 14) (size 15 to 20)
#    0.000    1.333    0.833    4.500    7.000    2.000 
#    1.500    7.500    0.000    0.000    0.000    0.000 
#    0.000    0.000    0.000    0.000    0.000    0.000 
#
# Total GULP energy -133725.464727 kJ/mol
# GULP energy per Si atom -5571.894364 kJ/mol
# Density = 2.372458 g / cm^3
# Si number density = 23.778696 Si / 1000 Ang^3
#
#
#
# Elastic Constant Matrix: (Units=GPa)
#
#
# Indices 1 2 3 4 5 6 
#
# 1 146.8187 54.0749 14.4621 0.0000 -3.2767 0.0000
# 2 54.0749 114.8464 31.7258 0.0000 -5.8773 0.0000
# 3 14.4621 31.7258 92.8619 0.0000 -5.1894 0.0000
# 4 0.0000 0.0000 0.0000 19.0499 0.0000 -16.8500
# 5 -3.2767 -5.8773 -5.1894 0.0000 19.4735 0.0000
# 6 0.0000 0.0000 0.0000 -16.8500 0.0000 12.5864
#
#
#
# Elastic Compliance Matrix: (Units=1/GPa)
#
#
# Indices 1 2 3 4 5 6 
#
# 1 0.008241 -0.003884 0.000056 0.000000 0.000229 0.000000
# 2 -0.003884 0.011527 -0.003223 0.000000 0.001966 0.000000
# 3 0.000056 -0.003223 0.011986 0.000000 0.002231 0.000000
# 4 0.000000 0.000000 0.000000 -0.285070 0.000000 -0.381636
# 5 0.000229 0.001966 0.002231 0.000000 0.052578 0.000000
# 6 0.000000 0.000000 0.000000 -0.381636 0.000000 -0.431463
#
#
# Mechanical properties :
#
#
# Convention : Reuss Voigt Hill
#
# Bulk Modulus (GPa) = 56.65134 61.67251 59.16192
# Shear Modulus (GPa) = -8.16708 27.17289 9.50290
#
# Velocity S-wave (km/s) = -1.85528 3.38411 2.00127
# Velocity P-wave (km/s) = 4.39166 6.42355 5.50221
#
# Compressibility (1/GPa) = 0.01765183
#
# Stress axis : x y z
#
# Youngs Moduli (GPa) = 121.34027 86.75115 83.43197
#
# Poissons Ratio (x) = 0.33696 -0.00470
# Poissons Ratio (y) = 0.47131 0.26894
# Poissons Ratio (z) = -0.00684 0.27963
#
# Static dielectric constant tensor:
#      x y z
#    x 1.926010 0.000000 0.011040 
#    y 0.000000 1.863670 0.000000 
#    z 0.011040 0.000000 1.997460 
# 
# From -- ./inp_files/18146.got.cif
#   From: 2010.05.17/outbox.cif.g08.bks.cpg/sg13_10_cif.got.tgz:18146.got - 2010.06.03 16:44:36.
