data_PCOD9234063
_publ_section_title
;
Structure prediction by ZEFSAII (Michael W. Deem and Ramdas Pophale) SiO2 
 PCOD9234063
Probable space group: P 2/C
;
_chemical_formula_sum "Si O2"
_cell_formula_units_Z 24
_cell_length_a 18.446358
_cell_length_b 8.930762
_cell_length_c 17.575823
_cell_angle_alpha 90.000000
_cell_angle_beta 152.050279
_cell_angle_gamma 90.000000
_cell_volume 1357.083563
_symmetry_space_group_name_H-M "P 2/C"
_symmetry_group_IT_number 13
_symmetry_cell_setting 'monoclinic'
loop_
_space_group_symop_operation_xyz
x,y,z
-x,y,1/2-z
-x,-y,-z
x,-y,1/2+z
loop_
_atom_site_type_symbol
_atom_site_label
_atom_site_fract_x
_atom_site_fract_y
_atom_site_fract_z
Si Si1 0.559412 0.294806 0.387208
Si Si2 0.643596 0.457087 0.186744
Si Si3 0.352918 0.959141 0.415352
Si Si4 0.161412 0.248928 0.237352
Si Si5 0.888578 0.449692 0.719684
Si Si6 0.125508 0.281652 0.635359
O O1 0.500000 0.254425 0.250000
O O2 0.429694 0.401977 0.303603
O O3 0.584491 0.145888 0.459610
O O4 0.721547 0.383330 0.541932
O O5 0.725304 0.321350 0.219942
O O6 0.766930 0.590598 0.303043
O O7 0.500000 0.500000 0.000000
O O8 0.235463 0.854633 0.259507
O O9 0.500000 0.000000 0.500000
O O10 0.250909 0.101161 0.347582
O O11 0.130668 0.377587 0.271633
O O12 0.004412 0.228096 0.043696
O O13 0.934474 0.358477 0.840483
O O14 0.000000 0.434412 0.750000
#
# Coordination Sequence:
#
# PCOD9234063 Si02
#       6
#     4   4   4   4   4   4
#     4  11  24  38  61  91 119 158 203 248 307 353
#     4  11  17  38  62  90 114 152 205 255 282 346
#     4  11  21  40  62  86 121 157 201 250 294 363
#     4  11  21  37  62  87 121 153 203 242 300 356
#     4  10  22  38  58  87 123 154 194 253 301 349
#     4  10  22  36  62  94 114 155 206 246 297 357
#
# _framework density 17.684982999999999
#
# number of rings (size 3 to 8) (size 9 to 14) (size 15 to 20)
#    0.000    1.333    6.667    2.500    4.667    0.000 
#    0.000    5.833    0.000    0.000    0.000    0.000 
#    0.000    0.000    0.000    0.000    0.000    0.000 
#
# Total GULP energy -133871.915023 kJ/mol
# GULP energy per Si atom -5577.996459 kJ/mol
# Density = 1.764473 g / cm^3
# Si number density = 17.684983 Si / 1000 Ang^3
#
#
#
# Elastic Constant Matrix: (Units=GPa)
#
#
# Indices 1 2 3 4 5 6 
#
# 1 117.0607 40.7537 48.1934 0.0000 13.6361 0.0000
# 2 40.7537 90.5573 26.6846 0.0000 -0.1075 0.0000
# 3 48.1934 26.6846 86.8062 0.0000 -14.5413 0.0000
# 4 0.0000 0.0000 0.0000 19.9180 0.0000 6.0753
# 5 13.6361 -0.1075 -14.5413 0.0000 26.5791 0.0000
# 6 0.0000 0.0000 0.0000 6.0753 0.0000 18.2307
#
#
#
# Elastic Compliance Matrix: (Units=1/GPa)
#
#
# Indices 1 2 3 4 5 6 
#
# 1 0.015422 -0.004163 -0.009480 0.000000 -0.013115 0.000000
# 2 -0.004163 0.013384 -0.001581 0.000000 0.001325 0.000000
# 3 -0.009480 -0.001581 0.019907 0.000000 0.015748 0.000000
# 4 0.000000 0.000000 0.000000 0.055886 0.000000 -0.018624
# 5 -0.013115 0.001325 0.015748 0.000000 0.052973 0.000000
# 6 0.000000 0.000000 0.000000 -0.018624 0.000000 0.061059
#
#
# Mechanical properties :
#
#
# Convention : Reuss Voigt Hill
#
# Bulk Modulus (GPa) = 54.74711 58.40973 56.57842
# Shear Modulus (GPa) = 19.59505 24.86507 22.23006
#
# Velocity S-wave (km/s) = 3.33228 3.75373 3.54927
# Velocity P-wave (km/s) = 6.76975 7.20326 6.98987
#
# Compressibility (1/GPa) = 0.01826580
#
# Stress axis : x y z
#
# Youngs Moduli (GPa) = 64.84151 74.71843 50.23398
#
# Poissons Ratio (x) = 0.31103 0.47619
# Poissons Ratio (y) = 0.26992 0.07943
# Poissons Ratio (z) = 0.61467 0.11814
#
# Static dielectric constant tensor:
#      x y z
#    x 1.876360 0.000000 0.218890 
#    y 0.000000 1.626820 0.000000 
#    z 0.218890 0.000000 1.778310 
# 
# From -- ./inp_files/63278.got.cif
#   From: 2010.05.17/outbox.cif.g08.bks.cpg/sg13_32_cif.got.tgz:63278.got - 2010.06.03 16:44:36.
