data_PCOD9234717
_publ_section_title
;
Structure prediction by ZEFSAII (Michael W. Deem and Ramdas Pophale) SiO2 
 PCOD9234717
Probable space group: P 2/C
;
_chemical_formula_sum "Si O2"
_cell_formula_units_Z 26
_cell_length_a 21.500877
_cell_length_b 8.842301
_cell_length_c 16.933102
_cell_angle_alpha 90.000000
_cell_angle_beta 22.374327
_cell_angle_gamma 90.000000
_cell_volume 1225.436332
_symmetry_space_group_name_H-M "P 2/C"
_symmetry_group_IT_number 13
_symmetry_cell_setting 'monoclinic'
loop_
_space_group_symop_operation_xyz
x,y,z
-x,y,1/2-z
-x,-y,-z
x,-y,1/2+z
loop_
_atom_site_type_symbol
_atom_site_label
_atom_site_fract_x
_atom_site_fract_y
_atom_site_fract_z
Si Si1 0.500000 0.857668 0.250000
Si Si2 0.790634 0.694514 0.102881
Si Si3 0.431835 0.626071 0.457658
Si Si4 0.111801 0.856718 0.348676
Si Si5 0.894150 0.589070 0.559769
Si Si6 0.500000 0.628909 0.750000
Si Si7 0.000000 0.080527 0.250000
Si Si8 0.731810 0.102163 0.985071
O O1 0.402145 0.752877 0.425244
O O2 0.383679 0.974135 0.342503
O O3 0.602673 0.667553 0.299264
O O4 0.820202 0.772262 0.153629
O O5 0.871639 0.527005 0.014078
O O6 0.881689 0.805941 0.936068
O O7 0.283669 0.617625 0.692907
O O8 0.451113 0.474437 0.382250
O O9 0.262287 0.903290 0.116869
O O10 0.000000 0.000000 0.500000
O O11 0.000000 0.500000 0.500000
O O12 0.998114 0.741711 0.431012
O O13 0.651672 0.736468 0.597007
O O14 0.905004 0.963739 0.305948
#
# Coordination Sequence:
#
# PCOD9234717 Si02
#       8
#     2   4   4   4   4   2   2   4
#     4  10  22  40  70  94 128 182 212 270 336 404
#     4  11  24  41  66  98 132 174 226 278 333 399
#     4  11  22  43  66  97 132 172 226 274 337 398
#     4  11  22  42  66  95 136 180 215 275 343 409
#     4  10  23  39  65  95 130 172 218 270 334 407
#     4  10  24  40  68  92 130 176 218 286 334 394
#     4  12  24  42  68  96 136 174 228 282 332 410
#     4  11  23  43  64  97 135 170 227 270 341 401
#
# _framework density 21.216933000000001
#
# number of rings (size 3 to 8) (size 9 to 14) (size 15 to 20)
#    0.000    1.231    3.077    3.231    2.154    2.462 
#    0.000    4.615    0.000    0.000    0.000    0.000 
#    0.000    0.000    0.000    0.000    0.000    0.000 
#
# Total GULP energy -144984.161028 kJ/mol
# GULP energy per Si atom -5576.313886 kJ/mol
# Density = 2.116864 g / cm^3
# Si number density = 21.216933 Si / 1000 Ang^3
#
#
#
# Elastic Constant Matrix: (Units=GPa)
#
#
# Indices 1 2 3 4 5 6 
#
# 1 67.7777 37.3470 29.4000 0.0000 -11.3364 0.0000
# 2 37.3470 145.4353 44.9806 0.0000 -3.9318 0.0000
# 3 29.4000 44.9806 94.4261 0.0000 -7.4435 0.0000
# 4 0.0000 0.0000 0.0000 36.2608 0.0000 3.6553
# 5 -11.3364 -3.9318 -7.4435 0.0000 34.4997 0.0000
# 6 0.0000 0.0000 0.0000 3.6553 0.0000 19.7393
#
#
#
# Elastic Compliance Matrix: (Units=1/GPa)
#
#
# Indices 1 2 3 4 5 6 
#
# 1 0.019279 -0.003613 -0.003881 0.000000 0.005086 0.000000
# 2 -0.003613 0.008741 -0.003107 0.000000 -0.000861 0.000000
# 3 -0.003881 -0.003107 0.013378 0.000000 0.001257 0.000000
# 4 0.000000 0.000000 0.000000 0.028103 0.000000 -0.005204
# 5 0.005086 -0.000861 0.001257 0.000000 0.030830 0.000000
# 6 0.000000 0.000000 0.000000 -0.005204 0.000000 0.051624
#
#
# Mechanical properties :
#
#
# Convention : Reuss Voigt Hill
#
# Bulk Modulus (GPa) = 49.51287 59.01047 54.26167
# Shear Modulus (GPa) = 27.79507 31.16073 29.47790
#
# Velocity S-wave (km/s) = 3.62338 3.83648 3.73145
# Velocity P-wave (km/s) = 6.39471 6.89189 6.64795
#
# Compressibility (1/GPa) = 0.02019677
#
# Stress axis : x y z
#
# Youngs Moduli (GPa) = 51.87014 114.39865 74.75150
#
# Poissons Ratio (x) = 0.41333 0.29008
# Poissons Ratio (y) = 0.18741 0.23225
# Poissons Ratio (z) = 0.20129 0.35543
#
# Static dielectric constant tensor:
#      x y z
#    x 1.852120 0.000000 -0.067140 
#    y 0.000000 1.813130 0.000000 
#    z -0.067140 0.000000 1.803120 
# 
# From -- ./inp_files/71292.got.cif
#   From: 2010.05.17/outbox.cif.g08.bks.cpg/sg13_36_cif.got.tgz:71292.got - 2010.06.03 16:44:36.
