data_PCOD9234701
_publ_section_title
;
Structure prediction by ZEFSAII (Michael W. Deem and Ramdas Pophale) SiO2 
 PCOD9234701
Probable space group: P 2/C
;
_chemical_formula_sum "Si O2"
_cell_formula_units_Z 18
_cell_length_a 12.244644
_cell_length_b 9.750711
_cell_length_c 9.166731
_cell_angle_alpha 90.000000
_cell_angle_beta 40.141306
_cell_angle_gamma 90.000000
_cell_volume 705.566099
_symmetry_space_group_name_H-M "P 2/C"
_symmetry_group_IT_number 13
_symmetry_cell_setting 'monoclinic'
loop_
_space_group_symop_operation_xyz
x,y,z
-x,y,1/2-z
-x,-y,-z
x,-y,1/2+z
loop_
_atom_site_type_symbol
_atom_site_label
_atom_site_fract_x
_atom_site_fract_y
_atom_site_fract_z
Si Si1 0.182822 0.096145 0.492042
Si Si2 0.612166 0.592724 0.279971
Si Si3 0.000000 0.484619 0.250000
Si Si4 0.653120 0.893918 0.369384
Si Si5 0.870848 0.632499 0.599974
O O1 0.308740 0.102693 0.499171
O O2 0.215513 0.228611 0.357674
O O3 0.000000 0.101663 0.750000
O O4 0.198415 0.962142 0.377505
O O5 0.500000 0.602868 0.250000
O O6 0.500000 0.500000 0.500000
O O7 0.631172 0.741431 0.330071
O O8 0.785846 0.499003 0.093417
O O9 0.100229 0.374869 0.258703
O O10 0.042929 0.609093 0.334329
O O11 0.500000 0.000000 0.500000
#
# Coordination Sequence:
#
# PCOD9234701 Si02
#       5
#     4   4   2   4   4
#     4  12  26  49  71 109 147 194 244 304 372 441
#     4  12  25  44  71 107 138 185 243 296 352 428
#     4  10  22  40  70 102 142 184 232 292 358 420
#     4  12  27  49  74 104 149 198 243 299 369 445
#     4  11  23  44  71 105 141 186 237 297 359 429
#
# _framework density 25.511427000000001
#
# number of rings (size 3 to 8) (size 9 to 14) (size 15 to 20)
#    0.000    0.444    1.111    8.000    3.111    1.778 
#    4.000    0.000    0.000    0.000    0.000    0.000 
#    0.000    0.000    0.000    0.000    0.000    0.000 
#
# Total GULP energy -100506.876286 kJ/mol
# GULP energy per Si atom -5583.715349 kJ/mol
# Density = 2.545336 g / cm^3
# Si number density = 25.511427 Si / 1000 Ang^3
#
#
#
# Elastic Constant Matrix: (Units=GPa)
#
#
# Indices 1 2 3 4 5 6 
#
# 1 186.2342 81.6401 61.6462 0.0000 55.8942 0.0000
# 2 81.6401 219.2089 55.2772 0.0000 25.9716 0.0000
# 3 61.6462 55.2772 97.8313 0.0000 35.7587 0.0000
# 4 0.0000 0.0000 0.0000 17.4562 0.0000 3.0165
# 5 55.8942 25.9716 35.7587 0.0000 66.2517 0.0000
# 6 0.0000 0.0000 0.0000 3.0165 0.0000 39.3775
#
#
#
# Elastic Compliance Matrix: (Units=1/GPa)
#
#
# Indices 1 2 3 4 5 6 
#
# 1 0.008583 -0.001979 -0.002401 0.000000 -0.005170 0.000000
# 2 -0.001979 0.005794 -0.002251 0.000000 0.000613 0.000000
# 3 -0.002401 -0.002251 0.014879 0.000000 -0.005123 0.000000
# 4 0.000000 0.000000 0.000000 0.058055 0.000000 -0.004447
# 5 -0.005170 0.000613 -0.005123 0.000000 0.021980 0.000000
# 6 0.000000 0.000000 0.000000 -0.004447 0.000000 0.025736
#
#
# Mechanical properties :
#
#
# Convention : Reuss Voigt Hill
#
# Bulk Modulus (GPa) = 62.51971 100.04460 81.28216
# Shear Modulus (GPa) = 32.54796 44.93115 38.73956
#
# Velocity S-wave (km/s) = 3.57574 4.20124 3.90104
# Velocity P-wave (km/s) = 6.45040 7.92683 7.22642
#
# Compressibility (1/GPa) = 0.01599495
#
# Stress axis : x y z
#
# Youngs Moduli (GPa) = 116.50398 172.59951 67.20992
#
# Poissons Ratio (x) = 0.34153 0.16136
# Poissons Ratio (y) = 0.23053 0.15128
# Poissons Ratio (z) = 0.27971 0.38849
#
# Static dielectric constant tensor:
#      x y z
#    x 1.953000 0.000000 -0.121840 
#    y 0.000000 2.084370 0.000000 
#    z -0.121840 0.000000 0.249620 
# 
# From -- ./inp_files/14767.got.cif
#   From: 2010.05.17/outbox.cif.g08.bks.cpg/sg13_8_cif.got.tgz:14767.got - 2010.06.03 16:44:36.
