data_PCOD9234472
_publ_section_title
;
Structure prediction by ZEFSAII (Michael W. Deem and Ramdas Pophale) SiO2 
 PCOD9234472
Probable space group: P 2/C
;
_chemical_formula_sum "Si O2"
_cell_formula_units_Z 32
_cell_length_a 9.169930
_cell_length_b 11.807129
_cell_length_c 30.374409
_cell_angle_alpha 90.000000
_cell_angle_beta 28.246166
_cell_angle_gamma 90.000000
_cell_volume 1556.390695
_symmetry_space_group_name_H-M "P 2/C"
_symmetry_group_IT_number 13
_symmetry_cell_setting 'monoclinic'
loop_
_space_group_symop_operation_xyz
x,y,z
-x,y,1/2-z
-x,-y,-z
x,-y,1/2+z
loop_
_atom_site_type_symbol
_atom_site_label
_atom_site_fract_x
_atom_site_fract_y
_atom_site_fract_z
Si Si1 0.857601 0.478415 0.414622
Si Si2 0.853109 0.395500 0.740960
Si Si3 0.301975 0.977369 0.464755
Si Si4 0.899276 0.147084 0.827280
Si Si5 0.837947 0.819033 0.544722
Si Si6 0.146680 0.987824 0.835499
Si Si7 0.110146 0.593489 0.434962
Si Si8 0.181721 0.738627 0.850373
O O1 0.500000 0.500000 0.500000
O O2 0.041592 0.509790 0.321490
O O3 0.004293 0.551456 0.415217
O O4 0.911314 0.349824 0.415857
O O5 0.480296 0.389619 0.840990
O O6 0.000000 0.418023 0.750000
O O7 0.004063 0.274910 0.686183
O O8 0.546461 0.893114 0.421608
O O9 0.137130 0.898323 0.472500
O O10 0.067388 0.014920 0.565621
O O11 0.401328 0.093896 0.414293
O O12 0.000000 0.133708 0.750000
O O13 0.056063 0.057961 0.817439
O O14 0.766675 0.777903 0.613100
O O15 0.933282 0.710133 0.492020
O O16 0.500000 0.014560 0.750000
O O17 0.126186 0.851901 0.837094
O O18 0.000000 0.500000 0.500000
O O19 0.500000 0.682984 0.750000
#
# Coordination Sequence:
#
# PCOD9234472 Si02
#       8
#     4   4   4   4   4   4   4   4
#     4  12  27  44  69  98 137 181 234 289 348 417
#     4  11  26  45  70 100 137 184 231 294 351 410
#     4  10  23  41  68  97 138 180 225 290 352 418
#     4  11  25  41  68  98 140 170 230 291 347 407
#     4  10  22  39  71  98 133 176 234 274 357 409
#     4  10  24  40  67  95 133 180 225 276 349 420
#     4  12  24  44  73 102 140 186 237 291 354 426
#     4  10  22  43  66  93 138 178 220 279 345 410
#
# _framework density 20.560392
#
# number of rings (size 3 to 8) (size 9 to 14) (size 15 to 20)
#    0.000    1.250    1.250    3.750   14.000    1.000 
#    0.000    0.625    0.000    0.000    0.000    0.000 
#    0.000    0.000    0.000    0.000    0.000    0.000 
#
# Total GULP energy -178684.731689 kJ/mol
# GULP energy per Si atom -5583.897865 kJ/mol
# Density = 2.051360 g / cm^3
# Si number density = 20.560392 Si / 1000 Ang^3
#
#
#
# Elastic Constant Matrix: (Units=GPa)
#
#
# Indices 1 2 3 4 5 6 
#
# 1 86.7794 43.2241 13.4610 0.0000 -7.8965 0.0000
# 2 43.2241 71.0456 17.7101 0.0000 -1.9787 0.0000
# 3 13.4610 17.7101 68.0384 0.0000 -5.7469 0.0000
# 4 0.0000 0.0000 0.0000 39.1508 0.0000 0.8443
# 5 -7.8965 -1.9787 -5.7469 0.0000 33.1161 0.0000
# 6 0.0000 0.0000 0.0000 0.8443 0.0000 30.9720
#
#
#
# Elastic Compliance Matrix: (Units=1/GPa)
#
#
# Indices 1 2 3 4 5 6 
#
# 1 0.016925 -0.010094 -0.000437 0.000000 0.003357 0.000000
# 2 -0.010094 0.021074 -0.003639 0.000000 -0.001779 0.000000
# 3 -0.000437 -0.003639 0.015938 0.000000 0.002444 0.000000
# 4 0.000000 0.000000 0.000000 0.025557 0.000000 -0.000697
# 5 0.003357 -0.001779 0.002444 0.000000 0.031315 0.000000
# 6 0.000000 0.000000 0.000000 -0.000697 0.000000 0.032306
#
#
# Mechanical properties :
#
#
# Convention : Reuss Voigt Hill
#
# Bulk Modulus (GPa) = 39.06911 41.62820 40.34865
# Shear Modulus (GPa) = 27.77957 30.74567 29.26262
#
# Velocity S-wave (km/s) = 3.67975 3.87121 3.77669
# Velocity P-wave (km/s) = 6.09077 6.34606 6.21972
#
# Compressibility (1/GPa) = 0.02559567
#
# Stress axis : x y z
#
# Youngs Moduli (GPa) = 59.08519 47.45092 62.74426
#
# Poissons Ratio (x) = 0.47899 0.02744
# Poissons Ratio (y) = 0.59643 0.22831
# Poissons Ratio (z) = 0.02584 0.17266
#
# Static dielectric constant tensor:
#      x y z
#    x 1.913860 0.000000 -0.096440 
#    y 0.000000 1.761470 0.000000 
#    z -0.096440 0.000000 1.812560 
# 
# From -- ./inp_files/96126.got.cif
#   From: 2010.05.17/outbox.cif.g08.bks.cpg/sg13_49_cif.got.tgz:96126.got - 2010.06.03 16:44:36.
