data_PCOD9234040
_publ_section_title
;
Structure prediction by ZEFSAII (Michael W. Deem and Ramdas Pophale) SiO2 
 PCOD9234040
Probable space group: P 2/C
;
_chemical_formula_sum "Si O2"
_cell_formula_units_Z 22
_cell_length_a 15.307772
_cell_length_b 11.270642
_cell_length_c 9.005019
_cell_angle_alpha 90.000000
_cell_angle_beta 137.780535
_cell_angle_gamma 90.000000
_cell_volume 1043.990615
_symmetry_space_group_name_H-M "P 2/C"
_symmetry_group_IT_number 13
_symmetry_cell_setting 'monoclinic'
loop_
_space_group_symop_operation_xyz
x,y,z
-x,y,1/2-z
-x,-y,-z
x,-y,1/2+z
loop_
_atom_site_type_symbol
_atom_site_label
_atom_site_fract_x
_atom_site_fract_y
_atom_site_fract_z
Si Si1 0.789129 0.492490 0.990192
Si Si2 0.240317 0.340218 0.288827
Si Si3 0.085263 0.914794 0.002828
Si Si4 0.500000 0.951320 0.750000
Si Si5 0.674777 0.086641 0.208814
Si Si6 0.073185 0.655074 0.090440
O O1 0.716275 0.398177 0.002167
O O2 0.863671 0.584941 0.192277
O O3 0.709040 0.575131 0.778243
O O4 0.880356 0.414184 0.997725
O O5 0.271269 0.205667 0.295322
O O6 0.082413 0.348109 0.091953
O O7 0.000000 0.884876 0.750000
O O8 0.114693 0.792115 0.125074
O O9 0.212680 0.989678 0.119611
O O10 0.000000 0.000000 0.000000
O O11 0.399944 0.884296 0.732086
O O12 0.419530 0.030323 0.532808
#
# Coordination Sequence:
#
# PCOD9234040 Si02
#       6
#     4   4   4   2   4   4
#     4  10  22  36  58  96 138 178 203 240 329 412
#     4  11  20  37  61  92 130 169 208 259 313 397
#     4  12  25  38  62 106 138 161 203 273 342 393
#     4  10  26  50  64  94 114 184 236 268 320 368
#     4  11  25  44  71  90 130 171 224 274 327 381
#     4  11  21  36  58  95 141 170 204 247 322 414
#
# _framework density 21.072987999999999
#
# number of rings (size 3 to 8) (size 9 to 14) (size 15 to 20)
#    0.000    1.091    1.818    6.545    7.636    0.000 
#    0.000    0.000    0.000    3.273    0.000    0.000 
#    0.000    0.000    0.000    0.000    0.000    0.000 
#
# Total GULP energy -122972.240812 kJ/mol
# GULP energy per Si atom -5589.647310 kJ/mol
# Density = 2.102502 g / cm^3
# Si number density = 21.072988 Si / 1000 Ang^3
#
#
#
# Elastic Constant Matrix: (Units=GPa)
#
#
# Indices 1 2 3 4 5 6 
#
# 1 93.2225 43.8765 32.1713 0.0000 -26.2309 0.0000
# 2 43.8765 152.5864 10.7256 0.0000 -8.1721 0.0000
# 3 32.1713 10.7256 51.5369 0.0000 -18.3288 0.0000
# 4 0.0000 0.0000 0.0000 45.6673 0.0000 9.8395
# 5 -26.2309 -8.1721 -18.3288 0.0000 32.6376 0.0000
# 6 0.0000 0.0000 0.0000 9.8395 0.0000 39.9817
#
#
#
# Elastic Compliance Matrix: (Units=1/GPa)
#
#
# Indices 1 2 3 4 5 6 
#
# 1 0.017633 -0.004091 -0.006848 0.000000 0.009302 0.000000
# 2 -0.004091 0.007632 0.000594 0.000000 -0.001043 0.000000
# 3 -0.006848 0.000594 0.027053 0.000000 0.009838 0.000000
# 4 0.000000 0.000000 0.000000 0.023124 0.000000 -0.005691
# 5 0.009302 -0.001043 0.009838 0.000000 0.043379 0.000000
# 6 0.000000 0.000000 0.000000 -0.005691 0.000000 0.026412
#
#
# Mechanical properties :
#
#
# Convention : Reuss Voigt Hill
#
# Bulk Modulus (GPa) = 31.61539 52.32139 41.96839
# Shear Modulus (GPa) = 28.33424 37.69550 33.01487
#
# Velocity S-wave (km/s) = 3.67082 4.23402 3.96244
# Velocity P-wave (km/s) = 5.74473 6.98463 6.39481
#
# Compressibility (1/GPa) = 0.03163016
#
# Stress axis : x y z
#
# Youngs Moduli (GPa) = 56.71209 131.02103 36.96406
#
# Poissons Ratio (x) = 0.53599 0.25312
# Poissons Ratio (y) = 0.23200 -0.02197
# Poissons Ratio (z) = 0.38835 -0.07787
#
# Static dielectric constant tensor:
#      x y z
#    x 1.795440 0.000000 -0.007660 
#    y 0.000000 1.759020 0.000000 
#    z -0.007660 0.000000 1.779770 
# 
# From -- ./inp_files/18659.got.cif
#   From: 2010.05.17/outbox.cif.g08.bks.cpg/sg13_10_cif.got.tgz:18659.got - 2010.06.03 16:44:36.
