data_PCOD9234251
_publ_section_title
;
Structure prediction by ZEFSAII (Michael W. Deem and Ramdas Pophale) SiO2 
 PCOD9234251
Probable space group: P 2/C
;
_chemical_formula_sum "Si O2"
_cell_formula_units_Z 18
_cell_length_a 7.100116
_cell_length_b 8.605415
_cell_length_c 14.087744
_cell_angle_alpha 90.000000
_cell_angle_beta 107.297563
_cell_angle_gamma 90.000000
_cell_volume 821.824430
_symmetry_space_group_name_H-M "P 2/C"
_symmetry_group_IT_number 13
_symmetry_cell_setting 'monoclinic'
loop_
_space_group_symop_operation_xyz
x,y,z
-x,y,1/2-z
-x,-y,-z
x,-y,1/2+z
loop_
_atom_site_type_symbol
_atom_site_label
_atom_site_fract_x
_atom_site_fract_y
_atom_site_fract_z
Si Si1 0.204641 0.633538 0.451077
Si Si2 0.188411 0.232405 0.613405
Si Si3 0.499344 0.514595 0.145445
Si Si4 0.000000 0.964288 0.250000
Si Si5 0.735014 0.997154 0.545543
O O1 0.289476 0.544512 0.371597
O O2 0.357296 0.581087 0.554654
O O3 0.219107 0.820077 0.449035
O O4 0.968927 0.627143 0.424582
O O5 0.398294 0.316140 0.640715
O O6 0.136748 0.143674 0.702886
O O7 0.184599 0.107658 0.528089
O O8 0.500000 0.443529 0.250000
O O9 0.150595 0.056457 0.341515
O O10 0.500000 0.000000 0.500000
#
# Coordination Sequence:
#
# PCOD9234251 Si02
#       5
#     4   4   4   2   4
#     4  10  22  41  58  90 124 160 209 261 309 371
#     4  11  22  41  65  88 127 162 211 262 311 378
#     4  11  22  39  62  89 121 169 207 250 317 377
#     4  10  22  38  64  96 116 166 210 248 328 374
#     4  11  22  42  64  92 129 163 207 268 316 376
#
# _framework density 21.902486
#
# number of rings (size 3 to 8) (size 9 to 14) (size 15 to 20)
#    0.000    1.333    2.222    6.000    0.000    0.000 
#    8.000    0.000    0.000    1.333    0.000    0.000 
#    0.000    0.000    0.000    0.000    0.000    0.000 
#
# Total GULP energy -100380.950758 kJ/mol
# GULP energy per Si atom -5576.719487 kJ/mol
# Density = 2.185264 g / cm^3
# Si number density = 21.902486 Si / 1000 Ang^3
#
#
#
# Elastic Constant Matrix: (Units=GPa)
#
#
# Indices 1 2 3 4 5 6 
#
# 1 97.2827 10.2188 29.7627 0.0000 0.8701 0.0000
# 2 10.2188 15.8318 16.5183 0.0000 -3.4026 0.0000
# 3 29.7627 16.5183 151.5902 0.0000 -8.1884 0.0000
# 4 0.0000 0.0000 0.0000 28.2476 0.0000 8.5318
# 5 0.8701 -3.4026 -8.1884 0.0000 29.5068 0.0000
# 6 0.0000 0.0000 0.0000 8.5318 0.0000 16.7061
#
#
#
# Elastic Compliance Matrix: (Units=1/GPa)
#
#
# Indices 1 2 3 4 5 6 
#
# 1 0.011430 -0.005949 -0.001676 0.000000 -0.001488 0.000000
# 2 -0.005949 0.075481 -0.006677 0.000000 0.007026 0.000000
# 3 -0.001676 -0.006677 0.007730 0.000000 0.001425 0.000000
# 4 0.000000 0.000000 0.000000 0.041858 0.000000 -0.021377
# 5 -0.001488 0.007026 0.001425 0.000000 0.035140 0.000000
# 6 0.000000 0.000000 0.000000 -0.021377 0.000000 0.070775
#
#
# Mechanical properties :
#
#
# Convention : Reuss Voigt Hill
#
# Bulk Modulus (GPa) = 15.14315 41.96717 28.55516
# Shear Modulus (GPa) = 17.06302 28.77243 22.91772
#
# Velocity S-wave (km/s) = 2.79417 3.62838 3.23825
# Velocity P-wave (km/s) = 4.16398 6.06267 5.20071
#
# Compressibility (1/GPa) = 0.06603648
#
# Stress axis : x y z
#
# Youngs Moduli (GPa) = 87.48627 13.24845 129.35867
#
# Poissons Ratio (x) = 0.07881 0.21686
# Poissons Ratio (y) = 0.52042 0.86378
# Poissons Ratio (z) = 0.14666 0.08847
#
# Static dielectric constant tensor:
#      x y z
#    x 1.724170 0.000000 -0.038150 
#    y 0.000000 1.774550 0.000000 
#    z -0.038150 0.000000 1.855120 
# 
# From -- ./inp_files/27816.got.cif
#   From: 2010.05.17/outbox.cif.g08.bks.cpg/sg13_14_cif.got.tgz:27816.got - 2010.06.03 16:44:36.
