data_PCOD9234128
_publ_section_title
;
Structure prediction by ZEFSAII (Michael W. Deem and Ramdas Pophale) SiO2 
 PCOD9234128
Probable space group: P 2/C
;
_chemical_formula_sum "Si O2"
_cell_formula_units_Z 26
_cell_length_a 18.721650
_cell_length_b 9.273412
_cell_length_c 20.080842
_cell_angle_alpha 90.000000
_cell_angle_beta 23.570775
_cell_angle_gamma 90.000000
_cell_volume 1394.109811
_symmetry_space_group_name_H-M "P 2/C"
_symmetry_group_IT_number 13
_symmetry_cell_setting 'monoclinic'
loop_
_space_group_symop_operation_xyz
x,y,z
-x,y,1/2-z
-x,-y,-z
x,-y,1/2+z
loop_
_atom_site_type_symbol
_atom_site_label
_atom_site_fract_x
_atom_site_fract_y
_atom_site_fract_z
Si Si1 0.940997 0.151827 0.960557
Si Si2 0.122398 0.576606 0.339888
Si Si3 0.236720 0.055307 0.251054
Si Si4 0.628409 0.210419 0.789058
Si Si5 0.000000 0.207718 0.250000
Si Si6 0.709000 0.059256 0.587329
Si Si7 0.736747 0.679791 0.868146
O O1 0.999629 0.315420 0.901620
O O2 0.874056 0.125290 0.093287
O O3 0.110061 0.043682 0.812731
O O4 0.788031 0.093114 0.043608
O O5 0.252734 0.683788 0.268245
O O6 0.230627 0.464759 0.201842
O O7 0.000000 0.500000 0.500000
O O8 0.290137 0.191184 0.161946
O O9 0.374277 0.943960 0.168794
O O10 0.721086 0.167145 0.640455
O O11 0.443973 0.295645 0.935229
O O12 0.092538 0.296043 0.230573
O O13 0.837894 0.115014 0.419303
O O14 0.500000 0.050428 0.750000
#
# Coordination Sequence:
#
# PCOD9234128 Si02
#       7
#     4   4   4   4   2   4   4
#     4   9  18  35  59  89 114 154 201 250 307 352
#     4  11  21  37  61  87 125 161 201 256 315 366
#     4   9  17  33  60  89 115 146 200 259 299 344
#     4  10  22  37  62  94 118 155 209 262 304 361
#     4  12  24  38  62  92 118 164 202 248 314 380
#     4  11  21  40  64  90 122 159 213 260 305 374
#     4  12  21  37  60  91 124 161 203 248 311 379
#
# _framework density 18.649892999999999
#
# number of rings (size 3 to 8) (size 9 to 14) (size 15 to 20)
#    0.000    1.538    4.615    2.769    0.000    0.000 
#    0.000    0.769    3.385    0.000    0.000    0.000 
#    0.000    0.000    0.000    0.000    0.000    0.000 
#
# Total GULP energy -144918.360860 kJ/mol
# GULP energy per Si atom -5573.783110 kJ/mol
# Density = 1.860744 g / cm^3
# Si number density = 18.649893 Si / 1000 Ang^3
#
#
#
# Elastic Constant Matrix: (Units=GPa)
#
#
# Indices 1 2 3 4 5 6 
#
# 1 67.8801 25.0684 18.2080 0.0000 -11.2374 0.0000
# 2 25.0684 114.6860 41.6493 0.0000 1.1896 0.0000
# 3 18.2080 41.6493 73.1961 0.0000 -3.9173 0.0000
# 4 0.0000 0.0000 0.0000 25.3732 0.0000 -2.7659
# 5 -11.2374 1.1896 -3.9173 0.0000 29.1170 0.0000
# 6 0.0000 0.0000 0.0000 -2.7659 0.0000 25.1261
#
#
#
# Elastic Compliance Matrix: (Units=1/GPa)
#
#
# Indices 1 2 3 4 5 6 
#
# 1 0.017572 -0.003089 -0.002260 0.000000 0.006604 0.000000
# 2 -0.003089 0.011582 -0.005954 0.000000 -0.002466 0.000000
# 3 -0.002260 -0.005954 0.017706 0.000000 0.001753 0.000000
# 4 0.000000 0.000000 0.000000 0.039890 0.000000 0.004391
# 5 0.006604 -0.002466 0.001753 0.000000 0.037229 0.000000
# 6 0.000000 0.000000 0.000000 0.004391 0.000000 0.040283
#
#
# Mechanical properties :
#
#
# Convention : Reuss Voigt Hill
#
# Bulk Modulus (GPa) = 41.22977 47.29039 44.26008
# Shear Modulus (GPa) = 25.64706 27.31235 26.47971
#
# Velocity S-wave (km/s) = 3.71237 3.83100 3.77215
# Velocity P-wave (km/s) = 6.36638 6.70677 6.53879
#
# Compressibility (1/GPa) = 0.02425432
#
# Stress axis : x y z
#
# Youngs Moduli (GPa) = 56.90859 86.33721 56.47796
#
# Poissons Ratio (x) = 0.26666 0.12766
# Poissons Ratio (y) = 0.17577 0.33628
# Poissons Ratio (z) = 0.12863 0.51407
#
# Static dielectric constant tensor:
#      x y z
#    x 1.668660 0.000000 -0.020000 
#    y 0.000000 1.630360 0.000000 
#    z -0.020000 0.000000 1.731790 
# 
# From -- ./inp_files/69630.got.cif
#   From: 2010.05.17/outbox.cif.g08.bks.cpg/sg13_35_cif.got.tgz:69630.got - 2010.06.03 16:44:36.
