data_PCOD9234912
_publ_section_title
;
Structure prediction by ZEFSAII (Michael W. Deem and Ramdas Pophale) SiO2 
 PCOD9234912
Probable space group: P 2/C
;
_chemical_formula_sum "Si O2"
_cell_formula_units_Z 18
_cell_length_a 16.330130
_cell_length_b 5.209838
_cell_length_c 17.715016
_cell_angle_alpha 90.000000
_cell_angle_beta 145.359522
_cell_angle_gamma 90.000000
_cell_volume 856.699825
_symmetry_space_group_name_H-M "P 2/C"
_symmetry_group_IT_number 13
_symmetry_cell_setting 'monoclinic'
loop_
_space_group_symop_operation_xyz
x,y,z
-x,y,1/2-z
-x,-y,-z
x,-y,1/2+z
loop_
_atom_site_type_symbol
_atom_site_label
_atom_site_fract_x
_atom_site_fract_y
_atom_site_fract_z
Si Si1 0.087854 0.968652 0.239430
Si Si2 0.500000 0.671699 0.250000
Si Si3 0.413802 0.426551 0.333492
Si Si4 0.408919 0.088207 0.535666
Si Si5 0.911571 0.458536 0.356901
O O1 0.255274 0.018568 0.386254
O O2 0.042528 0.197622 0.149521
O O3 0.000000 0.976480 0.250000
O O4 0.069287 0.697456 0.184533
O O5 0.410183 0.500226 0.240896
O O6 0.596874 0.844899 0.379064
O O7 0.479680 0.347960 0.556216
O O8 0.256630 0.441894 0.248723
O O9 0.483266 0.147820 0.393446
O O10 0.000000 0.500000 0.500000
#
# Coordination Sequence:
#
# PCOD9234912 Si02
#       5
#     4   2   4   4   4
#     4  12  28  47  72 103 143 189 232 293 348 416
#     4   8  22  36  66 102 134 182 206 298 334 426
#     4  10  22  41  69 100 134 179 231 276 350 410
#     4  10  22  41  69  99 135 179 232 276 350 409
#     4  12  28  47  72 103 143 189 232 293 348 416
#
# _framework density 21.010857999999999
#
# number of rings (size 3 to 8) (size 9 to 14) (size 15 to 20)
#    1.333    0.000    0.000    4.667    3.111    8.889 
#    0.000    0.000    0.000    0.000    0.000    0.000 
#    0.000    0.000    0.000    0.000    0.000    0.000 
#
# Total GULP energy -100650.026540 kJ/mol
# GULP energy per Si atom -5591.668141 kJ/mol
# Density = 2.096304 g / cm^3
# Si number density = 21.010858 Si / 1000 Ang^3
#
#
#
# Elastic Constant Matrix: (Units=GPa)
#
#
# Indices 1 2 3 4 5 6 
#
# 1 127.0749 29.2655 8.3441 0.0000 -1.4507 0.0000
# 2 29.2655 104.1097 -7.8423 0.0000 8.2046 0.0000
# 3 8.3441 -7.8423 77.3357 0.0000 2.0058 0.0000
# 4 0.0000 0.0000 0.0000 -5.1032 0.0000 -23.2519
# 5 -1.4507 8.2046 2.0058 0.0000 33.0042 0.0000
# 6 0.0000 0.0000 0.0000 -23.2519 0.0000 23.1377
#
#
#
# Elastic Compliance Matrix: (Units=1/GPa)
#
#
# Indices 1 2 3 4 5 6 
#
# 1 0.008556 -0.002583 -0.001213 0.000000 0.001092 0.000000
# 2 -0.002583 0.010664 0.001434 0.000000 -0.002852 0.000000
# 3 -0.001213 0.001434 0.013238 0.000000 -0.001214 0.000000
# 4 0.000000 0.000000 0.000000 -0.035125 0.000000 -0.035298
# 5 0.001092 -0.002852 -0.001214 0.000000 0.031130 0.000000
# 6 0.000000 0.000000 0.000000 -0.035298 0.000000 0.007747
#
#
# Mechanical properties :
#
#
# Convention : Reuss Voigt Hill
#
# Bulk Modulus (GPa) = 36.05592 40.89500 38.47546
# Shear Modulus (GPa) = 99.64183 28.79128 64.21655
#
# Velocity S-wave (km/s) = 6.89398 3.70578 5.53442
# Velocity P-wave (km/s) = 8.97592 6.14950 7.69362
#
# Compressibility (1/GPa) = 0.02773470
#
# Stress axis : x y z
#
# Youngs Moduli (GPa) = 116.87298 93.77354 75.53742
#
# Poissons Ratio (x) = 0.24218 0.09166
# Poissons Ratio (y) = 0.30184 -0.10832
# Poissons Ratio (z) = 0.14181 -0.13447
#
# Static dielectric constant tensor:
#      x y z
#    x 1.757090 0.000000 -0.050480 
#    y 0.000000 1.727050 0.000000 
#    z -0.050480 0.000000 1.761190 
# 
# From -- ./inp_files/52416.got.cif
#   From: 2010.05.17/outbox.cif.g08.bks.cpg/sg13_27_cif.got.tgz:52416.got - 2010.06.03 16:44:36.
