data_PCOD9234154
_publ_section_title
;
Structure prediction by ZEFSAII (Michael W. Deem and Ramdas Pophale) SiO2 
 PCOD9234154
Probable space group: P 2/C
;
_chemical_formula_sum "Si O2"
_cell_formula_units_Z 30
_cell_length_a 10.701697
_cell_length_b 22.231688
_cell_length_c 5.689012
_cell_angle_alpha 90.000000
_cell_angle_beta 82.733289
_cell_angle_gamma 90.000000
_cell_volume 1342.640198
_symmetry_space_group_name_H-M "P 2/C"
_symmetry_group_IT_number 13
_symmetry_cell_setting 'monoclinic'
loop_
_space_group_symop_operation_xyz
x,y,z
-x,y,1/2-z
-x,-y,-z
x,-y,1/2+z
loop_
_atom_site_type_symbol
_atom_site_label
_atom_site_fract_x
_atom_site_fract_y
_atom_site_fract_z
Si Si1 0.868796 0.227208 0.757013
Si Si2 0.604955 0.648159 0.417202
Si Si3 0.230645 0.529625 0.638188
Si Si4 0.629118 0.838463 0.083733
Si Si5 0.500000 0.546640 0.750000
Si Si6 0.355149 0.979757 0.328314
Si Si7 0.192294 0.339503 0.988205
Si Si8 0.319345 0.250897 0.304706
O O1 0.753497 0.191005 0.669384
O O2 0.898231 0.286309 0.585909
O O3 0.000000 0.193302 0.750000
O O4 0.811615 0.242271 0.025561
O O5 0.500000 0.640331 0.250000
O O6 0.587867 0.594301 0.594480
O O7 0.739615 0.641465 0.267330
O O8 0.594099 0.713898 0.531770
O O9 0.191466 0.498542 0.399087
O O10 0.387169 0.522490 0.602970
O O11 0.175811 0.598000 0.628854
O O12 0.500000 0.822614 0.250000
O O13 0.641110 0.909922 0.099930
O O14 0.632163 0.809921 0.822701
O O15 0.500000 0.001388 0.250000
O O16 0.300091 0.012361 0.575589
O O17 0.292733 0.300671 0.112857
#
# Coordination Sequence:
#
# PCOD9234154 Si02
#       8
#     4   4   4   4   2   4   4   4
#     4  10  24  43  68  96 129 174 226 283 342 413
#     4  11  19  32  54  78 124 166 209 258 332 399
#     4  12  25  38  57  84 123 166 222 274 331 405
#     4  10  23  39  63 106 139 177 226 281 339 398
#     4  12  22  34  52  78 126 172 210 258 330 414
#     4   9  19  37  65  94 141 193 235 276 326 391
#     4  10  22  38  56  83 112 165 209 269 334 407
#     4  10  22  38  62  86 132 168 216 277 341 410
#
# _framework density 22.344034000000001
#
# number of rings (size 3 to 8) (size 9 to 14) (size 15 to 20)
#    0.000    1.600    2.667    1.200    3.733   11.733 
#    0.000    0.000    0.000    1.600    0.000    0.000 
#    0.000    0.000    0.000    0.000    0.000    0.000 
#
# Total GULP energy -167195.683907 kJ/mol
# GULP energy per Si atom -5573.189464 kJ/mol
# Density = 2.229318 g / cm^3
# Si number density = 22.344034 Si / 1000 Ang^3
#
#
#
# Elastic Constant Matrix: (Units=GPa)
#
#
# Indices 1 2 3 4 5 6 
#
# 1 68.9407 11.1658 4.5895 0.0000 4.3876 0.0000
# 2 11.1658 123.7144 51.4030 0.0000 2.9700 0.0000
# 3 4.5895 51.4030 112.0700 0.0000 5.8162 0.0000
# 4 0.0000 0.0000 0.0000 19.8004 0.0000 3.9358
# 5 4.3876 2.9700 5.8162 0.0000 16.4558 0.0000
# 6 0.0000 0.0000 0.0000 3.9358 0.0000 1.6308
#
#
#
# Elastic Compliance Matrix: (Units=1/GPa)
#
#
# Indices 1 2 3 4 5 6 
#
# 1 0.014952 -0.001341 0.000201 0.000000 -0.003816 0.000000
# 2 -0.001341 0.010107 -0.004589 0.000000 0.000155 0.000000
# 3 0.000201 -0.004589 0.011185 0.000000 -0.003179 0.000000
# 4 0.000000 0.000000 0.000000 0.097072 0.000000 -0.234276
# 5 -0.003816 0.000155 -0.003179 0.000000 0.062882 0.000000
# 6 0.000000 0.000000 0.000000 -0.234276 0.000000 1.178595
#
#
# Mechanical properties :
#
#
# Convention : Reuss Voigt Hill
#
# Bulk Modulus (GPa) = 40.34721 48.78241 44.56481
# Shear Modulus (GPa) = 3.58548 23.41517 13.50033
#
# Velocity S-wave (km/s) = 1.26813 3.24070 2.46072
# Velocity P-wave (km/s) = 4.49896 5.99021 5.29733
#
# Compressibility (1/GPa) = 0.02478486
#
# Stress axis : x y z
#
# Youngs Moduli (GPa) = 66.88094 98.93951 89.40907
#
# Poissons Ratio (x) = 0.13272 -0.01797
# Poissons Ratio (y) = 0.08971 0.41030
# Poissons Ratio (z) = -0.01344 0.45403
#
# Static dielectric constant tensor:
#      x y z
#    x 1.830280 0.000000 -0.002150 
#    y 0.000000 1.841810 0.000000 
#    z -0.002150 0.000000 2.054650 
# 
# From -- ./inp_files/4138.got.cif
#   From: 2010.05.17/outbox.cif.g08.bks.cpg/sg13_3_cif.got.tgz:4138.got - 2010.06.03 16:44:36.
