data_PCOD9234333
_publ_section_title
;
Structure prediction by ZEFSAII (Michael W. Deem and Ramdas Pophale) SiO2 
 PCOD9234333
Probable space group: P 2/C
;
_chemical_formula_sum "Si O2"
_cell_formula_units_Z 24
_cell_length_a 11.983714
_cell_length_b 5.035396
_cell_length_c 19.827327
_cell_angle_alpha 90.000000
_cell_angle_beta 116.491249
_cell_angle_gamma 90.000000
_cell_volume 1070.812628
_symmetry_space_group_name_H-M "P 2/C"
_symmetry_group_IT_number 13
_symmetry_cell_setting 'monoclinic'
loop_
_space_group_symop_operation_xyz
x,y,z
-x,y,1/2-z
-x,-y,-z
x,-y,1/2+z
loop_
_atom_site_type_symbol
_atom_site_label
_atom_site_fract_x
_atom_site_fract_y
_atom_site_fract_z
Si Si1 0.516409 0.986412 0.353517
Si Si2 0.973571 0.789115 0.822612
Si Si3 0.551851 0.495168 0.939960
Si Si4 0.790128 0.441472 0.933290
Si Si5 0.300033 0.850252 0.700082
Si Si6 0.019163 0.739090 0.422392
O O1 0.557088 0.199857 0.419481
O O2 0.633948 0.947373 0.334933
O O3 0.406950 0.142041 0.285117
O O4 0.472632 0.707214 0.371825
O O5 0.050600 0.004534 0.886741
O O6 0.000000 0.784287 0.750000
O O7 0.831185 0.883636 0.798111
O O8 0.996184 0.505443 0.864263
O O9 0.688735 0.372517 0.962792
O O10 0.500000 0.500000 0.000000
O O11 0.721698 0.593091 0.852942
O O12 0.889770 0.234867 0.929765
O O13 0.878602 0.654611 0.995627
#
# Coordination Sequence:
#
# PCOD9234333 Si02
#       6
#     4   4   4   4   4   4
#     4  10  22  39  60  84 113 153 193 232 285 342
#     4  11  23  38  58  87 119 151 191 239 290 343
#     4  11  23  38  58  86 117 149 189 237 287 340
#     4   9  21  40  62  86 116 152 196 240 285 343
#     4   9  21  39  61  85 115 151 193 238 283 340
#     4  10  22  39  61  85 114 155 195 235 287 344
#
# _framework density 22.412883000000001
#
# number of rings (size 3 to 8) (size 9 to 14) (size 15 to 20)
#    0.000    2.000    0.000    2.000    0.000   19.333 
#    0.000    0.000    0.000    0.000    0.000    0.000 
#    0.000    0.000    0.000    0.000    0.000    0.000 
#
# Total GULP energy -133888.616875 kJ/mol
# GULP energy per Si atom -5578.692370 kJ/mol
# Density = 2.236187 g / cm^3
# Si number density = 22.412883 Si / 1000 Ang^3
#
#
#
# Elastic Constant Matrix: (Units=GPa)
#
#
# Indices 1 2 3 4 5 6 
#
# 1 111.7530 24.5108 59.7883 0.0000 -26.0006 0.0000
# 2 24.5108 92.8591 36.1648 0.0000 -18.4581 0.0000
# 3 59.7883 36.1648 75.7151 0.0000 -26.0340 0.0000
# 4 0.0000 0.0000 0.0000 14.2393 0.0000 -4.7162
# 5 -26.0006 -18.4581 -26.0340 0.0000 46.5022 0.0000
# 6 0.0000 0.0000 0.0000 -4.7162 0.0000 17.4256
#
#
#
# Elastic Compliance Matrix: (Units=1/GPa)
#
#
# Indices 1 2 3 4 5 6 
#
# 1 0.015766 0.001039 -0.012103 0.000000 0.002452 0.000000
# 2 0.001039 0.013470 -0.006460 0.000000 0.002311 0.000000
# 3 -0.012103 -0.006460 0.028039 0.000000 0.006366 0.000000
# 4 0.000000 0.000000 0.000000 0.077143 0.000000 0.020879
# 5 0.002452 0.002311 0.006366 0.000000 0.027357 0.000000
# 6 0.000000 0.000000 0.000000 0.020879 0.000000 0.063038
#
#
# Mechanical properties :
#
#
# Convention : Reuss Voigt Hill
#
# Bulk Modulus (GPa) = 44.98824 57.91722 51.45273
# Shear Modulus (GPa) = 18.70776 26.29098 22.49937
#
# Velocity S-wave (km/s) = 2.89223 3.42867 3.17181
# Velocity P-wave (km/s) = 5.59190 6.44760 6.03494
#
# Compressibility (1/GPa) = 0.02222803
#
# Stress axis : x y z
#
# Youngs Moduli (GPa) = 63.42799 74.23949 35.66463
#
# Poissons Ratio (x) = -0.07717 0.43165
# Poissons Ratio (y) = -0.06593 0.23039
# Poissons Ratio (z) = 0.76766 0.47958
#
# Static dielectric constant tensor:
#      x y z
#    x 1.988060 0.000000 0.162880 
#    y 0.000000 1.907710 0.000000 
#    z 0.162880 0.000000 1.950590 
# 
# From -- ./inp_files/65445.got.cif
#   From: 2010.05.17/outbox.cif.g08.bks.cpg/sg13_33_cif.got.tgz:65445.got - 2010.06.03 16:44:36.
