data_PCOD9234369
_publ_section_title
;
Structure prediction by ZEFSAII (Michael W. Deem and Ramdas Pophale) SiO2 
 PCOD9234369
Probable space group: P 2/C
;
_chemical_formula_sum "Si O2"
_cell_formula_units_Z 20
_cell_length_a 10.464830
_cell_length_b 6.052886
_cell_length_c 13.634506
_cell_angle_alpha 90.000000
_cell_angle_beta 89.816098
_cell_angle_gamma 90.000000
_cell_volume 863.638198
_symmetry_space_group_name_H-M "P 2/C"
_symmetry_group_IT_number 13
_symmetry_cell_setting 'monoclinic'
loop_
_space_group_symop_operation_xyz
x,y,z
-x,y,1/2-z
-x,-y,-z
x,-y,1/2+z
loop_
_atom_site_type_symbol
_atom_site_label
_atom_site_fract_x
_atom_site_fract_y
_atom_site_fract_z
Si Si1 0.782735 0.940494 0.151733
Si Si2 0.995463 0.630011 0.367765
Si Si3 0.633348 0.382540 0.786045
Si Si4 0.256111 0.135093 0.547208
Si Si5 0.836817 0.245520 0.325952
O O1 0.856678 0.080981 0.234775
O O2 0.673656 0.811228 0.210990
O O3 0.875077 0.754232 0.103356
O O4 0.732351 0.102621 0.067945
O O5 0.958367 0.370207 0.374264
O O6 0.000000 0.659803 0.250000
O O7 0.878766 0.751393 0.422127
O O8 0.500000 0.475881 0.750000
O O9 0.745597 0.561640 0.785689
O O10 0.637930 0.274842 0.894657
O O11 0.242933 0.893950 0.595470
#
# Coordination Sequence:
#
# PCOD9234369 Si02
#       5
#     4   4   4   4   4
#     4  11  23  40  64  90 123 162 198 248 299 356
#     4  11  20  38  59  92 122 161 195 238 294 368
#     4  10  23  42  61  87 119 158 209 251 299 355
#     4  10  23  40  62  93 122 156 202 246 301 360
#     4  10  22  39  62  83 126 158 200 243 308 349
#
# _framework density 23.157844000000001
#
# number of rings (size 3 to 8) (size 9 to 14) (size 15 to 20)
#    0.000    1.600    6.000    0.600    2.800    8.000 
#    0.000    2.000    0.000    0.000    0.000    0.000 
#    0.000    0.000    0.000    0.000    0.000    0.000 
#
# Total GULP energy -111667.815846 kJ/mol
# GULP energy per Si atom -5583.390792 kJ/mol
# Density = 2.310514 g / cm^3
# Si number density = 23.157844 Si / 1000 Ang^3
#
#
#
# Elastic Constant Matrix: (Units=GPa)
#
#
# Indices 1 2 3 4 5 6 
#
# 1 49.2658 1.5001 -2.0011 0.0000 20.8067 0.0000
# 2 1.5001 71.6489 8.4599 0.0000 -0.9633 0.0000
# 3 -2.0011 8.4599 94.0160 0.0000 6.7313 0.0000
# 4 0.0000 0.0000 0.0000 15.2781 0.0000 3.3184
# 5 20.8067 -0.9633 6.7313 0.0000 21.2916 0.0000
# 6 0.0000 0.0000 0.0000 3.3184 0.0000 15.6460
#
#
#
# Elastic Compliance Matrix: (Units=1/GPa)
#
#
# Indices 1 2 3 4 5 6 
#
# 1 0.035737 -0.001646 0.003494 0.000000 -0.036103 0.000000
# 2 -0.001646 0.014206 -0.001509 0.000000 0.002728 0.000000
# 3 0.003494 -0.001509 0.011353 0.000000 -0.007072 0.000000
# 4 0.000000 0.000000 0.000000 0.068614 0.000000 -0.014553
# 5 -0.036103 0.002728 -0.007072 0.000000 0.084606 0.000000
# 6 0.000000 0.000000 0.000000 -0.014553 0.000000 0.067001
#
#
# Mechanical properties :
#
#
# Convention : Reuss Voigt Hill
#
# Bulk Modulus (GPa) = 16.13575 25.64984 20.89280
# Shear Modulus (GPa) = 16.58384 24.24125 20.41255
#
# Velocity S-wave (km/s) = 2.67895 3.23891 2.97215
# Velocity P-wave (km/s) = 4.06840 5.00875 4.56286
#
# Compressibility (1/GPa) = 0.06197417
#
# Stress axis : x y z
#
# Youngs Moduli (GPa) = 27.98185 70.39162 88.08316
#
# Poissons Ratio (x) = 0.11587 -0.30773
# Poissons Ratio (y) = 0.04606 0.13289
# Poissons Ratio (z) = -0.09776 0.10620
#
# Static dielectric constant tensor:
#      x y z
#    x 1.854170 0.000000 0.016220 
#    y 0.000000 1.904890 0.000000 
#    z 0.016220 0.000000 1.895770 
# 
# From -- ./inp_files/48578.got.cif
#   From: 2010.05.17/outbox.cif.g08.bks.cpg/sg13_25_cif.got.tgz:48578.got - 2010.06.03 16:44:36.
