data_PCOD9234302
_publ_section_title
;
Structure prediction by ZEFSAII (Michael W. Deem and Ramdas Pophale) SiO2 
 PCOD9234302
Probable space group: P 2/C
;
_chemical_formula_sum "Si O2"
_cell_formula_units_Z 22
_cell_length_a 27.765791
_cell_length_b 8.263114
_cell_length_c 17.034381
_cell_angle_alpha 90.000000
_cell_angle_beta 16.140198
_cell_angle_gamma 90.000000
_cell_volume 1086.443697
_symmetry_space_group_name_H-M "P 2/C"
_symmetry_group_IT_number 13
_symmetry_cell_setting 'monoclinic'
loop_
_space_group_symop_operation_xyz
x,y,z
-x,y,1/2-z
-x,-y,-z
x,-y,1/2+z
loop_
_atom_site_type_symbol
_atom_site_label
_atom_site_fract_x
_atom_site_fract_y
_atom_site_fract_z
Si Si1 0.000000 0.899603 0.250000
Si Si2 0.043847 0.664924 0.882979
Si Si3 0.312325 0.190249 0.078475
Si Si4 0.187582 0.878279 0.350346
Si Si5 0.319322 0.677358 0.728277
Si Si6 0.708105 0.678392 0.158317
O O1 0.828781 0.792991 0.505209
O O2 0.971596 0.009719 0.370889
O O3 0.157514 0.783251 0.759996
O O4 0.159652 0.656019 0.621538
O O5 0.000000 0.500000 0.000000
O O6 0.869687 0.750235 0.124849
O O7 0.280180 0.319244 0.197567
O O8 0.313413 0.012299 0.116203
O O9 0.500000 0.223037 0.750000
O O10 0.242070 0.792235 0.346181
O O11 0.517433 0.733576 0.428831
O O12 0.305367 0.500738 0.785165
#
# Coordination Sequence:
#
# PCOD9234302 Si02
#       6
#     2   4   4   4   4   4
#     4  10  22  38  72  94 126 162 220 264 316 390
#     4  12  25  43  67  96 135 172 214 273 325 383
#     4  11  24  45  62  96 136 171 214 275 334 378
#     4  11  24  43  67  96 129 176 217 267 322 391
#     4  10  24  42  69  97 126 175 218 265 323 389
#     4  11  23  45  67  95 130 173 224 263 319 390
#
# _framework density 20.249552000000001
#
# number of rings (size 3 to 8) (size 9 to 14) (size 15 to 20)
#    0.000    1.091    3.636    1.636    7.636    4.364 
#    6.545    0.000    0.000    0.000    0.000    0.000 
#    0.000    0.000    0.000    0.000    0.000    0.000 
#
# Total GULP energy -122714.746866 kJ/mol
# GULP energy per Si atom -5577.943039 kJ/mol
# Density = 2.020346 g / cm^3
# Si number density = 20.249552 Si / 1000 Ang^3
#
#
#
# Elastic Constant Matrix: (Units=GPa)
#
#
# Indices 1 2 3 4 5 6 
#
# 1 115.6568 32.0307 11.1013 0.0000 -1.4038 0.0000
# 2 32.0307 79.0820 17.8372 0.0000 2.3991 0.0000
# 3 11.1013 17.8372 49.6069 0.0000 2.1824 0.0000
# 4 0.0000 0.0000 0.0000 7.0415 0.0000 0.3827
# 5 -1.4038 2.3991 2.1824 0.0000 26.2079 0.0000
# 6 0.0000 0.0000 0.0000 0.3827 0.0000 27.6419
#
#
#
# Elastic Compliance Matrix: (Units=1/GPa)
#
#
# Indices 1 2 3 4 5 6 
#
# 1 0.009793 -0.003800 -0.000867 0.000000 0.000945 0.000000
# 2 -0.003800 0.015254 -0.004581 0.000000 -0.001218 0.000000
# 3 -0.000867 -0.004581 0.022064 0.000000 -0.001464 0.000000
# 4 0.000000 0.000000 0.000000 0.142122 0.000000 -0.001968
# 5 0.000945 -0.001218 -0.001464 0.000000 0.038440 0.000000
# 6 0.000000 0.000000 0.000000 -0.001968 0.000000 0.036204
#
#
# Mechanical properties :
#
#
# Convention : Reuss Voigt Hill
#
# Bulk Modulus (GPa) = 34.94502 40.69822 37.82162
# Shear Modulus (GPa) = 17.12841 24.40336 20.76589
#
# Velocity S-wave (km/s) = 2.91153 3.47527 3.20581
# Velocity P-wave (km/s) = 5.34765 6.02040 5.69397
#
# Compressibility (1/GPa) = 0.02861638
#
# Stress axis : x y z
#
# Youngs Moduli (GPa) = 102.11109 65.55512 45.32245
#
# Poissons Ratio (x) = 0.24909 0.03929
# Poissons Ratio (y) = 0.38799 0.20763
# Poissons Ratio (z) = 0.08852 0.30031
#
# Static dielectric constant tensor:
#      x y z
#    x 1.728350 0.000000 0.002420 
#    y 0.000000 1.727920 0.000000 
#    z 0.002420 0.000000 1.747280 
# 
# From -- ./inp_files/58648.got.cif
#   From: 2010.05.17/outbox.cif.g08.bks.cpg/sg13_30_cif.got.tgz:58648.got - 2010.06.03 16:44:36.
