data_PCOD9234037
_publ_section_title
;
Structure prediction by ZEFSAII (Michael W. Deem and Ramdas Pophale) SiO2 
 PCOD9234037
Probable space group: P 2/C
;
_chemical_formula_sum "Si O2"
_cell_formula_units_Z 24
_cell_length_a 12.092245
_cell_length_b 11.312566
_cell_length_c 9.165730
_cell_angle_alpha 90.000000
_cell_angle_beta 89.890883
_cell_angle_gamma 90.000000
_cell_volume 1253.817526
_symmetry_space_group_name_H-M "P 2/C"
_symmetry_group_IT_number 13
_symmetry_cell_setting 'monoclinic'
loop_
_space_group_symop_operation_xyz
x,y,z
-x,y,1/2-z
-x,-y,-z
x,-y,1/2+z
loop_
_atom_site_type_symbol
_atom_site_label
_atom_site_fract_x
_atom_site_fract_y
_atom_site_fract_z
Si Si1 0.625013 0.544458 0.533979
Si Si2 0.410479 0.832883 0.455671
Si Si3 0.310375 0.347507 0.160146
Si Si4 0.779274 0.979734 0.504876
Si Si5 0.873559 0.844186 0.783903
Si Si6 0.649561 0.785280 0.359259
O O1 0.500000 0.500000 0.500000
O O2 0.702268 0.440988 0.470661
O O3 0.643781 0.580874 0.701212
O O4 0.650647 0.662131 0.442505
O O5 0.394564 0.752304 0.598269
O O6 0.538123 0.849894 0.417815
O O7 0.363858 0.766155 0.312493
O O8 0.333913 0.947346 0.468083
O O9 0.201404 0.272718 0.198904
O O10 0.824060 0.922607 0.652248
O O11 0.750011 0.870905 0.398309
O O12 0.859267 0.074258 0.427582
O O13 0.000000 0.816567 0.750000
#
# Coordination Sequence:
#
# PCOD9234037 Si02
#       6
#     4   4   4   4   4   4
#     4  12  23  37  62  90 127 169 204 244 306 379
#     4  10  22  36  58  94 128 169 198 246 311 388
#     4  11  24  41  61  90 128 163 214 256 301 366
#     4  11  21  41  63  93 127 158 207 266 316 371
#     4  11  24  44  68  90 120 166 217 268 317 360
#     4  11  21  37  59  91 133 164 207 242 310 380
#
# _framework density 19.141541
#
# number of rings (size 3 to 8) (size 9 to 14) (size 15 to 20)
#    0.000    1.000    5.000    2.500    2.333    0.000 
#    0.000    0.833    0.000    0.000    0.000    0.000 
#    0.000    0.000    0.000    0.000    0.000    0.000 
#
# Total GULP energy -134040.253174 kJ/mol
# GULP energy per Si atom -5585.010549 kJ/mol
# Density = 1.909797 g / cm^3
# Si number density = 19.141541 Si / 1000 Ang^3
#
#
#
# Elastic Constant Matrix: (Units=GPa)
#
#
# Indices 1 2 3 4 5 6 
#
# 1 71.3141 57.7382 25.5075 0.0000 -20.5636 0.0000
# 2 57.7382 78.7469 56.2935 0.0000 -4.7605 0.0000
# 3 25.5075 56.2935 108.5414 0.0000 -3.1926 0.0000
# 4 0.0000 0.0000 0.0000 42.0593 0.0000 -1.4016
# 5 -20.5636 -4.7605 -3.1926 0.0000 18.5494 0.0000
# 6 0.0000 0.0000 0.0000 -1.4016 0.0000 15.8883
#
#
#
# Elastic Compliance Matrix: (Units=1/GPa)
#
#
# Indices 1 2 3 4 5 6 
#
# 1 0.105622 -0.088705 0.024080 0.000000 0.098470 0.000000
# 2 -0.088705 0.094893 -0.030701 0.000000 -0.079267 0.000000
# 3 0.024080 -0.030701 0.020132 0.000000 0.022281 0.000000
# 4 0.000000 0.000000 0.000000 0.023846 0.000000 0.002104
# 5 0.098470 -0.079267 0.022281 0.000000 0.146565 0.000000
# 6 0.000000 0.000000 0.000000 0.002104 0.000000 0.063125
#
#
# Mechanical properties :
#
#
# Convention : Reuss Voigt Hill
#
# Bulk Modulus (GPa) = 33.33664 59.74230 46.53947
# Shear Modulus (GPa) = 7.63555 23.23695 15.43625
#
# Velocity S-wave (km/s) = 1.99941 3.48796 2.84285
# Velocity P-wave (km/s) = 4.77325 6.89201 5.92805
#
# Compressibility (1/GPa) = 0.02999702
#
# Stress axis : x y z
#
# Youngs Moduli (GPa) = 9.46776 10.53816 49.67201
#
# Poissons Ratio (x) = 0.93478 -1.19613
# Poissons Ratio (y) = 0.83983 1.52497
# Poissons Ratio (z) = -0.22799 0.32353
#
# Static dielectric constant tensor:
#      x y z
#    x 1.645380 0.000000 -0.011460 
#    y 0.000000 1.681440 0.000000 
#    z -0.011460 0.000000 1.700720 
# 
# From -- ./inp_files/15848.got.cif
#   From: 2010.05.17/outbox.cif.g08.bks.cpg/sg13_8_cif.got.tgz:15848.got - 2010.06.03 16:44:36.
