data_PCOD9234349
_publ_section_title
;
Structure prediction by ZEFSAII (Michael W. Deem and Ramdas Pophale) SiO2 
 PCOD9234349
Probable space group: P 2/C
;
_chemical_formula_sum "Si O2"
_cell_formula_units_Z 30
_cell_length_a 6.547386
_cell_length_b 19.617022
_cell_length_c 10.957925
_cell_angle_alpha 90.000000
_cell_angle_beta 86.475215
_cell_angle_gamma 90.000000
_cell_volume 1404.775790
_symmetry_space_group_name_H-M "P 2/C"
_symmetry_group_IT_number 13
_symmetry_cell_setting 'monoclinic'
loop_
_space_group_symop_operation_xyz
x,y,z
-x,y,1/2-z
-x,-y,-z
x,-y,1/2+z
loop_
_atom_site_type_symbol
_atom_site_label
_atom_site_fract_x
_atom_site_fract_y
_atom_site_fract_z
Si Si1 0.016191 0.909513 0.111808
Si Si2 0.878855 0.532812 0.883909
Si Si3 0.498432 0.273204 0.876478
Si Si4 0.500000 0.864975 0.750000
Si Si5 0.203000 0.792139 0.936184
Si Si6 0.809695 0.607809 0.352066
Si Si7 0.697065 0.037437 0.443659
Si Si8 0.896825 0.676236 0.971192
O O1 0.000000 0.882829 0.250000
O O2 0.145084 0.980087 0.110574
O O3 0.117454 0.855326 0.017337
O O4 0.802547 0.925959 0.054562
O O5 0.727561 0.469112 0.866410
O O6 0.800038 0.609855 0.907815
O O7 0.000000 0.537517 0.750000
O O8 0.000000 0.500000 0.000000
O O9 0.500000 0.230859 0.750000
O O10 0.632122 0.339364 0.835625
O O11 0.626278 0.240146 0.980765
O O12 0.274767 0.292469 0.933916
O O13 0.326045 0.819219 0.817044
O O14 0.381741 0.911424 0.656299
O O15 0.019811 0.739810 0.909457
O O16 0.000000 0.608480 0.250000
O O17 0.919164 0.637262 0.467515
O O18 0.500000 0.000000 0.500000
#
# Coordination Sequence:
#
# PCOD9234349 Si02
#       8
#     4   4   4   2   4   4   4   4
#     4  11  26  44  72 105 134 174 228 285 350 407
#     4   9  19  37  65  95 129 175 226 289 352 413
#     4  11  23  39  66  98 135 185 234 287 349 414
#     4  12  26  50  70 102 148 182 236 288 352 436
#     4  11  28  43  65 100 138 186 227 278 345 423
#     4   9  17  36  62  92 128 167 227 291 343 400
#     4  11  24  48  73 105 134 178 225 289 346 408
#     4  10  22  39  60  94 132 182 228 278 345 411
#
# _framework density 21.355723000000001
#
# number of rings (size 3 to 8) (size 9 to 14) (size 15 to 20)
#    0.000    1.600    2.667    0.800    5.600    1.600 
#    1.200    0.000    0.000    0.000    0.000    0.000 
#    0.000    0.000    0.000    0.000    0.000    0.000 
#
# Total GULP energy -167188.820285 kJ/mol
# GULP energy per Si atom -5572.960676 kJ/mol
# Density = 2.130712 g / cm^3
# Si number density = 21.355723 Si / 1000 Ang^3
#
#
#
# Elastic Constant Matrix: (Units=GPa)
#
#
# Indices 1 2 3 4 5 6 
#
# 1 101.0734 46.3615 40.6486 0.0000 -6.1486 0.0000
# 2 46.3615 105.4409 42.2615 0.0000 -15.4542 0.0000
# 3 40.6486 42.2615 104.1051 0.0000 -18.6457 0.0000
# 4 0.0000 0.0000 0.0000 22.8491 0.0000 -0.1857
# 5 -6.1486 -15.4542 -18.6457 0.0000 34.2866 0.0000
# 6 0.0000 0.0000 0.0000 -0.1857 0.0000 -0.6390
#
#
#
# Elastic Compliance Matrix: (Units=1/GPa)
#
#
# Indices 1 2 3 4 5 6 
#
# 1 0.013400 -0.004683 -0.003633 0.000000 -0.001683 0.000000
# 2 -0.004683 0.013227 -0.002907 0.000000 0.003541 0.000000
# 3 -0.003633 -0.002907 0.013132 0.000000 0.005180 0.000000
# 4 0.000000 0.000000 0.000000 0.043662 0.000000 -0.012689
# 5 -0.001683 0.003541 0.005180 0.000000 0.033277 0.000000
# 6 0.000000 0.000000 0.000000 -0.012689 0.000000 -1.561204
#
#
# Mechanical properties :
#
#
# Convention : Reuss Voigt Hill
#
# Bulk Modulus (GPa) = 57.75472 63.24029 60.49751
# Shear Modulus (GPa) = -3.53035 23.38918 9.92941
#
# Velocity S-wave (km/s) = -1.28713 3.31300 2.15862
# Velocity P-wave (km/s) = 4.98938 6.65670 5.88242
#
# Compressibility (1/GPa) = 0.01731460
#
# Stress axis : x y z
#
# Youngs Moduli (GPa) = 74.62520 75.60256 76.15061
#
# Poissons Ratio (x) = 0.35402 0.27664
# Poissons Ratio (y) = 0.34944 0.22136
# Poissons Ratio (z) = 0.27110 0.21977
#
# Static dielectric constant tensor:
#      x y z
#    x 1.728190 0.000000 0.012070 
#    y 0.000000 1.860470 0.000000 
#    z 0.012070 0.000000 1.777820 
# 
# From -- ./inp_files/26735.got.cif
#   From: 2010.05.17/outbox.cif.g08.bks.cpg/sg13_14_cif.got.tgz:26735.got - 2010.06.03 16:44:36.
