data_PCOD9234548
_publ_section_title
;
Structure prediction by ZEFSAII (Michael W. Deem and Ramdas Pophale) SiO2 
 PCOD9234548
Probable space group: P 2/C
;
_chemical_formula_sum "Si O2"
_cell_formula_units_Z 18
_cell_length_a 20.091114
_cell_length_b 4.260257
_cell_length_c 7.825159
_cell_angle_alpha 90.000000
_cell_angle_beta 119.588797
_cell_angle_gamma 90.000000
_cell_volume 582.436079
_symmetry_space_group_name_H-M "P 2/C"
_symmetry_group_IT_number 13
_symmetry_cell_setting 'monoclinic'
loop_
_space_group_symop_operation_xyz
x,y,z
-x,y,1/2-z
-x,-y,-z
x,-y,1/2+z
loop_
_atom_site_type_symbol
_atom_site_label
_atom_site_fract_x
_atom_site_fract_y
_atom_site_fract_z
Si Si1 0.942998 0.201799 0.310997
Si Si2 0.722204 0.685013 0.531468
Si Si3 0.500000 0.186146 0.750000
Si Si4 0.388926 0.250173 0.882637
Si Si5 0.832783 0.245476 0.445285
O O1 0.892575 0.394583 0.383488
O O2 0.000000 0.368473 0.250000
O O3 0.884595 0.986605 0.124424
O O4 0.000000 0.000000 0.500000
O O5 0.662725 0.479149 0.568319
O O6 0.672368 0.882287 0.333478
O O7 0.781157 0.474151 0.495011
O O8 0.772117 0.884733 0.728387
O O9 0.440669 0.978176 0.563048
O O10 0.450013 0.382938 0.821272
#
# Coordination Sequence:
#
# PCOD9234548 Si02
#       5
#     4   4   2   4   4
#     4   9  20  40  63  87 117 160 203 242 291 367
#     4  10  24  41  61  92 126 159 199 260 312 358
#     4  10  24  42  64  88 120 170 210 248 298 372
#     4  10  24  42  62  91 123 162 208 253 307 363
#     4  10  22  40  63  90 123 160 201 251 308 359
#
# _framework density 30.904681
#
# number of rings (size 3 to 8) (size 9 to 14) (size 15 to 20)
#    0.000    2.222    0.000    0.000    0.000   22.222 
#    0.000   14.444    0.000    0.000    0.000    0.000 
#    0.000    0.000    0.000    0.000    0.000    0.000 
#
# Total GULP energy -100691.035168 kJ/mol
# GULP energy per Si atom -5593.946398 kJ/mol
# Density = 3.083434 g / cm^3
# Si number density = 30.904681 Si / 1000 Ang^3
#
#
#
# Elastic Constant Matrix: (Units=GPa)
#
#
# Indices 1 2 3 4 5 6 
#
# 1 403.7082 73.0528 0.0279 0.0000 -48.8788 0.0000
# 2 73.0528 62.4708 75.9609 0.0000 8.2350 0.0000
# 3 0.0279 75.9609 386.6292 0.0000 52.4386 0.0000
# 4 0.0000 0.0000 0.0000 33.8999 0.0000 64.3394
# 5 -48.8788 8.2350 52.4386 0.0000 48.0603 0.0000
# 6 0.0000 0.0000 0.0000 64.3394 0.0000 6.9473
#
#
#
# Elastic Compliance Matrix: (Units=1/GPa)
#
#
# Indices 1 2 3 4 5 6 
#
# 1 0.004161 -0.006190 0.000585 0.000000 0.004654 0.000000
# 2 -0.006190 0.030286 -0.005155 0.000000 -0.005860 0.000000
# 3 0.000585 -0.005155 0.003989 0.000000 -0.002875 0.000000
# 4 0.000000 0.000000 0.000000 -0.001780 0.000000 0.016480
# 5 0.004654 -0.005860 -0.002875 0.000000 0.029681 0.000000
# 6 0.000000 0.000000 0.000000 0.016480 0.000000 -0.008683
#
#
# Mechanical properties :
#
#
# Convention : Reuss Voigt Hill
#
# Bulk Modulus (GPa) = 59.11703 127.87681 93.49692
# Shear Modulus (GPa) = 58.95301 64.69927 61.82614
#
# Velocity S-wave (km/s) = 4.37232 4.58045 4.47760
# Velocity P-wave (km/s) = 6.68281 8.33317 7.55320
#
# Compressibility (1/GPa) = 0.01691560
#
# Stress axis : x y z
#
# Youngs Moduli (GPa) = 240.35452 33.01829 250.67983
#
# Poissons Ratio (x) = 0.20437 -0.14652
# Poissons Ratio (y) = 1.48768 1.29229
# Poissons Ratio (z) = -0.14049 0.17021
#
# Static dielectric constant tensor:
#      x y z
#    x 2.427590 0.000000 0.055990 
#    y 0.000000 2.352790 0.000000 
#    z 0.055990 0.000000 2.385440 
# 
# From -- ./inp_files/22343.got.cif
#   From: 2010.05.17/outbox.cif.g08.bks.cpg/sg13_12_cif.got.tgz:22343.got - 2010.06.03 16:44:36.
