data_PCOD9234439
_publ_section_title
;
Structure prediction by ZEFSAII (Michael W. Deem and Ramdas Pophale) SiO2 
 PCOD9234439
Probable space group: P 2/C
;
_chemical_formula_sum "Si O2"
_cell_formula_units_Z 28
_cell_length_a 7.458591
_cell_length_b 8.522017
_cell_length_c 21.647738
_cell_angle_alpha 90.000000
_cell_angle_beta 61.347492
_cell_angle_gamma 90.000000
_cell_volume 1207.481739
_symmetry_space_group_name_H-M "P 2/C"
_symmetry_group_IT_number 13
_symmetry_cell_setting 'monoclinic'
loop_
_space_group_symop_operation_xyz
x,y,z
-x,y,1/2-z
-x,-y,-z
x,-y,1/2+z
loop_
_atom_site_type_symbol
_atom_site_label
_atom_site_fract_x
_atom_site_fract_y
_atom_site_fract_z
Si Si1 0.909277 0.280963 0.368280
Si Si2 0.287418 0.397940 0.986664
Si Si3 0.000000 0.974714 0.750000
Si Si4 0.802880 0.884302 0.172906
Si Si5 0.500000 0.371045 0.750000
Si Si6 0.376312 0.461036 0.153775
Si Si7 0.706190 0.804864 0.618772
Si Si8 0.079548 0.269976 0.535517
O O1 0.732872 0.284602 0.450476
O O2 0.844669 0.425116 0.336445
O O3 0.919327 0.135286 0.319390
O O4 0.122143 0.292314 0.370220
O O5 0.494557 0.433705 0.915857
O O6 0.125768 0.329840 0.964638
O O7 0.206620 0.569265 0.022755
O O8 0.838154 0.078744 0.739263
O O9 0.655687 0.739261 0.189165
O O10 0.013392 0.833920 0.104508
O O11 0.699862 0.033684 0.156892
O O12 0.624598 0.468402 0.778716
O O13 0.505174 0.298753 0.142667
O O14 0.800304 0.830810 0.535504
#
# Coordination Sequence:
#
# PCOD9234439 Si02
#       8
#     4   4   2   4   2   4   4   4
#     4  10  22  39  66  91 125 163 215 262 312 380
#     4   9  18  37  64  97 124 157 214 275 314 375
#     4  10  26  42  60  94 126 182 216 252 326 400
#     4  11  23  42  59  90 133 164 213 263 323 384
#     4  12  28  36  62  96 132 172 210 270 330 382
#     4  11  23  41  63  97 125 167 216 262 328 380
#     4   9  22  41  70  89 120 170 214 263 321 387
#     4   9  17  36  67  92 119 165 216 261 326 373
#
# _framework density 23.188758
#
# number of rings (size 3 to 8) (size 9 to 14) (size 15 to 20)
#    0.000    2.000    1.429    1.714    6.000    1.143 
#    0.000    0.000    0.000    7.714    0.000    0.000 
#    0.000    0.000    0.000    0.000    0.000    0.000 
#
# Total GULP energy -156384.821505 kJ/mol
# GULP energy per Si atom -5585.172197 kJ/mol
# Density = 2.313598 g / cm^3
# Si number density = 23.188758 Si / 1000 Ang^3
#
#
#
# Elastic Constant Matrix: (Units=GPa)
#
#
# Indices 1 2 3 4 5 6 
#
# 1 44.5309 -5.6631 20.5785 0.0000 12.4742 0.0000
# 2 -5.6631 25.8328 34.6438 0.0000 0.9848 0.0000
# 3 20.5785 34.6438 104.2893 0.0000 16.3753 0.0000
# 4 0.0000 0.0000 0.0000 27.8477 0.0000 3.4951
# 5 12.4742 0.9848 16.3753 0.0000 28.2888 0.0000
# 6 0.0000 0.0000 0.0000 3.4951 0.0000 10.3631
#
#
#
# Elastic Compliance Matrix: (Units=1/GPa)
#
#
# Indices 1 2 3 4 5 6 
#
# 1 0.035230 0.028329 -0.015144 0.000000 -0.007754 0.000000
# 2 0.028329 0.096565 -0.038695 0.000000 0.006546 0.000000
# 3 -0.015144 -0.038695 0.026588 0.000000 -0.007366 0.000000
# 4 0.000000 0.000000 0.000000 0.037497 0.000000 -0.012646
# 5 -0.007754 0.006546 -0.007366 0.000000 0.042805 0.000000
# 6 0.000000 0.000000 0.000000 -0.012646 0.000000 0.100762
#
#
# Mechanical properties :
#
#
# Convention : Reuss Voigt Hill
#
# Bulk Modulus (GPa) = 9.31450 30.41902 19.86676
# Shear Modulus (GPa) = 11.73008 21.63950 16.68479
#
# Velocity S-wave (km/s) = 2.25156 3.05813 2.68530
# Velocity P-wave (km/s) = 3.28403 5.06123 4.26620
#
# Compressibility (1/GPa) = 0.10735953
#
# Stress axis : x y z
#
# Youngs Moduli (GPa) = 28.38519 10.35575 37.61130
#
# Poissons Ratio (x) = -0.29336 0.56960
# Poissons Ratio (y) = -0.80411 1.45539
# Poissons Ratio (z) = 0.42988 0.40072
#
# Static dielectric constant tensor:
#      x y z
#    x 1.876410 0.000000 -0.017310 
#    y 0.000000 1.875560 0.000000 
#    z -0.017310 0.000000 1.926580 
# 
# From -- ./inp_files/75266.got.cif
#   From: 2010.05.17/outbox.cif.g08.bks.cpg/sg13_38_cif.got.tgz:75266.got - 2010.06.03 16:44:36.
