data_PCOD9234259
_publ_section_title
;
Structure prediction by ZEFSAII (Michael W. Deem and Ramdas Pophale) SiO2 
 PCOD9234259
Probable space group: P 2/C
;
_chemical_formula_sum "Si O2"
_cell_formula_units_Z 24
_cell_length_a 19.310680
_cell_length_b 11.674819
_cell_length_c 13.633690
_cell_angle_alpha 90.000000
_cell_angle_beta 22.078548
_cell_angle_gamma 90.000000
_cell_volume 1155.333269
_symmetry_space_group_name_H-M "P 2/C"
_symmetry_group_IT_number 13
_symmetry_cell_setting 'monoclinic'
loop_
_space_group_symop_operation_xyz
x,y,z
-x,y,1/2-z
-x,-y,-z
x,-y,1/2+z
loop_
_atom_site_type_symbol
_atom_site_label
_atom_site_fract_x
_atom_site_fract_y
_atom_site_fract_z
Si Si1 0.518783 0.126401 0.092307
Si Si2 0.690247 0.660475 0.050713
Si Si3 0.167200 0.309994 0.333387
Si Si4 0.780883 0.543601 0.550298
Si Si5 0.496688 0.863914 0.113782
Si Si6 0.757698 0.255862 0.938765
O O1 0.308693 0.165320 0.391354
O O2 0.533156 0.992883 0.099217
O O3 0.564941 0.134960 0.918210
O O4 0.646507 0.209981 0.989929
O O5 0.500000 0.621656 0.250000
O O6 0.653537 0.791919 0.128472
O O7 0.842782 0.644143 0.765630
O O8 0.718626 0.584329 0.109317
O O9 0.249681 0.401759 0.302746
O O10 0.971337 0.266831 0.630427
O O11 0.315045 0.208485 0.132108
O O12 0.705910 0.624718 0.560596
O O13 0.000000 0.545283 0.250000
#
# Coordination Sequence:
#
# PCOD9234259 Si02
#       6
#     4   4   4   4   4   4
#     4  10  22  39  64  90 123 161 212 256 302 372
#     4  10  24  38  62  91 126 162 204 255 314 367
#     4  10  22  41  61  92 125 161 207 251 314 367
#     4  10  22  40  62  91 124 162 206 259 306 367
#     4  10  22  42  60  90 127 163 204 260 306 365
#     4  10  22  38  65  91 118 164 207 252 306 369
#
# _framework density 20.773226999999999
#
# number of rings (size 3 to 8) (size 9 to 14) (size 15 to 20)
#    0.000    2.000    1.667    0.000    9.333    8.667 
#    0.000    0.000    0.000    0.000    0.000    0.000 
#    0.000    0.000    0.000    0.000    0.000    0.000 
#
# Total GULP energy -133767.336282 kJ/mol
# GULP energy per Si atom -5573.639012 kJ/mol
# Density = 2.072595 g / cm^3
# Si number density = 20.773227 Si / 1000 Ang^3
#
#
#
# Elastic Constant Matrix: (Units=GPa)
#
#
# Indices 1 2 3 4 5 6 
#
# 1 113.0970 30.3577 20.1406 0.0000 17.2636 0.0000
# 2 30.3577 88.3650 20.8708 0.0000 -3.0156 0.0000
# 3 20.1406 20.8708 59.8805 0.0000 19.1070 0.0000
# 4 0.0000 0.0000 0.0000 17.7446 0.0000 3.8896
# 5 17.2636 -3.0156 19.1070 0.0000 27.0304 0.0000
# 6 0.0000 0.0000 0.0000 3.8896 0.0000 21.2346
#
#
#
# Elastic Compliance Matrix: (Units=1/GPa)
#
#
# Indices 1 2 3 4 5 6 
#
# 1 0.011083 -0.004101 0.000137 0.000000 -0.007633 0.000000
# 2 -0.004101 0.014569 -0.006524 0.000000 0.008856 0.000000
# 3 0.000137 -0.006524 0.024776 0.000000 -0.018329 0.000000
# 4 0.000000 0.000000 0.000000 0.058713 0.000000 -0.010755
# 5 -0.007633 0.008856 -0.018329 0.000000 0.055815 0.000000
# 6 0.000000 0.000000 0.000000 -0.010755 0.000000 0.049063
#
#
# Mechanical properties :
#
#
# Convention : Reuss Voigt Hill
#
# Bulk Modulus (GPa) = 33.95318 44.89787 39.42553
# Shear Modulus (GPa) = 20.42381 25.86680 23.14530
#
# Velocity S-wave (km/s) = 3.13897 3.53257 3.34157
# Velocity P-wave (km/s) = 5.43302 6.18861 5.82308
#
# Compressibility (1/GPa) = 0.02945232
#
# Stress axis : x y z
#
# Youngs Moduli (GPa) = 90.22522 68.64043 40.36086
#
# Poissons Ratio (x) = 0.28146 -0.00552
# Poissons Ratio (y) = 0.36997 0.26333
# Poissons Ratio (z) = -0.01235 0.44784
#
# Static dielectric constant tensor:
#      x y z
#    x 1.835380 0.000000 0.039680 
#    y 0.000000 1.763610 0.000000 
#    z 0.039680 0.000000 1.753500 
# 
# From -- ./inp_files/57664.got.cif
#   From: 2010.05.17/outbox.cif.g08.bks.cpg/sg13_29_cif.got.tgz:57664.got - 2010.06.03 16:44:36.
