data_PCOD9234949
_publ_section_title
;
Structure prediction by ZEFSAII (Michael W. Deem and Ramdas Pophale) SiO2 
 PCOD9234949
Probable space group: P 2/C
;
_chemical_formula_sum "Si O2"
_cell_formula_units_Z 22
_cell_length_a 14.864555
_cell_length_b 13.049722
_cell_length_c 16.237077
_cell_angle_alpha 90.000000
_cell_angle_beta 161.891792
_cell_angle_gamma 90.000000
_cell_volume 978.948016
_symmetry_space_group_name_H-M "P 2/C"
_symmetry_group_IT_number 13
_symmetry_cell_setting 'monoclinic'
loop_
_space_group_symop_operation_xyz
x,y,z
-x,y,1/2-z
-x,-y,-z
x,-y,1/2+z
loop_
_atom_site_type_symbol
_atom_site_label
_atom_site_fract_x
_atom_site_fract_y
_atom_site_fract_z
Si Si1 0.500000 0.356103 0.750000
Si Si2 0.510288 0.799473 0.108186
Si Si3 0.000000 0.149744 0.750000
Si Si4 0.407320 0.339852 0.083691
Si Si5 0.000000 0.494492 0.250000
Si Si6 0.536975 0.024857 0.436125
Si Si7 0.837716 0.212777 0.359657
O O1 0.499971 0.284558 0.830414
O O2 0.209045 0.422723 0.485672
O O3 0.819790 0.785657 0.332310
O O4 0.503895 0.914273 0.140420
O O5 0.259089 0.791232 0.820617
O O6 0.748090 0.234675 0.521805
O O7 0.843850 0.074062 0.678647
O O8 0.500000 0.388106 0.250000
O O9 0.668335 0.307459 0.252681
O O10 0.188309 0.425103 0.858491
O O11 0.292688 0.110968 0.210265
O O12 0.500000 0.000000 0.500000
#
# Coordination Sequence:
#
# PCOD9234949 Si02
#       7
#     2   4   2   4   2   4   4
#     4  12  26  46  68  90 134 178 228 262 328 398
#     4  11  24  43  63  94 134 181 212 264 315 396
#     4   9  20  37  60 104 128 169 220 263 322 404
#     4  10  22  41  73  96 128 167 218 286 345 387
#     4  11  24  45  70  96 122 177 218 287 336 388
#     4   9  20  38  63  93 137 173 210 260 319 387
#     4  10  23  41  67  98 132 163 220 270 328 382
#
# _framework density 22.473105
#
# number of rings (size 3 to 8) (size 9 to 14) (size 15 to 20)
#    0.000    1.818    0.909    1.636   10.182    3.636 
#    9.818    5.455    0.000    0.000    0.000    0.000 
#    0.000    0.000    0.000    0.000    0.000    0.000 
#
# Total GULP energy -122705.203090 kJ/mol
# GULP energy per Si atom -5577.509231 kJ/mol
# Density = 2.242196 g / cm^3
# Si number density = 22.473105 Si / 1000 Ang^3
#
#
#
# Elastic Constant Matrix: (Units=GPa)
#
#
# Indices 1 2 3 4 5 6 
#
# 1 59.1504 39.6419 16.8859 0.0000 9.3167 0.0000
# 2 39.6419 146.3229 34.0757 0.0000 1.9212 0.0000
# 3 16.8859 34.0757 77.6134 0.0000 -0.2689 0.0000
# 4 0.0000 0.0000 0.0000 -0.9216 0.0000 -10.5218
# 5 9.3167 1.9212 -0.2689 0.0000 27.5441 0.0000
# 6 0.0000 0.0000 0.0000 -10.5218 0.0000 7.1472
#
#
#
# Elastic Compliance Matrix: (Units=1/GPa)
#
#
# Indices 1 2 3 4 5 6 
#
# 1 0.022368 -0.005376 -0.002531 0.000000 -0.007216 0.000000
# 2 -0.005376 0.008913 -0.002740 0.000000 0.001170 0.000000
# 3 -0.002531 -0.002740 0.014642 0.000000 0.001190 0.000000
# 4 0.000000 0.000000 0.000000 -0.060933 0.000000 -0.089704
# 5 -0.007216 0.001170 0.001190 0.000000 0.038676 0.000000
# 6 0.000000 0.000000 0.000000 -0.089704 0.000000 0.007857
#
#
# Mechanical properties :
#
#
# Convention : Reuss Voigt Hill
#
# Bulk Modulus (GPa) = 40.60111 51.58818 46.09465
# Shear Modulus (GPa) = 81.93142 19.58614 50.75878
#
# Velocity S-wave (km/s) = 6.04456 2.95538 4.75768
# Velocity P-wave (km/s) = 8.17443 5.88652 7.12294
#
# Compressibility (1/GPa) = 0.02462987
#
# Stress axis : x y z
#
# Youngs Moduli (GPa) = 44.70683 112.19252 68.29638
#
# Poissons Ratio (x) = 0.60311 0.17288
# Poissons Ratio (y) = 0.24033 0.18711
# Poissons Ratio (z) = 0.11317 0.30737
#
# Static dielectric constant tensor:
#      x y z
#    x 1.864690 0.000000 -0.005980 
#    y 0.000000 1.888220 0.000000 
#    z -0.005980 0.000000 1.914040 
# 
# From -- ./inp_files/68622.got.cif
#   From: 2010.05.17/outbox.cif.g08.bks.cpg/sg13_35_cif.got.tgz:68622.got - 2010.06.03 16:44:36.
