data_PCOD9234861
_publ_section_title
;
Structure prediction by ZEFSAII (Michael W. Deem and Ramdas Pophale) SiO2 
 PCOD9234861
Probable space group: P 2/C
;
_chemical_formula_sum "Si O2"
_cell_formula_units_Z 18
_cell_length_a 9.709441
_cell_length_b 15.672043
_cell_length_c 4.952943
_cell_angle_alpha 90.000000
_cell_angle_beta 100.338571
_cell_angle_gamma 90.000000
_cell_volume 741.437068
_symmetry_space_group_name_H-M "P 2/C"
_symmetry_group_IT_number 13
_symmetry_cell_setting 'monoclinic'
loop_
_space_group_symop_operation_xyz
x,y,z
-x,y,1/2-z
-x,-y,-z
x,-y,1/2+z
loop_
_atom_site_type_symbol
_atom_site_label
_atom_site_fract_x
_atom_site_fract_y
_atom_site_fract_z
Si Si1 0.743109 0.444702 0.400334
Si Si2 0.000000 0.352242 0.750000
Si Si3 0.643472 0.061080 0.927860
Si Si4 0.141171 0.808576 0.182233
Si Si5 0.407391 0.725242 0.486057
O O1 0.725010 0.473124 0.086684
O O2 0.894926 0.408535 0.539362
O O3 0.638218 0.369535 0.441832
O O4 0.917715 0.285444 0.919241
O O5 0.500000 0.102198 0.750000
O O6 0.773086 0.125877 0.965835
O O7 0.649838 0.981009 0.723493
O O8 0.264126 0.778339 0.424193
O O9 0.000000 0.850085 0.250000
O O10 0.500000 0.718385 0.250000
O O11 0.500000 0.766167 0.750000
#
# Coordination Sequence:
#
# PCOD9234861 Si02
#       5
#     4   2   4   4   4
#     4  11  22  39  63  89 124 164 212 266 321 376
#     4   8  20  40  60  92 124 168 210 258 320 378
#     4  10  22  41  66  97 131 167 206 254 317 378
#     4   9  21  43  67  95 129 171 216 262 311 378
#     4  11  24  42  64  93 129 169 214 265 324 380
#
# _framework density 24.277179
#
# number of rings (size 3 to 8) (size 9 to 14) (size 15 to 20)
#    0.667    1.333    0.000    2.667    0.000    8.000 
#    0.000   10.000    0.000    0.000    0.000    0.000 
#    0.000    0.000    0.000    0.000    0.000    0.000 
#
# Total GULP energy -100478.361386 kJ/mol
# GULP energy per Si atom -5582.131188 kJ/mol
# Density = 2.422192 g / cm^3
# Si number density = 24.277179 Si / 1000 Ang^3
#
#
#
# Elastic Constant Matrix: (Units=GPa)
#
#
# Indices 1 2 3 4 5 6 
#
# 1 156.0986 34.0570 24.6440 0.0000 12.8390 0.0000
# 2 34.0570 82.1708 -10.6290 0.0000 -10.7891 0.0000
# 3 24.6440 -10.6290 61.5165 0.0000 9.5977 0.0000
# 4 0.0000 0.0000 0.0000 274.4888 0.0000 -696.1738
# 5 12.8390 -10.7891 9.5977 0.0000 22.7813 0.0000
# 6 0.0000 0.0000 0.0000 -696.1738 0.0000 1777.7629
#
#
#
# Elastic Compliance Matrix: (Units=1/GPa)
#
#
# Indices 1 2 3 4 5 6 
#
# 1 0.008393 -0.004632 -0.003299 0.000000 -0.005534 0.000000
# 2 -0.004632 0.015642 0.003206 0.000000 0.008668 0.000000
# 3 -0.003299 0.003206 0.018843 0.000000 -0.004561 0.000000
# 4 0.000000 0.000000 0.000000 0.535787 0.000000 0.209815
# 5 -0.005534 0.008668 -0.004561 0.000000 0.053041 0.000000
# 6 0.000000 0.000000 0.000000 0.209815 0.000000 0.082726
#
#
# Mechanical properties :
#
#
# Convention : Reuss Voigt Hill
#
# Bulk Modulus (GPa) = 29.91510 43.99220 36.95365
# Shear Modulus (GPa) = 6.80249 431.78752 219.29500
#
# Velocity S-wave (km/s) = 1.67574 13.35079 9.51450
# Velocity P-wave (km/s) = 4.01163 15.99432 11.66000
#
# Compressibility (1/GPa) = 0.03342793
#
# Stress axis : x y z
#
# Youngs Moduli (GPa) = 119.15025 63.92916 53.07010
#
# Poissons Ratio (x) = 0.29611 0.17509
# Poissons Ratio (y) = 0.55189 -0.17014
# Poissons Ratio (z) = 0.39310 -0.20495
#
# Static dielectric constant tensor:
#      x y z
#    x 0.326920 0.000000 0.296490 
#    y 0.000000 1.963030 0.000000 
#    z 0.296490 0.000000 1.861110 
# 
# From -- ./inp_files/1370.got.cif
#   From: 2010.05.17/outbox.cif.g08.bks.cpg/sg13_1_cif.got.tgz:1370.got - 2010.06.03 16:44:36.
