data_PCOD9234256
_publ_section_title
;
Structure prediction by ZEFSAII (Michael W. Deem and Ramdas Pophale) SiO2 
 PCOD9234256
Probable space group: P 2/C
;
_chemical_formula_sum "Si O2"
_cell_formula_units_Z 18
_cell_length_a 10.998889
_cell_length_b 5.048342
_cell_length_c 27.087846
_cell_angle_alpha 90.000000
_cell_angle_beta 37.024092
_cell_angle_gamma 90.000000
_cell_volume 905.685293
_symmetry_space_group_name_H-M "P 2/C"
_symmetry_group_IT_number 13
_symmetry_cell_setting 'monoclinic'
loop_
_space_group_symop_operation_xyz
x,y,z
-x,y,1/2-z
-x,-y,-z
x,-y,1/2+z
loop_
_atom_site_type_symbol
_atom_site_label
_atom_site_fract_x
_atom_site_fract_y
_atom_site_fract_z
Si Si1 0.500000 0.674044 0.750000
Si Si2 0.413322 0.559085 0.383186
Si Si3 0.106016 0.061154 0.331788
Si Si4 0.832860 0.942699 0.512671
Si Si5 0.133711 0.548260 0.254576
O O1 0.569935 0.497636 0.680886
O O2 0.688130 0.849763 0.707319
O O3 0.246499 0.356032 0.457691
O O4 0.632462 0.492850 0.334151
O O5 0.348837 0.856258 0.416351
O O6 0.053305 0.301212 0.312267
O O7 0.139097 0.801301 0.288546
O O8 0.935205 0.005783 0.427464
O O9 0.000000 0.000000 0.500000
O O10 0.000000 0.595089 0.250000
#
# Coordination Sequence:
#
# PCOD9234256 Si02
#       5
#     2   4   4   4   4
#     4  10  22  38  64  98 124 168 206 260 316 380
#     4  11  24  39  64  92 131 164 209 254 317 373
#     4  11  24  40  67  93 130 163 212 259 319 371
#     4  12  24  39  61 100 136 158 197 258 333 384
#     4  11  25  46  66  89 124 174 223 258 296 368
#
# _framework density 19.874452000000002
#
# number of rings (size 3 to 8) (size 9 to 14) (size 15 to 20)
#    0.000    0.889    2.222    5.333    6.222    1.778 
#    0.000    6.667    0.000    0.000    0.000    0.000 
#    0.000    0.000    0.000    0.000    0.000    0.000 
#
# Total GULP energy -100764.126440 kJ/mol
# GULP energy per Si atom -5598.007024 kJ/mol
# Density = 1.982922 g / cm^3
# Si number density = 19.874452 Si / 1000 Ang^3
#
#
#
# Elastic Constant Matrix: (Units=GPa)
#
#
# Indices 1 2 3 4 5 6 
#
# 1 65.8109 -9.2505 28.0620 0.0000 -6.9169 0.0000
# 2 -9.2505 67.1945 -4.8299 0.0000 10.0352 0.0000
# 3 28.0620 -4.8299 78.2330 0.0000 10.1541 0.0000
# 4 0.0000 0.0000 0.0000 29.6732 0.0000 33.5981
# 5 -6.9169 10.0352 10.1541 0.0000 15.0637 0.0000
# 6 0.0000 0.0000 0.0000 33.5981 0.0000 -14.2178
#
#
#
# Elastic Compliance Matrix: (Units=1/GPa)
#
#
# Indices 1 2 3 4 5 6 
#
# 1 0.020997 -0.000241 -0.009664 0.000000 0.016316 0.000000
# 2 -0.000241 0.017060 0.002881 0.000000 -0.013418 0.000000
# 3 -0.009664 0.002881 0.018906 0.000000 -0.019101 0.000000
# 4 0.000000 0.000000 0.000000 0.009168 0.000000 0.021666
# 5 0.016316 -0.013418 -0.019101 0.000000 0.095691 0.000000
# 6 0.000000 0.000000 0.000000 0.021666 0.000000 -0.019135
#
#
# Mechanical properties :
#
#
# Convention : Reuss Voigt Hill
#
# Bulk Modulus (GPa) = 23.30177 26.57798 24.93988
# Shear Modulus (GPa) = 29.23298 19.25427 24.24363
#
# Velocity S-wave (km/s) = 3.83937 3.11592 3.49641
# Velocity P-wave (km/s) = 5.60395 5.13296 5.37362
#
# Compressibility (1/GPa) = 0.04291519
#
# Stress axis : x y z
#
# Youngs Moduli (GPa) = 47.62620 58.61667 52.89374
#
# Poissons Ratio (x) = 0.01412 0.51117
# Poissons Ratio (y) = 0.01147 -0.15239
# Poissons Ratio (z) = 0.46026 -0.16888
#
# Static dielectric constant tensor:
#      x y z
#    x 1.681780 0.000000 0.000670 
#    y 0.000000 1.700630 0.000000 
#    z 0.000670 0.000000 1.723320 
# 
# From -- ./inp_files/48446.got.cif
#   From: 2010.05.17/outbox.cif.g08.bks.cpg/sg13_25_cif.got.tgz:48446.got - 2010.06.03 16:44:36.
