data_PCOD9234928
_publ_section_title
;
Structure prediction by ZEFSAII (Michael W. Deem and Ramdas Pophale) SiO2 
 PCOD9234928
Probable space group: P 2/C
;
_chemical_formula_sum "Si O2"
_cell_formula_units_Z 14
_cell_length_a 5.374323
_cell_length_b 13.112881
_cell_length_c 7.816876
_cell_angle_alpha 90.000000
_cell_angle_beta 90.913250
_cell_angle_gamma 90.000000
_cell_volume 550.807616
_symmetry_space_group_name_H-M "P 2/C"
_symmetry_group_IT_number 13
_symmetry_cell_setting 'monoclinic'
loop_
_space_group_symop_operation_xyz
x,y,z
-x,y,1/2-z
-x,-y,-z
x,-y,1/2+z
loop_
_atom_site_type_symbol
_atom_site_label
_atom_site_fract_x
_atom_site_fract_y
_atom_site_fract_z
Si Si1 0.762109 0.648464 0.975842
Si Si2 0.000000 0.500632 0.750000
Si Si3 0.746591 0.933364 0.491554
Si Si4 0.500000 0.777964 0.250000
Si Si5 0.000000 0.811389 0.750000
O O1 0.554331 0.701897 0.090636
O O2 0.909336 0.575970 0.105084
O O3 0.771949 0.573681 0.809184
O O4 0.910427 0.744310 0.906334
O O5 0.707891 0.855440 0.331085
O O6 0.773501 0.873643 0.670488
O O7 0.500000 0.000000 0.500000
O O8 0.000000 0.000000 0.500000
#
# Coordination Sequence:
#
# PCOD9234928 Si02
#       5
#     4   2   4   2   2
#     4  10  22  41  70 103 144 191 242 303 367 442
#     4   9  20  44  69 100 146 194 243 298 372 445
#     4  12  27  48  74 108 150 198 250 310 374 444
#     4  12  26  44  72 110 150 192 250 308 372 440
#     4  11  24  46  73 104 146 192 247 300 368 441
#
# _framework density 25.417223
#
# number of rings (size 3 to 8) (size 9 to 14) (size 15 to 20)
#    0.000    1.143    0.000    5.143    0.000    6.857 
#    0.000    0.000    0.000    0.000    0.000    0.000 
#    0.000    0.000    0.000    0.000    0.000    0.000 
#
# Total GULP energy -78135.356651 kJ/mol
# GULP energy per Si atom -5581.096904 kJ/mol
# Density = 2.535937 g / cm^3
# Si number density = 25.417223 Si / 1000 Ang^3
#
#
#
# Elastic Constant Matrix: (Units=GPa)
#
#
# Indices 1 2 3 4 5 6 
#
# 1 135.5417 82.0678 55.9123 0.0000 3.9887 0.0000
# 2 82.0678 149.3929 62.6735 0.0000 3.9800 0.0000
# 3 55.9123 62.6735 115.6918 0.0000 -2.8801 0.0000
# 4 0.0000 0.0000 0.0000 36.9075 0.0000 2.3736
# 5 3.9887 3.9800 -2.8801 0.0000 48.9067 0.0000
# 6 0.0000 0.0000 0.0000 2.3736 0.0000 14.9414
#
#
#
# Elastic Compliance Matrix: (Units=1/GPa)
#
#
# Indices 1 2 3 4 5 6 
#
# 1 0.011748 -0.005236 -0.002859 0.000000 -0.000700 0.000000
# 2 -0.005236 0.011043 -0.003469 0.000000 -0.000676 0.000000
# 3 -0.002859 -0.003469 0.011935 0.000000 0.001218 0.000000
# 4 0.000000 0.000000 0.000000 0.027374 0.000000 -0.004349
# 5 -0.000700 -0.000676 0.001218 0.000000 0.020631 0.000000
# 6 0.000000 0.000000 0.000000 -0.004349 0.000000 0.067619
#
#
# Mechanical properties :
#
#
# Convention : Reuss Voigt Hill
#
# Bulk Modulus (GPa) = 86.21250 89.10374 87.65812
# Shear Modulus (GPa) = 28.19396 33.48264 30.83830
#
# Velocity S-wave (km/s) = 3.33415 3.63343 3.48700
# Velocity P-wave (km/s) = 6.98675 7.26188 7.12564
#
# Compressibility (1/GPa) = 0.01159925
#
# Stress axis : x y z
#
# Youngs Moduli (GPa) = 85.12328 90.55366 83.78875
#
# Poissons Ratio (x) = 0.47410 0.23952
# Poissons Ratio (y) = 0.44567 0.29066
# Poissons Ratio (z) = 0.24334 0.31413
#
# Static dielectric constant tensor:
#      x y z
#    x 2.008590 0.000000 -0.079010 
#    y 0.000000 2.049520 0.000000 
#    z -0.079010 0.000000 2.130130 
# 
# From -- ./inp_files/8496.got.cif
#   From: 2010.05.17/outbox.cif.g08.bks.cpg/sg13_5_cif.got.tgz:8496.got - 2010.06.03 16:44:36.
