data_PCOD9234812
_publ_section_title
;
Structure prediction by ZEFSAII (Michael W. Deem and Ramdas Pophale) SiO2 
 PCOD9234812
Probable space group: P 2/C
;
_chemical_formula_sum "Si O2"
_cell_formula_units_Z 28
_cell_length_a 13.961406
_cell_length_b 6.691167
_cell_length_c 15.506955
_cell_angle_alpha 90.000000
_cell_angle_beta 122.676903
_cell_angle_gamma 90.000000
_cell_volume 1219.353367
_symmetry_space_group_name_H-M "P 2/C"
_symmetry_group_IT_number 13
_symmetry_cell_setting 'monoclinic'
loop_
_space_group_symop_operation_xyz
x,y,z
-x,y,1/2-z
-x,-y,-z
x,-y,1/2+z
loop_
_atom_site_type_symbol
_atom_site_label
_atom_site_fract_x
_atom_site_fract_y
_atom_site_fract_z
Si Si1 0.657377 0.680070 0.781649
Si Si2 0.637272 0.947016 0.374503
Si Si3 0.155333 0.802150 0.928597
Si Si4 0.886554 0.578334 0.991847
Si Si5 0.019197 0.102233 0.660900
Si Si6 0.739679 0.007861 0.689542
Si Si7 0.432538 0.274552 0.834113
O O1 0.681985 0.837317 0.718217
O O2 0.581872 0.504639 0.701361
O O3 0.614507 0.819981 0.841462
O O4 0.779316 0.599606 0.875687
O O5 0.765898 0.908518 0.462359
O O6 0.613648 0.832145 0.274636
O O7 0.556795 0.827162 0.402962
O O8 0.154408 0.570734 0.951865
O O9 0.207687 0.893105 0.866628
O O10 0.025606 0.876026 0.868000
O O11 0.935625 0.775940 0.059785
O O12 0.000000 0.500000 0.000000
O O13 0.000000 0.172054 0.750000
O O14 0.152543 0.105860 0.708975
O O15 0.649577 0.187595 0.631326
#
# Coordination Sequence:
#
# PCOD9234812 Si02
#       7
#     4   4   4   4   4   4   4
#     4  11  22  42  66  97 128 173 222 274 332 392
#     4  10  22  41  67  92 131 172 223 274 335 389
#     4  11  23  43  62  96 133 178 216 274 333 392
#     4  12  24  36  67  96 129 173 223 267 319 399
#     4  10  23  41  62  91 134 173 211 266 330 389
#     4  10  24  41  64  94 137 174 217 273 337 393
#     4  10  22  41  64  96 126 172 222 279 324 394
#
# _framework density 22.962992
#
# number of rings (size 3 to 8) (size 9 to 14) (size 15 to 20)
#    0.000    1.429    2.857    1.714    2.000   11.429 
#    0.000    0.714    0.000    0.000    0.000    0.000 
#    0.000    0.000    0.000    0.000    0.000    0.000 
#
# Total GULP energy -156120.365835 kJ/mol
# GULP energy per Si atom -5575.727351 kJ/mol
# Density = 2.291073 g / cm^3
# Si number density = 22.962992 Si / 1000 Ang^3
#
#
#
# Elastic Constant Matrix: (Units=GPa)
#
#
# Indices 1 2 3 4 5 6 
#
# 1 73.0178 30.4788 -5.6534 0.0000 10.6618 0.0000
# 2 30.4788 122.9189 -2.7546 0.0000 0.3190 0.0000
# 3 -5.6534 -2.7546 35.4257 0.0000 7.8935 0.0000
# 4 0.0000 0.0000 0.0000 23.9960 0.0000 10.3976
# 5 10.6618 0.3190 7.8935 0.0000 26.7858 0.0000
# 6 0.0000 0.0000 0.0000 10.3976 0.0000 21.3599
#
#
#
# Elastic Compliance Matrix: (Units=1/GPa)
#
#
# Indices 1 2 3 4 5 6 
#
# 1 0.016864 -0.004069 0.004131 0.000000 -0.007882 0.000000
# 2 -0.004069 0.009134 -0.000295 0.000000 0.001598 0.000000
# 3 0.004131 -0.000295 0.031284 0.000000 -0.010860 0.000000
# 4 0.000000 0.000000 0.000000 0.052813 0.000000 -0.025708
# 5 -0.007882 0.001598 -0.010860 0.000000 0.043652 0.000000
# 6 0.000000 0.000000 0.000000 -0.025708 0.000000 0.059331
#
#
# Mechanical properties :
#
#
# Convention : Reuss Voigt Hill
#
# Bulk Modulus (GPa) = 17.60040 30.61154 24.10597
# Shear Modulus (GPa) = 21.50705 28.38113 24.94409
#
# Velocity S-wave (km/s) = 3.06371 3.51942 3.29944
# Velocity P-wave (km/s) = 4.49404 5.46579 5.00356
#
# Compressibility (1/GPa) = 0.05681688
#
# Stress axis : x y z
#
# Youngs Moduli (GPa) = 59.29688 109.48668 31.96501
#
# Poissons Ratio (x) = 0.44546 -0.13205
# Poissons Ratio (y) = 0.24126 0.00943
# Poissons Ratio (z) = -0.24496 0.03231
#
# Static dielectric constant tensor:
#      x y z
#    x 2.029620 0.000000 0.012490 
#    y 0.000000 1.912380 0.000000 
#    z 0.012490 0.000000 1.890460 
# 
# From -- ./inp_files/67500.got.cif
#   From: 2010.05.17/outbox.cif.g08.bks.cpg/sg13_34_cif.got.tgz:67500.got - 2010.06.03 16:44:36.
