data_PCOD9234540
_publ_section_title
;
Structure prediction by ZEFSAII (Michael W. Deem and Ramdas Pophale) SiO2 
 PCOD9234540
Probable space group: P 2/C
;
_chemical_formula_sum "Si O2"
_cell_formula_units_Z 28
_cell_length_a 7.755490
_cell_length_b 5.495647
_cell_length_c 27.179859
_cell_angle_alpha 90.000000
_cell_angle_beta 65.922691
_cell_angle_gamma 90.000000
_cell_volume 1057.655078
_symmetry_space_group_name_H-M "P 2/C"
_symmetry_group_IT_number 13
_symmetry_cell_setting 'monoclinic'
loop_
_space_group_symop_operation_xyz
x,y,z
-x,y,1/2-z
-x,-y,-z
x,-y,1/2+z
loop_
_atom_site_type_symbol
_atom_site_label
_atom_site_fract_x
_atom_site_fract_y
_atom_site_fract_z
Si Si1 0.500000 0.207138 0.750000
Si Si2 0.008653 0.779673 0.959563
Si Si3 0.763282 0.115195 0.633484
Si Si4 0.625267 0.513415 0.584083
Si Si5 0.885010 0.784904 0.357296
Si Si6 0.364563 0.838217 0.549369
Si Si7 0.000000 0.078760 0.250000
Si Si8 0.671081 0.561727 0.808566
O O1 0.628959 0.072266 0.695392
O O2 0.629166 0.375902 0.769710
O O3 0.118611 0.891678 0.899750
O O4 0.162800 0.581280 0.956299
O O5 0.801065 0.725230 0.964422
O O6 0.000000 0.000000 0.000000
O O7 0.645396 0.238198 0.602510
O O8 0.939000 0.293501 0.628868
O O9 0.488997 0.624372 0.558685
O O10 0.527753 0.637536 0.644035
O O11 0.776684 0.569327 0.342141
O O12 0.740839 0.971789 0.401039
O O13 0.983494 0.925047 0.301034
O O14 0.500000 0.000000 0.500000
O O15 0.810017 0.236333 0.272356
#
# Coordination Sequence:
#
# PCOD9234540 Si02
#       8
#     2   4   4   4   4   4   2   4
#     4  10  22  40  62  98 138 182 224 288 344 430
#     4  11  25  46  70 103 143 180 241 301 353 430
#     4  10  25  43  67 103 142 180 238 293 355 427
#     4  11  25  44  71 102 138 184 234 290 360 423
#     4  11  25  44  69 105 141 186 237 300 357 431
#     4  11  24  47  73 102 142 192 241 294 362 430
#     4  12  22  42  74  98 142 188 232 296 364 438
#     4  11  25  42  68 103 141 182 239 287 359 434
#
# _framework density 26.473659000000001
#
# number of rings (size 3 to 8) (size 9 to 14) (size 15 to 20)
#    0.000    1.143    2.857    2.143    6.000    6.286 
#    0.000    2.857    0.000    0.000    0.000    0.000 
#    0.000    0.000    0.000    0.000    0.000    0.000 
#
# Total GULP energy -156835.441200 kJ/mol
# GULP energy per Si atom -5601.265757 kJ/mol
# Density = 2.641340 g / cm^3
# Si number density = 26.473659 Si / 1000 Ang^3
#
#
#
# Elastic Constant Matrix: (Units=GPa)
#
#
# Indices 1 2 3 4 5 6 
#
# 1 175.1069 45.5486 65.6516 0.0000 -10.7822 0.0000
# 2 45.5486 50.5900 46.8339 0.0000 -0.8387 0.0000
# 3 65.6516 46.8339 162.8133 0.0000 -25.9639 0.0000
# 4 0.0000 0.0000 0.0000 54.2750 0.0000 -3.4161
# 5 -10.7822 -0.8387 -25.9639 0.0000 55.4122 0.0000
# 6 0.0000 0.0000 0.0000 -3.4161 0.0000 44.0552
#
#
#
# Elastic Compliance Matrix: (Units=1/GPa)
#
#
# Indices 1 2 3 4 5 6 
#
# 1 0.007754 -0.005710 -0.001359 0.000000 0.000786 0.000000
# 2 -0.005710 0.031783 -0.007501 0.000000 -0.004145 0.000000
# 3 -0.001359 -0.007501 0.009497 0.000000 0.004072 0.000000
# 4 0.000000 0.000000 0.000000 0.018515 0.000000 0.001436
# 5 0.000786 -0.004145 0.004072 0.000000 0.020045 0.000000
# 6 0.000000 0.000000 0.000000 0.001436 0.000000 0.022810
#
#
# Mechanical properties :
#
#
# Convention : Reuss Voigt Hill
#
# Bulk Modulus (GPa) = 50.26611 78.28649 64.27630
# Shear Modulus (GPa) = 34.20539 46.11356 40.15948
#
# Velocity S-wave (km/s) = 3.59841 4.17809 3.89904
# Velocity P-wave (km/s) = 6.02439 7.27399 6.67848
#
# Compressibility (1/GPa) = 0.01989412
#
# Stress axis : x y z
#
# Youngs Moduli (GPa) = 128.96594 31.46294 105.29715
#
# Poissons Ratio (x) = 0.17967 0.14307
# Poissons Ratio (y) = 0.73645 0.78983
# Poissons Ratio (z) = 0.17523 0.23600
#
# Static dielectric constant tensor:
#      x y z
#    x 2.160150 0.000000 0.009870 
#    y 0.000000 2.133560 0.000000 
#    z 0.009870 0.000000 2.021660 
# 
# From -- ./inp_files/95605.got.cif
#   From: 2010.05.17/outbox.cif.g08.bks.cpg/sg13_48_cif.got.tgz:95605.got - 2010.06.03 16:44:36.
