data_PCOD9234782
_publ_section_title
;
Structure prediction by ZEFSAII (Michael W. Deem and Ramdas Pophale) SiO2 
 PCOD9234782
Probable space group: P 2/C
;
_chemical_formula_sum "Si O2"
_cell_formula_units_Z 24
_cell_length_a 17.055100
_cell_length_b 6.858722
_cell_length_c 23.995140
_cell_angle_alpha 90.000000
_cell_angle_beta 158.544915
_cell_angle_gamma 90.000000
_cell_volume 1026.670100
_symmetry_space_group_name_H-M "P 2/C"
_symmetry_group_IT_number 13
_symmetry_cell_setting 'monoclinic'
loop_
_space_group_symop_operation_xyz
x,y,z
-x,y,1/2-z
-x,-y,-z
x,-y,1/2+z
loop_
_atom_site_type_symbol
_atom_site_label
_atom_site_fract_x
_atom_site_fract_y
_atom_site_fract_z
Si Si1 0.589563 0.350041 0.607133
Si Si2 0.299140 0.997321 0.252092
Si Si3 0.285711 0.002527 0.549300
Si Si4 0.814558 0.653073 0.584698
Si Si5 0.083603 0.397560 0.951568
Si Si6 0.886248 0.751604 0.467072
O O1 0.500000 0.500000 0.500000
O O2 0.624729 0.109049 0.639895
O O3 0.415080 0.374486 0.539623
O O4 0.831113 0.414928 0.775159
O O5 0.170420 0.833674 0.130900
O O6 0.498189 0.047910 0.342500
O O7 0.124731 0.170120 0.141866
O O8 0.175037 0.815277 0.502724
O O9 0.154259 0.125332 0.416055
O O10 0.275324 0.147433 0.595540
O O11 0.819173 0.517561 0.534943
O O12 0.000000 0.600173 0.750000
O O13 0.141677 0.520728 0.044589
#
# Coordination Sequence:
#
# PCOD9234782 Si02
#       6
#     4   4   4   4   4   4
#     4  11  22  42  68  97 133 173 226 273 331 401
#     4  10  22  43  68  98 137 177 219 281 339 399
#     4  10  22  42  63  96 132 176 221 272 334 395
#     4  10  22  41  62  95 134 173 221 274 326 402
#     4  11  23  41  68  99 132 172 223 276 335 397
#     4  10  22  43  66  98 138 169 225 277 331 406
#
# _framework density 23.376543000000002
#
# number of rings (size 3 to 8) (size 9 to 14) (size 15 to 20)
#    0.000    1.667    3.333    0.500    2.333    1.333 
#    0.000    6.667    0.000    0.000    0.000    0.000 
#    0.000    0.000    0.000    0.000    0.000    0.000 
#
# Total GULP energy -133698.655856 kJ/mol
# GULP energy per Si atom -5570.777327 kJ/mol
# Density = 2.332334 g / cm^3
# Si number density = 23.376543 Si / 1000 Ang^3
#
#
#
# Elastic Constant Matrix: (Units=GPa)
#
#
# Indices 1 2 3 4 5 6 
#
# 1 99.2201 47.4031 26.3013 0.0000 12.9394 0.0000
# 2 47.4031 118.3295 18.1959 0.0000 -2.9120 0.0000
# 3 26.3013 18.1959 51.7861 0.0000 18.4771 0.0000
# 4 0.0000 0.0000 0.0000 16.6220 0.0000 -17.7399
# 5 12.9394 -2.9120 18.4771 0.0000 43.6586 0.0000
# 6 0.0000 0.0000 0.0000 -17.7399 0.0000 -62.4334
#
#
#
# Elastic Compliance Matrix: (Units=1/GPa)
#
#
# Indices 1 2 3 4 5 6 
#
# 1 0.013968 -0.004981 -0.004415 0.000000 -0.002603 0.000000
# 2 -0.004981 0.010904 -0.002459 0.000000 0.003244 0.000000
# 3 -0.004415 -0.002459 0.025923 0.000000 -0.009826 0.000000
# 4 0.000000 0.000000 0.000000 0.046162 0.000000 -0.013117
# 5 -0.002603 0.003244 -0.009826 0.000000 0.028052 0.000000
# 6 0.000000 0.000000 0.000000 -0.013117 0.000000 -0.012290
#
#
# Mechanical properties :
#
#
# Convention : Reuss Voigt Hill
#
# Bulk Modulus (GPa) = 36.92131 50.34845 43.63488
# Shear Modulus (GPa) = 34.37416 11.39846 22.88631
#
# Velocity S-wave (km/s) = 3.83881 2.21057 3.13234
# Velocity P-wave (km/s) = 5.95627 5.30097 5.63814
#
# Compressibility (1/GPa) = 0.02708463
#
# Stress axis : x y z
#
# Youngs Moduli (GPa) = 71.59171 91.70682 38.57615
#
# Poissons Ratio (x) = 0.45677 0.17032
# Poissons Ratio (y) = 0.35658 0.09487
# Poissons Ratio (z) = 0.31609 0.22554
#
# Static dielectric constant tensor:
#      x y z
#    x 1.893220 0.000000 -0.017270 
#    y 0.000000 1.969400 0.000000 
#    z -0.017270 0.000000 1.906440 
# 
# From -- ./inp_files/97454.got.cif
#   From: 2010.05.17/outbox.cif.g08.bks.cpg/sg13_49_cif.got.tgz:97454.got - 2010.06.03 16:44:36.
