data_PCOD9234945
_publ_section_title
;
Structure prediction by ZEFSAII (Michael W. Deem and Ramdas Pophale) SiO2 
 PCOD9234945
Probable space group: P 2/C
;
_chemical_formula_sum "Si O2"
_cell_formula_units_Z 26
_cell_length_a 10.139188
_cell_length_b 7.506458
_cell_length_c 14.423613
_cell_angle_alpha 90.000000
_cell_angle_beta 119.136554
_cell_angle_gamma 90.000000
_cell_volume 958.862197
_symmetry_space_group_name_H-M "P 2/C"
_symmetry_group_IT_number 13
_symmetry_cell_setting 'monoclinic'
loop_
_space_group_symop_operation_xyz
x,y,z
-x,y,1/2-z
-x,-y,-z
x,-y,1/2+z
loop_
_atom_site_type_symbol
_atom_site_label
_atom_site_fract_x
_atom_site_fract_y
_atom_site_fract_z
Si Si1 0.857222 0.659024 0.340964
Si Si2 0.878087 0.144461 0.504774
Si Si3 0.476325 0.907598 0.088500
Si Si4 0.744093 0.066214 0.275658
Si Si5 0.000000 0.272959 0.250000
Si Si6 0.274490 0.334145 0.885052
Si Si7 0.774754 0.359426 0.005464
O O1 0.838857 0.583396 0.232150
O O2 0.768317 0.579625 0.395788
O O3 0.018707 0.681758 0.443878
O O4 0.809626 0.864230 0.304246
O O5 0.759690 0.154221 0.381663
O O6 0.797096 0.169465 0.579013
O O7 0.000000 0.000000 0.500000
O O8 0.579111 0.730169 0.119620
O O9 0.571680 0.036998 0.187194
O O10 0.306249 0.834293 0.035024
O O11 0.500000 0.000000 0.000000
O O12 0.853934 0.165388 0.241181
O O13 0.924250 0.332958 0.122072
O O14 0.312565 0.492050 0.966933
#
# Coordination Sequence:
#
# PCOD9234945 Si02
#       7
#     4   4   4   4   2   4   4
#     4  10  24  41  75 106 150 195 250 316 390 440
#     4  10  22  41  72 110 146 185 253 311 370 452
#     4  11  25  47  76 105 148 204 254 324 382 454
#     4  10  23  40  73 109 143 187 258 309 383 437
#     4  12  24  42  74 114 144 196 248 322 372 466
#     4  11  27  46  73 106 158 206 249 316 396 461
#     4  12  27  48  73 109 159 198 260 317 393 473
#
# _framework density 27.115469999999998
#
# number of rings (size 3 to 8) (size 9 to 14) (size 15 to 20)
#    0.000    1.231    3.077    0.923   15.077    4.308 
#    0.000    0.000    0.000    0.000    0.000    0.000 
#    0.000    0.000    0.000    0.000    0.000    0.000 
#
# Total GULP energy -144783.150615 kJ/mol
# GULP energy per Si atom -5568.582716 kJ/mol
# Density = 2.705375 g / cm^3
# Si number density = 27.115470 Si / 1000 Ang^3
#
#
#
# Elastic Constant Matrix: (Units=GPa)
#
#
# Indices 1 2 3 4 5 6 
#
# 1 84.5987 10.6105 63.9956 0.0000 -6.6794 0.0000
# 2 10.6105 67.2906 40.4823 0.0000 -3.4262 0.0000
# 3 63.9956 40.4823 241.5165 0.0000 -18.6516 0.0000
# 4 0.0000 0.0000 0.0000 64.3113 0.0000 -7.1321
# 5 -6.6794 -3.4262 -18.6516 0.0000 51.6485 0.0000
# 6 0.0000 0.0000 0.0000 -7.1321 0.0000 21.7084
#
#
#
# Elastic Compliance Matrix: (Units=1/GPa)
#
#
# Indices 1 2 3 4 5 6 
#
# 1 0.014797 0.000031 -0.003886 0.000000 0.000512 0.000000
# 2 0.000031 0.016528 -0.002771 0.000000 0.000100 0.000000
# 3 -0.003886 -0.002771 0.005742 0.000000 0.001387 0.000000
# 4 0.000000 0.000000 0.000000 0.016137 0.000000 0.005302
# 5 0.000512 0.000100 0.001387 0.000000 0.019935 0.000000
# 6 0.000000 0.000000 0.000000 0.005302 0.000000 0.047807
#
#
# Mechanical properties :
#
#
# Convention : Reuss Voigt Hill
#
# Bulk Modulus (GPa) = 41.99172 69.28696 55.63934
# Shear Modulus (GPa) = 35.17719 46.08813 40.63266
#
# Velocity S-wave (km/s) = 3.60573 4.12721 3.87525
# Velocity P-wave (km/s) = 5.73192 6.95125 6.37082
#
# Compressibility (1/GPa) = 0.02381422
#
# Stress axis : x y z
#
# Youngs Moduli (GPa) = 67.58114 60.50308 174.15880
#
# Poissons Ratio (x) = -0.00187 0.67686
# Poissons Ratio (y) = -0.00209 0.48257
# Poissons Ratio (z) = 0.26265 0.16765
#
# Static dielectric constant tensor:
#      x y z
#    x 2.597860 0.000000 0.082020 
#    y 0.000000 2.357000 0.000000 
#    z 0.082020 0.000000 2.132110 
# 
# From -- ./inp_files/50150.got.cif
#   From: 2010.05.17/outbox.cif.g08.bks.cpg/sg13_26_cif.got.tgz:50150.got - 2010.06.03 16:44:36.
