data_PCOD9234838
_publ_section_title
;
Structure prediction by ZEFSAII (Michael W. Deem and Ramdas Pophale) SiO2 
 PCOD9234838
Probable space group: P 2/C
;
_chemical_formula_sum "Si O2"
_cell_formula_units_Z 18
_cell_length_a 12.012971
_cell_length_b 6.475487
_cell_length_c 10.218518
_cell_angle_alpha 90.000000
_cell_angle_beta 100.247968
_cell_angle_gamma 90.000000
_cell_volume 782.215872
_symmetry_space_group_name_H-M "P 2/C"
_symmetry_group_IT_number 13
_symmetry_cell_setting 'monoclinic'
loop_
_space_group_symop_operation_xyz
x,y,z
-x,y,1/2-z
-x,-y,-z
x,-y,1/2+z
loop_
_atom_site_type_symbol
_atom_site_label
_atom_site_fract_x
_atom_site_fract_y
_atom_site_fract_z
Si Si1 0.672098 0.547263 0.588803
Si Si2 0.512422 0.189283 0.902469
Si Si3 0.189905 0.182799 0.908632
Si Si4 0.234698 0.131220 0.205652
Si Si5 0.000000 0.053375 0.250000
O O1 0.581205 0.366528 0.590707
O O2 0.628686 0.690725 0.462298
O O3 0.788798 0.426151 0.588278
O O4 0.687130 0.692193 0.718024
O O5 0.500000 0.120922 0.750000
O O6 0.500000 0.000000 0.000000
O O7 0.248281 0.073948 0.795458
O O8 0.244858 0.105307 0.054427
O O9 0.101866 0.180842 0.207362
O O10 0.063015 0.096644 0.866967
#
# Coordination Sequence:
#
# PCOD9234838 Si02
#       5
#     4   4   4   4   2
#     4  11  24  41  68  98 128 167 216 263 320 382
#     4  11  26  46  67  95 131 167 211 269 324 384
#     4  10  22  41  65  95 130 171 214 262 315 373
#     4  10  22  41  65  95 130 171 214 262 315 373
#     4   8  22  42  66  94 132 172 210 262 318 370
#
# _framework density 23.011551999999998
#
# number of rings (size 3 to 8) (size 9 to 14) (size 15 to 20)
#    1.333    0.444    0.000    3.333    0.000   13.333 
#    0.000    2.222    0.000    0.000    0.000    0.000 
#    0.000    0.000    0.000    0.000    0.000    0.000 
#
# Total GULP energy -100470.495990 kJ/mol
# GULP energy per Si atom -5581.694222 kJ/mol
# Density = 2.295918 g / cm^3
# Si number density = 23.011552 Si / 1000 Ang^3
#
#
#
# Elastic Constant Matrix: (Units=GPa)
#
#
# Indices 1 2 3 4 5 6 
#
# 1 53.4793 28.6091 11.2151 0.0000 8.8181 0.0000
# 2 28.6091 107.0059 65.3627 0.0000 20.7348 0.0000
# 3 11.2151 65.3627 214.2678 0.0000 10.7632 0.0000
# 4 0.0000 0.0000 0.0000 35.8266 0.0000 10.5247
# 5 8.8181 20.7348 10.7632 0.0000 29.3325 0.0000
# 6 0.0000 0.0000 0.0000 10.5247 0.0000 40.0788
#
#
#
# Elastic Compliance Matrix: (Units=1/GPa)
#
#
# Indices 1 2 3 4 5 6 
#
# 1 0.022124 -0.005838 0.000764 0.000000 -0.002804 0.000000
# 2 -0.005838 0.014614 -0.003792 0.000000 -0.007184 0.000000
# 3 0.000764 -0.003792 0.005767 0.000000 0.000335 0.000000
# 4 0.000000 0.000000 0.000000 0.030245 0.000000 -0.007942
# 5 -0.002804 -0.007184 0.000335 0.000000 0.039891 0.000000
# 6 0.000000 0.000000 0.000000 -0.007942 0.000000 0.027037
#
#
# Mechanical properties :
#
#
# Convention : Reuss Voigt Hill
#
# Bulk Modulus (GPa) = 40.36599 65.01410 52.69005
# Shear Modulus (GPa) = 30.18077 39.01866 34.59972
#
# Velocity S-wave (km/s) = 3.62546 4.12225 3.88181
# Velocity P-wave (km/s) = 5.92495 7.13942 6.56035
#
# Compressibility (1/GPa) = 0.02477333
#
# Stress axis : x y z
#
# Youngs Moduli (GPa) = 45.19915 68.42562 173.40261
#
# Poissons Ratio (x) = 0.39949 -0.13245
# Poissons Ratio (y) = 0.26389 0.65749
# Poissons Ratio (z) = -0.03453 0.25945
#
# Static dielectric constant tensor:
#      x y z
#    x 1.983060 0.000000 0.028440 
#    y 0.000000 1.823660 0.000000 
#    z 0.028440 0.000000 1.831280 
# 
# From -- ./inp_files/20572.got.cif
#   From: 2010.05.17/outbox.cif.g08.bks.cpg/sg13_11_cif.got.tgz:20572.got - 2010.06.03 16:44:36.
