data_PCOD9234783
_publ_section_title
;
Structure prediction by ZEFSAII (Michael W. Deem and Ramdas Pophale) SiO2 
 PCOD9234783
Probable space group: P 2/C
;
_chemical_formula_sum "Si O2"
_cell_formula_units_Z 26
_cell_length_a 10.640831
_cell_length_b 9.512582
_cell_length_c 18.887667
_cell_angle_alpha 90.000000
_cell_angle_beta 40.746568
_cell_angle_gamma 90.000000
_cell_volume 1247.887553
_symmetry_space_group_name_H-M "P 2/C"
_symmetry_group_IT_number 13
_symmetry_cell_setting 'monoclinic'
loop_
_space_group_symop_operation_xyz
x,y,z
-x,y,1/2-z
-x,-y,-z
x,-y,1/2+z
loop_
_atom_site_type_symbol
_atom_site_label
_atom_site_fract_x
_atom_site_fract_y
_atom_site_fract_z
Si Si1 0.602808 0.685553 0.920726
Si Si2 0.000000 0.115133 0.750000
Si Si3 0.784231 0.521726 0.242118
Si Si4 0.598283 0.011512 0.380365
Si Si5 0.228812 0.484004 0.409019
Si Si6 0.443715 0.267826 0.900516
Si Si7 0.187884 0.339480 0.564158
O O1 0.745885 0.584472 0.820729
O O2 0.611908 0.378184 0.985067
O O3 0.584785 0.822192 0.877681
O O4 0.651163 0.719391 0.981128
O O5 0.177148 0.029561 0.708154
O O6 0.103933 0.205824 0.642991
O O7 0.709184 0.463714 0.198594
O O8 0.655597 0.660948 0.309279
O O9 0.008121 0.556608 0.145832
O O10 0.489323 0.899825 0.375627
O O11 0.500000 0.000000 0.500000
O O12 0.321444 0.629843 0.400656
O O13 0.249427 0.355409 0.455262
O O14 0.000000 0.500000 0.500000
#
# Coordination Sequence:
#
# PCOD9234783 Si02
#       7
#     4   2   4   4   4   4   4
#     4  11  23  41  66 102 132 164 223 279 331 393
#     4  12  20  40  64  94 136 168 212 272 344 388
#     4  11  22  40  66  94 132 173 211 271 334 377
#     4  10  22  41  62  97 133 172 209 276 334 396
#     4  10  24  40  60  93 131 168 218 271 319 392
#     4  11  20  38  67  90 126 170 217 261 330 392
#     4  11  21  37  67  94 129 164 217 267 332 386
#
# _framework density 20.835211999999999
#
# number of rings (size 3 to 8) (size 9 to 14) (size 15 to 20)
#    0.000    1.231    6.154    0.923    2.154    0.000 
#   11.077    0.000    6.769    2.769    0.000    0.000 
#    0.000    0.000    0.000    0.000    0.000    0.000 
#
# Total GULP energy -144782.555382 kJ/mol
# GULP energy per Si atom -5568.559822 kJ/mol
# Density = 2.078779 g / cm^3
# Si number density = 20.835212 Si / 1000 Ang^3
#
#
#
# Elastic Constant Matrix: (Units=GPa)
#
#
# Indices 1 2 3 4 5 6 
#
# 1 88.9042 20.6341 21.1653 0.0000 -6.5214 0.0000
# 2 20.6341 79.5249 27.9987 0.0000 3.6595 0.0000
# 3 21.1653 27.9987 84.7519 0.0000 3.2919 0.0000
# 4 0.0000 0.0000 0.0000 25.1570 0.0000 -4.4644
# 5 -6.5214 3.6595 3.2919 0.0000 44.2499 0.0000
# 6 0.0000 0.0000 0.0000 -4.4644 0.0000 27.9582
#
#
#
# Elastic Compliance Matrix: (Units=1/GPa)
#
#
# Indices 1 2 3 4 5 6 
#
# 1 0.012567 -0.002521 -0.002392 0.000000 0.002239 0.000000
# 2 -0.002521 0.014766 -0.004199 0.000000 -0.001280 0.000000
# 3 -0.002392 -0.004199 0.013824 0.000000 -0.001034 0.000000
# 4 0.000000 0.000000 0.000000 0.040910 0.000000 0.006533
# 5 0.002239 -0.001280 -0.001034 0.000000 0.023112 0.000000
# 6 0.000000 0.000000 0.000000 0.006533 0.000000 0.036811
#
#
# Mechanical properties :
#
#
# Convention : Reuss Voigt Hill
#
# Bulk Modulus (GPa) = 43.60738 43.64192 43.62465
# Shear Modulus (GPa) = 29.78705 31.69853 30.74279
#
# Velocity S-wave (km/s) = 3.78517 3.90473 3.84542
# Velocity P-wave (km/s) = 6.33076 6.42814 6.37963
#
# Compressibility (1/GPa) = 0.02293190
#
# Stress axis : x y z
#
# Youngs Moduli (GPa) = 79.57327 67.72267 72.33875
#
# Poissons Ratio (x) = 0.17076 0.17306
# Poissons Ratio (y) = 0.20064 0.30373
# Poissons Ratio (z) = 0.19037 0.28435
#
# Static dielectric constant tensor:
#      x y z
#    x 1.813380 0.000000 0.050690 
#    y 0.000000 1.827980 0.000000 
#    z 0.050690 0.000000 1.787100 
# 
# From -- ./inp_files/78184.got.cif
#   From: 2010.05.17/outbox.cif.g08.bks.cpg/sg13_40_cif.got.tgz:78184.got - 2010.06.03 16:44:36.
