data_PCOD9234049
_publ_section_title
;
Structure prediction by ZEFSAII (Michael W. Deem and Ramdas Pophale) SiO2 
 PCOD9234049
Probable space group: P 2/C
;
_chemical_formula_sum "Si O2"
_cell_formula_units_Z 30
_cell_length_a 8.277272
_cell_length_b 7.885834
_cell_length_c 24.697705
_cell_angle_alpha 90.000000
_cell_angle_beta 92.331537
_cell_angle_gamma 90.000000
_cell_volume 1610.763496
_symmetry_space_group_name_H-M "P 2/C"
_symmetry_group_IT_number 13
_symmetry_cell_setting 'monoclinic'
loop_
_space_group_symop_operation_xyz
x,y,z
-x,y,1/2-z
-x,-y,-z
x,-y,1/2+z
loop_
_atom_site_type_symbol
_atom_site_label
_atom_site_fract_x
_atom_site_fract_y
_atom_site_fract_z
Si Si1 0.994272 0.083933 0.186223
Si Si2 0.742828 0.788298 0.886216
Si Si3 0.491238 0.632265 0.690388
Si Si4 0.838154 0.414702 0.157769
Si Si5 0.952281 0.510208 0.437148
Si Si6 0.164527 0.859333 0.113538
Si Si7 0.659591 0.279981 0.785570
Si Si8 0.000000 0.631811 0.250000
O O1 0.854012 0.212510 0.167469
O O2 0.000000 0.060466 0.250000
O O3 0.153497 0.185234 0.167822
O O4 0.010967 0.917634 0.149002
O O5 0.568468 0.745633 0.860207
O O6 0.820206 0.633155 0.919672
O O7 0.777317 0.968678 0.915401
O O8 0.500000 0.718199 0.750000
O O9 0.658884 0.545206 0.675175
O O10 0.368498 0.476481 0.698965
O O11 0.964001 0.511190 0.198494
O O12 0.893382 0.466736 0.098811
O O13 0.882885 0.695092 0.420620
O O14 0.000000 0.500000 0.500000
O O15 0.306128 0.817931 0.158417
O O16 0.500000 0.226602 0.750000
O O17 0.830844 0.270367 0.756579
#
# Coordination Sequence:
#
# PCOD9234049 Si02
#       8
#     4   4   4   4   4   4   4   2
#     4   9  18  33  54  91 122 159 196 239 310 383
#     4   9  21  38  58  84 124 159 197 255 313 365
#     4  11  19  34  60  92 130 166 197 244 318 395
#     4  11  20  35  62  92 123 166 207 250 313 377
#     4  11  23  43  66  85 115 168 224 265 305 357
#     4  10  22  36  61  89 123 155 210 254 310 373
#     4  11  21  34  56  96 128 169 200 245 308 393
#     4  12  18  34  62  86 134 164 204 254 316 374
#
# _framework density 18.624707999999998
#
# number of rings (size 3 to 8) (size 9 to 14) (size 15 to 20)
#    0.800    0.800    6.000    1.600    0.933    1.067 
#    0.000    0.667    0.000    0.800    0.000    0.000 
#    0.000    0.000    0.000    0.000    0.000    0.000 
#
# Total GULP energy -167004.764029 kJ/mol
# GULP energy per Si atom -5566.825468 kJ/mol
# Density = 1.858232 g / cm^3
# Si number density = 18.624708 Si / 1000 Ang^3
#
#
#
# Elastic Constant Matrix: (Units=GPa)
#
#
# Indices 1 2 3 4 5 6 
#
# 1 86.8908 16.9712 31.7401 0.0000 9.0652 0.0000
# 2 16.9712 112.6121 46.9949 0.0000 14.0237 0.0000
# 3 31.7401 46.9949 124.6845 0.0000 8.3236 0.0000
# 4 0.0000 0.0000 0.0000 7.5048 0.0000 -4.7698
# 5 9.0652 14.0237 8.3236 0.0000 18.3973 0.0000
# 6 0.0000 0.0000 0.0000 -4.7698 0.0000 2.0803
#
#
#
# Elastic Compliance Matrix: (Units=1/GPa)
#
#
# Indices 1 2 3 4 5 6 
#
# 1 0.013141 -0.000115 -0.002965 0.000000 -0.005046 0.000000
# 2 -0.000115 0.011332 -0.003783 0.000000 -0.006870 0.000000
# 3 -0.002965 -0.003783 0.010220 0.000000 -0.000279 0.000000
# 4 0.000000 0.000000 0.000000 -0.291422 0.000000 -0.668177
# 5 -0.005046 -0.006870 -0.000279 0.000000 0.062205 0.000000
# 6 0.000000 0.000000 0.000000 -0.668177 0.000000 -1.051310
#
#
# Mechanical properties :
#
#
# Convention : Reuss Voigt Hill
#
# Bulk Modulus (GPa) = 47.69617 57.28885 52.49251
# Shear Modulus (GPa) = -4.08123 20.82856 8.37367
#
# Velocity S-wave (km/s) = -1.48191 3.34777 2.12268
# Velocity P-wave (km/s) = 4.76829 6.76534 5.85262
#
# Compressibility (1/GPa) = 0.02096604
#
# Stress axis : x y z
#
# Youngs Moduli (GPa) = 76.09983 88.24883 97.85125
#
# Poissons Ratio (x) = 0.01011 0.29014
# Poissons Ratio (y) = 0.00872 0.37019
# Poissons Ratio (z) = 0.22564 0.33387
#
# Static dielectric constant tensor:
#      x y z
#    x 1.702050 0.000000 -0.006030 
#    y 0.000000 1.724480 0.000000 
#    z -0.006030 0.000000 1.630340 
# 
# From -- ./inp_files/84819.got.cif
#   From: 2010.05.17/outbox.cif.g08.bks.cpg/sg13_43_cif.got.tgz:84819.got - 2010.06.03 16:44:36.
