data_PCOD9234234
_publ_section_title
;
Structure prediction by ZEFSAII (Michael W. Deem and Ramdas Pophale) SiO2 
 PCOD9234234
Probable space group: P 2/C
;
_chemical_formula_sum "Si O2"
_cell_formula_units_Z 28
_cell_length_a 11.897701
_cell_length_b 9.313433
_cell_length_c 15.465688
_cell_angle_alpha 90.000000
_cell_angle_beta 54.621301
_cell_angle_gamma 90.000000
_cell_volume 1397.276935
_symmetry_space_group_name_H-M "P 2/C"
_symmetry_group_IT_number 13
_symmetry_cell_setting 'monoclinic'
loop_
_space_group_symop_operation_xyz
x,y,z
-x,y,1/2-z
-x,-y,-z
x,-y,1/2+z
loop_
_atom_site_type_symbol
_atom_site_label
_atom_site_fract_x
_atom_site_fract_y
_atom_site_fract_z
Si Si1 0.836841 0.378985 0.512856
Si Si2 0.408010 0.066550 0.464193
Si Si3 0.139076 0.795298 0.652427
Si Si4 0.345903 0.145415 0.834123
Si Si5 0.322164 0.865918 0.735564
Si Si6 0.868773 0.303839 0.050561
Si Si7 0.895288 0.115651 0.873800
O O1 0.790266 0.317744 0.441531
O O2 0.757564 0.277053 0.615173
O O3 0.816410 0.546621 0.534392
O O4 0.999090 0.344350 0.450427
O O5 0.517055 0.158788 0.359195
O O6 0.270399 0.138358 0.564354
O O7 0.500000 0.000000 0.500000
O O8 0.354391 0.946053 0.420038
O O9 0.236044 0.843913 0.686835
O O10 0.000000 0.726264 0.750000
O O11 0.090177 0.942235 0.626461
O O12 0.500000 0.199737 0.750000
O O13 0.311578 0.028520 0.775970
O O14 0.250311 0.769398 0.840203
O O15 0.920967 0.197317 0.951930
O O16 0.000000 0.159334 0.750000
#
# Coordination Sequence:
#
# PCOD9234234 Si02
#       7
#     4   4   4   4   4   4   4
#     4  11  23  42  60  90 134 170 210 256 320 388
#     4  11  20  38  65  96 128 155 206 271 326 363
#     4  11  21  36  65  94 121 163 212 267 320 374
#     4  10  22  38  63  92 121 165 207 266 315 374
#     4  11  21  39  67  97 125 162 216 266 323 375
#     4  11  25  41  62  93 130 176 212 260 317 389
#     4  11  24  40  62  97 120 167 217 270 317 373
#
# _framework density 20.038976000000002
#
# number of rings (size 3 to 8) (size 9 to 14) (size 15 to 20)
#    0.000    1.143    5.714    0.000    4.000    1.714 
#    2.571    0.000    0.000    1.714    0.000    0.000 
#    0.000    0.000    0.000    0.000    0.000    0.000 
#
# Total GULP energy -156242.425598 kJ/mol
# GULP energy per Si atom -5580.086629 kJ/mol
# Density = 1.999337 g / cm^3
# Si number density = 20.038976 Si / 1000 Ang^3
#
#
#
# Elastic Constant Matrix: (Units=GPa)
#
#
# Indices 1 2 3 4 5 6 
#
# 1 36.6774 9.1056 23.3974 0.0000 -3.4425 0.0000
# 2 9.1056 85.7588 47.3286 0.0000 2.1603 0.0000
# 3 23.3974 47.3286 143.0931 0.0000 -22.8906 0.0000
# 4 0.0000 0.0000 0.0000 11.6777 0.0000 -1.3200
# 5 -3.4425 2.1603 -22.8906 0.0000 51.0522 0.0000
# 6 0.0000 0.0000 0.0000 -1.3200 0.0000 21.0924
#
#
#
# Elastic Compliance Matrix: (Units=1/GPa)
#
#
# Indices 1 2 3 4 5 6 
#
# 1 0.030465 -0.000584 -0.004800 0.000000 -0.000073 0.000000
# 2 -0.000584 0.014694 -0.005247 0.000000 -0.003014 0.000000
# 3 -0.004800 -0.005247 0.010226 0.000000 0.004483 0.000000
# 4 0.000000 0.000000 0.000000 0.086244 0.000000 0.005397
# 5 -0.000073 -0.003014 0.004483 0.000000 0.021721 0.000000
# 6 0.000000 0.000000 0.000000 0.005397 0.000000 0.047748
#
#
# Mechanical properties :
#
#
# Convention : Reuss Voigt Hill
#
# Bulk Modulus (GPa) = 29.30512 47.24361 38.27437
# Shear Modulus (GPa) = 20.51426 29.14430 24.82928
#
# Velocity S-wave (km/s) = 3.20303 3.81777 3.52383
# Velocity P-wave (km/s) = 5.32306 6.56208 5.97478
#
# Compressibility (1/GPa) = 0.03412373
#
# Stress axis : x y z
#
# Youngs Moduli (GPa) = 32.82477 68.05442 97.79072
#
# Poissons Ratio (x) = 0.03973 0.46939
# Poissons Ratio (y) = 0.01916 0.51309
# Poissons Ratio (z) = 0.15756 0.35707
#
# Static dielectric constant tensor:
#      x y z
#    x 1.738000 0.000000 0.001850 
#    y 0.000000 1.672740 0.000000 
#    z 0.001850 0.000000 1.790290 
# 
# From -- ./inp_files/50241.got.cif
#   From: 2010.05.17/outbox.cif.g08.bks.cpg/sg13_26_cif.got.tgz:50241.got - 2010.06.03 16:44:36.
