data_PCOD9234345
_publ_section_title
;
Structure prediction by ZEFSAII (Michael W. Deem and Ramdas Pophale) SiO2 
 PCOD9234345
Probable space group: P 2/C
;
_chemical_formula_sum "Si O2"
_cell_formula_units_Z 20
_cell_length_a 5.358546
_cell_length_b 5.196135
_cell_length_c 31.314333
_cell_angle_alpha 90.000000
_cell_angle_beta 103.221399
_cell_angle_gamma 90.000000
_cell_volume 848.796603
_symmetry_space_group_name_H-M "P 2/C"
_symmetry_group_IT_number 13
_symmetry_cell_setting 'monoclinic'
loop_
_space_group_symop_operation_xyz
x,y,z
-x,y,1/2-z
-x,-y,-z
x,-y,1/2+z
loop_
_atom_site_type_symbol
_atom_site_label
_atom_site_fract_x
_atom_site_fract_y
_atom_site_fract_z
Si Si1 0.004778 0.772932 0.129976
Si Si2 0.072488 0.071850 0.051436
Si Si3 0.546041 0.745877 0.530893
Si Si4 0.361523 0.929605 0.701918
Si Si5 0.821289 0.738892 0.666216
O O1 0.260662 0.841682 0.167229
O O2 0.068865 0.829789 0.083047
O O3 0.817042 0.005138 0.136930
O O4 0.873056 0.514696 0.140702
O O5 0.839483 0.253354 0.055648
O O6 0.339935 0.221485 0.060290
O O7 0.000000 0.000000 0.000000
O O8 0.500000 0.500000 0.500000
O O9 0.500000 0.000000 0.500000
O O10 0.500000 0.023107 0.750000
O O11 0.568001 0.753435 0.685012
O O12 0.094552 0.781569 0.701558
#
# Coordination Sequence:
#
# PCOD9234345 Si02
#       5
#     4   4   4   4   4
#     4  10  26  43  69 100 138 177 227 281 338 406
#     4  10  23  42  65  96 133 176 224 273 333 397
#     4  10  22  39  60  89 122 168 217 266 318 383
#     4  10  24  47  69 102 133 179 223 285 345 418
#     4  10  25  42  68  98 139 172 226 278 343 408
#
# _framework density 23.562768999999999
#
# number of rings (size 3 to 8) (size 9 to 14) (size 15 to 20)
#    1.200    0.800    0.000    1.200    5.600    7.200 
#    3.600    0.000    0.000    0.000    0.000    0.000 
#    0.000    0.000    0.000    0.000    0.000    0.000 
#
# Total GULP energy -111550.610098 kJ/mol
# GULP energy per Si atom -5577.530505 kJ/mol
# Density = 2.350914 g / cm^3
# Si number density = 23.562769 Si / 1000 Ang^3
#
#
#
# Elastic Constant Matrix: (Units=GPa)
#
#
# Indices 1 2 3 4 5 6 
#
# 1 184.8760 29.9244 14.9620 0.0000 -27.7038 0.0000
# 2 29.9244 132.3953 29.0205 0.0000 1.0764 0.0000
# 3 14.9620 29.0205 117.1223 0.0000 2.9745 0.0000
# 4 0.0000 0.0000 0.0000 8.0729 0.0000 5.4129
# 5 -27.7038 1.0764 2.9745 0.0000 20.6443 0.0000
# 6 0.0000 0.0000 0.0000 5.4129 0.0000 20.7375
#
#
#
# Elastic Compliance Matrix: (Units=1/GPa)
#
#
# Indices 1 2 3 4 5 6 
#
# 1 0.007198 -0.001534 -0.000790 0.000000 0.009853 0.000000
# 2 -0.001534 0.008314 -0.001807 0.000000 -0.002231 0.000000
# 3 -0.000790 -0.001807 0.009145 0.000000 -0.002283 0.000000
# 4 0.000000 0.000000 0.000000 0.150150 0.000000 -0.039192
# 5 0.009853 -0.002231 -0.002283 0.000000 0.062107 0.000000
# 6 0.000000 0.000000 0.000000 -0.039192 0.000000 0.058452
#
#
# Mechanical properties :
#
#
# Convention : Reuss Voigt Hill
#
# Bulk Modulus (GPa) = 60.99541 64.68971 62.84256
# Shear Modulus (GPa) = 16.17639 33.92338 25.04988
#
# Velocity S-wave (km/s) = 2.62300 3.79846 3.26408
# Velocity P-wave (km/s) = 5.92588 6.83751 6.39795
#
# Compressibility (1/GPa) = 0.01639468
#
# Stress axis : x y z
#
# Youngs Moduli (GPa) = 138.93436 120.27685 109.35186
#
# Poissons Ratio (x) = 0.18449 0.08635
# Poissons Ratio (y) = 0.21310 0.19765
# Poissons Ratio (z) = 0.10971 0.21740
#
# Static dielectric constant tensor:
#      x y z
#    x 1.987600 0.000000 -0.030190 
#    y 0.000000 1.860860 0.000000 
#    z -0.030190 0.000000 2.007290 
# 
# From -- ./inp_files/94503.got.cif
#   From: 2010.05.17/outbox.cif.g08.bks.cpg/sg13_48_cif.got.tgz:94503.got - 2010.06.03 16:44:36.
