data_PCOD9234787
_publ_section_title
;
Structure prediction by ZEFSAII (Michael W. Deem and Ramdas Pophale) SiO2 
 PCOD9234787
Probable space group: P 2/C
;
_chemical_formula_sum "Si O2"
_cell_formula_units_Z 20
_cell_length_a 12.546225
_cell_length_b 5.150532
_cell_length_c 31.920238
_cell_angle_alpha 90.000000
_cell_angle_beta 27.863820
_cell_angle_gamma 90.000000
_cell_volume 964.036895
_symmetry_space_group_name_H-M "P 2/C"
_symmetry_group_IT_number 13
_symmetry_cell_setting 'monoclinic'
loop_
_space_group_symop_operation_xyz
x,y,z
-x,y,1/2-z
-x,-y,-z
x,-y,1/2+z
loop_
_atom_site_type_symbol
_atom_site_label
_atom_site_fract_x
_atom_site_fract_y
_atom_site_fract_z
Si Si1 0.927790 0.936140 0.714241
Si Si2 0.891282 0.447861 0.493007
Si Si3 0.588246 0.935077 0.423348
Si Si4 0.107612 0.054546 0.558477
Si Si5 0.364094 0.437296 0.659627
O O1 0.792911 0.675122 0.772119
O O2 0.007204 0.968899 0.638218
O O3 0.763771 0.178656 0.780301
O O4 0.157184 0.957459 0.662184
O O5 0.953555 0.165955 0.453693
O O6 0.616069 0.461006 0.590908
O O7 0.000000 0.500000 0.500000
O O8 0.963536 0.665978 0.433978
O O9 0.385039 0.053684 0.465934
O O10 0.605831 0.636791 0.400568
O O11 0.500000 0.000000 0.500000
#
# Coordination Sequence:
#
# PCOD9234787 Si02
#       5
#     4   4   4   4   4
#     4  11  23  40  61  94 128 157 194 252 305 359
#     4  11  23  43  64  85 116 162 208 253 301 358
#     4   9  21  39  62  90 127 166 197 237 302 372
#     4  10  22  41  63  89 122 161 203 242 300 372
#     4  11  23  39  61  92 123 158 207 252 297 357
#
# _framework density 20.746092999999998
#
# number of rings (size 3 to 8) (size 9 to 14) (size 15 to 20)
#    0.000    1.600    0.000    4.800    0.000    8.000 
#    0.000   23.000    0.000    0.000    0.000    0.000 
#    0.000    0.000    0.000    0.000    0.000    0.000 
#
# Total GULP energy -111682.638702 kJ/mol
# GULP energy per Si atom -5584.131935 kJ/mol
# Density = 2.069887 g / cm^3
# Si number density = 20.746093 Si / 1000 Ang^3
#
#
#
# Elastic Constant Matrix: (Units=GPa)
#
#
# Indices 1 2 3 4 5 6 
#
# 1 114.1222 25.7075 46.4118 0.0000 0.3760 0.0000
# 2 25.7075 122.2763 46.0884 -0.0001 -8.6238 0.0000
# 3 46.4118 46.0884 131.5992 0.0000 5.0340 0.0000
# 4 0.0000 -0.0001 0.0000 37.2296 -0.0001 6.0456
# 5 0.3760 -8.6238 5.0340 -0.0001 21.4826 0.0000
# 6 0.0000 0.0000 0.0000 6.0456 0.0000 27.1241
#
#
#
# Elastic Compliance Matrix: (Units=1/GPa)
#
#
# Indices 1 2 3 4 5 6 
#
# 1 0.010320 -0.000896 -0.003335 0.000000 0.000241 0.000000
# 2 -0.000896 0.009972 -0.003360 0.000000 0.004806 0.000000
# 3 -0.003335 -0.003360 0.010092 0.000000 -0.003655 0.000000
# 4 0.000000 0.000000 0.000000 0.027869 0.000000 -0.006212
# 5 0.000241 0.004806 -0.003655 0.000000 0.049331 0.000000
# 6 0.000000 0.000000 0.000000 -0.006212 0.000000 0.038252
#
#
# Mechanical properties :
#
#
# Convention : Reuss Voigt Hill
#
# Bulk Modulus (GPa) = 65.78322 67.15701 66.47012
# Shear Modulus (GPa) = 30.10508 33.81994 31.96251
#
# Velocity S-wave (km/s) = 3.81349 4.04193 3.92937
# Velocity P-wave (km/s) = 7.15317 7.36371 7.25920
#
# Compressibility (1/GPa) = 0.01520145
#
# Stress axis : x y z
#
# Youngs Moduli (GPa) = 96.90082 100.28027 99.09076
#
# Poissons Ratio (x) = 0.08981 0.33048
# Poissons Ratio (y) = 0.08678 0.33298
# Poissons Ratio (z) = 0.32318 0.33698
#
# Static dielectric constant tensor:
#      x y z
#    x 1.731200 0.000000 0.055910 
#    y 0.000000 1.766680 0.000000 
#    z 0.055910 0.000000 1.804860 
# 
# From -- ./inp_files/96403.got.cif
#   From: 2010.05.17/outbox.cif.g08.bks.cpg/sg13_49_cif.got.tgz:96403.got - 2010.06.03 16:44:36.
