data_PCOD9234520
_publ_section_title
;
Structure prediction by ZEFSAII (Michael W. Deem and Ramdas Pophale) SiO2 
 PCOD9234520
Probable space group: P 2/C
;
_chemical_formula_sum "Si O2"
_cell_formula_units_Z 30
_cell_length_a 22.563766
_cell_length_b 10.759614
_cell_length_c 12.331363
_cell_angle_alpha 90.000000
_cell_angle_beta 26.886405
_cell_angle_gamma 90.000000
_cell_volume 1353.854825
_symmetry_space_group_name_H-M "P 2/C"
_symmetry_group_IT_number 13
_symmetry_cell_setting 'monoclinic'
loop_
_space_group_symop_operation_xyz
x,y,z
-x,y,1/2-z
-x,-y,-z
x,-y,1/2+z
loop_
_atom_site_type_symbol
_atom_site_label
_atom_site_fract_x
_atom_site_fract_y
_atom_site_fract_z
Si Si1 0.360560 0.965955 0.326677
Si Si2 0.000000 0.870055 0.250000
Si Si3 0.932975 0.590551 0.752653
Si Si4 0.188192 0.312040 0.766872
Si Si5 0.573242 0.799269 0.925400
Si Si6 0.692910 0.725235 0.200440
Si Si7 0.872123 0.975918 0.136116
Si Si8 0.811150 0.675475 0.470915
O O1 0.302175 0.874777 0.327381
O O2 0.390547 0.101465 0.228998
O O3 0.256410 0.976337 0.591830
O O4 0.495911 0.892799 0.132227
O O5 0.922487 0.780737 0.294317
O O6 0.898934 0.953971 0.480545
O O7 0.000000 0.651143 0.750000
O O8 0.058677 0.600692 0.470593
O O9 0.802352 0.668266 0.941640
O O10 0.880149 0.456167 0.873498
O O11 0.274759 0.327743 0.733273
O O12 0.141021 0.170772 0.855619
O O13 0.253750 0.327238 0.542590
O O14 0.703167 0.720168 0.733820
O O15 0.458293 0.703155 0.080991
O O16 0.000000 0.000000 0.000000
#
# Coordination Sequence:
#
# PCOD9234520 Si02
#       8
#     4   2   4   4   4   4   4   4
#     4   9  19  41  60  94 132 160 201 263 318 384
#     4  12  28  38  62  96 132 156 210 266 316 396
#     4  10  22  40  62  90 124 171 218 271 319 367
#     4  11  23  36  64  96 120 166 215 262 324 370
#     4   9  20  38  66  90 129 164 213 252 323 392
#     4   9  21  38  64  90 124 158 215 265 306 384
#     4  12  23  38  64  94 129 163 207 262 324 377
#     4  12  23  43  58  90 130 173 208 263 327 378
#
# _framework density 22.158949
#
# number of rings (size 3 to 8) (size 9 to 14) (size 15 to 20)
#    0.800    0.800    3.333    1.200    6.533    1.067 
#    0.000    2.000    0.000    0.000    0.000    0.000 
#    0.000    0.000    0.000    0.000    0.000    0.000 
#
# Total GULP energy -167115.918410 kJ/mol
# GULP energy per Si atom -5570.530614 kJ/mol
# Density = 2.210851 g / cm^3
# Si number density = 22.158949 Si / 1000 Ang^3
#
#
#
# Elastic Constant Matrix: (Units=GPa)
#
#
# Indices 1 2 3 4 5 6 
#
# 1 33.0258 -3.9929 1.7119 0.0000 7.3462 0.0000
# 2 -3.9929 68.3524 37.6653 0.0000 -9.1255 0.0000
# 3 1.7119 37.6653 138.1956 0.0000 5.7270 0.0000
# 4 0.0000 0.0000 0.0000 37.3079 0.0000 -6.8402
# 5 7.3462 -9.1255 5.7270 0.0000 27.3215 0.0000
# 6 0.0000 0.0000 0.0000 -6.8402 0.0000 17.9254
#
#
#
# Elastic Compliance Matrix: (Units=1/GPa)
#
#
# Indices 1 2 3 4 5 6 
#
# 1 0.032255 0.000951 -0.000315 0.000000 -0.008289 0.000000
# 2 0.000951 0.018591 -0.005372 0.000000 0.007080 0.000000
# 3 -0.000315 -0.005372 0.008852 0.000000 -0.003565 0.000000
# 4 0.000000 0.000000 0.000000 0.028820 0.000000 0.010998
# 5 -0.008289 0.007080 -0.003565 0.000000 0.041942 0.000000
# 6 0.000000 0.000000 0.000000 0.010998 0.000000 0.059984
#
#
# Mechanical properties :
#
#
# Convention : Reuss Voigt Hill
#
# Bulk Modulus (GPa) = 19.91031 34.48248 27.19639
# Shear Modulus (GPa) = 23.07788 30.12357 26.60073
#
# Velocity S-wave (km/s) = 3.23068 3.69105 3.46851
# Velocity P-wave (km/s) = 4.78760 5.81036 5.32360
#
# Compressibility (1/GPa) = 0.05022525
#
# Stress axis : x y z
#
# Youngs Moduli (GPa) = 31.00342 53.78889 112.96915
#
# Poissons Ratio (x) = -0.05117 0.03562
# Poissons Ratio (y) = -0.02950 0.60690
# Poissons Ratio (z) = 0.00978 0.28897
#
# Static dielectric constant tensor:
#      x y z
#    x 1.899640 0.000000 0.028840 
#    y 0.000000 1.805540 0.000000 
#    z 0.028840 0.000000 1.890590 
# 
# From -- ./inp_files/59623.got.cif
#   From: 2010.05.17/outbox.cif.g08.bks.cpg/sg13_30_cif.got.tgz:59623.got - 2010.06.03 16:44:36.
