data_PCOD9234346
_publ_section_title
;
Structure prediction by ZEFSAII (Michael W. Deem and Ramdas Pophale) SiO2 
 PCOD9234346
Probable space group: P 2/C
;
_chemical_formula_sum "Si O2"
_cell_formula_units_Z 22
_cell_length_a 21.734688
_cell_length_b 8.443140
_cell_length_c 9.042187
_cell_angle_alpha 90.000000
_cell_angle_beta 143.004697
_cell_angle_gamma 90.000000
_cell_volume 998.496760
_symmetry_space_group_name_H-M "P 2/C"
_symmetry_group_IT_number 13
_symmetry_cell_setting 'monoclinic'
loop_
_space_group_symop_operation_xyz
x,y,z
-x,y,1/2-z
-x,-y,-z
x,-y,1/2+z
loop_
_atom_site_type_symbol
_atom_site_label
_atom_site_fract_x
_atom_site_fract_y
_atom_site_fract_z
Si Si1 0.922388 0.983243 0.478562
Si Si2 0.470596 0.338019 0.366660
Si Si3 0.871115 0.666652 0.802123
Si Si4 0.669335 0.183482 0.826227
Si Si5 0.000000 0.426257 0.250000
Si Si6 0.715097 0.852788 0.067518
O O1 0.883186 0.164241 0.413358
O O2 0.836360 0.854723 0.279807
O O3 0.000000 0.000000 0.500000
O O4 0.000000 0.930227 0.750000
O O5 0.500000 0.345759 0.250000
O O6 0.500000 0.500000 0.500000
O O7 0.549620 0.220231 0.596947
O O8 0.354404 0.277348 0.146050
O O9 0.748890 0.679128 0.531205
O O10 0.933724 0.649097 0.764519
O O11 0.916572 0.534131 0.999450
O O12 0.698014 0.153343 0.710139
O O13 0.684213 0.023889 0.946178
#
# Coordination Sequence:
#
# PCOD9234346 Si02
#       6
#     4   4   4   4   2   4
#     4  11  22  38  61  92 126 166 221 271 325 393
#     4  10  23  43  65  96 129 167 221 273 334 396
#     4  10  22  39  60  89 125 172 218 266 327 391
#     4  10  22  41  64  95 126 170 218 269 333 394
#     4  10  22  42  58  86 136 176 214 268 328 406
#     4  10  22  41  64  92 129 169 213 274 329 387
#
# _framework density 22.033121000000001
#
# number of rings (size 3 to 8) (size 9 to 14) (size 15 to 20)
#    0.000    1.818    0.909    2.727    3.818    4.364 
#    3.273    0.000    0.000    0.000    0.000    0.000 
#    0.000    0.000    0.000    0.000    0.000    0.000 
#
# Total GULP energy -122505.475629 kJ/mol
# GULP energy per Si atom -5568.430710 kJ/mol
# Density = 2.198297 g / cm^3
# Si number density = 22.033121 Si / 1000 Ang^3
#
#
#
# Elastic Constant Matrix: (Units=GPa)
#
#
# Indices 1 2 3 4 5 6 
#
# 1 39.5184 13.4908 49.4876 0.0000 12.8006 0.0000
# 2 13.4908 78.9945 60.6731 0.0000 8.5911 0.0000
# 3 49.4876 60.6731 193.4196 0.0000 18.1300 0.0000
# 4 0.0000 0.0000 0.0000 50.4210 0.0000 5.6554
# 5 12.8006 8.5911 18.1300 0.0000 35.0042 0.0000
# 6 0.0000 0.0000 0.0000 5.6554 0.0000 23.6631
#
#
#
# Elastic Compliance Matrix: (Units=1/GPa)
#
#
# Indices 1 2 3 4 5 6 
#
# 1 0.040436 0.001859 -0.009985 0.000000 -0.010072 0.000000
# 2 0.001859 0.016833 -0.005576 0.000000 -0.001923 0.000000
# 3 -0.009985 -0.005576 0.009463 0.000000 0.000119 0.000000
# 4 0.000000 0.000000 0.000000 0.020379 0.000000 -0.004871
# 5 -0.010072 -0.001923 0.000119 0.000000 0.032662 0.000000
# 6 0.000000 0.000000 0.000000 -0.004871 0.000000 0.043424
#
#
# Mechanical properties :
#
#
# Convention : Reuss Voigt Hill
#
# Bulk Modulus (GPa) = 25.42687 62.13727 43.78207
# Shear Modulus (GPa) = 24.54466 34.36972 29.45719
#
# Velocity S-wave (km/s) = 3.34127 3.95386 3.66040
# Velocity P-wave (km/s) = 5.14303 7.00764 6.14645
#
# Compressibility (1/GPa) = 0.03932848
#
# Stress axis : x y z
#
# Youngs Moduli (GPa) = 24.73033 59.40599 105.67848
#
# Poissons Ratio (x) = -0.11041 1.05518
# Poissons Ratio (y) = -0.04596 0.58923
# Poissons Ratio (z) = 0.24693 0.33123
#
# Static dielectric constant tensor:
#      x y z
#    x 1.791470 0.000000 0.052440 
#    y 0.000000 2.325030 0.000000 
#    z 0.052440 0.000000 1.773860 
# 
# From -- ./inp_files/22902.got.cif
#   From: 2010.05.17/outbox.cif.g08.bks.cpg/sg13_12_cif.got.tgz:22902.got - 2010.06.03 16:44:36.
