data_PCOD9234372
_publ_section_title
;
Structure prediction by ZEFSAII (Michael W. Deem and Ramdas Pophale) SiO2 
 PCOD9234372
Probable space group: P 2/C
;
_chemical_formula_sum "Si O2"
_cell_formula_units_Z 28
_cell_length_a 27.601461
_cell_length_b 8.706350
_cell_length_c 9.570489
_cell_angle_alpha 90.000000
_cell_angle_beta 35.542261
_cell_angle_gamma 90.000000
_cell_volume 1336.919007
_symmetry_space_group_name_H-M "P 2/C"
_symmetry_group_IT_number 13
_symmetry_cell_setting 'monoclinic'
loop_
_space_group_symop_operation_xyz
x,y,z
-x,y,1/2-z
-x,-y,-z
x,-y,1/2+z
loop_
_atom_site_type_symbol
_atom_site_label
_atom_site_fract_x
_atom_site_fract_y
_atom_site_fract_z
Si Si1 0.593157 0.298179 0.497780
Si Si2 0.246100 0.160756 0.241824
Si Si3 0.596334 0.530274 0.731984
Si Si4 0.856276 0.338360 0.792532
Si Si5 0.800953 0.809118 0.136574
Si Si6 0.749279 0.638375 0.022237
Si Si7 0.983683 0.154926 0.125543
O O1 0.500000 0.242137 0.750000
O O2 0.663447 0.196459 0.405935
O O3 0.599195 0.464407 0.566161
O O4 0.608795 0.312639 0.294035
O O5 0.183704 0.270409 0.474030
O O6 0.235068 0.211565 0.108058
O O7 0.225504 0.983983 0.307486
O O8 0.668169 0.431200 0.638730
O O9 0.500000 0.500000 0.000000
O O10 0.818332 0.243239 0.752191
O O11 0.822224 0.510233 0.850305
O O12 0.953651 0.292950 0.562701
O O13 0.738188 0.694346 0.206798
O O14 0.887934 0.795230 0.847731
O O15 0.000000 0.117125 0.250000
O O16 0.000000 0.000000 0.000000
#
# Coordination Sequence:
#
# PCOD9234372 Si02
#       7
#     4   4   4   4   4   4   4
#     4   9  18  33  57  85 121 156 200 246 299 358
#     4  11  21  37  62  88 122 165 196 251 309 363
#     4   9  18  33  57  87 119 155 197 246 298 359
#     4  11  22  39  62  88 122 156 208 256 294 358
#     4  11  24  40  62  87 123 159 203 251 313 371
#     4  11  23  38  62  92 119 160 210 254 303 360
#     4  10  22  39  62  88 120 161 204 242 303 371
#
# _framework density 20.943676
#
# number of rings (size 3 to 8) (size 9 to 14) (size 15 to 20)
#    0.000    1.714    2.857    1.714    4.000    0.571 
#    0.000    1.429    3.143    3.429    0.000    0.000 
#    0.000    0.000    0.000    0.000    0.000    0.000 
#
# Total GULP energy -156057.841327 kJ/mol
# GULP energy per Si atom -5573.494333 kJ/mol
# Density = 2.089601 g / cm^3
# Si number density = 20.943676 Si / 1000 Ang^3
#
#
#
# Elastic Constant Matrix: (Units=GPa)
#
#
# Indices 1 2 3 4 5 6 
#
# 1 58.0560 27.2297 7.3340 0.0000 -5.4251 0.0000
# 2 27.2297 83.0773 14.7320 0.0000 -26.1198 0.0000
# 3 7.3340 14.7320 50.3260 0.0000 -9.7876 0.0000
# 4 0.0000 0.0000 0.0000 16.1108 0.0000 7.0866
# 5 -5.4251 -26.1198 -9.7876 0.0000 32.0648 0.0000
# 6 0.0000 0.0000 0.0000 7.0866 0.0000 24.7167
#
#
#
# Elastic Compliance Matrix: (Units=1/GPa)
#
#
# Indices 1 2 3 4 5 6 
#
# 1 0.020618 -0.007456 -0.001408 0.000000 -0.003015 0.000000
# 2 -0.007456 0.019134 -0.001838 0.000000 0.013764 0.000000
# 3 -0.001408 -0.001838 0.021556 0.000000 0.004845 0.000000
# 4 0.000000 0.000000 0.000000 0.071028 0.000000 -0.020365
# 5 -0.003015 0.013764 0.004845 0.000000 0.043368 0.000000
# 6 0.000000 0.000000 0.000000 -0.020365 0.000000 0.046297
#
#
# Mechanical properties :
#
#
# Convention : Reuss Voigt Hill
#
# Bulk Modulus (GPa) = 25.06039 32.22786 28.64412
# Shear Modulus (GPa) = 19.47750 24.05605 21.76678
#
# Velocity S-wave (km/s) = 3.05289 3.39279 3.22732
# Velocity P-wave (km/s) = 4.94150 5.54701 5.25299
#
# Compressibility (1/GPa) = 0.03990362
#
# Stress axis : x y z
#
# Youngs Moduli (GPa) = 48.50132 52.26258 46.39120
#
# Poissons Ratio (x) = 0.38967 0.06534
# Poissons Ratio (y) = 0.36163 0.08525
# Poissons Ratio (z) = 0.06831 0.09604
#
# Static dielectric constant tensor:
#      x y z
#    x 1.778680 0.000000 -0.012600 
#    y 0.000000 1.721220 0.000000 
#    z -0.012600 0.000000 1.819800 
# 
# From -- ./inp_files/24524.got.cif
#   From: 2010.05.17/outbox.cif.g08.bks.cpg/sg13_13_cif.got.tgz:24524.got - 2010.06.03 16:44:36.
