data_PCOD9234016
_publ_section_title
;
Structure prediction by ZEFSAII (Michael W. Deem and Ramdas Pophale) SiO2 
 PCOD9234016
Probable space group: P 2/C
;
_chemical_formula_sum "Si O2"
_cell_formula_units_Z 30
_cell_length_a 13.304561
_cell_length_b 6.162636
_cell_length_c 18.543245
_cell_angle_alpha 90.000000
_cell_angle_beta 108.873384
_cell_angle_gamma 90.000000
_cell_volume 1438.640043
_symmetry_space_group_name_H-M "P 2/C"
_symmetry_group_IT_number 13
_symmetry_cell_setting 'monoclinic'
loop_
_space_group_symop_operation_xyz
x,y,z
-x,y,1/2-z
-x,-y,-z
x,-y,1/2+z
loop_
_atom_site_type_symbol
_atom_site_label
_atom_site_fract_x
_atom_site_fract_y
_atom_site_fract_z
Si Si1 0.240608 0.244833 0.132488
Si Si2 0.382076 0.421450 0.046196
Si Si3 0.047249 0.562694 0.129600
Si Si4 0.089566 0.870291 0.478907
Si Si5 0.000000 0.274304 0.250000
Si Si6 0.174324 0.941404 0.235628
Si Si7 0.751724 0.131342 0.601672
Si Si8 0.579386 0.194320 0.037276
O O1 0.336799 0.364632 0.114318
O O2 0.146705 0.415524 0.128962
O O3 0.252622 0.079546 0.201818
O O4 0.188568 0.111655 0.055097
O O5 0.504798 0.348788 0.067515
O O6 0.312039 0.297751 0.966536
O O7 0.381951 0.671954 0.023295
O O8 0.987549 0.430871 0.178305
O O9 0.961507 0.636190 0.050544
O O10 0.099176 0.784782 0.171388
O O11 0.139542 0.932597 0.413771
O O12 0.000000 0.000000 0.500000
O O13 0.099289 0.120880 0.255358
O O14 0.224712 0.797100 0.311301
O O15 0.680299 0.917998 0.595163
O O16 0.500000 0.000000 0.000000
#
# Coordination Sequence:
#
# PCOD9234016 Si02
#       8
#     4   4   4   4   2   4   4   4
#     4  10  23  36  57  86 118 157 200 248 302 351
#     4   9  20  39  61  91 113 144 200 251 299 362
#     4  11  22  36  55  77 120 163 202 242 294 349
#     4  11  21  36  55  85 120 156 198 243 286 344
#     4  10  22  36  54  78 112 170 208 246 280 350
#     4  11  22  38  54  83 121 158 202 242 297 358
#     4  10  22  35  60  84 116 156 191 243 296 354
#     4   9  19  38  65  87 111 146 192 246 304 353
#
# _framework density 20.853026
#
# number of rings (size 3 to 8) (size 9 to 14) (size 15 to 20)
#    0.000    1.867    1.333    2.400    3.733    5.333 
#    0.000    0.667    0.000    0.000    0.000    0.000 
#    0.000    0.000    0.000    0.000    0.000    0.000 
#
# Total GULP energy -167160.468133 kJ/mol
# GULP energy per Si atom -5572.015604 kJ/mol
# Density = 2.080556 g / cm^3
# Si number density = 20.853026 Si / 1000 Ang^3
#
#
#
# Elastic Constant Matrix: (Units=GPa)
#
#
# Indices 1 2 3 4 5 6 
#
# 1 66.3588 -5.9009 17.1522 0.0000 -17.7101 0.0000
# 2 -5.9009 40.1903 14.8976 0.0000 -8.7162 0.0000
# 3 17.1522 14.8976 75.4931 0.0000 -22.3079 0.0000
# 4 0.0000 0.0000 0.0000 34.9254 0.0000 -10.1059
# 5 -17.7101 -8.7162 -22.3079 0.0000 28.3084 0.0000
# 6 0.0000 0.0000 0.0000 -10.1059 0.0000 30.6555
#
#
#
# Elastic Compliance Matrix: (Units=1/GPa)
#
#
# Indices 1 2 3 4 5 6 
#
# 1 0.019501 0.006321 -0.001953 0.000000 0.012608 0.000000
# 2 0.006321 0.029527 -0.004442 0.000000 0.009545 0.000000
# 3 -0.001953 -0.004442 0.017991 0.000000 0.011588 0.000000
# 4 0.000000 0.000000 0.000000 0.031652 0.000000 0.010434
# 5 0.012608 0.009545 0.011588 0.000000 0.055283 0.000000
# 6 0.000000 0.000000 0.000000 0.010434 0.000000 0.036060
#
#
# Mechanical properties :
#
#
# Convention : Reuss Voigt Hill
#
# Bulk Modulus (GPa) = 14.95409 26.03778 20.49593
# Shear Modulus (GPa) = 23.53478 29.17075 26.35276
#
# Velocity S-wave (km/s) = 3.36311 3.74421 3.55877
# Velocity P-wave (km/s) = 4.71884 5.58620 5.17074
#
# Compressibility (1/GPa) = 0.06687133
#
# Stress axis : x y z
#
# Youngs Moduli (GPa) = 51.27880 33.86781 55.58427
#
# Poissons Ratio (x) = -0.21409 0.10853
# Poissons Ratio (y) = -0.32415 0.24692
# Poissons Ratio (z) = 0.10013 0.15045
#
# Static dielectric constant tensor:
#      x y z
#    x 1.822830 0.000000 -0.022790 
#    y 0.000000 1.796780 0.000000 
#    z -0.022790 0.000000 1.833160 
# 
# From -- ./inp_files/67589.got.cif
#   From: 2010.05.17/outbox.cif.g08.bks.cpg/sg13_34_cif.got.tgz:67589.got - 2010.06.03 16:44:36.
