data_PCOD9234088
_publ_section_title
;
Structure prediction by ZEFSAII (Michael W. Deem and Ramdas Pophale) SiO2 
 PCOD9234088
Probable space group: P 2/C
;
_chemical_formula_sum "Si O2"
_cell_formula_units_Z 18
_cell_length_a 8.819085
_cell_length_b 5.228130
_cell_length_c 22.453375
_cell_angle_alpha 90.000000
_cell_angle_beta 39.367777
_cell_angle_gamma 90.000000
_cell_volume 656.664279
_symmetry_space_group_name_H-M "P 2/C"
_symmetry_group_IT_number 13
_symmetry_cell_setting 'monoclinic'
loop_
_space_group_symop_operation_xyz
x,y,z
-x,y,1/2-z
-x,-y,-z
x,-y,1/2+z
loop_
_atom_site_type_symbol
_atom_site_label
_atom_site_fract_x
_atom_site_fract_y
_atom_site_fract_z
Si Si1 0.000000 0.889520 0.250000
Si Si2 0.654165 0.204257 0.418887
Si Si3 0.068194 0.467041 0.839690
Si Si4 0.560306 0.417209 0.125818
Si Si5 0.716273 0.092004 0.636198
O O1 0.000423 0.713727 0.306019
O O2 0.225610 0.066913 0.174688
O O3 0.495775 0.396535 0.427879
O O4 0.869048 0.312804 0.394186
O O5 0.500000 0.000000 0.500000
O O6 0.326236 0.578740 0.741180
O O7 0.087762 0.264467 0.887600
O O8 0.654081 0.704633 0.104364
O O9 0.727965 0.190412 0.102853
O O10 0.500000 0.077807 0.750000
#
# Coordination Sequence:
#
# PCOD9234088 Si02
#       5
#     2   4   4   4   4
#     4  12  22  44  76  94 150 182 250 298 368 430
#     4  12  26  43  71 106 145 190 247 305 368 436
#     4  11  23  42  70 107 136 196 245 301 368 441
#     4  11  21  43  66 101 138 187 233 300 355 436
#     4  10  22  36  70 100 136 181 243 288 364 429
#
# _framework density 27.411265
#
# number of rings (size 3 to 8) (size 9 to 14) (size 15 to 20)
#    0.000    0.889    4.444    4.667    3.111    0.889 
#    0.000    2.222    0.000    0.000    0.000    0.000 
#    0.000    0.000    0.000    0.000    0.000    0.000 
#
# Total GULP energy -100711.646926 kJ/mol
# GULP energy per Si atom -5595.091496 kJ/mol
# Density = 2.734888 g / cm^3
# Si number density = 27.411265 Si / 1000 Ang^3
#
#
#
# Elastic Constant Matrix: (Units=GPa)
#
#
# Indices 1 2 3 4 5 6 
#
# 1 68.7361 -4.5514 -0.3432 0.0000 -1.3972 0.0000
# 2 -4.5514 122.7952 14.8086 0.0000 -20.0096 0.0000
# 3 -0.3432 14.8086 90.5036 0.0000 -7.8006 0.0000
# 4 0.0000 0.0000 0.0000 45.4384 0.0000 -4.6275
# 5 -1.3972 -20.0096 -7.8006 0.0000 23.0835 0.0000
# 6 0.0000 0.0000 0.0000 -4.6275 0.0000 56.8470
#
#
#
# Elastic Compliance Matrix: (Units=1/GPa)
#
#
# Indices 1 2 3 4 5 6 
#
# 1 0.014634 0.000795 0.000063 0.000000 0.001596 0.000000
# 2 0.000795 0.009593 -0.000871 0.000000 0.008069 0.000000
# 3 0.000063 -0.000871 0.011461 0.000000 0.003122 0.000000
# 4 0.000000 0.000000 0.000000 0.022192 0.000000 0.001806
# 5 0.001596 0.008069 0.003122 0.000000 0.051467 0.000000
# 6 0.000000 0.000000 0.000000 0.001806 0.000000 0.017738
#
#
# Mechanical properties :
#
#
# Convention : Reuss Voigt Hill
#
# Bulk Modulus (GPa) = 28.04146 33.54031 30.79089
# Shear Modulus (GPa) = 35.97149 43.21515 39.59332
#
# Velocity S-wave (km/s) = 3.62648 3.97488 3.80467
# Velocity P-wave (km/s) = 5.27136 5.77311 5.52793
#
# Compressibility (1/GPa) = 0.03566148
#
# Stress axis : x y z
#
# Youngs Moduli (GPa) = 68.33496 104.24194 87.25141
#
# Poissons Ratio (x) = -0.08286 -0.00550
# Poissons Ratio (y) = -0.05432 0.07601
# Poissons Ratio (z) = -0.00430 0.09081
#
# Static dielectric constant tensor:
#      x y z
#    x 2.349470 0.000000 -0.149190 
#    y 0.000000 2.173140 0.000000 
#    z -0.149190 0.000000 2.079790 
# 
# From -- ./inp_files/74362.got.cif
#   From: 2010.05.17/outbox.cif.g08.bks.cpg/sg13_38_cif.got.tgz:74362.got - 2010.06.03 16:44:36.
