data_PCOD9234278
_publ_section_title
;
Structure prediction by ZEFSAII (Michael W. Deem and Ramdas Pophale) SiO2 
 PCOD9234278
Probable space group: P 2/C
;
_chemical_formula_sum "Si O2"
_cell_formula_units_Z 26
_cell_length_a 12.544722
_cell_length_b 5.143227
_cell_length_c 20.067260
_cell_angle_alpha 90.000000
_cell_angle_beta 50.353702
_cell_angle_gamma 90.000000
_cell_volume 996.952263
_symmetry_space_group_name_H-M "P 2/C"
_symmetry_group_IT_number 13
_symmetry_cell_setting 'monoclinic'
loop_
_space_group_symop_operation_xyz
x,y,z
-x,y,1/2-z
-x,-y,-z
x,-y,1/2+z
loop_
_atom_site_type_symbol
_atom_site_label
_atom_site_fract_x
_atom_site_fract_y
_atom_site_fract_z
Si Si1 0.000000 0.443564 0.750000
Si Si2 0.190623 0.916127 0.625857
Si Si3 0.131207 0.244081 0.003492
Si Si4 0.211872 0.287298 0.730004
Si Si5 0.561108 0.673151 0.916102
Si Si6 0.404271 0.105736 0.229395
Si Si7 0.810736 0.737057 0.592565
O O1 0.120242 0.666023 0.685319
O O2 0.061145 0.391354 0.805992
O O3 0.162169 0.892566 0.560802
O O4 0.351831 0.895039 0.580114
O O5 0.142858 0.171180 0.685960
O O6 0.197364 0.525027 0.963045
O O7 0.196518 0.037291 0.926082
O O8 0.967140 0.274652 0.057973
O O9 0.335589 0.473632 0.662118
O O10 0.281618 0.068618 0.746267
O O11 0.502703 0.808719 0.871953
O O12 0.500000 0.500000 0.000000
O O13 0.500000 0.992729 0.250000
O O14 0.311268 0.319816 0.305885
#
# Coordination Sequence:
#
# PCOD9234278 Si02
#       7
#     2   4   4   4   4   4   4
#     4  10  22  38  68 106 142 174 236 302 372 442
#     4  10  23  39  67 104 130 186 229 303 365 432
#     4  10  24  42  70  99 146 180 238 303 368 445
#     4  10  24  42  68 104 136 185 232 304 363 434
#     4  10  25  45  68 101 138 183 241 301 360 432
#     4  11  27  45  71 101 143 196 246 298 361 446
#     4  10  25  44  65 105 137 193 237 295 368 440
#
# _framework density 26.079484000000001
#
# number of rings (size 3 to 8) (size 9 to 14) (size 15 to 20)
#    0.000    1.846    0.000    0.462   17.231    5.538 
#    0.000    0.000    0.000    0.000    0.000    0.000 
#    0.000    0.000    0.000    0.000    0.000    0.000 
#
# Total GULP energy -144832.251157 kJ/mol
# GULP energy per Si atom -5570.471198 kJ/mol
# Density = 2.602013 g / cm^3
# Si number density = 26.079484 Si / 1000 Ang^3
#
#
#
# Elastic Constant Matrix: (Units=GPa)
#
#
# Indices 1 2 3 4 5 6 
#
# 1 110.6584 9.5371 20.0352 0.0000 15.1436 0.0000
# 2 9.5371 85.8774 -3.8327 0.0000 3.8799 0.0000
# 3 20.0352 -3.8327 89.6742 0.0000 16.8777 0.0000
# 4 0.0000 0.0000 0.0000 17.7814 0.0000 2.0041
# 5 15.1436 3.8799 16.8777 0.0000 41.6617 0.0000
# 6 0.0000 0.0000 0.0000 2.0041 0.0000 22.9793
#
#
#
# Elastic Compliance Matrix: (Units=1/GPa)
#
#
# Indices 1 2 3 4 5 6 
#
# 1 0.009817 -0.001041 -0.001715 0.000000 -0.002777 0.000000
# 2 -0.001041 0.011853 0.000948 0.000000 -0.001109 0.000000
# 3 -0.001715 0.000948 0.012422 0.000000 -0.004497 0.000000
# 4 0.000000 0.000000 0.000000 0.056797 0.000000 -0.004953
# 5 -0.002777 -0.001109 -0.004497 0.000000 0.026937 0.000000
# 6 0.000000 0.000000 0.000000 -0.004953 0.000000 0.043949
#
#
# Mechanical properties :
#
#
# Convention : Reuss Voigt Hill
#
# Bulk Modulus (GPa) = 32.81476 37.52104 35.16790
# Shear Modulus (GPa) = 28.48192 33.84917 31.16554
#
# Velocity S-wave (km/s) = 3.30831 3.60658 3.46066
# Velocity P-wave (km/s) = 5.21566 5.63575 5.42977
#
# Compressibility (1/GPa) = 0.03047409
#
# Stress axis : x y z
#
# Youngs Moduli (GPa) = 101.86313 84.36979 80.50486
#
# Poissons Ratio (x) = 0.08786 0.13809
# Poissons Ratio (y) = 0.10607 -0.07632
# Poissons Ratio (z) = 0.17472 -0.07999
#
# Static dielectric constant tensor:
#      x y z
#    x 2.914030 0.000000 -0.622820 
#    y 0.000000 2.195600 0.000000 
#    z -0.622820 0.000000 2.897000 
# 
# From -- ./inp_files/77179.got.cif
#   From: 2010.05.17/outbox.cif.g08.bks.cpg/sg13_39_cif.got.tgz:77179.got - 2010.06.03 16:44:36.
