data_PCOD9234393
_publ_section_title
;
Structure prediction by ZEFSAII (Michael W. Deem and Ramdas Pophale) SiO2 
 PCOD9234393
Probable space group: P 2/C
;
_chemical_formula_sum "Si O2"
_cell_formula_units_Z 28
_cell_length_a 15.313774
_cell_length_b 6.932056
_cell_length_c 12.033623
_cell_angle_alpha 90.000000
_cell_angle_beta 64.799751
_cell_angle_gamma 90.000000
_cell_volume 1155.860402
_symmetry_space_group_name_H-M "P 2/C"
_symmetry_group_IT_number 13
_symmetry_cell_setting 'monoclinic'
loop_
_space_group_symop_operation_xyz
x,y,z
-x,y,1/2-z
-x,-y,-z
x,-y,1/2+z
loop_
_atom_site_type_symbol
_atom_site_label
_atom_site_fract_x
_atom_site_fract_y
_atom_site_fract_z
Si Si1 0.597921 0.357493 0.263701
Si Si2 0.395365 0.811409 0.173729
Si Si3 0.871339 0.227301 0.880022
Si Si4 0.396464 0.753376 0.496251
Si Si5 0.768539 0.114917 0.567447
Si Si6 0.323170 0.653506 0.001770
Si Si7 0.948808 0.172084 0.599019
O O1 0.500000 0.320218 0.250000
O O2 0.610799 0.583544 0.287002
O O3 0.599887 0.231450 0.373539
O O4 0.677261 0.311292 0.128632
O O5 0.314505 0.908675 0.293652
O O6 0.362987 0.817972 0.062184
O O7 0.510456 0.847348 0.112791
O O8 0.786832 0.380030 0.900668
O O9 0.902808 0.128101 0.746305
O O10 0.962027 0.301711 0.903724
O O11 0.820334 0.067038 0.983702
O O12 0.294659 0.799044 0.497332
O O13 0.397932 0.521689 0.476505
O O14 0.856897 0.234588 0.575203
O O15 0.000000 0.000000 0.500000
#
# Coordination Sequence:
#
# PCOD9234393 Si02
#       7
#     4   4   4   4   4   4   4
#     4  11  18  34  57  87 118 162 209 238 278 363
#     4  11  19  36  62  86 123 167 206 235 295 361
#     4  10  22  39  63  92 116 156 208 253 308 358
#     4  11  22  34  62  89 122 168 203 241 297 362
#     4  11  21  38  63  91 123 159 202 253 305 359
#     4  11  20  36  61  89 121 161 203 250 297 356
#     4   9  20  41  67  84 116 161 202 249 309 374
#
# _framework density 24.224378999999999
#
# number of rings (size 3 to 8) (size 9 to 14) (size 15 to 20)
#    0.000    1.429    5.714    1.286    0.000    2.286 
#    0.000    2.857    0.000    6.857    0.000    0.000 
#    0.000    0.000    0.000    0.000    0.000    0.000 
#
# Total GULP energy -156153.477287 kJ/mol
# GULP energy per Si atom -5576.909903 kJ/mol
# Density = 2.416924 g / cm^3
# Si number density = 24.224379 Si / 1000 Ang^3
#
#
#
# Elastic Constant Matrix: (Units=GPa)
#
#
# Indices 1 2 3 4 5 6 
#
# 1 190.6389 12.3279 52.3407 0.0000 3.7936 0.0000
# 2 12.3279 37.0819 25.2040 0.0000 -2.9765 0.0000
# 3 52.3407 25.2040 164.9162 0.0000 -1.5030 0.0000
# 4 0.0000 0.0000 0.0000 22.9302 0.0000 -4.6614
# 5 3.7936 -2.9765 -1.5030 0.0000 47.3494 0.0000
# 6 0.0000 0.0000 0.0000 -4.6614 0.0000 24.5557
#
#
#
# Elastic Compliance Matrix: (Units=1/GPa)
#
#
# Indices 1 2 3 4 5 6 
#
# 1 0.005780 -0.000800 -0.001717 0.000000 -0.000568 0.000000
# 2 -0.000800 0.030349 -0.004368 0.000000 0.001833 0.000000
# 3 -0.001717 -0.004368 0.007277 0.000000 0.000094 0.000000
# 4 0.000000 0.000000 0.000000 0.045361 0.000000 0.008611
# 5 -0.000568 0.001833 0.000094 0.000000 0.021283 0.000000
# 6 0.000000 0.000000 0.000000 0.008611 0.000000 0.042358
#
#
# Mechanical properties :
#
#
# Convention : Reuss Voigt Hill
#
# Bulk Modulus (GPa) = 33.74231 63.59801 48.67016
# Shear Modulus (GPa) = 28.39978 39.15134 33.77556
#
# Velocity S-wave (km/s) = 3.42769 4.02456 3.73806
# Velocity P-wave (km/s) = 5.44286 6.92147 6.22622
#
# Compressibility (1/GPa) = 0.02963638
#
# Stress axis : x y z
#
# Youngs Moduli (GPa) = 173.00855 32.94996 137.41725
#
# Poissons Ratio (x) = 0.02636 0.23600
# Poissons Ratio (y) = 0.13839 0.60019
# Poissons Ratio (z) = 0.29712 0.14391
#
# Static dielectric constant tensor:
#      x y z
#    x 2.008840 0.000000 0.024240 
#    y 0.000000 2.049900 0.000000 
#    z 0.024240 0.000000 1.976980 
# 
# From -- ./inp_files/36339.got.cif
#   From: 2010.05.17/outbox.cif.g08.bks.cpg/sg13_19_cif.got.tgz:36339.got - 2010.06.03 16:44:36.
