data_PCOD9234165
_publ_section_title
;
Structure prediction by ZEFSAII (Michael W. Deem and Ramdas Pophale) SiO2 
 PCOD9234165
Probable space group: P 2/C
;
_chemical_formula_sum "Si O2"
_cell_formula_units_Z 22
_cell_length_a 13.672377
_cell_length_b 5.705621
_cell_length_c 12.801466
_cell_angle_alpha 90.000000
_cell_angle_beta 67.406524
_cell_angle_gamma 90.000000
_cell_volume 921.993449
_symmetry_space_group_name_H-M "P 2/C"
_symmetry_group_IT_number 13
_symmetry_cell_setting 'monoclinic'
loop_
_space_group_symop_operation_xyz
x,y,z
-x,y,1/2-z
-x,-y,-z
x,-y,1/2+z
loop_
_atom_site_type_symbol
_atom_site_label
_atom_site_fract_x
_atom_site_fract_y
_atom_site_fract_z
Si Si1 0.625903 0.283109 0.979115
Si Si2 0.747903 0.458794 0.121922
Si Si3 0.562029 0.362172 0.325032
Si Si4 0.000000 0.498401 0.750000
Si Si5 0.945154 0.189545 0.095794
Si Si6 0.195386 0.831144 0.233501
O O1 0.585733 0.442206 0.900644
O O2 0.713737 0.120755 0.889220
O O3 0.689266 0.447186 0.035544
O O4 0.523028 0.189762 0.084715
O O5 0.673829 0.294420 0.228247
O O6 0.864287 0.351637 0.065584
O O7 0.757983 0.702186 0.181412
O O8 0.500000 0.462560 0.250000
O O9 0.018327 0.655094 0.639553
O O10 0.894295 0.347916 0.772857
O O11 0.871066 0.053502 0.207288
O O12 0.000000 0.000000 0.000000
#
# Coordination Sequence:
#
# PCOD9234165 Si02
#       6
#     4   4   4   2   4   4
#     4   9  17  32  63  85 116 159 193 244 296 359
#     4   9  20  36  57  88 120 157 200 245 300 353
#     4   8  15  33  58  92 120 153 197 242 297 360
#     4  10  24  40  60  84 120 158 204 248 298 354
#     4  11  25  39  59  88 123 159 204 253 294 353
#     4  10  22  38  58  85 119 157 205 243 304 358
#
# _framework density 23.861339999999998
#
# number of rings (size 3 to 8) (size 9 to 14) (size 15 to 20)
#    0.000    2.545    0.000    0.545    7.636    1.455 
#    0.000    0.909    0.000   30.545    0.000    0.000 
#    0.000    0.000    0.000    0.000    0.000    0.000 
#
# Total GULP energy -122773.524789 kJ/mol
# GULP energy per Si atom -5580.614763 kJ/mol
# Density = 2.380703 g / cm^3
# Si number density = 23.861340 Si / 1000 Ang^3
#
#
#
# Elastic Constant Matrix: (Units=GPa)
#
#
# Indices 1 2 3 4 5 6 
#
# 1 97.8965 18.2656 46.3301 0.0000 25.5999 0.0000
# 2 18.2656 36.9018 24.0774 0.0000 4.2593 0.0000
# 3 46.3301 24.0774 133.6379 0.0000 -4.2674 0.0000
# 4 0.0000 0.0000 0.0000 32.1252 0.0000 -3.4410
# 5 25.5999 4.2593 -4.2674 0.0000 43.4612 0.0000
# 6 0.0000 0.0000 0.0000 -3.4410 0.0000 7.0341
#
#
#
# Elastic Compliance Matrix: (Units=1/GPa)
#
#
# Indices 1 2 3 4 5 6 
#
# 1 0.015755 -0.003338 -0.005163 0.000000 -0.009460 0.000000
# 2 -0.003338 0.031976 -0.004656 0.000000 -0.001625 0.000000
# 3 -0.005163 -0.004656 0.010255 0.000000 0.004504 0.000000
# 4 0.000000 0.000000 0.000000 0.032850 0.000000 0.016070
# 5 -0.009460 -0.001625 0.004504 0.000000 0.029183 0.000000
# 6 0.000000 0.000000 0.000000 0.016070 0.000000 0.150025
#
#
# Mechanical properties :
#
#
# Convention : Reuss Voigt Hill
#
# Bulk Modulus (GPa) = 31.57185 49.53140 40.55163
# Shear Modulus (GPa) = 16.29119 28.50829 22.39974
#
# Velocity S-wave (km/s) = 2.61577 3.46026 3.06722
# Velocity P-wave (km/s) = 4.73108 6.06363 5.43833
#
# Compressibility (1/GPa) = 0.03167378
#
# Stress axis : x y z
#
# Youngs Moduli (GPa) = 63.47361 31.27298 97.51006
#
# Poissons Ratio (x) = 0.10439 0.50340
# Poissons Ratio (y) = 0.21187 0.45399
# Poissons Ratio (z) = 0.32769 0.14560
#
# Static dielectric constant tensor:
#      x y z
#    x 1.950750 0.000000 -0.053870 
#    y 0.000000 1.903040 0.000000 
#    z -0.053870 0.000000 1.952410 
# 
# From -- ./inp_files/52092.got.cif
#   From: 2010.05.17/outbox.cif.g08.bks.cpg/sg13_27_cif.got.tgz:52092.got - 2010.06.03 16:44:36.
