data_PCOD9234410
_publ_section_title
;
Structure prediction by ZEFSAII (Michael W. Deem and Ramdas Pophale) SiO2 
 PCOD9234410
Probable space group: P 2/C
;
_chemical_formula_sum "Si O2"
_cell_formula_units_Z 28
_cell_length_a 15.315409
_cell_length_b 11.774711
_cell_length_c 8.623308
_cell_angle_alpha 90.000000
_cell_angle_beta 71.695500
_cell_angle_gamma 90.000000
_cell_volume 1476.394279
_symmetry_space_group_name_H-M "P 2/C"
_symmetry_group_IT_number 13
_symmetry_cell_setting 'monoclinic'
loop_
_space_group_symop_operation_xyz
x,y,z
-x,y,1/2-z
-x,-y,-z
x,-y,1/2+z
loop_
_atom_site_type_symbol
_atom_site_label
_atom_site_fract_x
_atom_site_fract_y
_atom_site_fract_z
Si Si1 0.000000 0.285265 0.750000
Si Si2 0.924031 0.905063 0.506025
Si Si3 0.296747 0.452403 0.347824
Si Si4 0.203253 0.047597 0.152176
Si Si5 0.702270 0.859967 0.197455
Si Si6 0.797730 0.359967 0.802545
Si Si7 0.500000 0.214735 0.750000
Si Si8 0.424031 0.405063 0.006024
O O1 0.027802 0.204387 0.591021
O O2 0.092814 0.349588 0.744086
O O3 0.862968 0.885818 0.692669
O O4 0.859355 0.959299 0.409981
O O5 0.000000 0.000000 0.500000
O O6 0.245288 0.376024 0.502247
O O7 0.229780 0.529715 0.281736
O O8 0.362968 0.385819 0.192669
O O9 0.359355 0.540701 0.409981
O O10 0.270220 0.970285 0.218264
O O11 0.254711 0.123976 0.997753
O O12 0.750000 0.750000 0.250000
O O13 0.592814 0.849588 0.244086
O O14 0.527802 0.295613 0.591022
O O15 0.500000 0.500000 0.000000
#
# Coordination Sequence:
#
# PCOD9234410 Si02
#       8
#     2   4   4   4   4   4   2   4
#     4  12  22  36  66  88 124 164 212 246 304 376
#     4  11  18  36  63  94 114 161 213 262 297 350
#     4  10  22  39  64  87 129 158 200 262 314 352
#     4  10  22  39  64  87 129 158 200 262 314 352
#     4  11  23  43  63  92 125 164 205 257 307 368
#     4  11  23  43  63  92 125 164 205 257 307 368
#     4  12  22  36  66  88 124 164 212 246 304 376
#     4  11  18  36  63  94 114 161 213 262 297 350
#
# _framework density 18.965122999999998
#
# number of rings (size 3 to 8) (size 9 to 14) (size 15 to 20)
#    0.000    1.143    5.714    1.714    0.000    2.286 
#    0.000    0.000    0.000    0.000    0.000    0.000 
#    0.000    0.000    0.000    0.000    0.000    0.000 
#
# Total GULP energy -156451.518882 kJ/mol
# GULP energy per Si atom -5587.554246 kJ/mol
# Density = 1.892196 g / cm^3
# Si number density = 18.965123 Si / 1000 Ang^3
#
#
#
# Elastic Constant Matrix: (Units=GPa)
#
#
# Indices 1 2 3 4 5 6 
#
# 1 147.0010 31.8277 63.7171 0.0000 -19.5207 0.0000
# 2 31.8277 51.0959 57.7918 0.0000 -11.2962 0.0000
# 3 63.7171 57.7918 198.3449 0.0000 -13.5768 0.0000
# 4 0.0000 0.0000 0.0000 41.3978 0.0000 -5.9430
# 5 -19.5207 -11.2962 -13.5768 0.0000 27.8302 0.0000
# 6 0.0000 0.0000 0.0000 -5.9430 0.0000 32.3273
#
#
#
# Elastic Compliance Matrix: (Units=1/GPa)
#
#
# Indices 1 2 3 4 5 6 
#
# 1 0.008665 -0.002452 -0.001781 0.000000 0.004214 0.000000
# 2 -0.002452 0.031697 -0.007951 0.000000 0.007268 0.000000
# 3 -0.001781 -0.007951 0.007887 0.000000 -0.000628 0.000000
# 4 0.000000 0.000000 0.000000 0.024811 0.000000 0.004561
# 5 0.004214 0.007268 -0.000628 0.000000 0.041531 0.000000
# 6 0.000000 0.000000 0.000000 0.004561 0.000000 0.031772
#
#
# Mechanical properties :
#
#
# Convention : Reuss Voigt Hill
#
# Bulk Modulus (GPa) = 41.86986 78.12388 59.99687
# Shear Modulus (GPa) = 27.98129 36.51808 32.24968
#
# Velocity S-wave (km/s) = 3.84527 4.39286 4.12815
# Velocity P-wave (km/s) = 6.46839 8.18611 7.37741
#
# Compressibility (1/GPa) = 0.02388353
#
# Stress axis : x y z
#
# Youngs Moduli (GPa) = 115.40754 31.54839 126.78543
#
# Poissons Ratio (x) = 0.07735 0.22578
# Poissons Ratio (y) = 0.28294 1.00802
# Poissons Ratio (z) = 0.20551 0.25083
#
# Static dielectric constant tensor:
#      x y z
#    x 1.656770 0.000000 0.002550 
#    y 0.000000 1.649060 0.000000 
#    z 0.002550 0.000000 1.665730 
# 
# From -- ./inp_files/18549.got.cif
#   From: 2010.05.17/outbox.cif.g08.bks.cpg/sg13_10_cif.got.tgz:18549.got - 2010.06.03 16:44:36.
