data_PCOD9234298
_publ_section_title
;
Structure prediction by ZEFSAII (Michael W. Deem and Ramdas Pophale) SiO2 
 PCOD9234298
Probable space group: P 2/C
;
_chemical_formula_sum "Si O2"
_cell_formula_units_Z 28
_cell_length_a 27.846911
_cell_length_b 7.983791
_cell_length_c 9.290819
_cell_angle_alpha 90.000000
_cell_angle_beta 142.754909
_cell_angle_gamma 90.000000
_cell_volume 1250.136999
_symmetry_space_group_name_H-M "P 2/C"
_symmetry_group_IT_number 13
_symmetry_cell_setting 'monoclinic'
loop_
_space_group_symop_operation_xyz
x,y,z
-x,y,1/2-z
-x,-y,-z
x,-y,1/2+z
loop_
_atom_site_type_symbol
_atom_site_label
_atom_site_fract_x
_atom_site_fract_y
_atom_site_fract_z
Si Si1 0.819573 0.450211 0.813045
Si Si2 0.318850 0.220632 0.109439
Si Si3 0.446036 0.405227 0.255902
Si Si4 0.040664 0.645933 0.501448
Si Si5 0.878557 0.879742 0.606500
Si Si6 0.700388 0.651109 0.645974
Si Si7 0.213803 0.089196 0.322368
O O1 0.738632 0.381250 0.550023
O O2 0.782778 0.547622 0.862768
O O3 0.874872 0.568670 0.849524
O O4 0.865519 0.284344 0.975069
O O5 0.400934 0.254522 0.227263
O O6 0.321648 0.212761 0.287144
O O7 0.271460 0.066658 0.935570
O O8 0.500000 0.357220 0.250000
O O9 0.500000 0.500000 0.500000
O O10 0.375477 0.531312 0.040417
O O11 0.047663 0.811803 0.618904
O O12 0.000000 0.675313 0.250000
O O13 0.000000 0.500000 0.500000
O O14 0.815206 0.903911 0.583585
O O15 0.861509 0.041364 0.462785
O O16 0.730344 0.753611 0.579147
#
# Coordination Sequence:
#
# PCOD9234298 Si02
#       7
#     4   4   4   4   4   4   4
#     4  10  22  38  70  96 125 170 239 281 322 389
#     4  10  22  39  65  95 128 178 217 274 331 394
#     4  11  23  41  65  97 134 170 218 274 328 396
#     4  12  24  42  69  99 134 174 230 286 348 401
#     4  11  23  43  65 100 134 177 219 293 331 410
#     4  11  21  38  68  97 129 170 221 280 331 388
#     4  11  23  41  69  97 137 170 233 274 345 403
#
# _framework density 22.397545000000001
#
# number of rings (size 3 to 8) (size 9 to 14) (size 15 to 20)
#    0.000    1.143    5.714    0.857    2.000    1.143 
#    0.000    2.143    0.000    0.000    0.000    0.000 
#    0.000    0.000    0.000    0.000    0.000    0.000 
#
# Total GULP energy -155971.586660 kJ/mol
# GULP energy per Si atom -5570.413809 kJ/mol
# Density = 2.234657 g / cm^3
# Si number density = 22.397545 Si / 1000 Ang^3
#
#
#
# Elastic Constant Matrix: (Units=GPa)
#
#
# Indices 1 2 3 4 5 6 
#
# 1 123.9943 5.8229 8.1790 0.0000 8.0238 0.0000
# 2 5.8229 54.0448 -10.5348 0.0000 15.9163 0.0000
# 3 8.1790 -10.5348 41.3493 0.0000 8.4045 0.0000
# 4 0.0000 0.0000 0.0000 24.0094 0.0000 7.1545
# 5 8.0238 15.9163 8.4045 0.0000 32.1861 0.0000
# 6 0.0000 0.0000 0.0000 7.1545 0.0000 27.2423
#
#
#
# Elastic Compliance Matrix: (Units=1/GPa)
#
#
# Indices 1 2 3 4 5 6 
#
# 1 0.008290 -0.000844 -0.001605 0.000000 -0.001230 0.000000
# 2 -0.000844 0.024679 0.009391 0.000000 -0.014446 0.000000
# 3 -0.001605 0.009391 0.029312 0.000000 -0.011898 0.000000
# 4 0.000000 0.000000 0.000000 0.045187 0.000000 -0.011867
# 5 -0.001230 -0.014446 -0.011898 0.000000 0.041626 0.000000
# 6 0.000000 0.000000 0.000000 -0.011867 0.000000 0.039824
#
#
# Mechanical properties :
#
#
# Convention : Reuss Voigt Hill
#
# Bulk Modulus (GPa) = 13.12921 25.14694 19.13807
# Shear Modulus (GPa) = 24.94734 31.08232 28.01483
#
# Velocity S-wave (km/s) = 3.34105 3.72930 3.54050
# Velocity P-wave (km/s) = 4.55611 5.45852 5.02760
#
# Compressibility (1/GPa) = 0.07616606
#
# Stress axis : x y z
#
# Youngs Moduli (GPa) = 120.62767 40.52062 34.11523
#
# Poissons Ratio (x) = 0.03418 0.05474
# Poissons Ratio (y) = 0.10176 -0.32036
# Poissons Ratio (z) = 0.19356 -0.38051
#
# Static dielectric constant tensor:
#      x y z
#    x 1.829990 0.000000 -0.042320 
#    y 0.000000 1.913760 0.000000 
#    z -0.042320 0.000000 1.916490 
# 
# From -- ./inp_files/24605.got.cif
#   From: 2010.05.17/outbox.cif.g08.bks.cpg/sg13_13_cif.got.tgz:24605.got - 2010.06.03 16:44:36.
