data_PCOD9234545
_publ_section_title
;
Structure prediction by ZEFSAII (Michael W. Deem and Ramdas Pophale) SiO2 
 PCOD9234545
Probable space group: P 2/C
;
_chemical_formula_sum "Si O2"
_cell_formula_units_Z 20
_cell_length_a 13.090146
_cell_length_b 10.988560
_cell_length_c 13.656619
_cell_angle_alpha 90.000000
_cell_angle_beta 155.713661
_cell_angle_gamma 90.000000
_cell_volume 807.949196
_symmetry_space_group_name_H-M "P 2/C"
_symmetry_group_IT_number 13
_symmetry_cell_setting 'monoclinic'
loop_
_space_group_symop_operation_xyz
x,y,z
-x,y,1/2-z
-x,-y,-z
x,-y,1/2+z
loop_
_atom_site_type_symbol
_atom_site_label
_atom_site_fract_x
_atom_site_fract_y
_atom_site_fract_z
Si Si1 0.389203 0.115470 0.753101
Si Si2 0.118011 0.030096 0.248802
Si Si3 0.648685 0.593433 0.698165
Si Si4 0.200068 0.742162 0.342966
Si Si5 0.139582 0.646445 0.069120
O O1 0.500000 0.061192 0.750000
O O2 0.611667 0.094068 0.024648
O O3 0.320132 0.256665 0.679073
O O4 0.116121 0.057329 0.527096
O O5 0.177630 0.887104 0.311114
O O6 0.000000 0.072848 0.250000
O O7 0.500000 0.500000 0.500000
O O8 0.475924 0.689248 0.602527
O O9 0.785863 0.492682 0.885247
O O10 0.845386 0.656317 0.796554
O O11 0.145983 0.685510 0.189408
O O12 0.000000 0.705860 0.250000
#
# Coordination Sequence:
#
# PCOD9234545 Si02
#       5
#     4   4   4   4   4
#     4  10  22  41  63  93 128 168 210 260 320 374
#     4   9  21  39  62  93 130 163 211 264 309 378
#     4   9  21  42  59  85 124 155 207 267 308 371
#     4  10  22  40  63  90 123 166 207 257 317 375
#     4  10  22  40  63  88 125 163 208 265 309 377
#
# _framework density 24.754031000000001
#
# number of rings (size 3 to 8) (size 9 to 14) (size 15 to 20)
#    0.000    2.400    0.000    0.000    8.400    2.400 
#   10.800    0.000    0.000    0.000    0.000    0.000 
#    0.000    0.000    0.000    0.000    0.000    0.000 
#
# Total GULP energy -111504.125622 kJ/mol
# GULP energy per Si atom -5575.206281 kJ/mol
# Density = 2.469769 g / cm^3
# Si number density = 24.754031 Si / 1000 Ang^3
#
#
#
# Elastic Constant Matrix: (Units=GPa)
#
#
# Indices 1 2 3 4 5 6 
#
# 1 67.8746 5.5896 22.5268 0.0000 22.8499 0.0000
# 2 5.5896 127.6049 74.6255 0.0000 21.3789 0.0000
# 3 22.5268 74.6255 195.8771 0.0000 42.4561 0.0000
# 4 0.0000 0.0000 0.0000 61.7693 0.0000 29.0062
# 5 22.8499 21.3789 42.4561 0.0000 26.8690 0.0000
# 6 0.0000 0.0000 0.0000 29.0062 0.0000 32.9637
#
#
#
# Elastic Compliance Matrix: (Units=1/GPa)
#
#
# Indices 1 2 3 4 5 6 
#
# 1 0.021595 0.001832 0.001696 0.000000 -0.022502 0.000000
# 2 0.001832 0.010397 -0.003104 0.000000 -0.004926 0.000000
# 3 0.001696 -0.003104 0.008928 0.000000 -0.013079 0.000000
# 4 0.000000 0.000000 0.000000 0.027590 0.000000 -0.024277
# 5 -0.022502 -0.004926 -0.013079 0.000000 0.080939 0.000000
# 6 0.000000 0.000000 0.000000 -0.024277 0.000000 0.051699
#
#
# Mechanical properties :
#
#
# Convention : Reuss Voigt Hill
#
# Bulk Modulus (GPa) = 23.94234 66.31561 45.12897
# Shear Modulus (GPa) = 23.34029 43.56138 33.45083
#
# Velocity S-wave (km/s) = 3.07398 4.19951 3.68003
# Velocity P-wave (km/s) = 4.72146 7.09665 6.02722
#
# Compressibility (1/GPa) = 0.04176702
#
# Stress axis : x y z
#
# Youngs Moduli (GPa) = 46.30805 96.18096 112.01118
#
# Poissons Ratio (x) = -0.17624 -0.18993
# Poissons Ratio (y) = -0.08485 0.34769
# Poissons Ratio (z) = -0.07852 0.29856
#
# Static dielectric constant tensor:
#      x y z
#    x 1.978490 0.000000 -0.053220 
#    y 0.000000 1.958940 0.000000 
#    z -0.053220 0.000000 2.316540 
# 
# From -- ./inp_files/51231.got.cif
#   From: 2010.05.17/outbox.cif.g08.bks.cpg/sg13_26_cif.got.tgz:51231.got - 2010.06.03 16:44:36.
