data_PCOD9234173
_publ_section_title
;
Structure prediction by ZEFSAII (Michael W. Deem and Ramdas Pophale) SiO2 
 PCOD9234173
Probable space group: P 2/C
;
_chemical_formula_sum "Si O2"
_cell_formula_units_Z 20
_cell_length_a 21.257637
_cell_length_b 6.114369
_cell_length_c 14.763498
_cell_angle_alpha 90.000000
_cell_angle_beta 150.566332
_cell_angle_gamma 90.000000
_cell_volume 942.985138
_symmetry_space_group_name_H-M "P 2/C"
_symmetry_group_IT_number 13
_symmetry_cell_setting 'monoclinic'
loop_
_space_group_symop_operation_xyz
x,y,z
-x,y,1/2-z
-x,-y,-z
x,-y,1/2+z
loop_
_atom_site_type_symbol
_atom_site_label
_atom_site_fract_x
_atom_site_fract_y
_atom_site_fract_z
Si Si1 0.221940 0.052287 0.759117
Si Si2 0.629641 0.425588 0.617253
Si Si3 0.854735 0.637190 0.171852
Si Si4 0.359237 0.324662 0.544169
Si Si5 0.135181 0.286103 0.016186
O O1 0.324522 0.176577 0.823903
O O2 0.167067 0.225763 0.763017
O O3 0.128042 0.923840 0.573291
O O4 0.291632 0.871736 0.907191
O O5 0.500000 0.500000 0.500000
O O6 0.609409 0.483567 0.487255
O O7 0.745584 0.570784 0.801014
O O8 0.004642 0.574725 0.362519
O O9 0.751101 0.440977 0.033962
O O10 0.844945 0.770239 0.064894
O O11 0.500000 0.249158 0.750000
#
# Coordination Sequence:
#
# PCOD9234173 Si02
#       5
#     4   4   4   4   4
#     4  10  23  39  62  91 122 160 204 254 307 365
#     4  10  22  39  59  85 120 157 198 251 304 361
#     4  10  22  40  61  89 124 161 205 253 307 367
#     4  10  22  38  59  86 118 159 202 251 305 362
#     4  10  22  39  62  90 122 163 205 252 308 368
#
# _framework density 21.209242
#
# number of rings (size 3 to 8) (size 9 to 14) (size 15 to 20)
#    0.000    2.000    0.000    1.800    0.000   20.000 
#    0.000    4.000    0.000    0.000    0.000    0.000 
#    0.000    0.000    0.000    0.000    0.000    0.000 
#
# Total GULP energy -111395.002201 kJ/mol
# GULP energy per Si atom -5569.750110 kJ/mol
# Density = 2.116097 g / cm^3
# Si number density = 21.209242 Si / 1000 Ang^3
#
#
#
# Elastic Constant Matrix: (Units=GPa)
#
#
# Indices 1 2 3 4 5 6 
#
# 1 100.7988 19.7049 39.2542 0.0000 13.4413 0.0000
# 2 19.7049 43.5073 1.2953 0.0000 12.1483 0.0000
# 3 39.2542 1.2953 83.8522 0.0000 18.1171 0.0000
# 4 0.0000 0.0000 0.0000 17.5129 0.0000 2.1294
# 5 13.4413 12.1483 18.1171 0.0000 38.4734 0.0000
# 6 0.0000 0.0000 0.0000 2.1294 0.0000 29.6857
#
#
#
# Elastic Compliance Matrix: (Units=1/GPa)
#
#
# Indices 1 2 3 4 5 6 
#
# 1 0.013508 -0.005962 -0.006255 0.000000 0.000109 0.000000
# 2 -0.005962 0.028005 0.004251 0.000000 -0.008762 0.000000
# 3 -0.006255 0.004251 0.016260 0.000000 -0.006814 0.000000
# 4 0.000000 0.000000 0.000000 0.057603 0.000000 -0.004132
# 5 0.000109 -0.008762 -0.006814 0.000000 0.031929 0.000000
# 6 0.000000 0.000000 0.000000 -0.004132 0.000000 0.033983
#
#
# Mechanical properties :
#
#
# Convention : Reuss Voigt Hill
#
# Bulk Modulus (GPa) = 23.89919 38.74081 31.32000
# Shear Modulus (GPa) = 23.67809 28.32801 26.00305
#
# Velocity S-wave (km/s) = 3.34489 3.65861 3.50526
# Velocity P-wave (km/s) = 5.11961 6.01273 5.58406
#
# Compressibility (1/GPa) = 0.04184243
#
# Stress axis : x y z
#
# Youngs Moduli (GPa) = 74.03287 35.70811 61.49899
#
# Poissons Ratio (x) = 0.21289 0.38466
# Poissons Ratio (y) = 0.44137 -0.26146
# Poissons Ratio (z) = 0.46306 -0.15181
#
# Static dielectric constant tensor:
#      x y z
#    x 1.849160 0.000000 0.013410 
#    y 0.000000 1.771770 0.000000 
#    z 0.013410 0.000000 1.809670 
# 
# From -- ./inp_files/56373.got.cif
#   From: 2010.05.17/outbox.cif.g08.bks.cpg/sg13_29_cif.got.tgz:56373.got - 2010.06.03 16:44:36.
