data_PCOD9234149
_publ_section_title
;
Structure prediction by ZEFSAII (Michael W. Deem and Ramdas Pophale) SiO2 
 PCOD9234149
Probable space group: P 2/C
;
_chemical_formula_sum "Si O2"
_cell_formula_units_Z 28
_cell_length_a 21.943581
_cell_length_b 11.747525
_cell_length_c 12.319849
_cell_angle_alpha 90.000000
_cell_angle_beta 27.045424
_cell_angle_gamma 90.000000
_cell_volume 1444.046275
_symmetry_space_group_name_H-M "P 2/C"
_symmetry_group_IT_number 13
_symmetry_cell_setting 'monoclinic'
loop_
_space_group_symop_operation_xyz
x,y,z
-x,y,1/2-z
-x,-y,-z
x,-y,1/2+z
loop_
_atom_site_type_symbol
_atom_site_label
_atom_site_fract_x
_atom_site_fract_y
_atom_site_fract_z
Si Si1 0.649826 0.207859 0.049648
Si Si2 0.169984 0.573124 0.242138
Si Si3 0.634511 0.604068 0.986008
Si Si4 0.296323 0.786806 0.435935
Si Si5 0.659975 0.034475 0.468978
Si Si6 0.912428 0.602669 0.782614
Si Si7 0.590967 0.799376 0.891558
O O1 0.500000 0.235743 0.250000
O O2 0.639743 0.181808 0.193358
O O3 0.743038 0.315153 0.889896
O O4 0.698441 0.097028 0.906720
O O5 0.241666 0.482002 0.208460
O O6 0.170807 0.507836 0.124942
O O7 0.020975 0.609728 0.513109
O O8 0.659162 0.702041 0.036950
O O9 0.500000 0.546482 0.250000
O O10 0.616750 0.673722 0.902657
O O11 0.263766 0.901085 0.554155
O O12 0.180304 0.714514 0.562386
O O13 0.429014 0.811226 0.155143
O O14 0.663056 0.108363 0.354910
O O15 0.500000 0.035836 0.750000
O O16 0.000000 0.585572 0.750000
#
# Coordination Sequence:
#
# PCOD9234149 Si02
#       7
#     4   4   4   4   4   4   4
#     4  11  23  34  54  91 117 136 174 234 279 323
#     4  10  22  38  52  82 115 139 188 237 262 324
#     4   8  15  33  56  79 108 142 179 221 278 330
#     4   8  16  34  57  79 103 143 189 219 262 330
#     4   8  17  35  57  83 112 142 172 222 281 334
#     4  10  22  38  57  75 105 159 190 223 269 315
#     4   9  18  34  60  83 108 148 176 216 287 340
#
# _framework density 19.389959999999999
#
# number of rings (size 3 to 8) (size 9 to 14) (size 15 to 20)
#    0.000    2.857    0.000    2.143    4.000    5.143 
#    0.000    3.571    0.000    0.857    0.000    0.000 
#    0.000    0.000    0.000    0.000    0.000    0.000 
#
# Total GULP energy -155999.889037 kJ/mol
# GULP energy per Si atom -5571.424608 kJ/mol
# Density = 1.934583 g / cm^3
# Si number density = 19.389960 Si / 1000 Ang^3
#
#
#
# Elastic Constant Matrix: (Units=GPa)
#
#
# Indices 1 2 3 4 5 6 
#
# 1 69.1325 34.3499 0.3756 0.0000 -0.9216 0.0000
# 2 34.3499 113.7475 23.4432 0.0000 -14.3230 0.0000
# 3 0.3756 23.4432 26.0479 0.0000 -6.8638 0.0000
# 4 0.0000 0.0000 0.0000 13.1241 0.0000 -9.6537
# 5 -0.9216 -14.3230 -6.8638 0.0000 21.9709 0.0000
# 6 0.0000 0.0000 0.0000 -9.6537 0.0000 20.7505
#
#
#
# Elastic Compliance Matrix: (Units=1/GPa)
#
#
# Indices 1 2 3 4 5 6 
#
# 1 0.017731 -0.006683 0.005238 0.000000 -0.001976 0.000000
# 2 -0.006683 0.013710 -0.010855 0.000000 0.005266 0.000000
# 3 0.005238 -0.010855 0.050429 0.000000 0.008898 0.000000
# 4 0.000000 0.000000 0.000000 0.115836 0.000000 0.053890
# 5 -0.001976 0.005266 0.008898 0.000000 0.051645 0.000000
# 6 0.000000 0.000000 0.000000 0.053890 0.000000 0.073263
#
#
# Mechanical properties :
#
#
# Convention : Reuss Voigt Hill
#
# Bulk Modulus (GPa) = 17.46095 36.14060 26.80078
# Shear Modulus (GPa) = 13.64993 21.21971 17.43482
#
# Velocity S-wave (km/s) = 2.65612 3.31171 3.00186
# Velocity P-wave (km/s) = 4.29317 5.77083 5.08595
#
# Compressibility (1/GPa) = 0.05727064
#
# Stress axis : x y z
#
# Youngs Moduli (GPa) = 56.39947 72.94062 19.82971
#
# Poissons Ratio (x) = 0.48745 -0.10387
# Poissons Ratio (y) = 0.37691 0.21525
# Poissons Ratio (z) = -0.29542 0.79176
#
# Static dielectric constant tensor:
#      x y z
#    x 1.716290 0.000000 -0.005840 
#    y 0.000000 1.714460 0.000000 
#    z -0.005840 0.000000 1.701570 
# 
# From -- ./inp_files/40748.got.cif
#   From: 2010.05.17/outbox.cif.g08.bks.cpg/sg13_21_cif.got.tgz:40748.got - 2010.06.03 16:44:36.
