data_PCOD9234405
_publ_section_title
;
Structure prediction by ZEFSAII (Michael W. Deem and Ramdas Pophale) SiO2 
 PCOD9234405
Probable space group: P 2/C
;
_chemical_formula_sum "Si O2"
_cell_formula_units_Z 20
_cell_length_a 13.798551
_cell_length_b 8.694885
_cell_length_c 19.351435
_cell_angle_alpha 90.000000
_cell_angle_beta 20.594425
_cell_angle_gamma 90.000000
_cell_volume 816.667563
_symmetry_space_group_name_H-M "P 2/C"
_symmetry_group_IT_number 13
_symmetry_cell_setting 'monoclinic'
loop_
_space_group_symop_operation_xyz
x,y,z
-x,y,1/2-z
-x,-y,-z
x,-y,1/2+z
loop_
_atom_site_type_symbol
_atom_site_label
_atom_site_fract_x
_atom_site_fract_y
_atom_site_fract_z
Si Si1 0.578223 0.887099 0.839771
Si Si2 0.869718 0.702372 0.412481
Si Si3 0.940947 0.665795 0.003250
Si Si4 0.668341 0.619812 0.049107
Si Si5 0.435217 0.775502 0.088434
O O1 0.838262 0.800916 0.631816
O O2 0.595494 0.062663 0.851386
O O3 0.309110 0.857182 0.971877
O O4 0.514824 0.805061 0.955798
O O5 0.658458 0.563697 0.563884
O O6 0.000000 0.677240 0.250000
O O7 0.128047 0.703646 0.290951
O O8 0.910715 0.660533 0.939673
O O9 0.623113 0.693727 0.235004
O O10 0.000000 0.500000 0.000000
O O11 0.665401 0.671602 0.971825
#
# Coordination Sequence:
#
# PCOD9234405 Si02
#       5
#     4   4   4   4   4
#     4  10  23  43  70  96 142 181 228 299 353 428
#     4  10  22  39  64 100 136 175 224 290 349 411
#     4  11  23  42  64  96 132 181 229 283 346 414
#     4  11  24  40  66  96 134 177 230 288 349 421
#     4  10  24  43  67 106 135 179 238 287 365 418
#
# _framework density 24.48977
#
# number of rings (size 3 to 8) (size 9 to 14) (size 15 to 20)
#    0.000    1.600    2.000    1.200    5.600    2.400 
#    0.000    0.000    0.000    0.000    0.000    0.000 
#    0.000    0.000    0.000    0.000    0.000    0.000 
#
# Total GULP energy -111638.686064 kJ/mol
# GULP energy per Si atom -5581.934303 kJ/mol
# Density = 2.443403 g / cm^3
# Si number density = 24.489770 Si / 1000 Ang^3
#
#
#
# Elastic Constant Matrix: (Units=GPa)
#
#
# Indices 1 2 3 4 5 6 
#
# 1 98.4286 20.1597 27.9843 0.0000 -34.2626 0.0000
# 2 20.1597 62.7045 41.5809 0.0000 -12.7533 0.0000
# 3 27.9843 41.5809 105.5523 0.0000 -6.9587 0.0000
# 4 0.0000 0.0000 0.0000 23.0464 0.0000 -3.9754
# 5 -34.2626 -12.7533 -6.9587 0.0000 47.7978 0.0000
# 6 0.0000 0.0000 0.0000 -3.9754 0.0000 39.0029
#
#
#
# Elastic Compliance Matrix: (Units=1/GPa)
#
#
# Indices 1 2 3 4 5 6 
#
# 1 0.014558 -0.000751 -0.002917 0.000000 0.009810 0.000000
# 2 -0.000751 0.022660 -0.008445 0.000000 0.004278 0.000000
# 3 -0.002917 -0.008445 0.013417 0.000000 -0.002391 0.000000
# 4 0.000000 0.000000 0.000000 0.044167 0.000000 0.004502
# 5 0.009810 0.004278 -0.002391 0.000000 0.028747 0.000000
# 6 0.000000 0.000000 0.000000 0.004502 0.000000 0.026098
#
#
# Mechanical properties :
#
#
# Convention : Reuss Voigt Hill
#
# Bulk Modulus (GPa) = 37.86774 49.57059 43.71917
# Shear Modulus (GPa) = 27.37096 33.76676 30.56886
#
# Velocity S-wave (km/s) = 3.34675 3.71726 3.53686
# Velocity P-wave (km/s) = 5.51639 6.22168 5.87962
#
# Compressibility (1/GPa) = 0.02640770
#
# Stress axis : x y z
#
# Youngs Moduli (GPa) = 68.69228 44.13132 74.53415
#
# Poissons Ratio (x) = 0.03313 0.21742
# Poissons Ratio (y) = 0.05156 0.62947
# Poissons Ratio (z) = 0.20038 0.37271
#
# Static dielectric constant tensor:
#      x y z
#    x 2.111730 0.000000 0.057330 
#    y 0.000000 1.919970 0.000000 
#    z 0.057330 0.000000 1.985830 
# 
# From -- ./inp_files/87224.got.cif
#   From: 2010.05.17/outbox.cif.g08.bks.cpg/sg13_44_cif.got.tgz:87224.got - 2010.06.03 16:44:36.
