data_PCOD9234686
_publ_section_title
;
Structure prediction by ZEFSAII (Michael W. Deem and Ramdas Pophale) SiO2 
 PCOD9234686
Probable space group: P 2/C
;
_chemical_formula_sum "Si O2"
_cell_formula_units_Z 32
_cell_length_a 24.507580
_cell_length_b 8.903706
_cell_length_c 14.479299
_cell_angle_alpha 90.000000
_cell_angle_beta 150.134827
_cell_angle_gamma 90.000000
_cell_volume 1573.308368
_symmetry_space_group_name_H-M "P 2/C"
_symmetry_group_IT_number 13
_symmetry_cell_setting 'monoclinic'
loop_
_space_group_symop_operation_xyz
x,y,z
-x,y,1/2-z
-x,-y,-z
x,-y,1/2+z
loop_
_atom_site_type_symbol
_atom_site_label
_atom_site_fract_x
_atom_site_fract_y
_atom_site_fract_z
Si Si1 0.237291 0.258860 0.666971
Si Si2 0.051088 0.836103 0.559549
Si Si3 0.169499 0.654564 0.261176
Si Si4 0.878108 0.059853 0.527335
Si Si5 0.696453 0.139526 0.410505
Si Si6 0.515229 0.178109 0.502642
Si Si7 0.585503 0.823354 0.298696
Si Si8 0.209057 0.341765 0.414089
O O1 0.199449 0.358760 0.697321
O O2 0.365566 0.212698 0.864430
O O3 0.220202 0.331803 0.541026
O O4 0.165256 0.106535 0.561352
O O5 0.116459 0.846089 0.559391
O O6 0.125485 0.783528 0.753601
O O7 0.951102 0.721916 0.405729
O O8 0.000000 0.000000 0.500000
O O9 0.253587 0.774005 0.429589
O O10 0.174967 0.501653 0.325717
O O11 0.791446 0.125729 0.473206
O O12 0.000000 0.054850 0.750000
O O13 0.656432 0.970905 0.376218
O O14 0.589065 0.221310 0.211158
O O15 0.521549 0.239828 0.615696
O O16 0.500000 0.000000 0.500000
O O17 0.500000 0.867388 0.250000
O O18 0.673190 0.699993 0.455804
#
# Coordination Sequence:
#
# PCOD9234686 Si02
#       8
#     4   4   4   4   4   4   4   4
#     4  11  24  43  70  96 137 183 222 283 352 399
#     4  12  24  42  74 103 131 174 236 282 333 408
#     4  12  27  44  66 106 139 183 228 272 350 425
#     4  12  22  40  70 104 138 171 230 290 341 387
#     4  11  23  40  68 100 137 176 231 287 332 407
#     4   9  19  38  63  99 127 170 226 282 336 389
#     4  10  22  40  68  98 131 179 235 287 339 393
#     4  11  26  48  64  97 148 179 223 278 354 416
#
# _framework density 20.339305
#
# number of rings (size 3 to 8) (size 9 to 14) (size 15 to 20)
#    0.000    1.000    6.250    1.875    5.250    1.000 
#    2.250    1.250    0.000    0.000    0.000    0.000 
#    0.000    0.000    0.000    0.000    0.000    0.000 
#
# Total GULP energy -178819.492637 kJ/mol
# GULP energy per Si atom -5588.109145 kJ/mol
# Density = 2.029301 g / cm^3
# Si number density = 20.339305 Si / 1000 Ang^3
#
#
#
# Elastic Constant Matrix: (Units=GPa)
#
#
# Indices 1 2 3 4 5 6 
#
# 1 145.7939 33.8627 43.4856 0.0000 11.0402 0.0000
# 2 33.8627 48.4369 21.6693 0.0000 2.9449 0.0000
# 3 43.4856 21.6693 127.4679 0.0000 0.6661 0.0000
# 4 0.0000 0.0000 0.0000 24.4419 0.0000 -4.5310
# 5 11.0402 2.9449 0.6661 0.0000 27.0514 0.0000
# 6 0.0000 0.0000 0.0000 -4.5310 0.0000 14.6653
#
#
#
# Elastic Compliance Matrix: (Units=1/GPa)
#
#
# Indices 1 2 3 4 5 6 
#
# 1 0.008913 -0.005080 -0.002161 0.000000 -0.003031 0.000000
# 2 -0.005080 0.025389 -0.002580 0.000000 -0.000627 0.000000
# 3 -0.002161 -0.002580 0.009016 0.000000 0.000941 0.000000
# 4 0.000000 0.000000 0.000000 0.043399 0.000000 0.013409
# 5 -0.003031 -0.000627 0.000941 0.000000 0.038249 0.000000
# 6 0.000000 0.000000 0.000000 0.013409 0.000000 0.072331
#
#
# Mechanical properties :
#
#
# Convention : Reuss Voigt Hill
#
# Bulk Modulus (GPa) = 42.23651 57.74820 49.99235
# Shear Modulus (GPa) = 22.23885 28.07711 25.15798
#
# Velocity S-wave (km/s) = 3.31024 3.71945 3.52080
# Velocity P-wave (km/s) = 5.95158 6.84834 6.41565
#
# Compressibility (1/GPa) = 0.02367620
#
# Stress axis : x y z
#
# Youngs Moduli (GPa) = 112.19455 39.38683 110.91313
#
# Poissons Ratio (x) = 0.20009 0.23971
# Poissons Ratio (y) = 0.56995 0.28613
# Poissons Ratio (z) = 0.24248 0.10161
#
# Static dielectric constant tensor:
#      x y z
#    x 1.727640 0.000000 -0.021240 
#    y 0.000000 1.748600 0.000000 
#    z -0.021240 0.000000 1.718730 
# 
# From -- ./inp_files/58819.got.cif
#   From: 2010.05.17/outbox.cif.g08.bks.cpg/sg13_30_cif.got.tgz:58819.got - 2010.06.03 16:44:36.
