data_PCOD9234377
_publ_section_title
;
Structure prediction by ZEFSAII (Michael W. Deem and Ramdas Pophale) SiO2 
 PCOD9234377
Probable space group: P 2/C
;
_chemical_formula_sum "Si O2"
_cell_formula_units_Z 20
_cell_length_a 8.358923
_cell_length_b 23.710629
_cell_length_c 8.934565
_cell_angle_alpha 90.000000
_cell_angle_beta 33.924728
_cell_angle_gamma 90.000000
_cell_volume 988.283139
_symmetry_space_group_name_H-M "P 2/C"
_symmetry_group_IT_number 13
_symmetry_cell_setting 'monoclinic'
loop_
_space_group_symop_operation_xyz
x,y,z
-x,y,1/2-z
-x,-y,-z
x,-y,1/2+z
loop_
_atom_site_type_symbol
_atom_site_label
_atom_site_fract_x
_atom_site_fract_y
_atom_site_fract_z
Si Si1 0.329282 0.046257 0.535634
Si Si2 0.826249 0.654177 0.540564
Si Si3 0.292046 0.465110 0.269196
Si Si4 0.645382 0.838288 0.300863
Si Si5 0.861767 0.766822 0.693646
O O1 0.339777 0.104382 0.619407
O O2 0.000000 0.030769 0.750000
O O3 0.500000 0.000000 0.500000
O O4 0.500000 0.053735 0.250000
O O5 0.500000 0.664927 0.750000
O O6 0.816241 0.599674 0.658058
O O7 0.914097 0.709945 0.560691
O O8 0.000000 0.643338 0.250000
O O9 0.500000 0.462020 0.250000
O O10 0.000000 0.500000 0.500000
O O11 0.500000 0.500000 0.000000
O O12 0.500000 0.847183 0.250000
O O13 0.458312 0.790040 0.530108
O O14 0.962341 0.815617 0.025370
O O15 0.000000 0.758916 0.750000
#
# Coordination Sequence:
#
# PCOD9234377 Si02
#       5
#     4   4   4   4   4
#     4  12  26  43  66  95 127 167 214 260 314 375
#     4  11  23  40  61  88 123 159 202 256 310 367
#     4  11  23  41  62  89 122 161 205 254 309 365
#     4  10  22  41  62  89 126 162 203 258 310 366
#     4  10  22  39  62  91 123 161 204 252 310 369
#
# _framework density 20.237117000000001
#
# number of rings (size 3 to 8) (size 9 to 14) (size 15 to 20)
#    0.000    1.200    0.000    6.600    0.000    8.800 
#    0.000    2.000    0.000    0.000    0.000    0.000 
#    0.000    0.000    0.000    0.000    0.000    0.000 
#
# Total GULP energy -111619.682480 kJ/mol
# GULP energy per Si atom -5580.984124 kJ/mol
# Density = 2.019106 g / cm^3
# Si number density = 20.237117 Si / 1000 Ang^3
#
#
#
# Elastic Constant Matrix: (Units=GPa)
#
#
# Indices 1 2 3 4 5 6 
#
# 1 44.7428 55.2633 32.7210 0.0000 -3.0940 0.0000
# 2 55.2633 148.0722 41.3495 0.0000 24.8214 0.0000
# 3 32.7210 41.3495 152.3337 0.0000 3.6801 0.0000
# 4 0.0000 0.0000 0.0000 19.3659 0.0000 -6.8699
# 5 -3.0940 24.8214 3.6801 0.0000 40.9058 0.0000
# 6 0.0000 0.0000 0.0000 -6.8699 0.0000 17.5728
#
#
#
# Elastic Compliance Matrix: (Units=1/GPa)
#
#
# Indices 1 2 3 4 5 6 
#
# 1 0.055265 -0.021868 -0.006370 0.000000 0.018023 0.000000
# 2 -0.021868 0.016787 0.000428 0.000000 -0.011879 0.000000
# 3 -0.006370 0.000428 0.007852 0.000000 -0.001448 0.000000
# 4 0.000000 0.000000 0.000000 0.059951 0.000000 0.023437
# 5 0.018023 -0.011879 -0.001448 0.000000 0.033148 0.000000
# 6 0.000000 0.000000 0.000000 0.023437 0.000000 0.066069
#
#
# Mechanical properties :
#
#
# Convention : Reuss Voigt Hill
#
# Bulk Modulus (GPa) = 41.18300 67.09072 54.13686
# Shear Modulus (GPa) = 16.51323 29.95656 23.23489
#
# Velocity S-wave (km/s) = 2.85965 3.85161 3.39209
# Velocity P-wave (km/s) = 5.59445 7.28040 6.49238
#
# Compressibility (1/GPa) = 0.02428187
#
# Stress axis : x y z
#
# Youngs Moduli (GPa) = 18.09462 59.57021 127.35959
#
# Poissons Ratio (x) = 1.30269 0.81132
# Poissons Ratio (y) = 0.39570 -0.05446
# Poissons Ratio (z) = 0.11527 -0.02547
#
# Static dielectric constant tensor:
#      x y z
#    x 1.721200 0.000000 0.033980 
#    y 0.000000 1.758320 0.000000 
#    z 0.033980 0.000000 1.712030 
# 
# From -- ./inp_files/13771.got.cif
#   From: 2010.05.17/outbox.cif.g08.bks.cpg/sg13_7_cif.got.tgz:13771.got - 2010.06.03 16:44:36.
