data_PCOD9234106
_publ_section_title
;
Structure prediction by ZEFSAII (Michael W. Deem and Ramdas Pophale) SiO2 
 PCOD9234106
Probable space group: P 2/C
;
_chemical_formula_sum "Si O2"
_cell_formula_units_Z 28
_cell_length_a 26.888723
_cell_length_b 8.640189
_cell_length_c 26.178563
_cell_angle_alpha 90.000000
_cell_angle_beta 11.382134
_cell_angle_gamma 90.000000
_cell_volume 1200.272930
_symmetry_space_group_name_H-M "P 2/C"
_symmetry_group_IT_number 13
_symmetry_cell_setting 'monoclinic'
loop_
_space_group_symop_operation_xyz
x,y,z
-x,y,1/2-z
-x,-y,-z
x,-y,1/2+z
loop_
_atom_site_type_symbol
_atom_site_label
_atom_site_fract_x
_atom_site_fract_y
_atom_site_fract_z
Si Si1 0.090503 0.208212 0.557338
Si Si2 0.978365 0.432265 0.166201
Si Si3 0.395027 0.106640 0.060245
Si Si4 0.470337 0.303943 0.721908
Si Si5 0.740683 0.597990 0.220761
Si Si6 0.405714 0.966284 0.936676
Si Si7 0.100732 0.724932 0.931482
O O1 0.031739 0.388314 0.624870
O O2 0.363302 0.153138 0.301101
O O3 0.089397 0.191037 0.496559
O O4 0.861213 0.106760 0.809511
O O5 0.691856 0.387578 0.466662
O O6 0.188809 0.336845 0.985648
O O7 0.049795 0.402352 0.035455
O O8 0.141111 0.163783 0.342781
O O9 0.552568 0.265424 0.894640
O O10 0.500000 0.000000 0.000000
O O11 0.385813 0.018085 0.016391
O O12 0.500000 0.357552 0.750000
O O13 0.528914 0.122354 0.658706
O O14 0.689743 0.412466 0.274682
O O15 0.849703 0.639053 0.166615
#
# Coordination Sequence:
#
# PCOD9234106 Si02
#       7
#     4   4   4   4   4   4   4
#     4  11  25  44  66 100 141 185 220 277 339 408
#     4  11  24  47  73  99 134 177 227 283 340 406
#     4  12  22  34  59  91 135 179 224 268 321 394
#     4  12  26  48  76 103 128 171 229 288 347 418
#     4  10  22  38  59  91 129 181 226 279 326 389
#     4  12  25  43  68 101 145 179 225 279 353 400
#     4  10  22  37  58  89 134 181 237 266 320 388
#
# _framework density 23.328026999999999
#
# number of rings (size 3 to 8) (size 9 to 14) (size 15 to 20)
#    0.000    0.857    2.857    4.286    2.000    1.143 
#    0.000    4.286    0.000    0.000    0.000    0.000 
#    0.000    0.000    0.000    0.000    0.000    0.000 
#
# Total GULP energy -156560.615518 kJ/mol
# GULP energy per Si atom -5591.450554 kJ/mol
# Density = 2.327493 g / cm^3
# Si number density = 23.328027 Si / 1000 Ang^3
#
#
#
# Elastic Constant Matrix: (Units=GPa)
#
#
# Indices 1 2 3 4 5 6 
#
# 1 37.5260 -14.2135 -4.0679 0.0000 1.5219 0.0000
# 2 -14.2135 91.7648 22.9996 0.0000 9.5412 0.0000
# 3 -4.0679 22.9996 81.2767 0.0000 -2.7063 0.0000
# 4 0.0000 0.0000 0.0000 42.9104 0.0000 -3.5534
# 5 1.5219 9.5412 -2.7063 0.0000 18.0647 0.0000
# 6 0.0000 0.0000 0.0000 -3.5534 0.0000 15.3168
#
#
#
# Elastic Compliance Matrix: (Units=1/GPa)
#
#
# Indices 1 2 3 4 5 6 
#
# 1 0.028740 0.005019 -0.000152 0.000000 -0.005095 0.000000
# 2 0.005019 0.013480 -0.003833 0.000000 -0.008117 0.000000
# 3 -0.000152 -0.003833 0.013516 0.000000 0.004062 0.000000
# 4 0.000000 0.000000 0.000000 0.023761 0.000000 0.005512
# 5 -0.005095 -0.008117 0.004062 0.000000 0.060681 0.000000
# 6 0.000000 0.000000 0.000000 0.005512 0.000000 0.066567
#
#
# Mechanical properties :
#
#
# Convention : Reuss Voigt Hill
#
# Bulk Modulus (GPa) = 17.29998 24.44486 20.87242
# Shear Modulus (GPa) = 22.32706 28.98167 25.65436
#
# Velocity S-wave (km/s) = 3.09705 3.52853 3.31980
# Velocity P-wave (km/s) = 4.49678 5.20598 4.86432
#
# Compressibility (1/GPa) = 0.05780353
#
# Stress axis : x y z
#
# Youngs Moduli (GPa) = 34.79531 74.18630 73.98572
#
# Poissons Ratio (x) = -0.37236 0.01121
# Poissons Ratio (y) = -0.17464 0.28362
# Poissons Ratio (z) = 0.00527 0.28439
#
# Static dielectric constant tensor:
#      x y z
#    x 1.955150 0.000000 -0.035700 
#    y 0.000000 1.972550 0.000000 
#    z -0.035700 0.000000 2.011450 
# 
# From -- ./inp_files/98054.got.cif
#   From: 2010.05.17/outbox.cif.g08.bks.cpg/sg13_50_cif.got.tgz:98054.got - 2010.06.03 16:44:36.
