data_PCOD9234695
_publ_section_title
;
Structure prediction by ZEFSAII (Michael W. Deem and Ramdas Pophale) SiO2 
 PCOD9234695
Probable space group: P 2/C
;
_chemical_formula_sum "Si O2"
_cell_formula_units_Z 24
_cell_length_a 10.378610
_cell_length_b 4.814643
_cell_length_c 24.304594
_cell_angle_alpha 90.000000
_cell_angle_beta 132.446438
_cell_angle_gamma 90.000000
_cell_volume 896.177865
_symmetry_space_group_name_H-M "P 2/C"
_symmetry_group_IT_number 13
_symmetry_cell_setting 'monoclinic'
loop_
_space_group_symop_operation_xyz
x,y,z
-x,y,1/2-z
-x,-y,-z
x,-y,1/2+z
loop_
_atom_site_type_symbol
_atom_site_label
_atom_site_fract_x
_atom_site_fract_y
_atom_site_fract_z
Si Si1 0.970098 0.802192 0.120407
Si Si2 0.354996 0.304605 0.383918
Si Si3 0.641856 0.020481 0.898238
Si Si4 0.500000 0.015722 0.750000
Si Si5 0.316187 0.633809 0.991635
Si Si6 0.000000 0.421140 0.750000
Si Si7 0.826529 0.300860 0.362322
O O1 0.017447 0.110819 0.116108
O O2 0.793786 0.646982 0.050235
O O3 0.993112 0.756868 0.192204
O O4 0.118379 0.612189 0.133231
O O5 0.482386 0.560299 0.436336
O O6 0.311528 0.195821 0.432948
O O7 0.176773 0.396945 0.303723
O O8 0.480130 0.117544 0.383360
O O9 0.770169 0.793546 0.907333
O O10 0.557801 0.175088 0.821098
O O11 0.739597 0.212842 0.968967
O O12 0.341623 0.809463 0.719373
#
# Coordination Sequence:
#
# PCOD9234695 Si02
#       7
#     4   4   4   2   4   2   4
#     4  11  25  46  66 108 139 184 240 285 354 423
#     4  10  22  44  65 101 131 185 239 290 354 419
#     4  10  22  40  69  94 137 186 223 297 349 420
#     4   8  22  40  60 106 122 194 216 294 336 420
#     4  10  24  41  67  97 137 183 233 290 355 418
#     4  10  24  44  76  96 142 188 236 308 342 420
#     4  10  25  42  70  99 143 177 237 285 353 419
#
# _framework density 26.7804
#
# number of rings (size 3 to 8) (size 9 to 14) (size 15 to 20)
#    1.000    1.000    0.000    1.500    7.000    2.667 
#    9.000    0.000    0.000    0.000    0.000    0.000 
#    0.000    0.000    0.000    0.000    0.000    0.000 
#
# Total GULP energy -134389.061375 kJ/mol
# GULP energy per Si atom -5599.544224 kJ/mol
# Density = 2.671945 g / cm^3
# Si number density = 26.780400 Si / 1000 Ang^3
#
#
#
# Elastic Constant Matrix: (Units=GPa)
#
#
# Indices 1 2 3 4 5 6 
#
# 1 141.9415 16.2123 46.0011 0.0000 -3.0871 0.0000
# 2 16.2123 63.5279 21.8895 0.0000 -13.8311 0.0000
# 3 46.0011 21.8895 182.5952 0.0000 -0.4668 0.0000
# 4 0.0000 0.0000 0.0000 -9.7725 0.0000 7.2995
# 5 -3.0871 -13.8311 -0.4668 0.0000 60.4249 0.0000
# 6 0.0000 0.0000 0.0000 7.2995 0.0000 44.6963
#
#
#
# Elastic Compliance Matrix: (Units=1/GPa)
#
#
# Indices 1 2 3 4 5 6 
#
# 1 0.007784 -0.001350 -0.001799 0.000000 0.000075 0.000000
# 2 -0.001350 0.017546 -0.001753 0.000000 0.003934 0.000000
# 3 -0.001799 -0.001753 0.006139 0.000000 -0.000446 0.000000
# 4 0.000000 0.000000 0.000000 -0.091202 0.000000 0.014895
# 5 0.000075 0.003934 -0.000446 0.000000 0.017450 0.000000
# 6 0.000000 0.000000 0.000000 0.014895 0.000000 0.019941
#
#
# Mechanical properties :
#
#
# Convention : Reuss Voigt Hill
#
# Bulk Modulus (GPa) = 46.15927 61.80780 53.98353
# Shear Modulus (GPa) = -940.58173 39.33385 -450.62394
#
# Velocity S-wave (km/s) = -18.76120 3.83659 -12.98582
# Velocity P-wave (km/s) = 21.26115 6.53877 14.30526
#
# Compressibility (1/GPa) = 0.02166412
#
# Stress axis : x y z
#
# Youngs Moduli (GPa) = 128.46813 56.99217 162.89730
#
# Poissons Ratio (x) = 0.07696 0.29304
# Poissons Ratio (y) = 0.17348 0.28559
# Poissons Ratio (z) = 0.23111 0.09992
#
# Static dielectric constant tensor:
#      x y z
#    x 2.164210 0.000000 0.020960 
#    y 0.000000 2.106410 0.000000 
#    z 0.020960 0.000000 2.093080 
# 
# From -- ./inp_files/85644.got.cif
#   From: 2010.05.17/outbox.cif.g08.bks.cpg/sg13_43_cif.got.tgz:85644.got - 2010.06.03 16:44:36.
