data_PCOD9234496
_publ_section_title
;
Structure prediction by ZEFSAII (Michael W. Deem and Ramdas Pophale) SiO2 
 PCOD9234496
Probable space group: P 2/C
;
_chemical_formula_sum "Si O2"
_cell_formula_units_Z 26
_cell_length_a 8.408424
_cell_length_b 23.029480
_cell_length_c 8.198065
_cell_angle_alpha 90.000000
_cell_angle_beta 116.065825
_cell_angle_gamma 90.000000
_cell_volume 1426.023140
_symmetry_space_group_name_H-M "P 2/C"
_symmetry_group_IT_number 13
_symmetry_cell_setting 'monoclinic'
loop_
_space_group_symop_operation_xyz
x,y,z
-x,y,1/2-z
-x,-y,-z
x,-y,1/2+z
loop_
_atom_site_type_symbol
_atom_site_label
_atom_site_fract_x
_atom_site_fract_y
_atom_site_fract_z
Si Si1 0.102550 0.228064 0.618545
Si Si2 0.500000 0.819545 0.250000
Si Si3 0.693643 0.418484 0.296040
Si Si4 0.651945 0.084230 0.034497
Si Si5 0.500000 0.994555 0.750000
Si Si6 0.311731 0.543500 0.077144
Si Si7 0.000000 0.844393 0.750000
Si Si8 0.968178 0.637287 0.426817
O O1 0.313741 0.212441 0.707304
O O2 0.000000 0.217790 0.750000
O O3 0.015397 0.193402 0.425044
O O4 0.091261 0.296645 0.577243
O O5 0.536575 0.861776 0.419401
O O6 0.500000 0.394419 0.250000
O O7 0.735311 0.475842 0.421811
O O8 0.850839 0.374010 0.393900
O O9 0.678771 0.442242 0.107689
O O10 0.566124 0.047154 0.138461
O O11 0.832382 0.113106 0.171754
O O12 0.652769 0.038122 0.884939
O O13 0.500000 0.551552 0.250000
O O14 0.171321 0.588451 0.084895
O O15 0.000000 0.629501 0.250000
#
# Coordination Sequence:
#
# PCOD9234496 Si02
#       8
#     4   2   4   4   2   4   2   4
#     4  10  24  42  63  89 123 164 217 261 311 362
#     4   9  20  42  62  88 124 166 209 256 312 368
#     4  11  22  39  59  88 119 153 195 245 315 382
#     4   9  19  35  59  89 125 163 199 255 302 368
#     4   9  18  34  58  92 124 158 205 242 312 364
#     4  11  22  37  62  86 118 154 191 247 315 375
#     4  10  22  40  60  90 126 164 216 250 304 374
#     4  11  23  40  59  85 118 153 204 256 304 368
#
# _framework density 18.232523
#
# number of rings (size 3 to 8) (size 9 to 14) (size 15 to 20)
#    0.000    1.846    0.000    4.615    5.385    0.615 
#    0.000    0.000    0.000    0.000    0.000    0.000 
#    0.000    0.000    0.000    0.000    0.000    0.000 
#
# Total GULP energy -144926.472645 kJ/mol
# GULP energy per Si atom -5574.095102 kJ/mol
# Density = 1.819102 g / cm^3
# Si number density = 18.232523 Si / 1000 Ang^3
#
#
#
# Elastic Constant Matrix: (Units=GPa)
#
#
# Indices 1 2 3 4 5 6 
#
# 1 95.3227 61.1058 39.2907 0.0000 19.5808 0.0000
# 2 61.1058 84.3031 33.3887 0.0000 29.1672 0.0000
# 3 39.2907 33.3887 94.0986 0.0000 16.8597 0.0000
# 4 0.0000 0.0000 0.0000 -318.5203 0.0000 264.9401
# 5 19.5808 29.1672 16.8597 0.0000 30.3624 0.0000
# 6 0.0000 0.0000 0.0000 264.9401 0.0000 -182.4476
#
#
#
# Elastic Compliance Matrix: (Units=1/GPa)
#
#
# Indices 1 2 3 4 5 6 
#
# 1 0.020882 -0.014448 -0.004071 0.000000 0.002674 0.000000
# 2 -0.014448 0.028938 -0.001026 0.000000 -0.017911 0.000000
# 3 -0.004071 -0.001026 0.013375 0.000000 -0.003816 0.000000
# 4 0.000000 0.000000 0.000000 0.015103 0.000000 0.021932
# 5 0.002674 -0.017911 -0.003816 0.000000 0.050536 0.000000
# 6 0.000000 0.000000 0.000000 0.021932 0.000000 0.026368
#
#
# Mechanical properties :
#
#
# Convention : Reuss Voigt Hill
#
# Bulk Modulus (GPa) = 41.48855 60.14387 50.81621
# Shear Modulus (GPa) = 24.71250 -84.79181 -30.03965
#
# Velocity S-wave (km/s) = 3.68558 -6.82691 -4.06345
# Velocity P-wave (km/s) = 6.39656 5.39292 2.43232
#
# Compressibility (1/GPa) = 0.02410304
#
# Stress axis : x y z
#
# Youngs Moduli (GPa) = 47.88919 34.55690 74.76720
#
# Poissons Ratio (x) = 0.49928 0.30441
# Poissons Ratio (y) = 0.69191 0.07670
# Poissons Ratio (z) = 0.19498 0.03545
#
# Static dielectric constant tensor:
#      x y z
#    x 1.576240 0.000000 0.017580 
#    y 0.000000 1.615520 0.000000 
#    z 0.017580 0.000000 1.653080 
# 
# From -- ./inp_files/13355.got.cif
#   From: 2010.05.17/outbox.cif.g08.bks.cpg/sg13_7_cif.got.tgz:13355.got - 2010.06.03 16:44:36.
