data_PCOD9234011
_publ_section_title
;
Structure prediction by ZEFSAII (Michael W. Deem and Ramdas Pophale) SiO2 
 PCOD9234011
Probable space group: P 2/C
;
_chemical_formula_sum "Si O2"
_cell_formula_units_Z 20
_cell_length_a 14.300635
_cell_length_b 10.710364
_cell_length_c 12.069334
_cell_angle_alpha 90.000000
_cell_angle_beta 150.832591
_cell_angle_gamma 90.000000
_cell_volume 900.939138
_symmetry_space_group_name_H-M "P 2/C"
_symmetry_group_IT_number 13
_symmetry_cell_setting 'monoclinic'
loop_
_space_group_symop_operation_xyz
x,y,z
-x,y,1/2-z
-x,-y,-z
x,-y,1/2+z
loop_
_atom_site_type_symbol
_atom_site_label
_atom_site_fract_x
_atom_site_fract_y
_atom_site_fract_z
Si Si1 0.462278 0.646932 0.337785
Si Si2 0.225999 0.505267 0.753170
Si Si3 0.621652 0.925517 0.779604
Si Si4 0.733038 0.868564 0.247916
Si Si5 0.823999 0.279875 0.642164
O O1 0.500000 0.638065 0.250000
O O2 0.674275 0.634942 0.611071
O O3 0.337400 0.534398 0.258125
O O4 0.332476 0.763586 0.234403
O O5 0.269151 0.399782 0.892947
O O6 0.000000 0.500000 0.500000
O O7 0.500000 0.997960 0.750000
O O8 0.459597 0.887826 0.524252
O O9 0.768570 0.010251 0.860630
O O10 0.708760 0.808174 0.936302
O O11 0.872970 0.810123 0.299328
O O12 0.000000 0.325225 0.750000
#
# Coordination Sequence:
#
# PCOD9234011 Si02
#       5
#     4   4   4   4   4
#     4  10  22  38  61  89 119 161 207 258 316 372
#     4  10  24  40  60  91 124 164 211 261 311 384
#     4   9  18  35  62  84 117 157 200 258 305 372
#     4   9  19  37  57  88 116 155 210 251 307 372
#     4  10  22  35  58  90 122 163 201 252 319 374
#
# _framework density 22.199058000000001
#
# number of rings (size 3 to 8) (size 9 to 14) (size 15 to 20)
#    0.000    2.400    0.000    0.600    5.600    4.800 
#    0.000    0.000    8.800    0.000    0.000    0.000 
#    0.000    0.000    0.000    0.000    0.000    0.000 
#
# Total GULP energy -111345.953330 kJ/mol
# GULP energy per Si atom -5567.297667 kJ/mol
# Density = 2.214853 g / cm^3
# Si number density = 22.199058 Si / 1000 Ang^3
#
#
#
# Elastic Constant Matrix: (Units=GPa)
#
#
# Indices 1 2 3 4 5 6 
#
# 1 161.3166 16.7650 17.5352 0.0000 -14.6034 0.0000
# 2 16.7650 51.8862 10.2959 0.0000 -10.5858 0.0000
# 3 17.5352 10.2959 50.7773 0.0000 -0.3705 0.0000
# 4 0.0000 0.0000 0.0000 3.0262 0.0000 3.9145
# 5 -14.6034 -10.5858 -0.3705 0.0000 32.8853 0.0000
# 6 0.0000 0.0000 0.0000 3.9145 0.0000 10.9354
#
#
#
# Elastic Compliance Matrix: (Units=1/GPa)
#
#
# Indices 1 2 3 4 5 6 
#
# 1 0.006789 -0.001255 -0.002071 0.000000 0.002587 0.000000
# 2 -0.001255 0.021766 -0.003933 0.000000 0.006405 0.000000
# 3 -0.002071 -0.003933 0.021192 0.000000 -0.001947 0.000000
# 4 0.000000 0.000000 0.000000 0.615399 0.000000 -0.220292
# 5 0.002587 0.006405 -0.001947 0.000000 0.033598 0.000000
# 6 0.000000 0.000000 0.000000 -0.220292 0.000000 0.170303
#
#
# Mechanical properties :
#
#
# Convention : Reuss Voigt Hill
#
# Bulk Modulus (GPa) = 28.38604 39.24136 33.81370
# Shear Modulus (GPa) = 5.58468 23.99501 14.78984
#
# Velocity S-wave (km/s) = 1.58783 3.29127 2.58396
# Velocity P-wave (km/s) = 4.02199 5.67087 4.91605
#
# Compressibility (1/GPa) = 0.03522858
#
# Stress axis : x y z
#
# Youngs Moduli (GPa) = 147.30259 45.94423 47.18676
#
# Poissons Ratio (x) = 0.05764 0.09773
# Poissons Ratio (y) = 0.18481 0.18560
# Poissons Ratio (z) = 0.30508 0.18071
#
# Static dielectric constant tensor:
#      x y z
#    x 1.823980 0.000000 0.017510 
#    y 0.000000 1.898840 0.000000 
#    z 0.017510 0.000000 1.900930 
# 
# From -- ./inp_files/37081.got.cif
#   From: 2010.05.17/outbox.cif.g08.bks.cpg/sg13_19_cif.got.tgz:37081.got - 2010.06.03 16:44:36.
