data_PCOD9234206
_publ_section_title
;
Structure prediction by ZEFSAII (Michael W. Deem and Ramdas Pophale) SiO2 
 PCOD9234206
Probable space group: P 2/C
;
_chemical_formula_sum "Si O2"
_cell_formula_units_Z 22
_cell_length_a 6.081975
_cell_length_b 6.341151
_cell_length_c 26.904359
_cell_angle_alpha 90.000000
_cell_angle_beta 100.225602
_cell_angle_gamma 90.000000
_cell_volume 1021.131882
_symmetry_space_group_name_H-M "P 2/C"
_symmetry_group_IT_number 13
_symmetry_cell_setting 'monoclinic'
loop_
_space_group_symop_operation_xyz
x,y,z
-x,y,1/2-z
-x,-y,-z
x,-y,1/2+z
loop_
_atom_site_type_symbol
_atom_site_label
_atom_site_fract_x
_atom_site_fract_y
_atom_site_fract_z
Si Si1 0.000000 0.151995 0.750000
Si Si2 0.212344 0.087053 0.659829
Si Si3 0.506740 0.750298 0.614937
Si Si4 0.156150 0.691039 0.522335
Si Si5 0.416458 0.434114 0.799165
Si Si6 0.852280 0.031968 0.568338
O O1 0.899147 0.026534 0.792202
O O2 0.802350 0.297712 0.720924
O O3 0.385028 0.276013 0.676305
O O4 0.019525 0.148078 0.613076
O O5 0.343644 0.892127 0.641923
O O6 0.356653 0.633395 0.567457
O O7 0.625685 0.594508 0.657895
O O8 0.669739 0.907788 0.592584
O O9 0.243926 0.808654 0.476407
O O10 0.000000 0.500000 0.500000
O O11 0.000563 0.859372 0.544985
O O12 0.500000 0.532148 0.750000
#
# Coordination Sequence:
#
# PCOD9234206 Si02
#       6
#     2   4   4   4   4   4
#     4  10  22  42  64  86 124 164 200 250 304 360
#     4  10  22  41  62  88 122 159 202 249 301 360
#     4  11  23  39  64  93 122 159 205 253 304 362
#     4  10  22  40  61  88 124 162 200 249 306 364
#     4  10  23  40  59  88 122 158 200 248 303 363
#     4  10  22  38  61  92 120 156 205 251 302 363
#
# _framework density 21.544720999999999
#
# number of rings (size 3 to 8) (size 9 to 14) (size 15 to 20)
#    0.000    1.818    0.000    2.727    0.000   13.091 
#    0.000    1.818    0.000    0.000    0.000    0.000 
#    0.000    0.000    0.000    0.000    0.000    0.000 
#
# Total GULP energy -123026.037490 kJ/mol
# GULP energy per Si atom -5592.092613 kJ/mol
# Density = 2.149568 g / cm^3
# Si number density = 21.544721 Si / 1000 Ang^3
#
#
#
# Elastic Constant Matrix: (Units=GPa)
#
#
# Indices 1 2 3 4 5 6 
#
# 1 92.7062 16.0960 62.5990 0.0000 -8.3229 0.0000
# 2 16.0960 40.3786 52.8236 0.0000 0.7490 0.0000
# 3 62.5990 52.8236 167.7949 0.0000 3.2338 0.0000
# 4 0.0000 0.0000 0.0000 114.7578 0.0000 -75.0434
# 5 -8.3229 0.7490 3.2338 0.0000 32.8160 0.0000
# 6 0.0000 0.0000 0.0000 -75.0434 0.0000 90.7536
#
#
#
# Elastic Compliance Matrix: (Units=1/GPa)
#
#
# Indices 1 2 3 4 5 6 
#
# 1 0.015150 0.002354 -0.006478 0.000000 0.004427 0.000000
# 2 0.002354 0.042476 -0.014270 0.000000 0.001034 0.000000
# 3 -0.006478 -0.014270 0.012919 0.000000 -0.002590 0.000000
# 4 0.000000 0.000000 0.000000 0.018974 0.000000 0.015689
# 5 0.004427 0.001034 -0.002590 0.000000 0.031827 0.000000
# 6 0.000000 0.000000 0.000000 0.015689 0.000000 0.023992
#
#
# Mechanical properties :
#
#
# Convention : Reuss Voigt Hill
#
# Bulk Modulus (GPa) = 29.62460 62.65745 46.14102
# Shear Modulus (GPa) = 25.85597 58.95623 42.40610
#
# Velocity S-wave (km/s) = 3.46801 5.23679 4.44135
# Velocity P-wave (km/s) = 5.46043 8.10623 6.91112
#
# Compressibility (1/GPa) = 0.03375573
#
# Stress axis : x y z
#
# Youngs Moduli (GPa) = 66.00699 23.54252 77.40701
#
# Poissons Ratio (x) = -0.05541 0.50146
# Poissons Ratio (y) = -0.15535 1.10459
# Poissons Ratio (z) = 0.42761 0.33595
#
# Static dielectric constant tensor:
#      x y z
#    x 1.770490 0.000000 0.006510 
#    y 0.000000 1.752900 0.000000 
#    z 0.006510 0.000000 1.806450 
# 
# From -- ./inp_files/94650.got.cif
#   From: 2010.05.17/outbox.cif.g08.bks.cpg/sg13_48_cif.got.tgz:94650.got - 2010.06.03 16:44:36.
