data_PCOD9234550
_publ_section_title
;
Structure prediction by ZEFSAII (Michael W. Deem and Ramdas Pophale) SiO2 
 PCOD9234550
Probable space group: P 2/C
;
_chemical_formula_sum "Si O2"
_cell_formula_units_Z 20
_cell_length_a 10.896359
_cell_length_b 9.444728
_cell_length_c 7.981498
_cell_angle_alpha 90.000000
_cell_angle_beta 94.012071
_cell_angle_gamma 90.000000
_cell_volume 819.388095
_symmetry_space_group_name_H-M "P 2/C"
_symmetry_group_IT_number 13
_symmetry_cell_setting 'monoclinic'
loop_
_space_group_symop_operation_xyz
x,y,z
-x,y,1/2-z
-x,-y,-z
x,-y,1/2+z
loop_
_atom_site_type_symbol
_atom_site_label
_atom_site_fract_x
_atom_site_fract_y
_atom_site_fract_z
Si Si1 0.881451 0.329870 0.126245
Si Si2 0.714313 0.782808 0.029359
Si Si3 0.229386 0.429450 0.707767
Si Si4 0.447566 0.244256 0.575446
Si Si5 0.261700 0.079248 0.327574
O O1 0.775229 0.410204 0.227227
O O2 0.853541 0.163551 0.105086
O O3 0.000000 0.351631 0.250000
O O4 0.872705 0.395316 0.941076
O O5 0.791617 0.658782 0.122893
O O6 0.576686 0.716911 0.002455
O O7 0.734855 0.911916 0.162276
O O8 0.738780 0.864061 0.860774
O O9 0.355488 0.367378 0.634935
O O10 0.500000 0.172192 0.750000
O O11 0.375376 0.140802 0.446155
#
# Coordination Sequence:
#
# PCOD9234550 Si02
#       5
#     4   4   4   4   4
#     4  11  23  43  64  88 120 161 208 261 305 349
#     4  11  21  39  61  91 127 162 197 250 305 368
#     4  10  22  40  63  91 122 159 208 250 302 370
#     4   9  19  36  59  88 123 159 195 239 297 364
#     4  11  22  38  63  92 124 163 207 248 301 367
#
# _framework density 24.408459000000001
#
# number of rings (size 3 to 8) (size 9 to 14) (size 15 to 20)
#    0.000    1.600    0.000    6.600    0.000    1.600 
#    0.000   43.000    0.000    0.000    0.000    0.000 
#    0.000    0.000    0.000    0.000    0.000    0.000 
#
# Total GULP energy -111588.984831 kJ/mol
# GULP energy per Si atom -5579.449242 kJ/mol
# Density = 2.435290 g / cm^3
# Si number density = 24.408459 Si / 1000 Ang^3
#
#
#
# Elastic Constant Matrix: (Units=GPa)
#
#
# Indices 1 2 3 4 5 6 
#
# 1 22.5267 28.5619 19.4104 0.0000 15.1967 0.0000
# 2 28.5619 108.8255 -3.8878 0.0000 2.4370 0.0000
# 3 19.4104 -3.8878 114.8982 0.0000 31.9786 0.0000
# 4 0.0000 0.0000 0.0000 31.2214 0.0000 -8.7743
# 5 15.1967 2.4370 31.9786 0.0000 30.3862 0.0000
# 6 0.0000 0.0000 0.0000 -8.7743 0.0000 13.3528
#
#
#
# Elastic Compliance Matrix: (Units=1/GPa)
#
#
# Indices 1 2 3 4 5 6 
#
# 1 0.129370 -0.033043 -0.008066 0.000000 -0.053562 0.000000
# 2 -0.033043 0.017689 0.002795 0.000000 0.012165 0.000000
# 3 -0.008066 0.002795 0.012870 0.000000 -0.009735 0.000000
# 4 0.000000 0.000000 0.000000 0.039284 0.000000 0.025814
# 5 -0.053562 0.012165 -0.009735 0.000000 0.068966 0.000000
# 6 0.000000 0.000000 0.000000 0.025814 0.000000 0.091853
#
#
# Mechanical properties :
#
#
# Convention : Reuss Voigt Hill
#
# Bulk Modulus (GPa) = 12.00462 37.15770 24.58116
# Shear Modulus (GPa) = 10.76594 28.46980 19.61787
#
# Velocity S-wave (km/s) = 2.10246 3.41895 2.83809
# Velocity P-wave (km/s) = 3.28978 5.55356 4.56424
#
# Compressibility (1/GPa) = 0.08330125
#
# Stress axis : x y z
#
# Youngs Moduli (GPa) = 7.72974 56.53334 77.70079
#
# Poissons Ratio (x) = 1.86801 0.62673
# Poissons Ratio (y) = 0.25541 -0.21715
# Poissons Ratio (z) = 0.06235 -0.15799
#
# Static dielectric constant tensor:
#      x y z
#    x 2.034980 0.000000 -0.106660 
#    y 0.000000 1.887440 0.000000 
#    z -0.106660 0.000000 2.037890 
# 
# From -- ./inp_files/14825.got.cif
#   From: 2010.05.17/outbox.cif.g08.bks.cpg/sg13_8_cif.got.tgz:14825.got - 2010.06.03 16:44:36.
