data_PCOD9234533
_publ_section_title
;
Structure prediction by ZEFSAII (Michael W. Deem and Ramdas Pophale) SiO2 
 PCOD9234533
Probable space group: P 2/C
;
_chemical_formula_sum "Si O2"
_cell_formula_units_Z 26
_cell_length_a 8.428266
_cell_length_b 14.766095
_cell_length_c 15.713941
_cell_angle_alpha 90.000000
_cell_angle_beta 42.355766
_cell_angle_gamma 90.000000
_cell_volume 1317.577699
_symmetry_space_group_name_H-M "P 2/C"
_symmetry_group_IT_number 13
_symmetry_cell_setting 'monoclinic'
loop_
_space_group_symop_operation_xyz
x,y,z
-x,y,1/2-z
-x,-y,-z
x,-y,1/2+z
loop_
_atom_site_type_symbol
_atom_site_label
_atom_site_fract_x
_atom_site_fract_y
_atom_site_fract_z
Si Si1 0.938628 0.748083 0.048409
Si Si2 0.000000 0.476620 0.250000
Si Si3 0.635896 0.136415 0.108665
Si Si4 0.213207 0.346884 0.724078
Si Si5 0.252498 0.875286 0.614472
Si Si6 0.250604 0.675591 0.545419
Si Si7 0.303946 0.062658 0.903295
O O1 0.807622 0.699399 0.176814
O O2 0.827664 0.845134 0.069457
O O3 0.906131 0.687859 0.977427
O O4 0.200759 0.776878 0.971979
O O5 0.849233 0.546241 0.251897
O O6 0.833435 0.411572 0.370078
O O7 0.500000 0.153593 0.250000
O O8 0.447515 0.117669 0.109963
O O9 0.779329 0.042112 0.062966
O O10 0.473409 0.331413 0.585943
O O11 0.000000 0.307746 0.750000
O O12 0.217968 0.768789 0.609410
O O13 0.342200 0.918567 0.489892
O O14 0.000000 0.911644 0.750000
O O15 0.500000 0.058576 0.750000
#
# Coordination Sequence:
#
# PCOD9234533 Si02
#       7
#     4   2   4   4   4   4   4
#     4  11  22  39  63  93 124 172 208 264 319 383
#     4  10  24  40  68  92 124 166 210 274 322 384
#     4  11  23  39  61  98 133 165 220 265 316 388
#     4  10  23  41  63  93 125 163 216 261 322 386
#     4  11  22  40  66  91 128 174 216 264 326 386
#     4  11  21  42  65  91 126 167 209 261 332 380
#     4  10  22  40  62  93 130 175 214 266 322 379
#
# _framework density 19.733180999999998
#
# number of rings (size 3 to 8) (size 9 to 14) (size 15 to 20)
#    0.462    0.923    0.769    6.462    0.000    1.846 
#    0.000    2.308    0.000    0.000    0.000    0.000 
#    0.000    0.000    0.000    0.000    0.000    0.000 
#
# Total GULP energy -144866.592202 kJ/mol
# GULP energy per Si atom -5571.792008 kJ/mol
# Density = 1.968827 g / cm^3
# Si number density = 19.733181 Si / 1000 Ang^3
#
#
#
# Elastic Constant Matrix: (Units=GPa)
#
#
# Indices 1 2 3 4 5 6 
#
# 1 82.5389 32.0919 68.4397 0.0000 4.7882 0.0000
# 2 32.0919 64.1163 48.8722 0.0000 10.2449 0.0000
# 3 68.4397 48.8722 132.5933 0.0000 12.2411 0.0000
# 4 0.0000 0.0000 0.0000 100.6842 0.0000 67.5489
# 5 4.7882 10.2449 12.2411 0.0000 28.2595 0.0000
# 6 0.0000 0.0000 0.0000 67.5489 0.0000 65.3277
#
#
#
# Elastic Compliance Matrix: (Units=1/GPa)
#
#
# Indices 1 2 3 4 5 6 
#
# 1 0.021751 -0.003483 -0.010124 0.000000 0.001963 0.000000
# 2 -0.003483 0.022834 -0.006155 0.000000 -0.005022 0.000000
# 3 -0.010124 -0.006155 0.015283 0.000000 -0.002673 0.000000
# 4 0.000000 0.000000 0.000000 0.032427 0.000000 -0.033529
# 5 0.001963 -0.005022 -0.002673 0.000000 0.038032 0.000000
# 6 0.000000 0.000000 0.000000 -0.033529 0.000000 0.049977
#
#
# Mechanical properties :
#
#
# Convention : Reuss Voigt Hill
#
# Bulk Modulus (GPa) = 49.15668 64.22844 56.69256
# Shear Modulus (GPa) = 22.06438 47.51058 34.78748
#
# Velocity S-wave (km/s) = 3.34748 4.91210 4.20324
# Velocity P-wave (km/s) = 6.31709 8.04927 7.23521
#
# Compressibility (1/GPa) = 0.02034311
#
# Stress axis : x y z
#
# Youngs Moduli (GPa) = 45.97528 43.79434 65.43224
#
# Poissons Ratio (x) = 0.15255 0.66245
# Poissons Ratio (y) = 0.16015 0.40272
# Poissons Ratio (z) = 0.46547 0.26954
#
# Static dielectric constant tensor:
#      x y z
#    x 1.754450 0.000000 -0.027020 
#    y 0.000000 1.661410 0.000000 
#    z -0.027020 0.000000 1.703120 
# 
# From -- ./inp_files/47870.got.cif
#   From: 2010.05.17/outbox.cif.g08.bks.cpg/sg13_24_cif.got.tgz:47870.got - 2010.06.03 16:44:36.
