data_PCOD9234955
_publ_section_title
;
Structure prediction by ZEFSAII (Michael W. Deem and Ramdas Pophale) SiO2 
 PCOD9234955
Probable space group: P 2/C
;
_chemical_formula_sum "Si O2"
_cell_formula_units_Z 32
_cell_length_a 5.214288
_cell_length_b 12.957928
_cell_length_c 19.943877
_cell_angle_alpha 90.000000
_cell_angle_beta 92.260137
_cell_angle_gamma 90.000000
_cell_volume 1346.487060
_symmetry_space_group_name_H-M "P 2/C"
_symmetry_group_IT_number 13
_symmetry_cell_setting 'monoclinic'
loop_
_space_group_symop_operation_xyz
x,y,z
-x,y,1/2-z
-x,-y,-z
x,-y,1/2+z
loop_
_atom_site_type_symbol
_atom_site_label
_atom_site_fract_x
_atom_site_fract_y
_atom_site_fract_z
Si Si1 0.462131 0.893594 0.820477
Si Si2 0.761061 0.770124 0.938307
Si Si3 0.279717 0.361657 0.433235
Si Si4 0.404809 0.308319 0.822055
Si Si5 0.884513 0.190225 0.579047
Si Si6 0.114660 0.517247 0.819731
Si Si7 0.949149 0.970230 0.321670
Si Si8 0.182479 0.407657 0.575329
O O1 0.500000 0.834486 0.750000
O O2 0.599248 0.827717 0.879565
O O3 0.175812 0.940840 0.829992
O O4 0.665829 0.985048 0.813707
O O5 0.551135 0.686081 0.957621
O O6 0.039646 0.719746 0.924052
O O7 0.797917 0.840697 0.004438
O O8 0.318470 0.412192 0.360390
O O9 0.229376 0.432654 0.498289
O O10 0.500000 0.276852 0.750000
O O11 0.317519 0.210666 0.863898
O O12 0.207001 0.401525 0.804289
O O13 0.588910 0.366109 0.876295
O O14 0.054878 0.103854 0.614723
O O15 0.003730 0.304842 0.571460
O O16 0.000000 0.561014 0.750000
O O17 0.926484 0.499991 0.880982
O O18 0.000000 0.917468 0.250000
#
# Coordination Sequence:
#
# PCOD9234955 Si02
#       8
#     4   4   4   4   4   4   4   4
#     4  10  23  43  64  91 126 163 205 253 315 361
#     4  11  24  44  65  90 124 164 208 260 308 365
#     4  11  25  42  65  91 123 164 214 258 306 365
#     4  11  22  37  64  87 130 164 200 255 313 367
#     4  10  24  38  61  96 125 160 208 246 308 376
#     4  11  24  39  59  93 121 163 213 260 304 367
#     4  10  23  39  64  96 125 160 203 253 304 375
#     4  10  22  42  58  89 128 165 196 255 317 365
#
# _framework density 23.765546000000001
#
# number of rings (size 3 to 8) (size 9 to 14) (size 15 to 20)
#    0.000    1.500    2.500    1.125    5.250    3.000 
#    0.000    0.000    0.000    0.000    0.000    0.000 
#    0.000    0.000    0.000    0.000    0.000    0.000 
#
# Total GULP energy -178418.507710 kJ/mol
# GULP energy per Si atom -5575.578366 kJ/mol
# Density = 2.371145 g / cm^3
# Si number density = 23.765546 Si / 1000 Ang^3
#
#
#
# Elastic Constant Matrix: (Units=GPa)
#
#
# Indices 1 2 3 4 5 6 
#
# 1 91.1776 3.2983 10.0627 0.0000 16.9886 0.0000
# 2 3.2983 19.1312 23.6786 0.0000 -1.3916 0.0000
# 3 10.0627 23.6786 183.7184 0.0000 28.9090 0.0000
# 4 0.0000 0.0000 0.0000 36.8052 0.0000 15.7400
# 5 16.9886 -1.3916 28.9090 0.0000 35.8936 0.0000
# 6 0.0000 0.0000 0.0000 15.7400 0.0000 20.4095
#
#
#
# Elastic Compliance Matrix: (Units=1/GPa)
#
#
# Indices 1 2 3 4 5 6 
#
# 1 0.012237 -0.003626 0.000837 0.000000 -0.006606 0.000000
# 2 -0.003626 0.066675 -0.010388 0.000000 0.012668 0.000000
# 3 0.000837 -0.010388 0.007858 0.000000 -0.007127 0.000000
# 4 0.000000 0.000000 0.000000 0.040541 0.000000 -0.031266
# 5 -0.006606 0.012668 -0.007127 0.000000 0.037219 0.000000
# 6 0.000000 0.000000 0.000000 -0.031266 0.000000 0.073109
#
#
# Mechanical properties :
#
#
# Convention : Reuss Voigt Hill
#
# Bulk Modulus (GPa) = 16.55217 40.90072 28.72644
# Shear Modulus (GPa) = 17.59747 35.75416 26.67581
#
# Velocity S-wave (km/s) = 2.72409 3.88294 3.35394
# Velocity P-wave (km/s) = 4.10782 6.11150 5.20694
#
# Compressibility (1/GPa) = 0.06041504
#
# Stress axis : x y z
#
# Youngs Moduli (GPa) = 81.71691 14.99821 127.26370
#
# Poissons Ratio (x) = 0.05438 -0.10647
# Poissons Ratio (y) = 0.29629 1.32203
# Poissons Ratio (z) = -0.06836 0.15580
#
# Static dielectric constant tensor:
#      x y z
#    x 2.054530 0.000000 -0.008140 
#    y 0.000000 2.099730 0.000000 
#    z -0.008140 0.000000 2.036390 
# 
# From -- ./inp_files/61614.got.cif
#   From: 2010.05.17/outbox.cif.g08.bks.cpg/sg13_31_cif.got.tgz:61614.got - 2010.06.03 16:44:36.
