data_PCOD9234167
_publ_section_title
;
Structure prediction by ZEFSAII (Michael W. Deem and Ramdas Pophale) SiO2 
 PCOD9234167
Probable space group: P 2/C
;
_chemical_formula_sum "Si O2"
_cell_formula_units_Z 28
_cell_length_a 7.575363
_cell_length_b 13.409468
_cell_length_c 14.145976
_cell_angle_alpha 90.000000
_cell_angle_beta 125.425954
_cell_angle_gamma 90.000000
_cell_volume 1170.937573
_symmetry_space_group_name_H-M "P 2/C"
_symmetry_group_IT_number 13
_symmetry_cell_setting 'monoclinic'
loop_
_space_group_symop_operation_xyz
x,y,z
-x,y,1/2-z
-x,-y,-z
x,-y,1/2+z
loop_
_atom_site_type_symbol
_atom_site_label
_atom_site_fract_x
_atom_site_fract_y
_atom_site_fract_z
Si Si1 0.735438 0.789797 0.833406
Si Si2 0.741419 0.424225 0.868946
Si Si3 0.450045 0.145580 0.543629
Si Si4 0.743324 0.953889 0.688316
Si Si5 0.035017 0.887537 0.042926
Si Si6 0.278126 0.233517 0.741975
Si Si7 0.990080 0.603668 0.633328
O O1 0.500000 0.743935 0.750000
O O2 0.727425 0.898620 0.782606
O O3 0.907475 0.713691 0.843260
O O4 0.823177 0.820979 0.962695
O O5 0.500000 0.429495 0.750000
O O6 0.833735 0.330302 0.836804
O O7 0.855162 0.525167 0.871895
O O8 0.782250 0.403369 0.994617
O O9 0.358803 0.130879 0.411931
O O10 0.228682 0.149276 0.535191
O O11 0.619819 0.232608 0.622308
O O12 0.585387 0.046796 0.617736
O O13 0.000000 0.966755 0.750000
O O14 0.126390 0.861159 0.173794
O O15 0.000000 0.000000 0.000000
O O16 0.500000 0.219484 0.750000
O O17 0.000000 0.580280 0.750000
#
# Coordination Sequence:
#
# PCOD9234167 Si02
#       7
#     4   4   4   4   4   4   4
#     4  12  24  40  63  94 126 169 220 278 332 407
#     4  10  22  45  71  98 135 172 227 281 340 420
#     4  10  22  38  58  90 128 175 220 268 329 402
#     4  11  22  39  60  89 133 172 218 277 332 390
#     4  11  20  35  61  89 125 169 215 265 320 391
#     4   9  19  36  62  88 119 165 212 258 322 389
#     4  11  25  44  71 101 134 175 222 284 353 412
#
# _framework density 23.912462999999999
#
# number of rings (size 3 to 8) (size 9 to 14) (size 15 to 20)
#    0.000    1.429    2.857    2.571    0.000    1.714 
#    0.000    3.571    0.000    0.000    0.000    0.000 
#    0.000    0.000    0.000    0.000    0.000    0.000 
#
# Total GULP energy -155980.206969 kJ/mol
# GULP energy per Si atom -5570.721677 kJ/mol
# Density = 2.385804 g / cm^3
# Si number density = 23.912463 Si / 1000 Ang^3
#
#
#
# Elastic Constant Matrix: (Units=GPa)
#
#
# Indices 1 2 3 4 5 6 
#
# 1 59.4930 3.4293 35.2538 0.0000 14.2696 0.0000
# 2 3.4293 63.7140 23.2849 0.0000 14.5673 0.0000
# 3 35.2538 23.2849 196.2756 0.0000 16.5174 0.0000
# 4 0.0000 0.0000 0.0000 39.2797 0.0000 4.9340
# 5 14.2696 14.5673 16.5174 0.0000 29.9698 0.0000
# 6 0.0000 0.0000 0.0000 4.9340 0.0000 25.4372
#
#
#
# Elastic Compliance Matrix: (Units=1/GPa)
#
#
# Indices 1 2 3 4 5 6 
#
# 1 0.020792 0.002154 -0.003218 0.000000 -0.009173 0.000000
# 2 0.002154 0.018277 -0.001805 0.000000 -0.008915 0.000000
# 3 -0.003218 -0.001805 0.005961 0.000000 -0.000876 0.000000
# 4 0.000000 0.000000 0.000000 0.026094 0.000000 -0.005061
# 5 -0.009173 -0.008915 -0.000876 0.000000 0.042550 0.000000
# 6 0.000000 0.000000 0.000000 -0.005061 0.000000 0.040294
#
#
# Mechanical properties :
#
#
# Convention : Reuss Voigt Hill
#
# Bulk Modulus (GPa) = 25.45053 49.26874 37.35963
# Shear Modulus (GPa) = 28.93466 36.10499 32.51983
#
# Velocity S-wave (km/s) = 3.48231 3.88994 3.69175
# Velocity P-wave (km/s) = 5.18025 6.38936 5.81631
#
# Compressibility (1/GPa) = 0.03929191
#
# Stress axis : x y z
#
# Youngs Moduli (GPa) = 48.09616 54.71328 167.76543
#
# Poissons Ratio (x) = -0.11787 0.53988
# Poissons Ratio (y) = -0.10361 0.30282
# Poissons Ratio (z) = 0.15478 0.09876
#
# Static dielectric constant tensor:
#      x y z
#    x 1.928010 0.000000 -0.008970 
#    y 0.000000 1.985250 0.000000 
#    z -0.008970 0.000000 2.042660 
# 
# From -- ./inp_files/47726.got.cif
#   From: 2010.05.17/outbox.cif.g08.bks.cpg/sg13_24_cif.got.tgz:47726.got - 2010.06.03 16:44:36.
