data_PCOD9234415
_publ_section_title
;
Structure prediction by ZEFSAII (Michael W. Deem and Ramdas Pophale) SiO2 
 PCOD9234415
Probable space group: P 2/C
;
_chemical_formula_sum "Si O2"
_cell_formula_units_Z 32
_cell_length_a 11.995649
_cell_length_b 11.623819
_cell_length_c 24.432382
_cell_angle_alpha 90.000000
_cell_angle_beta 27.451991
_cell_angle_gamma 90.000000
_cell_volume 1570.522755
_symmetry_space_group_name_H-M "P 2/C"
_symmetry_group_IT_number 13
_symmetry_cell_setting 'monoclinic'
loop_
_space_group_symop_operation_xyz
x,y,z
-x,y,1/2-z
-x,-y,-z
x,-y,1/2+z
loop_
_atom_site_type_symbol
_atom_site_label
_atom_site_fract_x
_atom_site_fract_y
_atom_site_fract_z
Si Si1 0.245027 0.626824 0.119757
Si Si2 0.042258 0.842393 0.529214
Si Si3 0.392386 0.740587 0.711176
Si Si4 0.205612 0.564238 0.945412
Si Si5 0.816421 0.093586 0.009274
Si Si6 0.022512 0.701848 0.363189
Si Si7 0.273803 0.636104 0.643735
Si Si8 0.455725 0.341498 0.834845
O O1 0.271173 0.503791 0.138055
O O2 0.000000 0.689524 0.250000
O O3 0.141482 0.621244 0.103393
O O4 0.514582 0.675397 0.991283
O O5 0.840990 0.774968 0.652158
O O6 0.934600 0.875736 0.516799
O O7 0.268335 0.761004 0.420416
O O8 0.134899 0.958819 0.517915
O O9 0.572449 0.651508 0.663553
O O10 0.544918 0.857074 0.632728
O O11 0.333171 0.680110 0.678847
O O12 0.344664 0.455582 0.909584
O O13 0.000000 0.500000 0.000000
O O14 0.037359 0.647370 0.052832
O O15 0.935187 0.167466 0.908228
O O16 0.306701 0.690575 0.234306
O O17 0.000000 0.673822 0.750000
O O18 0.500000 0.364729 0.750000
#
# Coordination Sequence:
#
# PCOD9234415 Si02
#       8
#     4   4   4   4   4   4   4   4
#     4  10  22  39  64  94 128 174 220 282 346 411
#     4  11  25  40  69 100 133 185 233 273 335 406
#     4  11  24  44  67  99 137 182 228 283 345 415
#     4  11  23  38  61  92 138 183 209 262 344 422
#     4  10  22  43  67  94 133 181 230 277 325 405
#     4  11  23  42  61  91 135 176 220 281 342 403
#     4  10  22  41  66  93 134 168 230 286 340 411
#     4  12  24  36  57  92 139 174 220 268 327 417
#
# _framework density 20.375381000000001
#
# number of rings (size 3 to 8) (size 9 to 14) (size 15 to 20)
#    0.000    1.250    5.000    1.125    7.000    3.000 
#    0.000    0.000    0.000    1.500    0.000    0.000 
#    0.000    0.000    0.000    0.000    0.000    0.000 
#
# Total GULP energy -178140.543070 kJ/mol
# GULP energy per Si atom -5566.891971 kJ/mol
# Density = 2.032901 g / cm^3
# Si number density = 20.375381 Si / 1000 Ang^3
#
#
#
# Elastic Constant Matrix: (Units=GPa)
#
#
# Indices 1 2 3 4 5 6 
#
# 1 59.9210 31.5472 33.2232 0.0000 -17.5870 0.0000
# 2 31.5472 101.6172 24.3638 0.0000 0.3341 0.0000
# 3 33.2232 24.3638 118.6459 0.0000 -30.3112 0.0000
# 4 0.0000 0.0000 0.0000 -16.7245 0.0000 -0.7101
# 5 -17.5870 0.3341 -30.3112 0.0000 26.7161 0.0000
# 6 0.0000 0.0000 0.0000 -0.7101 0.0000 23.0730
#
#
#
# Elastic Compliance Matrix: (Units=1/GPa)
#
#
# Indices 1 2 3 4 5 6 
#
# 1 0.026301 -0.007769 -0.001861 0.000000 0.015300 0.000000
# 2 -0.007769 0.012894 -0.002563 0.000000 -0.008184 0.000000
# 3 -0.001861 -0.002563 0.012914 0.000000 0.013459 0.000000
# 4 0.000000 0.000000 0.000000 -0.059714 0.000000 -0.001838
# 5 0.015300 -0.008184 0.013459 0.000000 0.062875 0.000000
# 6 0.000000 0.000000 0.000000 -0.001838 0.000000 0.043284
#
#
# Mechanical properties :
#
#
# Convention : Reuss Voigt Hill
#
# Bulk Modulus (GPa) = 36.07003 50.93915 43.50459
# Shear Modulus (GPa) = 37.82644 19.34958 28.58801
#
# Velocity S-wave (km/s) = 4.31336 3.08499 3.74982
# Velocity P-wave (km/s) = 6.52288 6.14363 6.33609
#
# Compressibility (1/GPa) = 0.02772385
#
# Stress axis : x y z
#
# Youngs Moduli (GPa) = 38.02078 77.55360 77.43356
#
# Poissons Ratio (x) = 0.60255 0.14407
# Poissons Ratio (y) = 0.29540 0.19846
# Poissons Ratio (z) = 0.07074 0.19877
#
# Static dielectric constant tensor:
#      x y z
#    x 1.893860 0.000000 0.065350 
#    y 0.000000 1.744380 0.000000 
#    z 0.065350 0.000000 2.086710 
# 
# From -- ./inp_files/86591.got.cif
#   From: 2010.05.17/outbox.cif.g08.bks.cpg/sg13_44_cif.got.tgz:86591.got - 2010.06.03 16:44:36.
