data_PCOD9234023
_publ_section_title
;
Structure prediction by ZEFSAII (Michael W. Deem and Ramdas Pophale) SiO2 
 PCOD9234023
Probable space group: P 2/C
;
_chemical_formula_sum "Si O2"
_cell_formula_units_Z 24
_cell_length_a 22.820097
_cell_length_b 12.057362
_cell_length_c 4.994401
_cell_angle_alpha 90.000000
_cell_angle_beta 79.271850
_cell_angle_gamma 90.000000
_cell_volume 1350.191094
_symmetry_space_group_name_H-M "P 2/C"
_symmetry_group_IT_number 13
_symmetry_cell_setting 'monoclinic'
loop_
_space_group_symop_operation_xyz
x,y,z
-x,y,1/2-z
-x,-y,-z
x,-y,1/2+z
loop_
_atom_site_type_symbol
_atom_site_label
_atom_site_fract_x
_atom_site_fract_y
_atom_site_fract_z
Si Si1 0.594051 0.252581 0.827103
Si Si2 0.500000 0.106274 0.250000
Si Si3 0.500000 0.579193 0.250000
Si Si4 0.678913 0.419298 0.038315
Si Si5 0.620894 0.061009 0.422299
Si Si6 0.187853 0.575469 0.019931
Si Si7 0.062850 0.578562 0.258550
O O1 0.557459 0.343601 0.694968
O O2 0.627145 0.172906 0.586455
O O3 0.544090 0.183754 0.033273
O O4 0.635760 0.319399 0.995821
O O5 0.549251 0.054706 0.417494
O O6 0.500000 0.500000 0.500000
O O7 0.670910 0.483196 0.324390
O O8 0.747332 0.375300 0.976420
O O9 0.643959 0.034350 0.106369
O O10 0.186328 0.532603 0.716989
O O11 0.126043 0.363413 0.643689
O O12 0.062601 0.527190 0.554903
O O13 0.000000 0.637531 0.250000
#
# Coordination Sequence:
#
# PCOD9234023 Si02
#       7
#     4   2   2   4   4   4   4
#     4  12  25  37  55  72  94 115 152 182 230 274
#     4  12  23  39  54  74  92 108 139 183 234 284
#     4  12  25  37  50  68  94 118 143 179 218 254
#     4  10  22  36  50  66  91 127 159 187 216 259
#     4  12  25  40  59  76  92 110 136 183 240 289
#     4   8  14  26  40  56  80 113 151 183 212 247
#     4   8  12  18  32  54  78 104 139 184 220 242
#
# _framework density 17.775262999999999
#
# number of rings (size 3 to 8) (size 9 to 14) (size 15 to 20)
#    0.000    1.667    3.333    2.000    2.333    0.000 
#    0.000    0.000    0.000    0.000    0.000    0.000 
#    0.000    0.000    0.000    0.000    0.000    1.667 
#
# Total GULP energy -133720.635897 kJ/mol
# GULP energy per Si atom -5571.693162 kJ/mol
# Density = 1.773481 g / cm^3
# Si number density = 17.775263 Si / 1000 Ang^3
#
#
#
# Elastic Constant Matrix: (Units=GPa)
#
#
# Indices 1 2 3 4 5 6 
#
# 1 85.6633 13.8372 3.8328 0.0000 13.1343 0.0000
# 2 13.8372 51.0875 18.2365 0.0000 7.1983 0.0000
# 3 3.8328 18.2365 104.5412 0.0000 11.0595 0.0000
# 4 0.0000 0.0000 0.0000 14.4292 0.0000 -0.7901
# 5 13.1343 7.1983 11.0595 0.0000 22.6162 0.0000
# 6 0.0000 0.0000 0.0000 -0.7901 0.0000 4.7781
#
#
#
# Elastic Compliance Matrix: (Units=1/GPa)
#
#
# Indices 1 2 3 4 5 6 
#
# 1 0.013192 -0.002842 0.000767 0.000000 -0.007131 0.000000
# 2 -0.002842 0.022066 -0.003350 0.000000 -0.003735 0.000000
# 3 0.000767 -0.003350 0.010605 0.000000 -0.004565 0.000000
# 4 0.000000 0.000000 0.000000 0.069937 0.000000 0.011565
# 5 -0.007131 -0.003735 -0.004565 0.000000 0.051778 0.000000
# 6 0.000000 0.000000 0.000000 0.011565 0.000000 0.211199
#
#
# Mechanical properties :
#
#
# Convention : Reuss Voigt Hill
#
# Bulk Modulus (GPa) = 28.56161 34.78944 31.67552
# Shear Modulus (GPa) = 12.45956 22.05708 17.25832
#
# Velocity S-wave (km/s) = 2.65042 3.52644 3.11934
# Velocity P-wave (km/s) = 5.04672 6.01626 5.55269
#
# Compressibility (1/GPa) = 0.03501203
#
# Stress axis : x y z
#
# Youngs Moduli (GPa) = 75.80487 45.31850 94.29695
#
# Poissons Ratio (x) = 0.12879 -0.07228
# Poissons Ratio (y) = 0.21542 0.31589
# Poissons Ratio (z) = -0.05811 0.15182
#
# Static dielectric constant tensor:
#      x y z
#    x 1.694680 0.000000 -0.017520 
#    y 0.000000 1.628410 0.000000 
#    z -0.017520 0.000000 1.680690 
# 
# From -- ./inp_files/7393.got.cif
#   From: 2010.05.17/outbox.cif.g08.bks.cpg/sg13_4_cif.got.tgz:7393.got - 2010.06.03 16:44:36.
