data_PCOD9234824
_publ_section_title
;
Structure prediction by ZEFSAII (Michael W. Deem and Ramdas Pophale) SiO2 
 PCOD9234824
Probable space group: P 2/C
;
_chemical_formula_sum "Si O2"
_cell_formula_units_Z 26
_cell_length_a 13.395804
_cell_length_b 5.876023
_cell_length_c 14.504258
_cell_angle_alpha 90.000000
_cell_angle_beta 79.160414
_cell_angle_gamma 90.000000
_cell_volume 1121.318401
_symmetry_space_group_name_H-M "P 2/C"
_symmetry_group_IT_number 13
_symmetry_cell_setting 'monoclinic'
loop_
_space_group_symop_operation_xyz
x,y,z
-x,y,1/2-z
-x,-y,-z
x,-y,1/2+z
loop_
_atom_site_type_symbol
_atom_site_label
_atom_site_fract_x
_atom_site_fract_y
_atom_site_fract_z
Si Si1 0.580244 0.817022 0.022924
Si Si2 0.183268 0.949306 0.747698
Si Si3 0.000000 0.604986 0.750000
Si Si4 0.318971 0.413791 0.145578
Si Si5 0.869118 0.322356 0.893062
Si Si6 0.398970 0.488144 0.314650
Si Si7 0.246248 0.116133 0.430768
O O1 0.567522 0.690494 0.123159
O O2 0.686479 0.952668 0.017132
O O3 0.591442 0.628782 0.941183
O O4 0.500000 0.000000 0.000000
O O5 0.284884 0.828541 0.692539
O O6 0.205256 0.015278 0.848563
O O7 0.096122 0.756431 0.761126
O O8 0.145889 0.136973 0.684135
O O9 0.968822 0.456034 0.844534
O O10 0.226356 0.510556 0.103456
O O11 0.340505 0.565776 0.231630
O O12 0.849114 0.212858 0.995410
O O13 0.500000 0.377733 0.250000
O O14 0.323875 0.315183 0.381668
#
# Coordination Sequence:
#
# PCOD9234824 Si02
#       7
#     4   4   2   4   4   4   4
#     4  12  25  40  67 102 137 180 232 287 341 402
#     4  10  22  43  67  99 134 171 224 284 339 416
#     4  10  24  42  68 102 132 174 224 282 350 416
#     4  10  22  41  65  91 133 178 226 271 335 409
#     4  11  21  43  71  92 136 178 219 280 348 411
#     4  11  25  41  62  96 135 180 232 281 333 400
#     4  11  24  42  70  98 133 184 230 276 348 412
#
# _framework density 23.186990000000002
#
# number of rings (size 3 to 8) (size 9 to 14) (size 15 to 20)
#    0.000    1.231    3.077    2.308    2.154    4.923 
#    0.000    3.077    0.000    0.000    0.000    0.000 
#    0.000    0.000    0.000    0.000    0.000    0.000 
#
# Total GULP energy -145277.643147 kJ/mol
# GULP energy per Si atom -5587.601659 kJ/mol
# Density = 2.313422 g / cm^3
# Si number density = 23.186990 Si / 1000 Ang^3
#
#
#
# Elastic Constant Matrix: (Units=GPa)
#
#
# Indices 1 2 3 4 5 6 
#
# 1 47.2238 5.5023 27.5639 0.0000 -20.3585 0.0000
# 2 5.5023 50.7693 29.5251 0.0000 -12.2594 0.0000
# 3 27.5639 29.5251 145.2691 0.0000 -6.3226 0.0000
# 4 0.0000 0.0000 0.0000 35.2914 0.0000 1.0421
# 5 -20.3585 -12.2594 -6.3226 0.0000 42.0673 0.0000
# 6 0.0000 0.0000 0.0000 1.0421 0.0000 28.3852
#
#
#
# Elastic Compliance Matrix: (Units=1/GPa)
#
#
# Indices 1 2 3 4 5 6 
#
# 1 0.030692 0.003760 -0.005932 0.000000 0.015057 0.000000
# 2 0.003760 0.024334 -0.005306 0.000000 0.008114 0.000000
# 3 -0.005932 -0.005306 0.008954 0.000000 -0.003071 0.000000
# 4 0.000000 0.000000 0.000000 0.028366 0.000000 -0.001041
# 5 0.015057 0.008114 -0.003071 0.000000 0.032961 0.000000
# 6 0.000000 0.000000 0.000000 -0.001041 0.000000 0.035268
#
#
# Mechanical properties :
#
#
# Convention : Reuss Voigt Hill
#
# Bulk Modulus (GPa) = 20.39878 40.93831 30.66854
# Shear Modulus (GPa) = 26.05878 33.19352 29.62615
#
# Velocity S-wave (km/s) = 3.35603 3.78770 3.57838
# Velocity P-wave (km/s) = 4.88199 6.06819 5.50712
#
# Compressibility (1/GPa) = 0.04902255
#
# Stress axis : x y z
#
# Youngs Moduli (GPa) = 32.58223 41.09398 111.68020
#
# Poissons Ratio (x) = -0.15449 0.66252
# Poissons Ratio (y) = -0.12249 0.59258
# Poissons Ratio (z) = 0.19329 0.21805
#
# Static dielectric constant tensor:
#      x y z
#    x 1.901100 0.000000 -0.013020 
#    y 0.000000 1.902050 0.000000 
#    z -0.013020 0.000000 1.888600 
# 
# From -- ./inp_files/52206.got.cif
#   From: 2010.05.17/outbox.cif.g08.bks.cpg/sg13_27_cif.got.tgz:52206.got - 2010.06.03 16:44:36.
