data_PCOD9234112
_publ_section_title
;
Structure prediction by ZEFSAII (Michael W. Deem and Ramdas Pophale) SiO2 
 PCOD9234112
Probable space group: P 2/C
;
_chemical_formula_sum "Si O2"
_cell_formula_units_Z 26
_cell_length_a 5.625725
_cell_length_b 9.241024
_cell_length_c 19.343542
_cell_angle_alpha 90.000000
_cell_angle_beta 67.589786
_cell_angle_gamma 90.000000
_cell_volume 929.675142
_symmetry_space_group_name_H-M "P 2/C"
_symmetry_group_IT_number 13
_symmetry_cell_setting 'monoclinic'
loop_
_space_group_symop_operation_xyz
x,y,z
-x,y,1/2-z
-x,-y,-z
x,-y,1/2+z
loop_
_atom_site_type_symbol
_atom_site_label
_atom_site_fract_x
_atom_site_fract_y
_atom_site_fract_z
Si Si1 0.154974 0.964456 0.600492
Si Si2 0.000000 0.222626 0.250000
Si Si3 0.690780 0.917274 0.177999
Si Si4 0.000000 0.716250 0.250000
Si Si5 0.606904 0.312596 0.451597
Si Si6 0.152226 0.568008 0.914661
Si Si7 0.616583 0.273132 0.890479
Si Si8 0.500000 0.406672 0.250000
O O1 0.116082 0.887085 0.679102
O O2 0.336955 0.857757 0.540593
O O3 0.237392 0.131204 0.596102
O O4 0.858290 0.977120 0.612088
O O5 0.744304 0.314178 0.254511
O O6 0.500000 0.002226 0.250000
O O7 0.829209 0.821064 0.221536
O O8 0.584652 0.800643 0.137129
O O9 0.817049 0.636657 0.322816
O O10 0.370533 0.331155 0.425933
O O11 0.504676 0.367602 0.537046
O O12 0.896503 0.367311 0.406087
O O13 0.337026 0.509659 0.830018
O O14 0.000000 0.500000 0.000000
#
# Coordination Sequence:
#
# PCOD9234112 Si02
#       8
#     4   2   4   2   4   4   4   2
#     4  11  22  35  58 101 146 191 231 284 340 433
#     4  12  23  38  70 109 146 194 241 288 360 425
#     4   9  18  32  53  84 136 198 243 282 327 395
#     4   8  17  36  52  85 130 196 247 284 318 393
#     4  12  27  44  70 106 143 188 234 294 359 447
#     4  12  28  54  79 107 140 180 243 324 388 436
#     4  10  22  37  59  94 150 198 242 282 346 419
#     4  12  24  50  78 108 138 178 242 306 378 450
#
# _framework density 27.966759
#
# number of rings (size 3 to 8) (size 9 to 14) (size 15 to 20)
#    0.000    1.231    3.077    3.692    9.692    0.615 
#    0.000    1.538    0.000    0.000    0.000    0.000 
#    0.000    0.000    0.000    0.000    0.000    0.000 
#
# Total GULP energy -144920.275697 kJ/mol
# GULP energy per Si atom -5573.856758 kJ/mol
# Density = 2.790311 g / cm^3
# Si number density = 27.966759 Si / 1000 Ang^3
#
#
#
# Elastic Constant Matrix: (Units=GPa)
#
#
# Indices 1 2 3 4 5 6 
#
# 1 157.0676 39.8977 34.9521 0.0000 -33.7035 0.0000
# 2 39.8977 85.5125 34.9343 0.0000 -28.8978 0.0000
# 3 34.9521 34.9343 206.9022 0.0000 -49.2065 0.0000
# 4 0.0000 0.0000 0.0000 40.1927 0.0000 -8.5308
# 5 -33.7035 -28.8978 -49.2065 0.0000 37.7423 0.0000
# 6 0.0000 0.0000 0.0000 -8.5308 0.0000 49.0981
#
#
#
# Elastic Compliance Matrix: (Units=1/GPa)
#
#
# Indices 1 2 3 4 5 6 
#
# 1 0.008107 -0.001782 0.000476 0.000000 0.006496 0.000000
# 2 -0.001782 0.016181 0.000199 0.000000 0.011057 0.000000
# 3 0.000476 0.000199 0.007039 0.000000 0.009755 0.000000
# 4 0.000000 0.000000 0.000000 0.025833 0.000000 0.004488
# 5 0.006496 0.011057 0.009755 0.000000 0.053480 0.000000
# 6 0.000000 0.000000 0.000000 0.004488 0.000000 0.021147
#
#
# Mechanical properties :
#
#
# Convention : Reuss Voigt Hill
#
# Bulk Modulus (GPa) = 34.34852 74.33892 54.34372
# Shear Modulus (GPa) = 34.79327 48.05316 41.42322
#
# Velocity S-wave (km/s) = 3.53100 4.14964 3.85276
# Velocity P-wave (km/s) = 5.37889 7.04260 6.26621
#
# Compressibility (1/GPa) = 0.02911334
#
# Stress axis : x y z
#
# Youngs Moduli (GPa) = 123.34550 61.80107 142.06357
#
# Poissons Ratio (x) = 0.11012 -0.06766
# Poissons Ratio (y) = 0.21978 -0.02820
# Poissons Ratio (z) = -0.05875 -0.01227
#
# Static dielectric constant tensor:
#      x y z
#    x 2.384820 0.000000 -0.048900 
#    y 0.000000 2.164310 0.000000 
#    z -0.048900 0.000000 2.362590 
# 
# From -- ./inp_files/73559.got.cif
#   From: 2010.05.17/outbox.cif.g08.bks.cpg/sg13_37_cif.got.tgz:73559.got - 2010.06.03 16:44:36.
