data_PCOD9234446
_publ_section_title
;
Structure prediction by ZEFSAII (Michael W. Deem and Ramdas Pophale) SiO2 
 PCOD9234446
Probable space group: P 2/C
;
_chemical_formula_sum "Si O2"
_cell_formula_units_Z 20
_cell_length_a 10.330555
_cell_length_b 8.535581
_cell_length_c 16.982258
_cell_angle_alpha 90.000000
_cell_angle_beta 34.226593
_cell_angle_gamma 90.000000
_cell_volume 842.266203
_symmetry_space_group_name_H-M "P 2/C"
_symmetry_group_IT_number 13
_symmetry_cell_setting 'monoclinic'
loop_
_space_group_symop_operation_xyz
x,y,z
-x,y,1/2-z
-x,-y,-z
x,-y,1/2+z
loop_
_atom_site_type_symbol
_atom_site_label
_atom_site_fract_x
_atom_site_fract_y
_atom_site_fract_z
Si Si1 0.789312 0.794822 0.466241
Si Si2 0.382821 0.547413 0.661263
Si Si3 0.292604 0.881079 0.462309
Si Si4 0.000000 0.272302 0.250000
Si Si5 0.292649 0.782801 0.167014
Si Si6 0.500000 0.373408 0.750000
O O1 0.600337 0.660468 0.567789
O O2 0.740371 0.853639 0.401699
O O3 0.050381 0.739103 0.327451
O O4 0.780146 0.945468 0.526976
O O5 0.428401 0.382210 0.593302
O O6 0.351875 0.479437 0.765195
O O7 0.176486 0.628607 0.716744
O O8 0.557555 0.898614 0.357116
O O9 0.321502 0.741159 0.385482
O O10 0.140396 0.826043 0.613559
#
# Coordination Sequence:
#
# PCOD9234446 Si02
#       6
#     4   4   4   2   4   2
#     4  11  22  40  74 101 147 190 245 294 370 417
#     4  11  25  44  71 108 145 193 241 301 363 431
#     4  11  25  45  68 107 147 192 240 307 359 444
#     4  12  24  42  84 104 142 188 258 298 364 420
#     4  10  22  39  67 109 138 180 251 304 341 432
#     4  10  28  50  66 104 160 186 246 296 372 440
#
# _framework density 23.745462
#
# number of rings (size 3 to 8) (size 9 to 14) (size 15 to 20)
#    0.000    1.200    2.000    3.600   11.200    1.600 
#    3.600    4.000    0.000    0.000    0.000    0.000 
#    0.000    0.000    0.000    0.000    0.000    0.000 
#
# Total GULP energy -111525.748414 kJ/mol
# GULP energy per Si atom -5576.287421 kJ/mol
# Density = 2.369142 g / cm^3
# Si number density = 23.745462 Si / 1000 Ang^3
#
#
#
# Elastic Constant Matrix: (Units=GPa)
#
#
# Indices 1 2 3 4 5 6 
#
# 1 78.6447 21.7064 38.1135 0.0000 -1.9846 0.0000
# 2 21.7064 129.4379 68.4347 0.0000 -8.2443 0.0000
# 3 38.1135 68.4347 109.1855 0.0000 -3.0718 0.0000
# 4 0.0000 0.0000 0.0000 35.4661 0.0000 -1.8338
# 5 -1.9846 -8.2443 -3.0718 0.0000 31.9105 0.0000
# 6 0.0000 0.0000 0.0000 -1.8338 0.0000 20.2417
#
#
#
# Elastic Compliance Matrix: (Units=1/GPa)
#
#
# Indices 1 2 3 4 5 6 
#
# 1 0.015326 0.000425 -0.005601 0.000000 0.000524 0.000000
# 2 0.000425 0.011736 -0.007438 0.000000 0.002343 0.000000
# 3 -0.005601 -0.007438 0.015755 0.000000 -0.000754 0.000000
# 4 0.000000 0.000000 0.000000 0.028329 0.000000 0.002566
# 5 0.000524 0.002343 -0.000754 0.000000 0.031903 0.000000
# 6 0.000000 0.000000 0.000000 0.002566 0.000000 0.049636
#
#
# Mechanical properties :
#
#
# Convention : Reuss Voigt Hill
#
# Bulk Modulus (GPa) = 56.85925 63.75304 60.30614
# Shear Modulus (GPa) = 27.20688 30.12455 28.66571
#
# Velocity S-wave (km/s) = 3.38860 3.56567 3.47826
# Velocity P-wave (km/s) = 6.26956 6.62260 6.44850
#
# Compressibility (1/GPa) = 0.01758729
#
# Stress axis : x y z
#
# Youngs Moduli (GPa) = 65.24870 85.20458 63.47193
#
# Poissons Ratio (x) = -0.03618 0.35552
# Poissons Ratio (y) = -0.02771 0.47213
# Poissons Ratio (z) = 0.36548 0.63379
#
# Static dielectric constant tensor:
#      x y z
#    x 1.949030 0.000000 0.054940 
#    y 0.000000 1.932580 0.000000 
#    z 0.054940 0.000000 1.974470 
# 
# From -- ./inp_files/32792.got.cif
#   From: 2010.05.17/outbox.cif.g08.bks.cpg/sg13_17_cif.got.tgz:32792.got - 2010.06.03 16:44:36.
