data_PCOD9234577
_publ_section_title
;
Structure prediction by ZEFSAII (Michael W. Deem and Ramdas Pophale) SiO2 
 PCOD9234577
Probable space group: P 2/C
;
_chemical_formula_sum "Si O2"
_cell_formula_units_Z 26
_cell_length_a 11.689765
_cell_length_b 11.518114
_cell_length_c 8.788643
_cell_angle_alpha 90.000000
_cell_angle_beta 94.150403
_cell_angle_gamma 90.000000
_cell_volume 1180.235147
_symmetry_space_group_name_H-M "P 2/C"
_symmetry_group_IT_number 13
_symmetry_cell_setting 'monoclinic'
loop_
_space_group_symop_operation_xyz
x,y,z
-x,y,1/2-z
-x,-y,-z
x,-y,1/2+z
loop_
_atom_site_type_symbol
_atom_site_label
_atom_site_fract_x
_atom_site_fract_y
_atom_site_fract_z
Si Si1 0.583986 0.476757 0.645070
Si Si2 0.000000 0.952378 0.750000
Si Si3 0.907288 0.512141 0.361381
Si Si4 0.042979 0.843578 0.464162
Si Si5 0.271332 0.311085 0.237523
Si Si6 0.739596 0.727770 0.097233
Si Si7 0.787229 0.745518 0.429547
O O1 0.500000 0.407531 0.750000
O O2 0.500000 0.500000 0.500000
O O3 0.629046 0.593928 0.725243
O O4 0.692143 0.401784 0.605076
O O5 0.069870 0.872001 0.642191
O O6 0.065789 0.040085 0.868438
O O7 0.841224 0.394250 0.304230
O O8 0.816004 0.609429 0.403010
O O9 0.000000 0.554296 0.250000
O O10 0.000000 0.500000 0.500000
O O11 0.125205 0.747163 0.406142
O O12 0.909960 0.810650 0.441361
O O13 0.259638 0.247205 0.401276
O O14 0.298020 0.241197 0.081920
O O15 0.718268 0.780343 0.266854
#
# Coordination Sequence:
#
# PCOD9234577 Si02
#       7
#     4   2   4   4   4   4   4
#     4  12  24  43  60  81 121 172 221 266 308 345
#     4  10  22  40  64  86 134 166 190 252 332 388
#     4  12  21  31  48  76 118 162 196 233 282 346
#     4  11  22  40  60  94 127 164 200 251 314 397
#     4  12  24  37  55  83 123 170 208 252 297 346
#     4  12  23  39  60  87 118 161 217 250 299 376
#     4  12  22  36  55  87 123 159 207 246 288 376
#
# _framework density 22.029508
#
# number of rings (size 3 to 8) (size 9 to 14) (size 15 to 20)
#    0.000    0.308    6.154    5.538    0.000    0.000 
#    0.000    0.000    0.000    0.000    0.000    1.077 
#    0.000    0.000    0.000    0.000    0.000    0.000 
#
# Total GULP energy -144761.399602 kJ/mol
# GULP energy per Si atom -5567.746139 kJ/mol
# Density = 2.197937 g / cm^3
# Si number density = 22.029508 Si / 1000 Ang^3
#
#
#
# Elastic Constant Matrix: (Units=GPa)
#
#
# Indices 1 2 3 4 5 6 
#
# 1 62.9251 25.4952 27.8025 0.0000 4.9097 0.0000
# 2 25.4952 44.1485 20.2977 0.0000 -4.2612 0.0000
# 3 27.8025 20.2977 219.5368 0.0000 0.3419 0.0000
# 4 0.0000 0.0000 0.0000 28.9131 0.0000 -8.7344
# 5 4.9097 -4.2612 0.3419 0.0000 35.8103 0.0000
# 6 0.0000 0.0000 0.0000 -8.7344 0.0000 8.2287
#
#
#
# Elastic Compliance Matrix: (Units=1/GPa)
#
#
# Indices 1 2 3 4 5 6 
#
# 1 0.021974 -0.012371 -0.001632 0.000000 -0.004469 0.000000
# 2 -0.012371 0.030912 -0.001300 0.000000 0.005387 0.000000
# 3 -0.001632 -0.001300 0.004882 0.000000 0.000022 0.000000
# 4 0.000000 0.000000 0.000000 0.050912 0.000000 0.054041
# 5 -0.004469 0.005387 0.000022 0.000000 0.029178 0.000000
# 6 0.000000 0.000000 0.000000 0.054041 0.000000 0.178888
#
#
# Mechanical properties :
#
#
# Convention : Reuss Voigt Hill
#
# Bulk Modulus (GPa) = 36.81485 52.64457 44.72971
# Shear Modulus (GPa) = 14.02895 31.45809 22.74352
#
# Velocity S-wave (km/s) = 2.52628 3.78299 3.21660
# Velocity P-wave (km/s) = 5.02567 6.55976 5.84328
#
# Compressibility (1/GPa) = 0.02716295
#
# Stress axis : x y z
#
# Youngs Moduli (GPa) = 45.50857 32.34968 204.83926
#
# Poissons Ratio (x) = 0.40019 0.33432
# Poissons Ratio (y) = 0.56297 0.26625
# Poissons Ratio (z) = 0.07427 0.04205
#
# Static dielectric constant tensor:
#      x y z
#    x 1.784600 0.000000 0.011410 
#    y 0.000000 1.819790 0.000000 
#    z 0.011410 0.000000 1.915850 
# 
# From -- ./inp_files/15922.got.cif
#   From: 2010.05.17/outbox.cif.g08.bks.cpg/sg13_8_cif.got.tgz:15922.got - 2010.06.03 16:44:36.
