data_PCOD9234500
_publ_section_title
;
Structure prediction by ZEFSAII (Michael W. Deem and Ramdas Pophale) SiO2 
 PCOD9234500
Probable space group: P 2/C
;
_chemical_formula_sum "Si O2"
_cell_formula_units_Z 24
_cell_length_a 9.245199
_cell_length_b 5.746541
_cell_length_c 22.109756
_cell_angle_alpha 90.000000
_cell_angle_beta 114.714675
_cell_angle_gamma 90.000000
_cell_volume 1067.049052
_symmetry_space_group_name_H-M "P 2/C"
_symmetry_group_IT_number 13
_symmetry_cell_setting 'monoclinic'
loop_
_space_group_symop_operation_xyz
x,y,z
-x,y,1/2-z
-x,-y,-z
x,-y,1/2+z
loop_
_atom_site_type_symbol
_atom_site_label
_atom_site_fract_x
_atom_site_fract_y
_atom_site_fract_z
Si Si1 0.226836 0.876288 0.371595
Si Si2 0.721719 0.249714 0.221735
Si Si3 0.000000 0.561839 0.250000
Si Si4 0.500000 0.937607 0.250000
Si Si5 0.019708 0.998052 0.075763
Si Si6 0.516281 0.376832 0.871606
Si Si7 0.131844 0.501871 0.075755
O O1 0.399941 0.749720 0.399995
O O2 0.103038 0.706035 0.315838
O O3 0.149551 0.967770 0.419801
O O4 0.234006 0.089945 0.326896
O O5 0.872250 0.405962 0.262584
O O6 0.580176 0.409349 0.173045
O O7 0.652900 0.093573 0.262616
O O8 0.471512 0.793352 0.184187
O O9 0.105454 0.749982 0.105395
O O10 0.102143 0.249980 0.102153
O O11 0.000000 0.000000 0.000000
O O12 0.690030 0.468040 0.919825
O O13 0.000000 0.500000 0.000000
#
# Coordination Sequence:
#
# PCOD9234500 Si02
#       7
#     4   4   2   2   4   4   4
#     4  10  23  42  65  97 138 183 230 288 356 424
#     4  10  22  40  62  94 140 178 228 278 344 424
#     4  10  22  40  60  98 136 178 226 276 350 420
#     4  10  22  40  60  98 136 178 226 276 350 420
#     4  10  24  46  70  99 133 177 239 295 349 409
#     4  10  23  42  65  97 138 183 230 288 356 424
#     4  10  24  46  70  99 133 177 239 295 349 409
#
# _framework density 22.491938000000001
#
# number of rings (size 3 to 8) (size 9 to 14) (size 15 to 20)
#    0.000    2.000    0.000    1.000    9.333    6.667 
#    3.000    6.667    0.000    0.000    0.000    0.000 
#    0.000    0.000    0.000    0.000    0.000    0.000 
#
# Total GULP energy -133955.337759 kJ/mol
# GULP energy per Si atom -5581.472407 kJ/mol
# Density = 2.244075 g / cm^3
# Si number density = 22.491938 Si / 1000 Ang^3
#
#
#
# Elastic Constant Matrix: (Units=GPa)
#
#
# Indices 1 2 3 4 5 6 
#
# 1 202.1527 77.1659 71.1234 0.0000 -0.6714 0.0000
# 2 77.1659 172.3427 31.5822 0.0000 -0.7449 0.0000
# 3 71.1234 31.5822 71.0987 0.0000 -1.5657 0.0000
# 4 0.0000 0.0000 0.0000 34.4325 0.0000 -0.2624
# 5 -0.6714 -0.7449 -1.5657 0.0000 43.6822 0.0000
# 6 0.0000 0.0000 0.0000 -0.2624 0.0000 45.7550
#
#
#
# Elastic Compliance Matrix: (Units=1/GPa)
#
#
# Indices 1 2 3 4 5 6 
#
# 1 0.008484 -0.002442 -0.007406 0.000000 -0.000177 0.000000
# 2 -0.002442 0.007020 -0.000674 0.000000 0.000058 0.000000
# 3 -0.007406 -0.000674 0.021787 0.000000 0.000656 0.000000
# 4 0.000000 0.000000 0.000000 0.029044 0.000000 0.000167
# 5 -0.000177 0.000058 0.000656 0.000000 0.022914 0.000000
# 6 0.000000 0.000000 0.000000 0.000167 0.000000 0.021857
#
#
# Mechanical properties :
#
#
# Convention : Reuss Voigt Hill
#
# Bulk Modulus (GPa) = 61.55026 89.48191 75.51608
# Shear Modulus (GPa) = 36.34634 42.48878 39.41756
#
# Velocity S-wave (km/s) = 4.02428 4.35106 4.19085
# Velocity P-wave (km/s) = 7.00128 8.06924 7.55416
#
# Compressibility (1/GPa) = 0.01624689
#
# Stress axis : x y z
#
# Youngs Moduli (GPa) = 117.86692 142.45740 45.89825
#
# Poissons Ratio (x) = 0.34793 0.33993
# Poissons Ratio (y) = 0.28787 0.03092
# Poissons Ratio (z) = 0.87293 0.09597
#
# Static dielectric constant tensor:
#      x y z
#    x 1.797710 0.000000 0.001320 
#    y 0.000000 1.903820 0.000000 
#    z 0.001320 0.000000 1.871580 
# 
# From -- ./inp_files/84322.got.cif
#   From: 2010.05.17/outbox.cif.g08.bks.cpg/sg13_43_cif.got.tgz:84322.got - 2010.06.03 16:44:36.
