data_PCOD9234360
_publ_section_title
;
Structure prediction by ZEFSAII (Michael W. Deem and Ramdas Pophale) SiO2 
 PCOD9234360
Probable space group: P 2/C
;
_chemical_formula_sum "Si O2"
_cell_formula_units_Z 16
_cell_length_a 21.505007
_cell_length_b 5.090857
_cell_length_c 8.946087
_cell_angle_alpha 90.000000
_cell_angle_beta 35.418379
_cell_angle_gamma 90.000000
_cell_volume 567.608616
_symmetry_space_group_name_H-M "P 2/C"
_symmetry_group_IT_number 13
_symmetry_cell_setting 'monoclinic'
loop_
_space_group_symop_operation_xyz
x,y,z
-x,y,1/2-z
-x,-y,-z
x,-y,1/2+z
loop_
_atom_site_type_symbol
_atom_site_label
_atom_site_fract_x
_atom_site_fract_y
_atom_site_fract_z
Si Si1 0.000000 0.144412 0.250000
Si Si2 0.315468 0.494122 0.570055
Si Si3 0.500000 0.871003 0.250000
Si Si4 0.327332 0.132693 0.305749
Si Si5 0.867118 0.224572 0.238775
O O1 0.928356 0.953258 0.495917
O O2 0.060216 0.309834 0.262276
O O3 0.415960 0.677877 0.327616
O O4 0.343119 0.213827 0.446153
O O5 0.309365 0.590407 0.752599
O O6 0.200997 0.566458 0.721835
O O7 0.426254 0.991733 0.523773
O O8 0.221810 0.959977 0.507146
#
# Coordination Sequence:
#
# PCOD9234360 Si02
#       5
#     2   4   2   4   4
#     4  10  22  40  66  78 124 154 200 256 308 324
#     4  10  22  39  61  89 123 157 196 239 293 354
#     4   8  20  40  56  94 122 158 190 244 280 364
#     4  10  22  39  61  89 123 157 196 239 293 354
#     4  11  22  43  60  90 116 161 198 253 292 358
#
# _framework density 28.188434999999998
#
# number of rings (size 3 to 8) (size 9 to 14) (size 15 to 20)
#    1.500    0.500    2.500    0.750    3.500    1.000 
#    0.000   10.000    0.000    0.000    0.000    0.000 
#    0.000    0.000    0.000    0.000    0.000    0.000 
#
# Total GULP energy -89419.180348 kJ/mol
# GULP energy per Si atom -5588.698772 kJ/mol
# Density = 2.812428 g / cm^3
# Si number density = 28.188435 Si / 1000 Ang^3
#
#
#
# Elastic Constant Matrix: (Units=GPa)
#
#
# Indices 1 2 3 4 5 6 
#
# 1 199.0241 25.5770 52.5382 0.0000 37.2141 0.0000
# 2 25.5770 53.0810 6.3450 0.0000 5.4909 0.0000
# 3 52.5382 6.3450 139.7282 0.0000 -18.4216 0.0000
# 4 0.0000 0.0000 0.0000 21.0984 0.0000 9.1759
# 5 37.2141 5.4909 -18.4216 0.0000 31.8114 0.0000
# 6 0.0000 0.0000 0.0000 9.1759 0.0000 23.3122
#
#
#
# Elastic Compliance Matrix: (Units=1/GPa)
#
#
# Indices 1 2 3 4 5 6 
#
# 1 0.009148 -0.002434 -0.005072 0.000000 -0.013218 0.000000
# 2 -0.002434 0.020092 -0.000085 0.000000 -0.000670 0.000000
# 3 -0.005072 -0.000085 0.010666 0.000000 0.012124 0.000000
# 4 0.000000 0.000000 0.000000 0.057186 0.000000 -0.022509
# 5 -0.013218 -0.000670 0.012124 0.000000 0.054035 0.000000
# 6 0.000000 0.000000 0.000000 -0.022509 0.000000 0.051756
#
#
# Mechanical properties :
#
#
# Convention : Reuss Voigt Hill
#
# Bulk Modulus (GPa) = 40.44862 62.30599 51.37730
# Shear Modulus (GPa) = 22.09400 35.73596 28.91498
#
# Velocity S-wave (km/s) = 2.80267 3.56441 3.20625
# Velocity P-wave (km/s) = 4.98536 6.25231 5.65443
#
# Compressibility (1/GPa) = 0.02472272
#
# Stress axis : x y z
#
# Youngs Moduli (GPa) = 109.31669 49.77218 93.75538
#
# Poissons Ratio (x) = 0.12116 0.47550
# Poissons Ratio (y) = 0.26610 0.00800
# Poissons Ratio (z) = 0.55442 0.00425
#
# Static dielectric constant tensor:
#      x y z
#    x 2.193280 0.000000 -0.067320 
#    y 0.000000 2.142070 0.000000 
#    z -0.067320 0.000000 2.169090 
# 
# From -- ./inp_files/14347.got.cif
#   From: 2010.05.17/outbox.cif.g08.bks.cpg/sg13_8_cif.got.tgz:14347.got - 2010.06.03 16:44:36.
