data_PCOD9234083
_publ_section_title
;
Structure prediction by ZEFSAII (Michael W. Deem and Ramdas Pophale) SiO2 
 PCOD9234083
Probable space group: P 2/C
;
_chemical_formula_sum "Si O2"
_cell_formula_units_Z 32
_cell_length_a 8.756104
_cell_length_b 15.701982
_cell_length_c 11.003535
_cell_angle_alpha 90.000000
_cell_angle_beta 91.124529
_cell_angle_gamma 90.000000
_cell_volume 1512.564709
_symmetry_space_group_name_H-M "P 2/C"
_symmetry_group_IT_number 13
_symmetry_cell_setting 'monoclinic'
loop_
_space_group_symop_operation_xyz
x,y,z
-x,y,1/2-z
-x,-y,-z
x,-y,1/2+z
loop_
_atom_site_type_symbol
_atom_site_label
_atom_site_fract_x
_atom_site_fract_y
_atom_site_fract_z
Si Si1 0.348020 0.697183 0.677247
Si Si2 0.884477 0.442732 0.348389
Si Si3 0.278932 0.606579 0.174196
Si Si4 0.051093 0.693089 0.009426
Si Si5 0.850797 0.811312 0.155813
Si Si6 0.098345 0.999846 0.876884
Si Si7 0.390163 0.677218 0.391944
Si Si8 0.166606 0.182882 0.316669
O O1 0.500000 0.673840 0.750000
O O2 0.212525 0.633494 0.711546
O O3 0.372521 0.686695 0.534663
O O4 0.291915 0.789513 0.720551
O O5 0.762765 0.514841 0.380802
O O6 0.000000 0.479333 0.250000
O O7 0.980387 0.392682 0.451532
O O8 0.295305 0.603222 0.320384
O O9 0.435238 0.649879 0.130414
O O10 0.141343 0.665574 0.129745
O O11 0.160706 0.745713 0.921610
O O12 0.920497 0.759843 0.042773
O O13 0.816748 0.909686 0.126867
O O14 0.691062 0.760098 0.172656
O O15 0.000000 0.812609 0.250000
O O16 0.000000 0.998178 0.750000
O O17 0.188894 0.910851 0.872141
O O18 0.000000 0.000000 0.000000
O O19 0.000000 0.186527 0.250000
#
# Coordination Sequence:
#
# PCOD9234083 Si02
#       8
#     4   4   4   4   4   4   4   4
#     4  12  25  44  68  96 136 184 231 281 349 423
#     4  12  26  43  67 102 131 180 238 295 340 412
#     4  11  28  43  63 100 135 181 233 289 360 408
#     4  12  20  42  70  97 137 175 229 289 339 416
#     4  11  21  40  69 106 134 179 230 279 352 415
#     4  10  22  36  67 109 143 177 230 299 347 421
#     4  11  25  46  67  93 139 184 227 286 348 427
#     4  11  20  42  68  99 136 180 234 276 351 410
#
# _framework density 21.156120000000001
#
# number of rings (size 3 to 8) (size 9 to 14) (size 15 to 20)
#    0.000    0.750    6.250    1.125    5.250    1.500 
#    0.000    0.000    2.750    1.500    0.000    0.000 
#    0.000    0.000    0.000    0.000    0.000    0.000 
#
# Total GULP energy -178407.600483 kJ/mol
# GULP energy per Si atom -5575.237515 kJ/mol
# Density = 2.110797 g / cm^3
# Si number density = 21.156120 Si / 1000 Ang^3
#
#
#
# Elastic Constant Matrix: (Units=GPa)
#
#
# Indices 1 2 3 4 5 6 
#
# 1 90.4823 34.9949 36.6021 0.0000 9.8604 0.0000
# 2 34.9949 133.1109 34.1358 0.0000 -7.3190 0.0000
# 3 36.6021 34.1358 116.2912 0.0000 1.6718 0.0000
# 4 0.0000 0.0000 0.0000 20.3030 0.0000 -7.5825
# 5 9.8604 -7.3190 1.6718 0.0000 36.8132 0.0000
# 6 0.0000 0.0000 0.0000 -7.5825 0.0000 14.6691
#
#
#
# Elastic Compliance Matrix: (Units=1/GPa)
#
#
# Indices 1 2 3 4 5 6 
#
# 1 0.014099 -0.003046 -0.003483 0.000000 -0.004224 0.000000
# 2 -0.003046 0.008893 -0.001690 0.000000 0.002661 0.000000
# 3 -0.003483 -0.001690 0.010189 0.000000 0.000134 0.000000
# 4 0.000000 0.000000 0.000000 0.061037 0.000000 0.031550
# 5 -0.004224 0.002661 0.000134 0.000000 0.028818 0.000000
# 6 0.000000 0.000000 0.000000 0.031550 0.000000 0.084479
#
#
# Mechanical properties :
#
#
# Convention : Reuss Voigt Hill
#
# Bulk Modulus (GPa) = 59.72201 61.26111 60.49156
# Shear Modulus (GPa) = 21.78324 29.96717 25.87520
#
# Velocity S-wave (km/s) = 3.21229 3.76769 3.50102
# Velocity P-wave (km/s) = 6.48451 6.92437 6.70805
#
# Compressibility (1/GPa) = 0.01674425
#
# Stress axis : x y z
#
# Youngs Moduli (GPa) = 70.92693 112.44861 98.14048
#
# Poissons Ratio (x) = 0.34249 0.34181
# Poissons Ratio (y) = 0.21602 0.16586
# Poissons Ratio (z) = 0.24703 0.19004
#
# Static dielectric constant tensor:
#      x y z
#    x 1.776690 0.000000 -0.039560 
#    y 0.000000 1.803880 0.000000 
#    z -0.039560 0.000000 1.931640 
# 
# From -- ./inp_files/30426.got.cif
#   From: 2010.05.17/outbox.cif.g08.bks.cpg/sg13_16_cif.got.tgz:30426.got - 2010.06.03 16:44:36.
