data_PCOD9234822
_publ_section_title
;
Structure prediction by ZEFSAII (Michael W. Deem and Ramdas Pophale) SiO2 
 PCOD9234822
Probable space group: P 2/C
;
_chemical_formula_sum "Si O2"
_cell_formula_units_Z 32
_cell_length_a 15.162799
_cell_length_b 10.171433
_cell_length_c 13.344801
_cell_angle_alpha 90.000000
_cell_angle_beta 134.782426
_cell_angle_gamma 90.000000
_cell_volume 1460.836328
_symmetry_space_group_name_H-M "P 2/C"
_symmetry_group_IT_number 13
_symmetry_cell_setting 'monoclinic'
loop_
_space_group_symop_operation_xyz
x,y,z
-x,y,1/2-z
-x,-y,-z
x,-y,1/2+z
loop_
_atom_site_type_symbol
_atom_site_label
_atom_site_fract_x
_atom_site_fract_y
_atom_site_fract_z
Si Si1 0.925320 0.458574 0.287058
Si Si2 0.440855 0.458405 0.291962
Si Si3 0.367234 0.077175 0.398327
Si Si4 0.215637 0.157777 0.699457
Si Si5 0.643707 0.088804 0.885548
Si Si6 0.310545 0.797503 0.652734
Si Si7 0.043635 0.709953 0.493265
Si Si8 0.676022 0.588282 0.118721
O O1 0.922153 0.349934 0.371257
O O2 0.786370 0.508620 0.153930
O O3 0.000000 0.413263 0.250000
O O4 0.996287 0.586477 0.389326
O O5 0.500000 0.544986 0.250000
O O6 0.375092 0.339676 0.178513
O O7 0.341483 0.526733 0.284169
O O8 0.549949 0.419572 0.456127
O O9 0.256677 0.980344 0.277486
O O10 0.500000 0.000000 0.500000
O O11 0.337833 0.127984 0.484921
O O12 0.365669 0.181658 0.308652
O O13 0.271246 0.155372 0.631124
O O14 0.282160 0.264458 0.823733
O O15 0.071152 0.191156 0.586047
O O16 0.500000 0.115980 0.750000
O O17 0.659728 0.929205 0.885654
O O18 0.163671 0.775960 0.540667
#
# Coordination Sequence:
#
# PCOD9234822 Si02
#       8
#     4   4   4   4   4   4   4   4
#     4  10  22  41  65  87 131 173 215 249 314 379
#     4  11  24  38  64  95 126 166 208 260 326 374
#     4  11  22  41  61  92 123 159 208 259 313 371
#     4  10  23  41  64  89 128 161 209 261 306 377
#     4  11  23  40  65  93 118 167 207 254 328 372
#     4  11  23  40  65  89 129 164 208 265 309 375
#     4  10  23  42  61  92 126 170 209 259 310 369
#     4  10  23  42  59  98 129 160 212 268 309 378
#
# _framework density 21.905259000000001
#
# number of rings (size 3 to 8) (size 9 to 14) (size 15 to 20)
#    0.000    1.500    3.750    1.125    3.500    4.500 
#    2.250    1.250    0.000    0.000    0.000    0.000 
#    0.000    0.000    0.000    0.000    0.000    0.000 
#
# Total GULP energy -178875.818668 kJ/mol
# GULP energy per Si atom -5589.869333 kJ/mol
# Density = 2.185540 g / cm^3
# Si number density = 21.905259 Si / 1000 Ang^3
#
#
#
# Elastic Constant Matrix: (Units=GPa)
#
#
# Indices 1 2 3 4 5 6 
#
# 1 74.4385 -5.7148 5.1945 0.0000 12.2079 0.0000
# 2 -5.7148 30.7714 2.8802 0.0000 10.7320 0.0000
# 3 5.1945 2.8802 46.0403 0.0000 19.9820 0.0000
# 4 0.0000 0.0000 0.0000 16.5535 0.0000 6.7124
# 5 12.2079 10.7320 19.9820 0.0000 43.7798 0.0000
# 6 0.0000 0.0000 0.0000 6.7124 0.0000 19.4068
#
#
#
# Elastic Compliance Matrix: (Units=1/GPa)
#
#
# Indices 1 2 3 4 5 6 
#
# 1 0.014639 0.004558 0.000399 0.000000 -0.005381 0.000000
# 2 0.004558 0.037095 0.002074 0.000000 -0.011311 0.000000
# 3 0.000399 0.002074 0.027203 0.000000 -0.013036 0.000000
# 4 0.000000 0.000000 0.000000 0.070265 0.000000 -0.024303
# 5 -0.005381 -0.011311 -0.013036 0.000000 0.033065 0.000000
# 6 0.000000 0.000000 0.000000 -0.024303 0.000000 0.059934
#
#
# Mechanical properties :
#
#
# Convention : Reuss Voigt Hill
#
# Bulk Modulus (GPa) = 10.75284 17.33002 14.04143
# Shear Modulus (GPa) = 19.29474 25.87402 22.58438
#
# Velocity S-wave (km/s) = 2.97109 3.44056 3.21441
# Velocity P-wave (km/s) = 4.08525 4.86947 4.49450
#
# Compressibility (1/GPa) = 0.09299869
#
# Stress axis : x y z
#
# Youngs Moduli (GPa) = 68.31283 26.95785 36.76070
#
# Poissons Ratio (x) = -0.12288 -0.01466
# Poissons Ratio (y) = -0.31138 -0.07625
# Poissons Ratio (z) = -0.02724 -0.05592
#
# Static dielectric constant tensor:
#      x y z
#    x 1.825260 0.000000 -0.009550 
#    y 0.000000 1.809910 0.000000 
#    z -0.009550 0.000000 1.794650 
# 
# From -- ./inp_files/53743.got.cif
#   From: 2010.05.17/outbox.cif.g08.bks.cpg/sg13_27_cif.got.tgz:53743.got - 2010.06.03 16:44:36.
