data_PCOD9234594
_publ_section_title
;
Structure prediction by ZEFSAII (Michael W. Deem and Ramdas Pophale) SiO2 
 PCOD9234594
Probable space group: P 2/C
;
_chemical_formula_sum "Si O2"
_cell_formula_units_Z 24
_cell_length_a 19.217184
_cell_length_b 5.248506
_cell_length_c 11.525287
_cell_angle_alpha 90.000000
_cell_angle_beta 124.549628
_cell_angle_gamma 90.000000
_cell_volume 957.441248
_symmetry_space_group_name_H-M "P 2/C"
_symmetry_group_IT_number 13
_symmetry_cell_setting 'monoclinic'
loop_
_space_group_symop_operation_xyz
x,y,z
-x,y,1/2-z
-x,-y,-z
x,-y,1/2+z
loop_
_atom_site_type_symbol
_atom_site_label
_atom_site_fract_x
_atom_site_fract_y
_atom_site_fract_z
Si Si1 0.168685 0.151782 0.816614
Si Si2 0.777698 0.628189 0.520907
Si Si3 0.000000 0.963504 0.250000
Si Si4 0.368403 0.521841 0.796126
Si Si5 0.406913 0.983077 0.466586
Si Si6 0.500000 0.755719 0.750000
Si Si7 0.067574 0.305482 0.504785
O O1 0.126594 0.150072 0.650659
O O2 0.086073 0.182546 0.819277
O O3 0.218249 0.412891 0.877183
O O4 0.217495 0.906310 0.913130
O O5 0.701065 0.548468 0.365617
O O6 0.860736 0.607549 0.518069
O O7 0.007459 0.132137 0.370654
O O8 0.371878 0.275833 0.880193
O O9 0.454141 0.581266 0.803179
O O10 0.358568 0.771897 0.869101
O O11 0.427979 0.933387 0.622005
O O12 0.500000 0.000000 0.500000
O O13 0.000000 0.500000 0.500000
#
# Coordination Sequence:
#
# PCOD9234594 Si02
#       7
#     4   4   2   4   4   2   4
#     4  11  23  42  65  95 128 172 216 265 326 382
#     4  11  26  44  65  97 135 166 215 272 318 387
#     4  10  22  40  64  94 128 166 220 272 310 382
#     4  11  24  44  66  97 134 170 216 267 324 388
#     4  10  22  41  67  98 130 170 218 266 318 389
#     4  10  22  42  70  98 130 174 216 268 330 390
#     4  11  22  42  68  95 129 174 218 267 328 384
#
# _framework density 25.066808999999999
#
# number of rings (size 3 to 8) (size 9 to 14) (size 15 to 20)
#    0.000    1.333    0.000    6.500    0.000   12.000 
#    0.000    6.667    0.000    0.000    0.000    0.000 
#    0.000    0.000    0.000    0.000    0.000    0.000 
#
# Total GULP energy -134151.267539 kJ/mol
# GULP energy per Si atom -5589.636147 kJ/mol
# Density = 2.500976 g / cm^3
# Si number density = 25.066809 Si / 1000 Ang^3
#
#
#
# Elastic Constant Matrix: (Units=GPa)
#
#
# Indices 1 2 3 4 5 6 
#
# 1 78.3629 22.8603 -24.9053 0.0000 3.1100 0.0000
# 2 22.8603 182.1078 98.6779 0.0000 2.5970 0.0000
# 3 -24.9053 98.6779 172.3816 0.0000 4.1786 0.0000
# 4 0.0000 0.0000 0.0000 1857.0335 0.0000 832.0603
# 5 3.1100 2.5970 4.1786 0.0000 36.2517 0.0000
# 6 0.0000 0.0000 0.0000 832.0603 0.0000 390.8458
#
#
#
# Elastic Compliance Matrix: (Units=1/GPa)
#
#
# Indices 1 2 3 4 5 6 
#
# 1 0.015766 -0.004656 0.004982 0.000000 -0.001593 0.000000
# 2 -0.004656 0.009335 -0.006027 0.000000 0.000425 0.000000
# 3 0.004982 -0.006027 0.009999 0.000000 -0.001148 0.000000
# 4 0.000000 0.000000 0.000000 0.011671 0.000000 -0.024845
# 5 -0.001593 0.000425 -0.001148 0.000000 0.027823 0.000000
# 6 0.000000 0.000000 0.000000 -0.024845 0.000000 0.055451
#
#
# Mechanical properties :
#
#
# Convention : Reuss Voigt Hill
#
# Bulk Modulus (GPa) = 42.19823 69.56868 55.88346
# Shear Modulus (GPa) = 33.47913 479.24083 256.35998
#
# Velocity S-wave (km/s) = 3.65855 13.84198 10.12387
# Velocity P-wave (km/s) = 5.89215 16.83095 12.60949
#
# Compressibility (1/GPa) = 0.02369768
#
# Stress axis : x y z
#
# Youngs Moduli (GPa) = 63.42858 107.11929 100.01343
#
# Poissons Ratio (x) = 0.49871 -0.49822
# Poissons Ratio (y) = 0.29530 0.60277
# Poissons Ratio (z) = -0.31597 0.64560
#
# Static dielectric constant tensor:
#      x y z
#    x 2.220380 0.000000 0.108940 
#    y 0.000000 2.009220 0.000000 
#    z 0.108940 0.000000 2.141680 
# 
# From -- ./inp_files/41306.got.cif
#   From: 2010.05.17/outbox.cif.g08.bks.cpg/sg13_21_cif.got.tgz:41306.got - 2010.06.03 16:44:36.
