data_PCOD9234713
_publ_section_title
;
Structure prediction by ZEFSAII (Michael W. Deem and Ramdas Pophale) SiO2 
 PCOD9234713
Probable space group: P 2/C
;
_chemical_formula_sum "Si O2"
_cell_formula_units_Z 16
_cell_length_a 8.878979
_cell_length_b 6.093690
_cell_length_c 20.066158
_cell_angle_alpha 90.000000
_cell_angle_beta 38.763297
_cell_angle_gamma 90.000000
_cell_volume 679.758117
_symmetry_space_group_name_H-M "P 2/C"
_symmetry_group_IT_number 13
_symmetry_cell_setting 'monoclinic'
loop_
_space_group_symop_operation_xyz
x,y,z
-x,y,1/2-z
-x,-y,-z
x,-y,1/2+z
loop_
_atom_site_type_symbol
_atom_site_label
_atom_site_fract_x
_atom_site_fract_y
_atom_site_fract_z
Si Si1 0.751206 0.520698 0.955469
Si Si2 0.790243 0.816924 0.563996
Si Si3 0.473304 0.182392 0.638270
Si Si4 0.000000 0.649024 0.250000
Si Si5 0.500000 0.517674 0.750000
O O1 0.950660 0.502949 0.830449
O O2 0.500000 0.500000 0.000000
O O3 0.805202 0.331255 0.991908
O O4 0.696631 0.739748 0.015434
O O5 0.732688 0.657817 0.646075
O O6 0.540686 0.949183 0.643157
O O7 0.000000 0.000000 0.500000
O O8 0.451602 0.359095 0.704487
O O9 0.229526 0.197764 0.681718
#
# Coordination Sequence:
#
# PCOD9234713 Si02
#       5
#     4   4   4   2   2
#     4   9  22  43  62  98 135 177 222 278 349 408
#     4  11  25  41  70 105 136 178 234 289 348 417
#     4  10  23  43  67  95 140 173 234 276 347 412
#     4  10  22  40  70  90 130 180 216 278 340 406
#     4  10  24  42  68  98 136 182 220 282 350 414
#
# _framework density 23.537787000000002
#
# number of rings (size 3 to 8) (size 9 to 14) (size 15 to 20)
#    0.000    2.000    0.000    0.750   10.500    6.000 
#    0.000   12.500    0.000    0.000    0.000    0.000 
#    0.000    0.000    0.000    0.000    0.000    0.000 
#
# Total GULP energy -89350.659148 kJ/mol
# GULP energy per Si atom -5584.416197 kJ/mol
# Density = 2.348421 g / cm^3
# Si number density = 23.537787 Si / 1000 Ang^3
#
#
#
# Elastic Constant Matrix: (Units=GPa)
#
#
# Indices 1 2 3 4 5 6 
#
# 1 83.3281 29.3082 36.4122 0.0000 1.0854 0.0000
# 2 29.3082 60.5996 30.1383 0.0000 5.0734 0.0000
# 3 36.4122 30.1383 131.6042 0.0000 23.7286 0.0000
# 4 0.0000 0.0000 0.0000 8.1592 0.0000 -15.3075
# 5 1.0854 5.0734 23.7286 0.0000 45.6691 0.0000
# 6 0.0000 0.0000 0.0000 -15.3075 0.0000 28.7515
#
#
#
# Elastic Compliance Matrix: (Units=1/GPa)
#
#
# Indices 1 2 3 4 5 6 
#
# 1 0.015534 -0.006053 -0.003273 0.000000 0.002004 0.000000
# 2 -0.006053 0.020982 -0.003019 0.000000 -0.000618 0.000000
# 3 -0.003273 -0.003019 0.010064 0.000000 -0.004816 0.000000
# 4 0.000000 0.000000 0.000000106.652696 0.000000 56.782486
# 5 0.002004 -0.000618 -0.004816 0.000000 0.024420 0.000000
# 6 0.000000 0.000000 0.000000 56.782486 0.000000 30.266090
#
#
# Mechanical properties :
#
#
# Convention : Reuss Voigt Hill
#
# Bulk Modulus (GPa) = 45.68189 51.91656 48.79922
# Shear Modulus (GPa) = 0.03649 28.49416 14.26532
#
# Velocity S-wave (km/s) = 0.12465 3.48310 2.46450
# Velocity P-wave (km/s) = 4.41257 6.18713 5.37361
#
# Compressibility (1/GPa) = 0.02189051
#
# Stress axis : x y z
#
# Youngs Moduli (GPa) = 64.37602 47.65937 99.36622
#
# Poissons Ratio (x) = 0.28846 0.32523
# Poissons Ratio (y) = 0.38964 0.29998
# Poissons Ratio (z) = 0.21071 0.14388
#
# Static dielectric constant tensor:
#      x y z
#    x 1.993260 0.000000 0.015120 
#    y 0.000000 1.869220 0.000000 
#    z 0.015120 0.000000 1.927710 
# 
# From -- ./inp_files/35068.got.cif
#   From: 2010.05.17/outbox.cif.g08.bks.cpg/sg13_18_cif.got.tgz:35068.got - 2010.06.03 16:44:36.
