data_PCOD9234430
_publ_section_title
;
Structure prediction by ZEFSAII (Michael W. Deem and Ramdas Pophale) SiO2 
 PCOD9234430
Probable space group: P 2/C
;
_chemical_formula_sum "Si O2"
_cell_formula_units_Z 18
_cell_length_a 12.064946
_cell_length_b 10.324489
_cell_length_c 12.277733
_cell_angle_alpha 90.000000
_cell_angle_beta 147.424657
_cell_angle_gamma 90.000000
_cell_volume 823.424510
_symmetry_space_group_name_H-M "P 2/C"
_symmetry_group_IT_number 13
_symmetry_cell_setting 'monoclinic'
loop_
_space_group_symop_operation_xyz
x,y,z
-x,y,1/2-z
-x,-y,-z
x,-y,1/2+z
loop_
_atom_site_type_symbol
_atom_site_label
_atom_site_fract_x
_atom_site_fract_y
_atom_site_fract_z
Si Si1 0.500000 0.103484 0.750000
Si Si2 0.822750 0.923174 0.918058
Si Si3 0.452069 0.766272 0.975489
Si Si4 0.905428 0.689098 0.330508
Si Si5 0.061352 0.391946 0.183554
O O1 0.523027 0.183150 0.880659
O O2 0.700560 0.013769 0.899351
O O3 0.659112 0.871261 0.693347
O O4 0.930768 0.799326 0.062733
O O5 0.000000 0.000000 0.000000
O O6 0.674090 0.729239 0.112570
O O7 0.295367 0.645433 0.849277
O O8 0.962814 0.546367 0.337911
O O9 0.922777 0.673082 0.476220
O O10 0.000000 0.339703 0.250000
#
# Coordination Sequence:
#
# PCOD9234430 Si02
#       5
#     2   4   4   4   4
#     4  12  24  40  68  98 124 182 214 254 330 388
#     4  11  25  43  61  95 132 165 215 267 316 384
#     4  11  23  42  65  92 129 168 219 264 317 383
#     4  10  22  43  62  91 133 162 210 273 315 375
#     4  10  22  39  65  94 121 170 213 261 325 378
#
# _framework density 21.859926999999999
#
# number of rings (size 3 to 8) (size 9 to 14) (size 15 to 20)
#    0.000    1.333    2.222    2.667    3.111    1.778 
#    0.000    0.000    0.000    0.000    0.000    0.000 
#    0.000    0.000    0.000    0.000    0.000    0.000 
#
# Total GULP energy -100718.442164 kJ/mol
# GULP energy per Si atom -5595.469009 kJ/mol
# Density = 2.181017 g / cm^3
# Si number density = 21.859927 Si / 1000 Ang^3
#
#
#
# Elastic Constant Matrix: (Units=GPa)
#
#
# Indices 1 2 3 4 5 6 
#
# 1 46.2603 -13.8786 1.6880 0.0000 4.0120 0.0000
# 2 -13.8786 81.8315 14.1069 0.0000 14.4456 0.0000
# 3 1.6880 14.1069 101.4029 0.0000 16.5693 0.0000
# 4 0.0000 0.0000 0.0000 35.8853 0.0000 11.6759
# 5 4.0120 14.4456 16.5693 0.0000 41.5283 0.0000
# 6 0.0000 0.0000 0.0000 11.6759 0.0000 5.6755
#
#
#
# Elastic Compliance Matrix: (Units=1/GPa)
#
#
# Indices 1 2 3 4 5 6 
#
# 1 0.023363 0.004693 -0.000435 0.000000 -0.003716 0.000000
# 2 0.004693 0.014088 -0.001244 0.000000 -0.004858 0.000000
# 3 -0.000435 -0.001244 0.010659 0.000000 -0.003778 0.000000
# 4 0.000000 0.000000 0.000000 0.084280 0.000000 -0.173384
# 5 -0.003716 -0.004858 -0.003778 0.000000 0.027636 0.000000
# 6 0.000000 0.000000 0.000000 -0.173384 0.000000 0.532888
#
#
# Mechanical properties :
#
#
# Convention : Reuss Voigt Hill
#
# Bulk Modulus (GPa) = 18.47085 25.92524 22.19805
# Shear Modulus (GPa) = 7.09288 31.78971 19.44129
#
# Velocity S-wave (km/s) = 1.80326 3.81759 2.98545
# Velocity P-wave (km/s) = 3.57822 5.59620 4.69687
#
# Compressibility (1/GPa) = 0.05413936
#
# Stress axis : x y z
#
# Youngs Moduli (GPa) = 42.80270 70.98131 93.81443
#
# Poissons Ratio (x) = -0.33314 0.04077
# Poissons Ratio (y) = -0.20089 0.11673
# Poissons Ratio (z) = 0.01860 0.08832
#
# Static dielectric constant tensor:
#      x y z
#    x 1.769450 0.000000 -0.017610 
#    y 0.000000 1.801360 0.000000 
#    z -0.017610 0.000000 1.785800 
# 
# From -- ./inp_files/25702.got.cif
#   From: 2010.05.17/outbox.cif.g08.bks.cpg/sg13_13_cif.got.tgz:25702.got - 2010.06.03 16:44:36.
