data_PCOD9234376
_publ_section_title
;
Structure prediction by ZEFSAII (Michael W. Deem and Ramdas Pophale) SiO2 
 PCOD9234376
Probable space group: P 2/C
;
_chemical_formula_sum "Si O2"
_cell_formula_units_Z 24
_cell_length_a 11.119151
_cell_length_b 12.190994
_cell_length_c 8.626259
_cell_angle_alpha 90.000000
_cell_angle_beta 89.140347
_cell_angle_gamma 90.000000
_cell_volume 1169.188014
_symmetry_space_group_name_H-M "P 2/C"
_symmetry_group_IT_number 13
_symmetry_cell_setting 'monoclinic'
loop_
_space_group_symop_operation_xyz
x,y,z
-x,y,1/2-z
-x,-y,-z
x,-y,1/2+z
loop_
_atom_site_type_symbol
_atom_site_label
_atom_site_fract_x
_atom_site_fract_y
_atom_site_fract_z
Si Si1 0.779711 0.165783 0.640064
Si Si2 0.479835 0.120391 0.935658
Si Si3 0.909544 0.941014 0.621994
Si Si4 0.160846 0.422252 0.367138
Si Si5 0.101912 0.639572 0.519934
Si Si6 0.720814 0.233550 0.984517
O O1 0.657999 0.155774 0.542075
O O2 0.872096 0.239520 0.542107
O O3 0.750814 0.225229 0.801961
O O4 0.829051 0.044775 0.679234
O O5 0.500000 0.118872 0.750000
O O6 0.584400 0.193415 0.007198
O O7 0.500000 0.000000 0.000000
O O8 0.817415 0.849212 0.562884
O O9 0.000000 0.895303 0.750000
O O10 0.000000 0.000000 0.500000
O O11 0.156377 0.551787 0.397619
O O12 0.155287 0.389403 0.187570
O O13 0.264296 0.354430 0.448206
O O14 0.039407 0.380051 0.454942
#
# Coordination Sequence:
#
# PCOD9234376 Si02
#       6
#     4   4   4   4   4   4
#     4  11  23  40  60  86 122 162 201 247 298 354
#     4  10  22  40  60  85 118 164 206 247 293 349
#     4  12  24  35  56  89 122 157 193 246 303 355
#     4  10  22  39  62  91 120 157 196 247 302 360
#     4  10  22  39  63  90 123 155 198 245 303 361
#     4  11  23  39  61  86 123 159 202 248 297 355
#
# _framework density 20.527066000000001
#
# number of rings (size 3 to 8) (size 9 to 14) (size 15 to 20)
#    0.000    1.333    3.333    2.000    4.667    2.667 
#    0.000    0.833    0.000    0.000    0.000    0.000 
#    0.000    0.000    0.000    0.000    0.000    0.000 
#
# Total GULP energy -134141.621290 kJ/mol
# GULP energy per Si atom -5589.234220 kJ/mol
# Density = 2.048035 g / cm^3
# Si number density = 20.527066 Si / 1000 Ang^3
#
#
#
# Elastic Constant Matrix: (Units=GPa)
#
#
# Indices 1 2 3 4 5 6 
#
# 1 83.1574 13.4770 9.0446 0.0000 29.1239 0.0000
# 2 13.4770 80.0155 9.3797 0.0000 11.1011 0.0000
# 3 9.0446 9.3797 27.6817 0.0000 19.6259 0.0000
# 4 0.0000 0.0000 0.0000 29.8358 0.0000 2.7928
# 5 29.1239 11.1011 19.6259 0.0000 30.2400 0.0000
# 6 0.0000 0.0000 0.0000 2.7928 0.0000 29.9143
#
#
#
# Elastic Compliance Matrix: (Units=1/GPa)
#
#
# Indices 1 2 3 4 5 6 
#
# 1 0.020673 -0.001154 0.013804 0.000000 -0.028445 0.000000
# 2 -0.001154 0.013288 -0.002695 0.000000 -0.002018 0.000000
# 3 0.013804 -0.002695 0.076412 0.000000 -0.061896 0.000000
# 4 0.000000 0.000000 0.000000 0.033812 0.000000 -0.003157
# 5 -0.028445 -0.002018 -0.061896 0.000000 0.101376 0.000000
# 6 0.000000 0.000000 0.000000 -0.003157 0.000000 0.033724
#
#
# Mechanical properties :
#
#
# Convention : Reuss Voigt Hill
#
# Bulk Modulus (GPa) = 7.67562 28.29525 17.98544
# Shear Modulus (GPa) = 16.51243 28.59492 22.55367
#
# Velocity S-wave (km/s) = 2.83931 3.73639 3.31830
# Velocity P-wave (km/s) = 3.80740 5.69459 4.84380
#
# Compressibility (1/GPa) = 0.13028265
#
# Stress axis : x y z
#
# Youngs Moduli (GPa) = 48.37159 75.25735 13.08699
#
# Poissons Ratio (x) = 0.08683 -0.18065
# Poissons Ratio (y) = 0.05581 0.03527
# Poissons Ratio (z) = -0.66770 0.20281
#
# Static dielectric constant tensor:
#      x y z
#    x 1.835440 0.000000 -0.010700 
#    y 0.000000 1.718980 0.000000 
#    z -0.010700 0.000000 1.750460 
# 
# From -- ./inp_files/15846.got.cif
#   From: 2010.05.17/outbox.cif.g08.bks.cpg/sg13_8_cif.got.tgz:15846.got - 2010.06.03 16:44:36.
