data_PCOD9234208
_publ_section_title
;
Structure prediction by ZEFSAII (Michael W. Deem and Ramdas Pophale) SiO2 
 PCOD9234208
Probable space group: P 2/C
;
_chemical_formula_sum "Si O2"
_cell_formula_units_Z 14
_cell_length_a 7.777895
_cell_length_b 11.361269
_cell_length_c 7.350254
_cell_angle_alpha 90.000000
_cell_angle_beta 123.479523
_cell_angle_gamma 90.000000
_cell_volume 541.752032
_symmetry_space_group_name_H-M "P 2/C"
_symmetry_group_IT_number 13
_symmetry_cell_setting 'monoclinic'
loop_
_space_group_symop_operation_xyz
x,y,z
-x,y,1/2-z
-x,-y,-z
x,-y,1/2+z
loop_
_atom_site_type_symbol
_atom_site_label
_atom_site_fract_x
_atom_site_fract_y
_atom_site_fract_z
Si Si1 0.165817 0.558627 0.728717
Si Si2 0.000000 0.090880 0.250000
Si Si3 0.560828 0.335828 0.566774
Si Si4 0.711939 0.100411 0.769916
O O1 0.282406 0.442787 0.878877
O O2 0.000000 0.627751 0.750000
O O3 0.000000 0.500000 0.500000
O O4 0.359059 0.644695 0.826217
O O5 0.825721 0.006746 0.239671
O O6 0.124871 0.148931 0.486912
O O7 0.500000 0.346944 0.750000
O O8 0.657925 0.207929 0.605247
O O9 0.500000 0.067774 0.750000
#
# Coordination Sequence:
#
# PCOD9234208 Si02
#       4
#     4   2   4   4
#     4  11  22  39  64  88 131 168 213 263 321 390
#     4  10  22  42  70  96 126 182 212 274 334 386
#     4  10  22  38  61  96 125 168 215 263 322 385
#     4  10  22  41  67  95 134 164 225 269 329 386
#
# _framework density 25.842082999999999
#
# number of rings (size 3 to 8) (size 9 to 14) (size 15 to 20)
#    0.000    1.714    2.857    0.857    2.000    4.571 
#    0.000    0.000   25.143    0.000    0.000    0.000 
#    0.000    0.000    0.000    0.000    0.000    0.000 
#
# Total GULP energy -78150.029512 kJ/mol
# GULP energy per Si atom -5582.144965 kJ/mol
# Density = 2.578327 g / cm^3
# Si number density = 25.842083 Si / 1000 Ang^3
#
#
#
# Elastic Constant Matrix: (Units=GPa)
#
#
# Indices 1 2 3 4 5 6 
#
# 1 115.8001 24.0438 17.8260 0.0000 41.7402 0.0000
# 2 24.0438 66.9781 43.4090 0.0000 24.0096 0.0000
# 3 17.8260 43.4090 227.3826 0.0000 52.9682 0.0000
# 4 0.0000 0.0000 0.0000 44.0383 0.0000 5.2361
# 5 41.7402 24.0096 52.9682 0.0000 46.1795 0.0000
# 6 0.0000 0.0000 0.0000 5.2361 0.0000 -7.4776
#
#
#
# Elastic Compliance Matrix: (Units=1/GPa)
#
#
# Indices 1 2 3 4 5 6 
#
# 1 0.013862 -0.001362 0.002630 0.000000 -0.014837 0.000000
# 2 -0.001362 0.019007 -0.002056 0.000000 -0.006294 0.000000
# 3 0.002630 -0.002056 0.006671 0.000000 -0.008960 0.000000
# 4 0.000000 0.000000 0.000000 0.020962 0.000000 0.014679
# 5 -0.014837 -0.006294 -0.008960 0.000000 0.048615 0.000000
# 6 0.000000 0.000000 0.000000 0.014679 0.000000 -0.123455
#
#
# Mechanical properties :
#
#
# Convention : Reuss Voigt Hill
#
# Bulk Modulus (GPa) = 26.34022 64.52428 45.43225
# Shear Modulus (GPa) = -46946.53118 38.20685 -23454.16217
#
# Velocity S-wave (km/s) = -134.93011 3.84926 -95.37117
# Velocity P-wave (km/s) = 155.77109 6.69169 110.04511
#
# Compressibility (1/GPa) = 0.03796475
#
# Stress axis : x y z
#
# Youngs Moduli (GPa) = 72.14178 52.61085 149.89302
#
# Poissons Ratio (x) = 0.07163 -0.39415
# Poissons Ratio (y) = 0.09823 0.30816
# Poissons Ratio (z) = -0.18970 0.10816
#
# Static dielectric constant tensor:
#      x y z
#    x 2.161030 0.000000 -0.192720 
#    y 0.000000 2.039050 0.000000 
#    z -0.192720 0.000000 2.097300 
# 
# From -- ./inp_files/11446.got.cif
#   From: 2010.05.17/outbox.cif.g08.bks.cpg/sg13_6_cif.got.tgz:11446.got - 2010.06.03 16:44:36.
