data_PCOD9234829
_publ_section_title
;
Structure prediction by ZEFSAII (Michael W. Deem and Ramdas Pophale) SiO2 
 PCOD9234829
Probable space group: P 2/C
;
_chemical_formula_sum "Si O2"
_cell_formula_units_Z 24
_cell_length_a 21.537108
_cell_length_b 7.783391
_cell_length_c 8.078419
_cell_angle_alpha 90.000000
_cell_angle_beta 138.606539
_cell_angle_gamma 90.000000
_cell_volume 895.432178
_symmetry_space_group_name_H-M "P 2/C"
_symmetry_group_IT_number 13
_symmetry_cell_setting 'monoclinic'
loop_
_space_group_symop_operation_xyz
x,y,z
-x,y,1/2-z
-x,-y,-z
x,-y,1/2+z
loop_
_atom_site_type_symbol
_atom_site_label
_atom_site_fract_x
_atom_site_fract_y
_atom_site_fract_z
Si Si1 0.607444 0.834864 0.122676
Si Si2 0.437502 0.760715 0.967371
Si Si3 0.729934 0.692351 0.664992
Si Si4 0.937502 0.239285 0.282637
Si Si5 0.107444 0.834864 0.307098
Si Si6 0.770066 0.692351 0.245255
O O1 0.509094 0.735846 0.958135
O O2 0.671531 0.797663 0.412439
O O3 0.673048 0.782211 0.102004
O O4 0.582837 0.035029 0.063946
O O5 0.500000 0.709056 0.250000
O O6 0.337203 0.678963 0.805663
O O7 0.750000 0.500000 0.652727
O O8 0.826952 0.782211 0.909811
O O9 0.000000 0.290943 0.250000
O O10 0.009094 0.264154 0.578241
O O11 0.917163 0.035029 0.232598
O O12 0.837203 0.321037 0.043149
O O13 0.171532 0.797663 0.273688
#
# Coordination Sequence:
#
# PCOD9234829 Si02
#       6
#     4   4   4   4   4   4
#     4  10  22  41  65  92 126 168 218 266 317 380
#     4   9  21  41  65  94 125 167 220 266 313 381
#     4  11  23  40  64  96 132 167 208 266 328 383
#     4   9  21  41  65  94 125 167 220 266 313 381
#     4  10  22  41  65  92 126 168 218 266 317 380
#     4  11  23  40  64  96 132 167 208 266 328 383
#
# _framework density 26.802700999999999
#
# number of rings (size 3 to 8) (size 9 to 14) (size 15 to 20)
#    0.000    2.000    0.000    2.000    0.000   14.667 
#    0.000    8.333    0.000    0.000    0.000    0.000 
#    0.000    0.000    0.000    0.000    0.000    0.000 
#
# Total GULP energy -134481.476877 kJ/mol
# GULP energy per Si atom -5603.394870 kJ/mol
# Density = 2.674170 g / cm^3
# Si number density = 26.802701 Si / 1000 Ang^3
#
#
#
# Elastic Constant Matrix: (Units=GPa)
#
#
# Indices 1 2 3 4 5 6 
#
# 1 113.9283 5.7520 16.0563 0.0000 29.3947 0.0000
# 2 5.7520 38.8140 4.1252 0.0000 -1.3010 0.0000
# 3 16.0563 4.1252 166.8472 0.0000 12.8773 0.0000
# 4 0.0000 0.0000 0.0000 -13.3345 0.0000 -19.8333
# 5 29.3947 -1.3010 12.8773 0.0000 54.1386 0.0000
# 6 0.0000 0.0000 0.0000 -19.8333 0.0000 11.4914
#
#
#
# Elastic Compliance Matrix: (Units=1/GPa)
#
#
# Indices 1 2 3 4 5 6 
#
# 1 0.010366 -0.001666 -0.000529 0.000000 -0.005543 0.000000
# 2 -0.001666 0.026132 -0.000615 0.000000 0.001679 0.000000
# 3 -0.000529 -0.000615 0.006152 0.000000 -0.001191 0.000000
# 4 0.000000 0.000000 0.000000 -0.021024 0.000000 -0.036285
# 5 -0.005543 0.001679 -0.001191 0.000000 0.021804 0.000000
# 6 0.000000 0.000000 0.000000 -0.036285 0.000000 0.024396
#
#
# Mechanical properties :
#
#
# Convention : Reuss Voigt Hill
#
# Bulk Modulus (GPa) = 27.00478 41.27295 34.13886
# Shear Modulus (GPa) = 58.28241 30.03617 44.15929
#
# Velocity S-wave (km/s) = 4.66821 3.35123 4.06343
# Velocity P-wave (km/s) = 6.25728 5.51421 5.89746
#
# Compressibility (1/GPa) = 0.03703049
#
# Stress axis : x y z
#
# Youngs Moduli (GPa) = 96.46831 38.26659 162.56169
#
# Poissons Ratio (x) = 0.06374 0.08593
# Poissons Ratio (y) = 0.16070 0.10004
# Poissons Ratio (z) = 0.05099 0.02355
#
# Static dielectric constant tensor:
#      x y z
#    x 2.192850 0.000000 -0.056450 
#    y 0.000000 1.968520 0.000000 
#    z -0.056450 0.000000 2.122200 
# 
# From -- ./inp_files/42214.got.cif
#   From: 2010.05.17/outbox.cif.g08.bks.cpg/sg13_22_cif.got.tgz:42214.got - 2010.06.03 16:44:36.
