data_PCOD9234183
_publ_section_title
;
Structure prediction by ZEFSAII (Michael W. Deem and Ramdas Pophale) SiO2 
 PCOD9234183
Probable space group: P 2/C
;
_chemical_formula_sum "Si O2"
_cell_formula_units_Z 26
_cell_length_a 15.370311
_cell_length_b 8.184842
_cell_length_c 8.362750
_cell_angle_alpha 90.000000
_cell_angle_beta 97.766573
_cell_angle_gamma 90.000000
_cell_volume 1042.413041
_symmetry_space_group_name_H-M "P 2/C"
_symmetry_group_IT_number 13
_symmetry_cell_setting 'monoclinic'
loop_
_space_group_symop_operation_xyz
x,y,z
-x,y,1/2-z
-x,-y,-z
x,-y,1/2+z
loop_
_atom_site_type_symbol
_atom_site_label
_atom_site_fract_x
_atom_site_fract_y
_atom_site_fract_z
Si Si1 0.198137 0.849433 0.755895
Si Si2 0.734600 0.448496 0.428106
Si Si3 0.629527 0.651610 0.197904
Si Si4 0.299494 0.056857 0.578220
Si Si5 0.000000 0.399406 0.750000
Si Si6 0.104910 0.671517 0.975456
Si Si7 0.541696 0.162917 0.431331
O O1 0.212996 0.685946 0.658399
O O2 0.208902 0.001856 0.640619
O O3 0.279157 0.878253 0.897727
O O4 0.115783 0.816716 0.849994
O O5 0.642828 0.501464 0.321718
O O6 0.709636 0.386382 0.596413
O O7 0.797644 0.605992 0.456634
O O8 0.648151 0.814057 0.303786
O O9 0.546463 0.695091 0.066212
O O10 0.358704 0.895536 0.577182
O O11 0.937321 0.520007 0.632710
O O12 0.947782 0.301751 0.873987
O O13 0.500000 0.200646 0.250000
O O14 0.500000 0.000000 0.500000
#
# Coordination Sequence:
#
# PCOD9234183 Si02
#       7
#     4   4   4   4   2   4   4
#     4  12  22  40  66 101 126 165 219 275 316 366
#     4  12  22  40  68 100 129 159 218 287 319 350
#     4  12  23  41  67  97 129 165 217 279 318 382
#     4  12  23  41  68  95 125 169 221 272 314 389
#     4  10  22  38  60 102 132 174 204 250 322 414
#     4  11  21  38  66  98 130 166 209 263 320 378
#     4  12  24  42  66  90 127 173 217 256 328 405
#
# _framework density 24.942126999999999
#
# number of rings (size 3 to 8) (size 9 to 14) (size 15 to 20)
#    0.000    0.308    9.231    0.000    0.000    0.000 
#    0.000    0.769    0.000    2.769    0.000    0.000 
#    0.000    0.000    0.000    0.000    0.000    0.000 
#
# Total GULP energy -145401.527801 kJ/mol
# GULP energy per Si atom -5592.366454 kJ/mol
# Density = 2.488536 g / cm^3
# Si number density = 24.942127 Si / 1000 Ang^3
#
#
#
# Elastic Constant Matrix: (Units=GPa)
#
#
# Indices 1 2 3 4 5 6 
#
# 1 58.9221 -1.8201 4.7911 0.0000 -18.2811 0.0000
# 2 -1.8201 34.3263 15.1974 0.0000 -6.9339 0.0000
# 3 4.7911 15.1974 105.7853 0.0000 -4.3620 0.0000
# 4 0.0000 0.0000 0.0000 44.1224 0.0000 -6.5221
# 5 -18.2811 -6.9339 -4.3620 0.0000 54.9623 0.0000
# 6 0.0000 0.0000 0.0000 -6.5221 0.0000 33.8992
#
#
#
# Elastic Compliance Matrix: (Units=1/GPa)
#
#
# Indices 1 2 3 4 5 6 
#
# 1 0.019207 0.002806 -0.000998 0.000000 0.006663 0.000000
# 2 0.002806 0.032240 -0.004568 0.000000 0.004638 0.000000
# 3 -0.000998 -0.004568 0.010150 0.000000 -0.000103 0.000000
# 4 0.000000 0.000000 0.000000 0.023328 0.000000 0.004488
# 5 0.006663 0.004638 -0.000103 0.000000 0.020988 0.000000
# 6 0.000000 0.000000 0.000000 0.004488 0.000000 0.030363
#
#
# Mechanical properties :
#
#
# Convention : Reuss Voigt Hill
#
# Bulk Modulus (GPa) = 17.83224 26.15226 21.99225
# Shear Modulus (GPa) = 31.15522 38.65448 34.90485
#
# Velocity S-wave (km/s) = 3.53810 3.94098 3.74496
# Velocity P-wave (km/s) = 4.88424 5.58716 5.24748
#
# Compressibility (1/GPa) = 0.05607821
#
# Stress axis : x y z
#
# Youngs Moduli (GPa) = 52.06502 31.01724 98.51950
#
# Poissons Ratio (x) = -0.08705 0.09835
# Poissons Ratio (y) = -0.14611 0.44999
# Poissons Ratio (z) = 0.05198 0.14167
#
# Static dielectric constant tensor:
#      x y z
#    x 2.066130 0.000000 0.004980 
#    y 0.000000 1.959690 0.000000 
#    z 0.004980 0.000000 1.958640 
# 
# From -- ./inp_files/21120.got.cif
#   From: 2010.05.17/outbox.cif.g08.bks.cpg/sg13_11_cif.got.tgz:21120.got - 2010.06.03 16:44:36.
