data_PCOD9234152
_publ_section_title
;
Structure prediction by ZEFSAII (Michael W. Deem and Ramdas Pophale) SiO2 
 PCOD9234152
Probable space group: P 2/C
;
_chemical_formula_sum "Si O2"
_cell_formula_units_Z 22
_cell_length_a 26.118252
_cell_length_b 5.019902
_cell_length_c 13.778032
_cell_angle_alpha 90.000000
_cell_angle_beta 32.720382
_cell_angle_gamma 90.000000
_cell_volume 976.459159
_symmetry_space_group_name_H-M "P 2/C"
_symmetry_group_IT_number 13
_symmetry_cell_setting 'monoclinic'
loop_
_space_group_symop_operation_xyz
x,y,z
-x,y,1/2-z
-x,-y,-z
x,-y,1/2+z
loop_
_atom_site_type_symbol
_atom_site_label
_atom_site_fract_x
_atom_site_fract_y
_atom_site_fract_z
Si Si1 0.000000 0.995454 0.750000
Si Si2 0.428804 0.322270 0.515087
Si Si3 0.951694 0.250110 0.528281
Si Si4 0.194608 0.717427 0.946391
Si Si5 0.761629 0.784062 0.250233
Si Si6 0.614901 0.178000 0.286811
O O1 0.025087 0.804412 0.621042
O O2 0.088804 0.184544 0.636418
O O3 0.349567 0.272456 0.560068
O O4 0.538608 0.247876 0.325730
O O5 0.416241 0.619300 0.576416
O O6 0.398554 0.119332 0.650831
O O7 0.837780 0.263070 0.712846
O O8 0.000000 0.500000 0.500000
O O9 0.000000 0.000000 0.500000
O O10 0.206981 0.420096 0.886336
O O11 0.273775 0.768064 0.902322
O O12 0.225176 0.915816 0.809437
#
# Coordination Sequence:
#
# PCOD9234152 Si02
#       6
#     2   4   4   4   4   4
#     4  10  22  38  56  78 112 146 182 232 278 320
#     4   8  13  22  39  61  94 126 157 206 254 298
#     4  11  23  37  55  79 108 143 185 226 274 333
#     4   9  17  28  47  70 100 136 171 212 263 315
#     4   9  17  30  46  70 100 133 171 215 262 316
#     4   8  13  22  37  64  93 124 163 203 249 308
#
# _framework density 22.530386
#
# number of rings (size 3 to 8) (size 9 to 14) (size 15 to 20)
#    0.000    2.909    0.000    2.182    0.000    6.545 
#    0.000    0.000    0.000    0.000    0.000    1.273 
#    0.000    5.818    0.000    0.000    0.000    1.455 
#
# Total GULP energy -122646.420549 kJ/mol
# GULP energy per Si atom -5574.837298 kJ/mol
# Density = 2.247911 g / cm^3
# Si number density = 22.530386 Si / 1000 Ang^3
#
#
#
# Elastic Constant Matrix: (Units=GPa)
#
#
# Indices 1 2 3 4 5 6 
#
# 1 139.7565 27.1955 77.2032 0.0000 -71.4203 0.0000
# 2 27.1955 114.3321 10.7863 0.0000 -6.6711 0.0000
# 3 77.2032 10.7863 97.7200 0.0000 -44.1297 0.0000
# 4 0.0000 0.0000 0.0000 21.2205 0.0000 -17.0872
# 5 -71.4203 -6.6711 -44.1297 0.0000 71.4858 0.0000
# 6 0.0000 0.0000 0.0000 -17.0872 0.0000 32.8005
#
#
#
# Elastic Compliance Matrix: (Units=1/GPa)
#
#
# Indices 1 2 3 4 5 6 
#
# 1 0.019934 -0.003067 -0.009076 0.000000 0.014027 0.000000
# 2 -0.003067 0.009315 0.000560 0.000000 -0.001849 0.000000
# 3 -0.009076 0.000560 0.018400 0.000000 0.002344 0.000000
# 4 0.000000 0.000000 0.000000 0.081176 0.000000 0.042288
# 5 0.014027 -0.001849 0.002344 0.000000 0.029277 0.000000
# 6 0.000000 0.000000 0.000000 0.042288 0.000000 0.052517
#
#
# Mechanical properties :
#
#
# Convention : Reuss Voigt Hill
#
# Bulk Modulus (GPa) = 40.84427 64.68649 52.76538
# Shear Modulus (GPa) = 20.66585 40.87627 30.77106
#
# Velocity S-wave (km/s) = 3.03189 4.26405 3.69963
# Velocity P-wave (km/s) = 5.51583 7.28120 6.45911
#
# Compressibility (1/GPa) = 0.02448324
#
# Stress axis : x y z
#
# Youngs Moduli (GPa) = 50.16641 107.35086 54.34745
#
# Poissons Ratio (x) = 0.32923 0.49324
# Poissons Ratio (y) = 0.15385 -0.03041
# Poissons Ratio (z) = 0.45529 -0.06008
#
# Static dielectric constant tensor:
#      x y z
#    x 1.926440 0.000000 -0.075850 
#    y 0.000000 1.763830 0.000000 
#    z -0.075850 0.000000 1.922070 
# 
# From -- ./inp_files/54356.got.cif
#   From: 2010.05.17/outbox.cif.g08.bks.cpg/sg13_28_cif.got.tgz:54356.got - 2010.06.03 16:44:36.
