data_PCOD9234316
_publ_section_title
;
Structure prediction by ZEFSAII (Michael W. Deem and Ramdas Pophale) SiO2 
 PCOD9234316
Probable space group: P 2/C
;
_chemical_formula_sum "Si O2"
_cell_formula_units_Z 24
_cell_length_a 8.769250
_cell_length_b 9.870363
_cell_length_c 14.256901
_cell_angle_alpha 90.000000
_cell_angle_beta 58.854271
_cell_angle_gamma 90.000000
_cell_volume 1056.138019
_symmetry_space_group_name_H-M "P 2/C"
_symmetry_group_IT_number 13
_symmetry_cell_setting 'monoclinic'
loop_
_space_group_symop_operation_xyz
x,y,z
-x,y,1/2-z
-x,-y,-z
x,-y,1/2+z
loop_
_atom_site_type_symbol
_atom_site_label
_atom_site_fract_x
_atom_site_fract_y
_atom_site_fract_z
Si Si1 0.131661 0.617349 0.428481
Si Si2 0.186635 0.784218 0.732976
Si Si3 0.207091 0.528710 0.206138
Si Si4 0.889994 0.860350 0.528209
Si Si5 0.485341 0.279744 0.870992
Si Si6 0.513393 0.032104 0.131186
O O1 0.225715 0.550879 0.310609
O O2 0.287021 0.661159 0.449768
O O3 0.000000 0.500000 0.500000
O O4 0.016741 0.749986 0.439238
O O5 0.225879 0.631519 0.686609
O O6 0.155542 0.795863 0.855194
O O7 0.345379 0.881491 0.653390
O O8 0.000000 0.829383 0.750000
O O9 0.364906 0.629397 0.124351
O O10 0.000000 0.564401 0.250000
O O11 0.699976 0.898563 0.545266
O O12 0.000000 0.000000 0.500000
O O13 0.500000 0.274253 0.750000
O O14 0.495811 0.123397 0.896234
O O15 0.500000 0.032311 0.250000
#
# Coordination Sequence:
#
# PCOD9234316 Si02
#       6
#     4   4   4   4   4   4
#     4  11  21  36  60  86 110 146 189 232 277 327
#     4  10  22  39  58  82 114 151 187 227 280 338
#     4  10  22  39  57  82 115 150 187 230 279 334
#     4  11  21  38  60  84 115 145 186 237 277 326
#     4   9  19  35  56  82 112 147 187 225 273 339
#     4   9  19  35  57  81 109 150 188 223 275 340
#
# _framework density 22.724301000000001
#
# number of rings (size 3 to 8) (size 9 to 14) (size 15 to 20)
#    0.000    2.000    3.333    0.000    4.667    2.667 
#    0.000    3.333    0.000    0.000    0.000    0.000 
#    0.000    0.000    0.000    0.000    0.000    0.000 
#
# Total GULP energy -133981.233769 kJ/mol
# GULP energy per Si atom -5582.551407 kJ/mol
# Density = 2.267258 g / cm^3
# Si number density = 22.724301 Si / 1000 Ang^3
#
#
#
# Elastic Constant Matrix: (Units=GPa)
#
#
# Indices 1 2 3 4 5 6 
#
# 1 138.9827 88.7452 29.3795 0.0000 -61.2993 0.0000
# 2 88.7452 146.3924 29.8633 0.0000 -54.5510 0.0000
# 3 29.3795 29.8633 47.1929 0.0000 -17.4457 0.0000
# 4 0.0000 0.0000 0.0000 -3.4842 0.0000 -4.1939
# 5 -61.2993 -54.5510 -17.4457 0.0000 61.5270 0.0000
# 6 0.0000 0.0000 0.0000 -4.1939 0.0000 23.8434
#
#
#
# Elastic Compliance Matrix: (Units=1/GPa)
#
#
# Indices 1 2 3 4 5 6 
#
# 1 0.015471 -0.005035 -0.002678 0.000000 0.010190 0.000000
# 2 -0.005035 0.012377 -0.002788 0.000000 0.005167 0.000000
# 3 -0.002678 -0.002788 0.025381 0.000000 0.002057 0.000000
# 4 0.000000 0.000000 0.000000 -0.236861 0.000000 -0.041663
# 5 0.010190 0.005167 0.002057 0.000000 0.031570 0.000000
# 6 0.000000 0.000000 0.000000 -0.041663 0.000000 0.034612
#
#
# Mechanical properties :
#
#
# Convention : Reuss Voigt Hill
#
# Bulk Modulus (GPa) = 31.02930 69.83823 50.43377
# Shear Modulus (GPa) = -58.33890 28.68259 -14.82815
#
# Velocity S-wave (km/s) = -5.07230 3.55660 -2.55723
# Velocity P-wave (km/s) = 4.54092 6.90401 3.67733
#
# Compressibility (1/GPa) = 0.03222761
#
# Stress axis : x y z
#
# Youngs Moduli (GPa) = 64.63850 80.79198 39.39922
#
# Poissons Ratio (x) = 0.40680 0.10551
# Poissons Ratio (y) = 0.32546 0.10983
# Poissons Ratio (z) = 0.17311 0.22522
#
# Static dielectric constant tensor:
#      x y z
#    x 1.873860 0.000000 -0.002240 
#    y 0.000000 1.843230 0.000000 
#    z -0.002240 0.000000 2.077580 
# 
# From -- ./inp_files/68316.got.cif
#   From: 2010.05.17/outbox.cif.g08.bks.cpg/sg13_35_cif.got.tgz:68316.got - 2010.06.03 16:44:36.
