data_PCOD9234487
_publ_section_title
;
Structure prediction by ZEFSAII (Michael W. Deem and Ramdas Pophale) SiO2 
 PCOD9234487
Probable space group: P 2/C
;
_chemical_formula_sum "Si O2"
_cell_formula_units_Z 16
_cell_length_a 11.894544
_cell_length_b 12.851531
_cell_length_c 14.270884
_cell_angle_alpha 90.000000
_cell_angle_beta 160.453341
_cell_angle_gamma 90.000000
_cell_volume 729.871219
_symmetry_space_group_name_H-M "P 2/C"
_symmetry_group_IT_number 13
_symmetry_cell_setting 'monoclinic'
loop_
_space_group_symop_operation_xyz
x,y,z
-x,y,1/2-z
-x,-y,-z
x,-y,1/2+z
loop_
_atom_site_type_symbol
_atom_site_label
_atom_site_fract_x
_atom_site_fract_y
_atom_site_fract_z
Si Si1 0.727669 0.694630 0.649479
Si Si2 0.000000 0.122609 0.250000
Si Si3 0.500000 0.019050 0.250000
Si Si4 0.291274 0.560348 0.171519
Si Si5 0.601890 0.216347 0.428447
O O1 0.550017 0.604993 0.450507
O O2 0.529439 0.719957 0.587861
O O3 0.748598 0.799619 0.605778
O O4 0.095871 0.655759 0.967916
O O5 0.193998 0.051785 0.477082
O O6 0.437455 0.101235 0.285928
O O7 0.500000 0.508352 0.250000
O O8 0.000000 0.500000 0.000000
O O9 0.500000 0.268107 0.250000
O O10 0.000000 0.202808 0.750000
#
# Coordination Sequence:
#
# PCOD9234487 Si02
#       5
#     4   2   2   4   4
#     4  12  25  44  72  98 138 179 225 283 343 409
#     4  12  22  40  68  94 138 186 222 286 328 398
#     4  10  22  40  60 102 138 182 236 270 332 384
#     4  12  26  48  72 106 135 174 229 288 355 425
#     4  10  22  43  61  99 142 177 239 271 328 402
#
# _framework density 21.921673999999999
#
# number of rings (size 3 to 8) (size 9 to 14) (size 15 to 20)
#    0.750    0.000    3.750    3.750    0.000    5.000 
#    0.000    0.000    0.000    0.000    0.000    0.000 
#    0.000    0.000    0.000    0.000    0.000    0.000 
#
# Total GULP energy -89369.141578 kJ/mol
# GULP energy per Si atom -5585.571349 kJ/mol
# Density = 2.187178 g / cm^3
# Si number density = 21.921674 Si / 1000 Ang^3
#
#
#
# Elastic Constant Matrix: (Units=GPa)
#
#
# Indices 1 2 3 4 5 6 
#
# 1 171.6682 40.4497 36.2119 0.0000 5.2390 0.0000
# 2 40.4497 68.3371 13.5204 0.0000 -0.2079 0.0000
# 3 36.2119 13.5204 100.1285 0.0000 -19.3079 0.0000
# 4 0.0000 0.0000 0.0000 162.2430 0.0000 17.2711
# 5 5.2390 -0.2079 -19.3079 0.0000 36.0349 0.0000
# 6 0.0000 0.0000 0.0000 17.2711 0.0000 22.5224
#
#
#
# Elastic Compliance Matrix: (Units=1/GPa)
#
#
# Indices 1 2 3 4 5 6 
#
# 1 0.007361 -0.003846 -0.002625 0.000000 -0.002499 0.000000
# 2 -0.003846 0.017084 -0.000880 0.000000 0.000186 0.000000
# 3 -0.002625 -0.000880 0.012410 0.000000 0.007026 0.000000
# 4 0.000000 0.000000 0.000000 0.006711 0.000000 -0.005147
# 5 -0.002499 0.000186 0.007026 0.000000 0.031880 0.000000
# 6 0.000000 0.000000 0.000000 -0.005147 0.000000 0.048347
#
#
# Mechanical properties :
#
#
# Convention : Reuss Voigt Hill
#
# Bulk Modulus (GPa) = 45.13767 57.83311 51.48539
# Shear Modulus (GPa) = 34.27480 60.82352 47.54916
#
# Velocity S-wave (km/s) = 3.95842 5.27315 4.66236
# Velocity P-wave (km/s) = 6.44416 7.96955 7.24710
#
# Compressibility (1/GPa) = 0.02215444
#
# Stress axis : x y z
#
# Youngs Moduli (GPa) = 135.84665 58.53329 80.57930
#
# Poissons Ratio (x) = 0.22509 0.21151
# Poissons Ratio (y) = 0.52240 0.07093
# Poissons Ratio (z) = 0.35657 0.05153
#
# Static dielectric constant tensor:
#      x y z
#    x 1.749730 0.000000 -0.013750 
#    y 0.000000 1.823190 0.000000 
#    z -0.013750 0.000000 1.753650 
# 
# From -- ./inp_files/25513.got.cif
#   From: 2010.05.17/outbox.cif.g08.bks.cpg/sg13_13_cif.got.tgz:25513.got - 2010.06.03 16:44:36.
