data_PCOD9234317
_publ_section_title
;
Structure prediction by ZEFSAII (Michael W. Deem and Ramdas Pophale) SiO2 
 PCOD9234317
Probable space group: P 2/C
;
_chemical_formula_sum "Si O2"
_cell_formula_units_Z 24
_cell_length_a 9.352338
_cell_length_b 8.161375
_cell_length_c 22.077428
_cell_angle_alpha 90.000000
_cell_angle_beta 138.441866
_cell_angle_gamma 90.000000
_cell_volume 1117.877280
_symmetry_space_group_name_H-M "P 2/C"
_symmetry_group_IT_number 13
_symmetry_cell_setting 'monoclinic'
loop_
_space_group_symop_operation_xyz
x,y,z
-x,y,1/2-z
-x,-y,-z
x,-y,1/2+z
loop_
_atom_site_type_symbol
_atom_site_label
_atom_site_fract_x
_atom_site_fract_y
_atom_site_fract_z
Si Si1 0.036107 0.833608 0.587593
Si Si2 0.005230 0.917935 0.180545
Si Si3 0.576382 0.763653 0.994116
Si Si4 0.649190 0.045212 0.404211
Si Si5 0.419286 0.723386 0.289542
Si Si6 0.315559 0.595989 0.014060
O O1 0.926058 0.656704 0.551249
O O2 0.245285 0.837131 0.611887
O O3 0.852075 0.951659 0.499631
O O4 0.074423 0.922540 0.663775
O O5 0.166399 0.765794 0.215677
O O6 0.000000 0.947976 0.250000
O O7 0.765218 0.864392 0.086025
O O8 0.396818 0.717709 0.986166
O O9 0.518283 0.863846 0.915344
O O10 0.669251 0.589084 0.002404
O O11 0.520375 0.903839 0.330435
O O12 0.500000 0.660675 0.250000
O O13 0.524601 0.622544 0.378265
#
# Coordination Sequence:
#
# PCOD9234317 Si02
#       6
#     4   4   4   4   4   4
#     4   9  19  35  56  82 108 144 187 227 278 338
#     4  11  21  36  60  86 111 148 194 244 286 329
#     4  10  22  39  57  83 118 155 192 227 281 350
#     4   9  19  35  57  81 109 143 185 231 276 338
#     4  11  21  38  60  84 115 146 189 246 290 327
#     4  10  22  39  58  82 117 158 189 227 283 349
#
# _framework density 21.469260999999999
#
# number of rings (size 3 to 8) (size 9 to 14) (size 15 to 20)
#    0.000    2.000    3.333    0.000    4.667    2.667 
#    0.000    3.333    0.000    0.000    0.000    0.000 
#    0.000    0.000    0.000    0.000    0.000    0.000 
#
# Total GULP energy -134037.517073 kJ/mol
# GULP energy per Si atom -5584.896545 kJ/mol
# Density = 2.142040 g / cm^3
# Si number density = 21.469261 Si / 1000 Ang^3
#
#
#
# Elastic Constant Matrix: (Units=GPa)
#
#
# Indices 1 2 3 4 5 6 
#
# 1 64.2071 8.8913 14.6084 0.0000 -25.2557 0.0000
# 2 8.8913 34.5645 7.3645 0.0000 -10.2175 0.0000
# 3 14.6084 7.3645 45.8171 0.0000 -20.9117 0.0000
# 4 0.0000 0.0000 0.0000 36.2624 0.0000 -29.4337
# 5 -25.2557 -10.2175 -20.9117 0.0000 31.6157 0.0000
# 6 0.0000 0.0000 0.0000 -29.4337 0.0000 47.9062
#
#
#
# Elastic Compliance Matrix: (Units=1/GPa)
#
#
# Indices 1 2 3 4 5 6 
#
# 1 0.022792 -0.000561 0.001505 0.000000 0.019021 0.000000
# 2 -0.000561 0.032013 -0.000644 0.000000 0.009472 0.000000
# 3 0.001505 -0.000644 0.031375 0.000000 0.021746 0.000000
# 4 0.000000 0.000000 0.000000 0.055011 0.000000 0.033799
# 5 0.019021 0.009472 0.021746 0.000000 0.064269 0.000000
# 6 0.000000 0.000000 0.000000 0.033799 0.000000 0.041640
#
#
# Mechanical properties :
#
#
# Convention : Reuss Voigt Hill
#
# Bulk Modulus (GPa) = 11.52341 22.92413 17.22377
# Shear Modulus (GPa) = 18.15368 30.73848 24.44608
#
# Velocity S-wave (km/s) = 2.91102 3.78794 3.37806
# Velocity P-wave (km/s) = 4.08384 5.46189 4.82234
#
# Compressibility (1/GPa) = 0.08677988
#
# Stress axis : x y z
#
# Youngs Moduli (GPa) = 43.87566 31.23745 31.87243
#
# Poissons Ratio (x) = 0.01752 -0.04795
# Poissons Ratio (y) = 0.02461 0.02051
# Poissons Ratio (z) = -0.06601 0.02010
#
# Static dielectric constant tensor:
#      x y z
#    x 1.808580 0.000000 -0.002410 
#    y 0.000000 1.737500 0.000000 
#    z -0.002410 0.000000 1.799080 
# 
# From -- ./inp_files/52854.got.cif
#   From: 2010.05.17/outbox.cif.g08.bks.cpg/sg13_27_cif.got.tgz:52854.got - 2010.06.03 16:44:36.
