data_PCOD9234281
_publ_section_title
;
Structure prediction by ZEFSAII (Michael W. Deem and Ramdas Pophale) SiO2 
 PCOD9234281
Probable space group: P 2/C
;
_chemical_formula_sum "Si O2"
_cell_formula_units_Z 28
_cell_length_a 12.194470
_cell_length_b 20.228342
_cell_length_c 5.692866
_cell_angle_alpha 90.000000
_cell_angle_beta 99.880152
_cell_angle_gamma 90.000000
_cell_volume 1383.454369
_symmetry_space_group_name_H-M "P 2/C"
_symmetry_group_IT_number 13
_symmetry_cell_setting 'monoclinic'
loop_
_space_group_symop_operation_xyz
x,y,z
-x,y,1/2-z
-x,-y,-z
x,-y,1/2+z
loop_
_atom_site_type_symbol
_atom_site_label
_atom_site_fract_x
_atom_site_fract_y
_atom_site_fract_z
Si Si1 0.085828 0.150235 0.070297
Si Si2 0.838034 0.032199 0.678801
Si Si3 0.712690 0.802019 0.580864
Si Si4 0.612342 0.093008 0.675266
Si Si5 0.876305 0.322474 0.086576
Si Si6 0.135687 0.467569 0.298423
Si Si7 0.000000 0.727126 0.250000
Si Si8 0.500000 0.815757 0.750000
O O1 0.106291 0.102081 0.859096
O O2 0.208187 0.153304 0.227664
O O3 0.000000 0.132637 0.250000
O O4 0.050479 0.221031 0.954746
O O5 0.704733 0.040481 0.637040
O O6 0.868944 0.008015 0.951963
O O7 0.673992 0.852232 0.362582
O O8 0.793435 0.739674 0.570935
O O9 0.597260 0.777578 0.651726
O O10 0.500000 0.064272 0.750000
O O11 0.565819 0.136167 0.446746
O O12 0.829318 0.390998 0.161574
O O13 0.000000 0.316719 0.250000
O O14 0.907660 0.320512 0.823201
O O15 0.170184 0.503650 0.555977
O O16 0.000000 0.468907 0.250000
#
# Coordination Sequence:
#
# PCOD9234281 Si02
#       8
#     4   4   4   4   4   4   2   2
#     4  12  25  42  65  86 127 163 200 256 317 367
#     4  12  28  45  64  90 119 162 211 254 306 386
#     4  11  20  41  61  96 120 156 202 261 314 377
#     4  10  23  42  66  87 121 154 198 262 332 371
#     4  11  22  34  59  96 126 166 213 246 295 370
#     4   9  20  35  53  83 133 179 207 247 291 345
#     4  12  22  36  62  94 116 168 202 256 308 364
#     4  10  22  38  68  88 116 156 190 258 346 360
#
# _framework density 20.239191999999999
#
# number of rings (size 3 to 8) (size 9 to 14) (size 15 to 20)
#    0.000    1.143    4.286    1.714    9.000    1.143 
#    0.000    0.000    0.000    0.000    0.000    1.000 
#    0.000    0.000    0.000    0.000    0.000    0.000 
#
# Total GULP energy -156135.832046 kJ/mol
# GULP energy per Si atom -5576.279716 kJ/mol
# Density = 2.019313 g / cm^3
# Si number density = 20.239192 Si / 1000 Ang^3
#
#
#
# Elastic Constant Matrix: (Units=GPa)
#
#
# Indices 1 2 3 4 5 6 
#
# 1 113.1671 9.5179 34.9675 0.0000 -1.7091 0.0000
# 2 9.5179 49.4302 33.9024 0.0000 -7.2080 0.0000
# 3 34.9675 33.9024 109.6090 0.0000 -0.4986 0.0000
# 4 0.0000 0.0000 0.0000 20.9550 0.0000 6.1927
# 5 -1.7091 -7.2080 -0.4986 0.0000 35.0858 0.0000
# 6 0.0000 0.0000 0.0000 6.1927 0.0000 12.5611
#
#
#
# Elastic Compliance Matrix: (Units=1/GPa)
#
#
# Indices 1 2 3 4 5 6 
#
# 1 0.009816 0.000421 -0.003259 0.000000 0.000518 0.000000
# 2 0.000421 0.026666 -0.008358 0.000000 0.005380 0.000000
# 3 -0.003259 -0.008358 0.012741 0.000000 -0.001695 0.000000
# 4 0.000000 0.000000 0.000000 0.055860 0.000000 -0.027539
# 5 0.000518 0.005380 -0.001695 0.000000 0.029608 0.000000
# 6 0.000000 0.000000 0.000000 -0.027539 0.000000 0.093188
#
#
# Mechanical properties :
#
#
# Convention : Reuss Voigt Hill
#
# Bulk Modulus (GPa) = 37.27102 47.66465 42.46784
# Shear Modulus (GPa) = 19.28907 26.64162 22.96535
#
# Velocity S-wave (km/s) = 3.09051 3.63207 3.37218
# Velocity P-wave (km/s) = 5.58482 6.41803 6.01587
#
# Compressibility (1/GPa) = 0.02683050
#
# Stress axis : x y z
#
# Youngs Moduli (GPa) = 101.87425 37.50049 78.48977
#
# Poissons Ratio (x) = -0.01579 0.25583
# Poissons Ratio (y) = -0.04289 0.65600
# Poissons Ratio (z) = 0.33204 0.31342
#
# Static dielectric constant tensor:
#      x y z
#    x 1.792250 0.000000 0.001230 
#    y 0.000000 1.732050 0.000000 
#    z 0.001230 0.000000 1.943960 
# 
# From -- ./inp_files/4190.got.cif
#   From: 2010.05.17/outbox.cif.g08.bks.cpg/sg13_3_cif.got.tgz:4190.got - 2010.06.03 16:44:36.
