data_PCOD9234580
_publ_section_title
;
Structure prediction by ZEFSAII (Michael W. Deem and Ramdas Pophale) SiO2 
 PCOD9234580
Probable space group: P 2/C
;
_chemical_formula_sum "Si O2"
_cell_formula_units_Z 28
_cell_length_a 16.799605
_cell_length_b 10.494132
_cell_length_c 19.858917
_cell_angle_alpha 90.000000
_cell_angle_beta 20.050780
_cell_angle_gamma 90.000000
_cell_volume 1200.352780
_symmetry_space_group_name_H-M "P 2/C"
_symmetry_group_IT_number 13
_symmetry_cell_setting 'monoclinic'
loop_
_space_group_symop_operation_xyz
x,y,z
-x,y,1/2-z
-x,-y,-z
x,-y,1/2+z
loop_
_atom_site_type_symbol
_atom_site_label
_atom_site_fract_x
_atom_site_fract_y
_atom_site_fract_z
Si Si1 0.567788 0.899114 0.073597
Si Si2 0.857760 0.134437 0.805094
Si Si3 0.471237 0.735964 0.022441
Si Si4 0.090758 0.986940 0.505273
Si Si5 0.339747 0.620649 0.442611
Si Si6 0.755550 0.425676 0.694770
Si Si7 0.008154 0.707090 0.879564
O O1 0.482886 0.853481 0.066823
O O2 0.363434 0.962717 0.279227
O O3 0.651913 0.766128 0.037790
O O4 0.764833 0.003524 0.910645
O O5 0.628730 0.209726 0.966043
O O6 0.000000 0.203758 0.750000
O O7 0.007159 0.102278 0.619351
O O8 0.294892 0.634382 0.193306
O O9 0.726268 0.677052 0.814564
O O10 0.998179 0.860499 0.617476
O O11 0.000000 0.000000 0.500000
O O12 0.500000 0.603641 0.250000
O O13 0.493860 0.539249 0.374668
O O14 0.083069 0.623109 0.611187
O O15 0.000000 0.500000 0.500000
O O16 0.833160 0.316836 0.580171
#
# Coordination Sequence:
#
# PCOD9234580 Si02
#       7
#     4   4   4   4   4   4   4
#     4  11  20  33  56  89 123 165 215 257 308 366
#     4  12  25  35  57  90 135 178 216 250 307 395
#     4  11  22  39  59  89 124 167 209 262 322 383
#     4  12  20  35  58  89 130 176 214 256 311 376
#     4   9  18  35  59  92 124 151 202 270 317 364
#     4  10  22  40  64  89 118 157 207 269 338 392
#     4  11  20  36  63  90 125 159 203 269 321 375
#
# _framework density 23.326474000000001
#
# number of rings (size 3 to 8) (size 9 to 14) (size 15 to 20)
#    0.000    1.143    7.143    2.143    0.000    2.286 
#    0.000    0.000    9.429    0.000    0.000    0.000 
#    0.000    0.000    0.000    0.000    0.000    0.000 
#
# Total GULP energy -156047.535090 kJ/mol
# GULP energy per Si atom -5573.126253 kJ/mol
# Density = 2.327338 g / cm^3
# Si number density = 23.326474 Si / 1000 Ang^3
#
#
#
# Elastic Constant Matrix: (Units=GPa)
#
#
# Indices 1 2 3 4 5 6 
#
# 1 78.3279 4.0449 13.0916 0.0000 -33.6176 0.0000
# 2 4.0449 22.2576 12.4039 0.0000 -17.5946 0.0000
# 3 13.0916 12.4039 126.4360 0.0000 -20.9261 0.0000
# 4 0.0000 0.0000 0.0000 27.9465 0.0000 -7.3787
# 5 -33.6176 -17.5946 -20.9261 0.0000 47.3412 0.0000
# 6 0.0000 0.0000 0.0000 -7.3787 0.0000 11.7011
#
#
#
# Elastic Compliance Matrix: (Units=1/GPa)
#
#
# Indices 1 2 3 4 5 6 
#
# 1 0.020036 0.010807 -0.000124 0.000000 0.018190 0.000000
# 2 0.010807 0.070196 -0.002608 0.000000 0.032610 0.000000
# 3 -0.000124 -0.002608 0.008635 0.000000 0.002759 0.000000
# 4 0.000000 0.000000 0.000000 0.042930 0.000000 0.027072
# 5 0.018190 0.032610 0.002759 0.000000 0.047379 0.000000
# 6 0.000000 0.000000 0.000000 0.027072 0.000000 0.102534
#
#
# Mechanical properties :
#
#
# Convention : Reuss Voigt Hill
#
# Bulk Modulus (GPa) = 8.69449 31.78915 20.24182
# Shear Modulus (GPa) = 15.92861 30.56316 23.24589
#
# Velocity S-wave (km/s) = 2.61599 3.62364 3.16024
# Velocity P-wave (km/s) = 3.58607 5.58258 4.69176
#
# Compressibility (1/GPa) = 0.11501532
#
# Stress axis : x y z
#
# Youngs Moduli (GPa) = 49.90939 14.24580 115.81395
#
# Poissons Ratio (x) = -0.15395 0.01440
# Poissons Ratio (y) = -0.53936 0.30208
# Poissons Ratio (z) = 0.00621 0.03716
#
# Static dielectric constant tensor:
#      x y z
#    x 2.007260 0.000000 -0.061430 
#    y 0.000000 1.967710 0.000000 
#    z -0.061430 0.000000 1.928630 
# 
# From -- ./inp_files/81063.got.cif
#   From: 2010.05.17/outbox.cif.g08.bks.cpg/sg13_41_cif.got.tgz:81063.got - 2010.06.03 16:44:36.
