data_PCOD9234946
_publ_section_title
;
Structure prediction by ZEFSAII (Michael W. Deem and Ramdas Pophale) SiO2 
 PCOD9234946
Probable space group: P 2/C
;
_chemical_formula_sum "Si O2"
_cell_formula_units_Z 30
_cell_length_a 15.429033
_cell_length_b 22.461008
_cell_length_c 8.080241
_cell_angle_alpha 90.000000
_cell_angle_beta 151.272856
_cell_angle_gamma 90.000000
_cell_volume 1345.895268
_symmetry_space_group_name_H-M "P 2/C"
_symmetry_group_IT_number 13
_symmetry_cell_setting 'monoclinic'
loop_
_space_group_symop_operation_xyz
x,y,z
-x,y,1/2-z
-x,-y,-z
x,-y,1/2+z
loop_
_atom_site_type_symbol
_atom_site_label
_atom_site_fract_x
_atom_site_fract_y
_atom_site_fract_z
Si Si1 0.868199 0.810304 0.184081
Si Si2 0.147845 0.482573 0.611846
Si Si3 0.303918 0.309603 0.098868
Si Si4 0.297354 0.633210 0.265489
Si Si5 0.716154 0.612835 0.631027
Si Si6 0.278572 0.064032 0.568893
Si Si7 0.709055 0.932208 0.801090
Si Si8 0.000000 0.845008 0.750000
O O1 0.960977 0.807939 0.518889
O O2 0.000000 0.798369 0.250000
O O3 0.711713 0.760982 0.913787
O O4 0.796325 0.877167 0.040874
O O5 0.302281 0.433169 0.856759
O O6 0.000000 0.500000 0.500000
O O7 0.229114 0.547308 0.711286
O O8 0.000000 0.452088 0.250000
O O9 0.507117 0.335455 0.430775
O O10 0.225223 0.340623 0.131191
O O11 0.210346 0.329592 0.770376
O O12 0.222865 0.628447 0.953476
O O13 0.500000 0.611515 0.250000
O O14 0.249974 0.073503 0.325389
O O15 0.166877 0.111707 0.485245
O O16 0.226768 0.996437 0.528120
O O17 0.492499 0.069767 0.960096
#
# Coordination Sequence:
#
# PCOD9234946 Si02
#       8
#     4   4   4   4   4   4   4   2
#     4  12  27  48  70 104 141 190 247 303 351 433
#     4  12  23  39  67 105 137 166 216 292 355 419
#     4  10  25  45  67  93 135 185 235 282 339 421
#     4  10  23  45  67 101 132 180 228 280 351 425
#     4  10  23  43  70  97 130 179 225 276 351 428
#     4  10  22  41  72 112 148 192 235 303 372 439
#     4  10  22  44  70 106 153 192 239 295 369 438
#     4  12  26  44  76 112 140 192 246 308 376 420
#
# _framework density 22.289998000000001
#
# number of rings (size 3 to 8) (size 9 to 14) (size 15 to 20)
#    0.000    1.333    2.667    1.600    2.800    8.533 
#    8.400    0.000    0.000    0.000    0.000    0.000 
#    0.000    0.000    0.000    0.000    0.000    0.000 
#
# Total GULP energy -167251.180599 kJ/mol
# GULP energy per Si atom -5575.039353 kJ/mol
# Density = 2.223926 g / cm^3
# Si number density = 22.289998 Si / 1000 Ang^3
#
#
#
# Elastic Constant Matrix: (Units=GPa)
#
#
# Indices 1 2 3 4 5 6 
#
# 1 135.1393 32.4492 42.0706 0.0000 -20.3967 0.0000
# 2 32.4492 98.0473 30.3893 0.0000 -0.4379 0.0000
# 3 42.0706 30.3893 66.7732 0.0000 -1.4409 0.0000
# 4 0.0000 0.0000 0.0000 13.6289 0.0000 -3.1902
# 5 -20.3967 -0.4379 -1.4409 0.0000 25.5338 0.0000
# 6 0.0000 0.0000 0.0000 -3.1902 0.0000 7.4562
#
#
#
# Elastic Compliance Matrix: (Units=1/GPa)
#
#
# Indices 1 2 3 4 5 6 
#
# 1 0.010919 -0.001746 -0.005904 0.000000 0.008359 0.000000
# 2 -0.001746 0.012154 -0.004462 0.000000 -0.001438 0.000000
# 3 -0.005904 -0.004462 0.020649 0.000000 -0.003628 0.000000
# 4 0.000000 0.000000 0.000000 0.081539 0.000000 0.034887
# 5 0.008359 -0.001438 -0.003628 0.000000 0.045612 0.000000
# 6 0.000000 0.000000 0.000000 0.034887 0.000000 0.149042
#
#
# Mechanical properties :
#
#
# Convention : Reuss Voigt Hill
#
# Bulk Modulus (GPa) = 51.29329 56.64200 53.96764
# Shear Modulus (GPa) = 14.25972 22.32718 18.29345
#
# Velocity S-wave (km/s) = 2.53204 3.16835 2.86790
# Velocity P-wave (km/s) = 5.62229 6.23307 5.93554
#
# Compressibility (1/GPa) = 0.01949573
#
# Stress axis : x y z
#
# Youngs Moduli (GPa) = 91.58528 82.27967 48.42957
#
# Poissons Ratio (x) = 0.14368 0.28594
# Poissons Ratio (y) = 0.15993 0.21610
# Poissons Ratio (z) = 0.54074 0.36714
#
# Static dielectric constant tensor:
#      x y z
#    x 1.727160 0.000000 -0.076480 
#    y 0.000000 1.804010 0.000000 
#    z -0.076480 0.000000 1.827930 
# 
# From -- ./inp_files/22077.got.cif
#   From: 2010.05.17/outbox.cif.g08.bks.cpg/sg13_12_cif.got.tgz:22077.got - 2010.06.03 16:44:36.
