data_PCOD9234047
_publ_section_title
;
Structure prediction by ZEFSAII (Michael W. Deem and Ramdas Pophale) SiO2 
 PCOD9234047
Probable space group: P 2/C
;
_chemical_formula_sum "Si O2"
_cell_formula_units_Z 22
_cell_length_a 8.149731
_cell_length_b 14.170662
_cell_length_c 9.987231
_cell_angle_alpha 90.000000
_cell_angle_beta 104.656767
_cell_angle_gamma 90.000000
_cell_volume 1115.863460
_symmetry_space_group_name_H-M "P 2/C"
_symmetry_group_IT_number 13
_symmetry_cell_setting 'monoclinic'
loop_
_space_group_symop_operation_xyz
x,y,z
-x,y,1/2-z
-x,-y,-z
x,-y,1/2+z
loop_
_atom_site_type_symbol
_atom_site_label
_atom_site_fract_x
_atom_site_fract_y
_atom_site_fract_z
Si Si1 0.209543 0.917345 0.150199
Si Si2 0.897107 0.543881 0.102372
Si Si3 0.816675 0.097438 0.538834
Si Si4 0.500000 0.775886 0.250000
Si Si5 0.411677 0.562428 0.868321
Si Si6 0.362294 0.707833 0.490080
O O1 0.216375 0.931330 0.312785
O O2 0.358271 0.842701 0.152315
O O3 0.019229 0.882526 0.075285
O O4 0.229574 0.013234 0.070944
O O5 0.783011 0.462738 0.150295
O O6 0.779550 0.627558 0.020885
O O7 0.000000 0.584886 0.250000
O O8 0.000000 0.500000 0.000000
O O9 0.710171 0.190983 0.485773
O O10 0.406925 0.714708 0.342259
O O11 0.500000 0.531473 0.750000
O O12 0.500000 0.500000 0.000000
O O13 0.468781 0.669914 0.903449
#
# Coordination Sequence:
#
# PCOD9234047 Si02
#       6
#     4   4   4   2   4   4
#     4   9  19  36  61  84 126 153 204 239 309 351
#     4  11  24  38  65  87 120 161 199 252 312 367
#     4   9  19  39  60  88 118 163 198 248 295 363
#     4  10  22  36  60  96 114 164 204 246 302 366
#     4  10  22  42  61  86 121 158 197 254 310 363
#     4  10  23  36  63  89 122 154 211 247 299 365
#
# _framework density 19.715675999999998
#
# number of rings (size 3 to 8) (size 9 to 14) (size 15 to 20)
#    0.000    2.182    0.000    2.182   12.727    2.909 
#    4.909    0.000   16.000    0.000    0.000    0.000 
#    0.000    0.000    0.000    0.000    0.000    0.000 
#
# Total GULP energy -122685.915173 kJ/mol
# GULP energy per Si atom -5576.632508 kJ/mol
# Density = 1.967080 g / cm^3
# Si number density = 19.715676 Si / 1000 Ang^3
#
#
#
# Elastic Constant Matrix: (Units=GPa)
#
#
# Indices 1 2 3 4 5 6 
#
# 1 72.1439 28.8685 19.9769 0.0000 -29.1977 0.0000
# 2 28.8685 75.8976 23.9232 0.0000 -18.1352 0.0000
# 3 19.9769 23.9232 56.3307 0.0000 -18.0635 0.0000
# 4 0.0000 0.0000 0.0000 30.7376 0.0000 1.2029
# 5 -29.1977 -18.1352 -18.0635 0.0000 30.5131 0.0000
# 6 0.0000 0.0000 0.0000 1.2029 0.0000 40.4113
#
#
#
# Elastic Compliance Matrix: (Units=1/GPa)
#
#
# Indices 1 2 3 4 5 6 
#
# 1 0.023716 -0.004153 -0.000199 0.000000 0.020107 0.000000
# 2 -0.004153 0.017038 -0.004678 0.000000 0.003383 0.000000
# 3 -0.000199 -0.004678 0.023276 0.000000 0.010808 0.000000
# 4 0.000000 0.000000 0.000000 0.032571 0.000000 -0.000970
# 5 0.020107 0.003383 0.010808 0.000000 0.060422 0.000000
# 6 0.000000 0.000000 0.000000 -0.000970 0.000000 0.024774
#
#
# Mechanical properties :
#
#
# Convention : Reuss Voigt Hill
#
# Bulk Modulus (GPa) = 21.75398 38.87882 30.31640
# Shear Modulus (GPa) = 23.23614 29.10596 26.17105
#
# Velocity S-wave (km/s) = 3.43674 3.84641 3.64733
# Velocity P-wave (km/s) = 5.17746 6.28403 5.75739
#
# Compressibility (1/GPa) = 0.04596861
#
# Stress axis : x y z
#
# Youngs Moduli (GPa) = 42.16565 58.69101 42.96355
#
# Poissons Ratio (x) = 0.24377 0.00854
# Poissons Ratio (y) = 0.17513 0.20100
# Poissons Ratio (z) = 0.00838 0.27458
#
# Static dielectric constant tensor:
#      x y z
#    x 1.793070 0.000000 0.039120 
#    y 0.000000 1.689080 0.000000 
#    z 0.039120 0.000000 1.693140 
# 
# From -- ./inp_files/12557.got.cif
#   From: 2010.05.17/outbox.cif.g08.bks.cpg/sg13_7_cif.got.tgz:12557.got - 2010.06.03 16:44:36.
