data_PCOD9234719
_publ_section_title
;
Structure prediction by ZEFSAII (Michael W. Deem and Ramdas Pophale) SiO2 
 PCOD9234719
Probable space group: P 2/C
;
_chemical_formula_sum "Si O2"
_cell_formula_units_Z 14
_cell_length_a 5.192135
_cell_length_b 12.229941
_cell_length_c 10.272881
_cell_angle_alpha 90.000000
_cell_angle_beta 68.552296
_cell_angle_gamma 90.000000
_cell_volume 607.150607
_symmetry_space_group_name_H-M "P 2/C"
_symmetry_group_IT_number 13
_symmetry_cell_setting 'monoclinic'
loop_
_space_group_symop_operation_xyz
x,y,z
-x,y,1/2-z
-x,-y,-z
x,-y,1/2+z
loop_
_atom_site_type_symbol
_atom_site_label
_atom_site_fract_x
_atom_site_fract_y
_atom_site_fract_z
Si Si1 0.801535 0.175053 0.171644
Si Si2 0.500000 0.957894 0.250000
Si Si3 0.256091 0.797336 0.114352
Si Si4 0.326366 0.543688 0.156381
O O1 0.500000 0.226513 0.250000
O O2 0.000000 0.212287 0.250000
O O3 0.751183 0.044591 0.195026
O O4 0.851671 0.198353 0.012472
O O5 0.484533 0.883650 0.122792
O O6 0.338654 0.674789 0.134934
O O7 0.000000 0.827713 0.250000
O O8 0.500000 0.510871 0.250000
O O9 0.000000 0.516862 0.250000
O O10 0.500000 0.500000 0.000000
#
# Coordination Sequence:
#
# PCOD9234719 Si02
#       4
#     4   2   4   4
#     4  10  25  41  63  99 141 183 225 276 334 408
#     4  10  22  40  70  94 144 178 236 270 346 404
#     4  11  24  42  70 100 137 183 231 283 350 418
#     4  11  25  48  76 106 140 184 235 299 362 425
#
# _framework density 23.058529
#
# number of rings (size 3 to 8) (size 9 to 14) (size 15 to 20)
#    0.857    0.571    1.429    2.571    4.000    3.429 
#    0.000    2.857    0.000    0.000    0.000    0.000 
#    0.000    0.000    0.000    0.000    0.000    0.000 
#
# Total GULP energy -78112.672442 kJ/mol
# GULP energy per Si atom -5579.476603 kJ/mol
# Density = 2.300605 g / cm^3
# Si number density = 23.058529 Si / 1000 Ang^3
#
#
#
# Elastic Constant Matrix: (Units=GPa)
#
#
# Indices 1 2 3 4 5 6 
#
# 1 176.3530 13.7355 89.2829 0.0000 26.0290 0.0000
# 2 13.7355 42.5208 1.4863 0.0000 -7.0088 0.0000
# 3 89.2829 1.4863 211.4214 0.0000 25.6008 0.0000
# 4 0.0000 0.0000 0.0000 46.8452 0.0000 -10.6592
# 5 26.0290 -7.0088 25.6008 0.0000 47.4900 0.0000
# 6 0.0000 0.0000 0.0000 -10.6592 0.0000 -10.2918
#
#
#
# Elastic Compliance Matrix: (Units=1/GPa)
#
#
# Indices 1 2 3 4 5 6 
#
# 1 0.007839 -0.002952 -0.002906 0.000000 -0.003166 0.000000
# 2 -0.002952 0.025298 0.000450 0.000000 0.005109 0.000000
# 3 -0.002906 0.000450 0.006155 0.000000 -0.001659 0.000000
# 4 0.000000 0.000000 0.000000 0.017276 0.000000 -0.017892
# 5 -0.003166 0.005109 -0.001659 0.000000 0.024440 0.000000
# 6 0.000000 0.000000 0.000000 -0.017892 0.000000 -0.078634
#
#
# Mechanical properties :
#
#
# Convention : Reuss Voigt Hill
#
# Bulk Modulus (GPa) = 35.11846 71.03381 53.07614
# Shear Modulus (GPa) = 220.43467 38.52805 129.48136
#
# Velocity S-wave (km/s) = 9.78802 4.09208 7.50168
# Velocity P-wave (km/s) = 11.95842 7.29380 9.90463
#
# Compressibility (1/GPa) = 0.02847505
#
# Stress axis : x y z
#
# Youngs Moduli (GPa) = 127.56696 39.52876 162.47217
#
# Poissons Ratio (x) = 0.11671 0.47220
# Poissons Ratio (y) = 0.37663 -0.07316
# Poissons Ratio (z) = 0.37075 -0.01780
#
# Static dielectric constant tensor:
#      x y z
#    x 2.185330 0.000000 -0.286660 
#    y 0.000000 1.853350 0.000000 
#    z -0.286660 0.000000 1.943630 
# 
# From -- ./inp_files/8898.got.cif
#   From: 2010.05.17/outbox.cif.g08.bks.cpg/sg13_5_cif.got.tgz:8898.got - 2010.06.03 16:44:36.
