data_PCOD9234031
_publ_section_title
;
Structure prediction by ZEFSAII (Michael W. Deem and Ramdas Pophale) SiO2 
 PCOD9234031
Probable space group: P 2/C
;
_chemical_formula_sum "Si O2"
_cell_formula_units_Z 28
_cell_length_a 13.932711
_cell_length_b 14.428724
_cell_length_c 8.207313
_cell_angle_alpha 90.000000
_cell_angle_beta 107.078587
_cell_angle_gamma 90.000000
_cell_volume 1577.169256
_symmetry_space_group_name_H-M "P 2/C"
_symmetry_group_IT_number 13
_symmetry_cell_setting 'monoclinic'
loop_
_space_group_symop_operation_xyz
x,y,z
-x,y,1/2-z
-x,-y,-z
x,-y,1/2+z
loop_
_atom_site_type_symbol
_atom_site_label
_atom_site_fract_x
_atom_site_fract_y
_atom_site_fract_z
Si Si1 0.091154 0.245858 0.398316
Si Si2 0.396104 0.949624 0.292497
Si Si3 0.026521 0.397073 0.953151
Si Si4 0.098942 0.087819 0.910423
Si Si5 0.390747 0.146748 0.148987
Si Si6 0.191653 0.737469 0.618805
Si Si7 0.186337 0.916418 0.131447
O O1 0.176116 0.265400 0.305927
O O2 0.132195 0.175513 0.549340
O O3 0.000000 0.201044 0.250000
O O4 0.042486 0.332604 0.465203
O O5 0.500000 0.933727 0.250000
O O6 0.399481 0.901950 0.473173
O O7 0.301883 0.912399 0.141314
O O8 0.375463 0.060884 0.268953
O O9 0.000000 0.386949 0.750000
O O10 0.141122 0.358914 0.033059
O O11 0.000000 0.500000 0.000000
O O12 0.188196 0.076943 0.825616
O O13 0.000000 0.085373 0.750000
O O14 0.116059 0.184220 0.008463
O O15 0.119663 0.002079 0.037519
O O16 0.500000 0.187021 0.250000
O O17 0.300705 0.222008 0.121950
#
# Coordination Sequence:
#
# PCOD9234031 Si02
#       7
#     4   4   4   4   4   4   4
#     4  10  22  36  56  84 115 154 192 235 287 352
#     4  11  22  36  54  77 113 160 217 250 292 329
#     4  11  23  43  66  91 119 147 187 236 295 365
#     4  12  22  33  49  75 116 159 195 240 286 347
#     4  11  23  37  56  81 116 164 210 258 292 339
#     4  11  21  37  58  85 116 152 199 241 294 347
#     4  12  21  34  50  77 113 158 200 238 293 339
#
# _framework density 17.753323999999999
#
# number of rings (size 3 to 8) (size 9 to 14) (size 15 to 20)
#    0.000    0.857    2.857    7.714    4.000    0.000 
#    0.000    0.000    0.000    0.000    0.000    5.000 
#    0.000    0.000    0.000    0.000    0.000    0.000 
#
# Total GULP energy -156072.032715 kJ/mol
# GULP energy per Si atom -5574.001168 kJ/mol
# Density = 1.771292 g / cm^3
# Si number density = 17.753324 Si / 1000 Ang^3
#
#
#
# Elastic Constant Matrix: (Units=GPa)
#
#
# Indices 1 2 3 4 5 6 
#
# 1 123.5548 44.5734 40.6322 0.0000 14.7901 0.0000
# 2 44.5734 82.9465 23.5749 0.0000 10.3684 0.0000
# 3 40.6322 23.5749 78.0157 0.0000 -8.2240 0.0000
# 4 0.0000 0.0000 0.0000 24.6713 0.0000 -7.4113
# 5 14.7901 10.3684 -8.2240 0.0000 36.8939 0.0000
# 6 0.0000 0.0000 0.0000 -7.4113 0.0000 20.5188
#
#
#
# Elastic Compliance Matrix: (Units=1/GPa)
#
#
# Indices 1 2 3 4 5 6 
#
# 1 0.012023 -0.004302 -0.005471 0.000000 -0.004830 0.000000
# 2 -0.004302 0.015577 -0.002812 0.000000 -0.003280 0.000000
# 3 -0.005471 -0.002812 0.017237 0.000000 0.006826 0.000000
# 4 0.000000 0.000000 0.000000 0.045466 0.000000 0.016422
# 5 -0.004830 -0.003280 0.006826 0.000000 0.031484 0.000000
# 6 0.000000 0.000000 0.000000 0.016422 0.000000 0.054667
#
#
# Mechanical properties :
#
#
# Convention : Reuss Voigt Hill
#
# Bulk Modulus (GPa) = 50.84892 55.78643 53.31768
# Shear Modulus (GPa) = 24.01759 28.13257 26.07508
#
# Velocity S-wave (km/s) = 3.68210 3.98507 3.83658
# Velocity P-wave (km/s) = 6.83968 7.25711 7.05149
#
# Compressibility (1/GPa) = 0.01966610
#
# Stress axis : x y z
#
# Youngs Moduli (GPa) = 83.17398 64.19686 58.01586
#
# Poissons Ratio (x) = 0.27618 0.31740
# Poissons Ratio (y) = 0.35782 0.16315
# Poissons Ratio (z) = 0.45504 0.18054
#
# Static dielectric constant tensor:
#      x y z
#    x 1.716690 0.000000 -0.014720 
#    y 0.000000 1.581940 0.000000 
#    z -0.014720 0.000000 1.635080 
# 
# From -- ./inp_files/18825.got.cif
#   From: 2010.05.17/outbox.cif.g08.bks.cpg/sg13_10_cif.got.tgz:18825.got - 2010.06.03 16:44:36.
