data_PCOD9234657
_publ_section_title
;
Structure prediction by ZEFSAII (Michael W. Deem and Ramdas Pophale) SiO2 
 PCOD9234657
Probable space group: P 2/C
;
_chemical_formula_sum "Si O2"
_cell_formula_units_Z 28
_cell_length_a 11.921186
_cell_length_b 11.704914
_cell_length_c 9.330712
_cell_angle_alpha 90.000000
_cell_angle_beta 77.278364
_cell_angle_gamma 90.000000
_cell_volume 1270.012915
_symmetry_space_group_name_H-M "P 2/C"
_symmetry_group_IT_number 13
_symmetry_cell_setting 'monoclinic'
loop_
_space_group_symop_operation_xyz
x,y,z
-x,y,1/2-z
-x,-y,-z
x,-y,1/2+z
loop_
_atom_site_type_symbol
_atom_site_label
_atom_site_fract_x
_atom_site_fract_y
_atom_site_fract_z
Si Si1 0.265653 0.353556 0.747754
Si Si2 0.824248 0.782030 0.503239
Si Si3 0.579993 0.561000 0.864326
Si Si4 0.622083 0.126916 0.768288
Si Si5 0.024264 0.619391 0.415465
Si Si6 0.717852 0.999654 0.481002
Si Si7 0.375214 0.804198 0.703819
O O1 0.220043 0.297449 0.613677
O O2 0.314976 0.478295 0.704473
O O3 0.359748 0.260289 0.764814
O O4 0.159747 0.355355 0.886282
O O5 0.945797 0.721398 0.501592
O O6 0.726133 0.779319 0.652388
O O7 0.829594 0.915876 0.452583
O O8 0.500000 0.573579 0.750000
O O9 0.611058 0.689645 0.893352
O O10 0.500000 0.500000 0.000000
O O11 0.500000 0.089335 0.750000
O O12 0.706228 0.053323 0.642048
O O13 0.632814 0.095710 0.932771
O O14 0.000000 0.608674 0.250000
O O15 0.000000 0.500000 0.500000
O O16 0.680103 0.101343 0.385513
O O17 0.500000 0.827716 0.750000
#
# Coordination Sequence:
#
# PCOD9234657 Si02
#       7
#     4   4   4   4   4   4   4
#     4  10  22  40  67  93 127 171 213 266 329 390
#     4  10  22  42  65  92 128 167 217 278 322 386
#     4  11  24  39  59  97 138 168 209 267 329 392
#     4  11  23  37  63  92 130 168 213 260 327 397
#     4  10  22  45  70  94 126 169 220 269 328 386
#     4  11  23  39  61  94 126 169 216 263 321 394
#     4  11  23  37  62  92 135 172 213 266 335 399
#
# _framework density 22.04702
#
# number of rings (size 3 to 8) (size 9 to 14) (size 15 to 20)
#    0.000    1.429    1.429    3.857    8.000    1.143 
#    2.571    0.714    6.286    0.000    0.000    0.000 
#    0.000    0.000    0.000    0.000    0.000    0.000 
#
# Total GULP energy -156007.309994 kJ/mol
# GULP energy per Si atom -5571.689643 kJ/mol
# Density = 2.199684 g / cm^3
# Si number density = 22.047020 Si / 1000 Ang^3
#
#
#
# Elastic Constant Matrix: (Units=GPa)
#
#
# Indices 1 2 3 4 5 6 
#
# 1 62.6223 49.1228 17.1987 0.0000 -33.6466 0.0000
# 2 49.1228 175.4924 27.9902 0.0000 -15.5436 0.0000
# 3 17.1987 27.9902 77.8451 0.0000 -12.0840 0.0000
# 4 0.0000 0.0000 0.0000 39.1539 0.0000 0.9264
# 5 -33.6466 -15.5436 -12.0840 0.0000 29.2097 0.0000
# 6 0.0000 0.0000 0.0000 0.9264 0.0000 28.4832
#
#
#
# Elastic Compliance Matrix: (Units=1/GPa)
#
#
# Indices 1 2 3 4 5 6 
#
# 1 0.055467 -0.010431 0.000590 0.000000 0.058586 0.000000
# 2 -0.010431 0.008179 -0.001951 0.000000 -0.008470 0.000000
# 3 0.000590 -0.001951 0.014278 0.000000 0.005549 0.000000
# 4 0.000000 0.000000 0.000000 0.025560 0.000000 -0.000831
# 5 0.058586 -0.008470 0.005549 0.000000 0.099508 0.000000
# 6 0.000000 0.000000 0.000000 -0.000831 0.000000 0.035135
#
#
# Mechanical properties :
#
#
# Convention : Reuss Voigt Hill
#
# Bulk Modulus (GPa) = 18.40237 56.06481 37.23359
# Shear Modulus (GPa) = 17.86825 34.14589 26.00707
#
# Velocity S-wave (km/s) = 2.84995 3.93972 3.43828
# Velocity P-wave (km/s) = 4.38116 6.79559 5.71728
#
# Compressibility (1/GPa) = 0.05434083
#
# Stress axis : x y z
#
# Youngs Moduli (GPa) = 18.02871 122.26362 70.03538
#
# Poissons Ratio (x) = 1.27535 -0.04135
# Poissons Ratio (y) = 0.18806 0.13665
# Poissons Ratio (z) = -0.01064 0.23856
#
# Static dielectric constant tensor:
#      x y z
#    x 1.928820 0.000000 -0.036030 
#    y 0.000000 1.912630 0.000000 
#    z -0.036030 0.000000 1.886080 
# 
# From -- ./inp_files/18731.got.cif
#   From: 2010.05.17/outbox.cif.g08.bks.cpg/sg13_10_cif.got.tgz:18731.got - 2010.06.03 16:44:36.
