data_PCOD9234546
_publ_section_title
;
Structure prediction by ZEFSAII (Michael W. Deem and Ramdas Pophale) SiO2 
 PCOD9234546
Probable space group: P 2/C
;
_chemical_formula_sum "Si O2"
_cell_formula_units_Z 18
_cell_length_a 13.870681
_cell_length_b 8.684536
_cell_length_c 17.644718
_cell_angle_alpha 90.000000
_cell_angle_beta 157.439444
_cell_angle_gamma 90.000000
_cell_volume 815.464900
_symmetry_space_group_name_H-M "P 2/C"
_symmetry_group_IT_number 13
_symmetry_cell_setting 'monoclinic'
loop_
_space_group_symop_operation_xyz
x,y,z
-x,y,1/2-z
-x,-y,-z
x,-y,1/2+z
loop_
_atom_site_type_symbol
_atom_site_label
_atom_site_fract_x
_atom_site_fract_y
_atom_site_fract_z
Si Si1 0.008120 0.684743 0.000544
Si Si2 0.492853 0.830733 0.900431
Si Si3 0.242707 0.609599 0.022539
Si Si4 0.506854 0.814258 0.422758
Si Si5 0.000000 0.360438 0.750000
O O1 0.734680 0.756455 0.811596
O O2 0.000000 0.500000 0.000000
O O3 0.110856 0.714633 0.989829
O O4 0.219618 0.756186 0.207591
O O5 0.522464 0.010924 0.905180
O O6 0.421591 0.813686 0.937477
O O7 0.752375 0.741331 0.078641
O O8 0.500000 0.553386 0.250000
O O9 0.327803 0.703288 0.009993
O O10 0.061096 0.472973 0.864830
#
# Coordination Sequence:
#
# PCOD9234546 Si02
#       5
#     4   4   4   4   2
#     4  11  22  41  66  91 120 159 204 251 303 362
#     4  11  24  40  61  90 124 161 203 250 305 363
#     4  10  22  40  63  90 120 158 204 252 304 360
#     4  10  23  42  63  89 122 160 201 252 307 362
#     4  12  24  38  60  90 122 160 204 252 300 360
#
# _framework density 22.073298000000001
#
# number of rings (size 3 to 8) (size 9 to 14) (size 15 to 20)
#    0.000    1.333    0.000    6.000    0.000    7.111 
#    0.000   12.222    0.000    0.000    0.000    0.000 
#    0.000    0.000    0.000    0.000    0.000    0.000 
#
# Total GULP energy -100726.296868 kJ/mol
# GULP energy per Si atom -5595.905382 kJ/mol
# Density = 2.202306 g / cm^3
# Si number density = 22.073298 Si / 1000 Ang^3
#
#
#
# Elastic Constant Matrix: (Units=GPa)
#
#
# Indices 1 2 3 4 5 6 
#
# 1 32.2146 4.5660 -11.5225 0.0000 5.8752 0.0000
# 2 4.5660 99.7240 47.2704 0.0000 -11.0263 0.0000
# 3 -11.5225 47.2704 140.3301 0.0000 4.6355 0.0000
# 4 0.0000 0.0000 0.0000 -6.0138 0.0000 -15.9913
# 5 5.8752 -11.0263 4.6355 0.0000 26.8395 0.0000
# 6 0.0000 0.0000 0.0000 -15.9913 0.0000 13.3814
#
#
#
# Elastic Compliance Matrix: (Units=1/GPa)
#
#
# Indices 1 2 3 4 5 6 
#
# 1 0.035545 -0.005203 0.005028 0.000000 -0.010787 0.000000
# 2 -0.005203 0.013605 -0.005262 0.000000 0.007637 0.000000
# 3 0.005028 -0.005262 0.009473 0.000000 -0.004899 0.000000
# 4 0.000000 0.000000 0.000000 -0.039803 0.000000 -0.047566
# 5 -0.010787 0.007637 -0.004899 0.000000 0.043603 0.000000
# 6 0.000000 0.000000 0.000000 -0.047566 0.000000 0.017888
#
#
# Mechanical properties :
#
#
# Convention : Reuss Voigt Hill
#
# Bulk Modulus (GPa) = 20.94374 39.21073 30.07723
# Shear Modulus (GPa) = 46.68411 22.30509 34.49460
#
# Velocity S-wave (km/s) = 4.60386 3.18229 3.95743
# Velocity P-wave (km/s) = 6.14569 5.59509 5.87684
#
# Compressibility (1/GPa) = 0.04774697
#
# Stress axis : x y z
#
# Youngs Moduli (GPa) = 28.13347 73.50392 105.55986
#
# Poissons Ratio (x) = 0.38246 -0.53072
# Poissons Ratio (y) = 0.14639 0.55549
# Poissons Ratio (z) = -0.14145 0.38680
#
# Static dielectric constant tensor:
#      x y z
#    x 1.846810 0.000000 -0.000610 
#    y 0.000000 1.767840 0.000000 
#    z -0.000610 0.000000 1.795370 
# 
# From -- ./inp_files/79702.got.cif
#   From: 2010.05.17/outbox.cif.g08.bks.cpg/sg13_40_cif.got.tgz:79702.got - 2010.06.03 16:44:36.
