data_PCOD9234505
_publ_section_title
;
Structure prediction by ZEFSAII (Michael W. Deem and Ramdas Pophale) SiO2 
 PCOD9234505
Probable space group: P 2/C
;
_chemical_formula_sum "Si O2"
_cell_formula_units_Z 20
_cell_length_a 19.311351
_cell_length_b 5.448936
_cell_length_c 10.272036
_cell_angle_alpha 90.000000
_cell_angle_beta 50.070538
_cell_angle_gamma 90.000000
_cell_volume 828.863363
_symmetry_space_group_name_H-M "P 2/C"
_symmetry_group_IT_number 13
_symmetry_cell_setting 'monoclinic'
loop_
_space_group_symop_operation_xyz
x,y,z
-x,y,1/2-z
-x,-y,-z
x,-y,1/2+z
loop_
_atom_site_type_symbol
_atom_site_label
_atom_site_fract_x
_atom_site_fract_y
_atom_site_fract_z
Si Si1 0.420283 0.076170 0.744361
Si Si2 0.273625 0.366937 0.042841
Si Si3 0.063863 0.776061 0.550802
Si Si4 0.107281 0.270988 0.414470
Si Si5 0.630760 0.573038 0.804265
O O1 0.500000 0.035405 0.750000
O O2 0.431356 0.341135 0.660665
O O3 0.409313 0.843445 0.665298
O O4 0.326095 0.120955 0.934988
O O5 0.173470 0.317783 0.213572
O O6 0.328341 0.462078 0.102930
O O7 0.291451 0.545874 0.900509
O O8 0.109929 0.511220 0.500603
O O9 0.000000 0.822538 0.750000
O O10 0.996287 0.754442 0.508517
O O11 0.128684 0.008532 0.452760
#
# Coordination Sequence:
#
# PCOD9234505 Si02
#       5
#     4   4   4   4   4
#     4  10  24  43  66  98 131 170 217 271 325 386
#     4  10  26  42  67  98 131 172 220 265 327 384
#     4  10  22  40  61  90 123 164 207 258 315 373
#     4  10  23  38  62  90 123 164 209 257 313 375
#     4  10  25  41  66  96 130 171 217 268 325 384
#
# _framework density 24.129428999999998
#
# number of rings (size 3 to 8) (size 9 to 14) (size 15 to 20)
#    1.200    0.800    0.000    1.200    8.400    3.200 
#    0.000    0.000    0.000    0.000    0.000    0.000 
#    0.000    0.000    0.000    0.000    0.000    0.000 
#
# Total GULP energy -111717.492631 kJ/mol
# GULP energy per Si atom -5585.874632 kJ/mol
# Density = 2.407451 g / cm^3
# Si number density = 24.129429 Si / 1000 Ang^3
#
#
#
# Elastic Constant Matrix: (Units=GPa)
#
#
# Indices 1 2 3 4 5 6 
#
# 1 71.5538 1.0918 -31.1634 0.0000 8.7802 0.0000
# 2 1.0918 153.5068 20.7498 0.0000 3.4178 0.0000
# 3 -31.1634 20.7498 84.9955 0.0000 12.2443 0.0000
# 4 0.0000 0.0000 0.0000 39.1356 0.0000 4.8415
# 5 8.7802 3.4178 12.2443 0.0000 34.4791 0.0000
# 6 0.0000 0.0000 0.0000 4.8415 0.0000 4.5474
#
#
#
# Elastic Compliance Matrix: (Units=1/GPa)
#
#
# Indices 1 2 3 4 5 6 
#
# 1 0.018431 -0.001059 0.008091 0.000000 -0.007462 0.000000
# 2 -0.001059 0.006798 -0.002097 0.000000 0.000340 0.000000
# 3 0.008091 -0.002097 0.016347 0.000000 -0.007658 0.000000
# 4 0.000000 0.000000 0.000000 0.029428 0.000000 -0.031332
# 5 -0.007462 0.000340 -0.007658 0.000000 0.033589 0.000000
# 6 0.000000 0.000000 0.000000 -0.031332 0.000000 0.253266
#
#
# Mechanical properties :
#
#
# Convention : Reuss Voigt Hill
#
# Bulk Modulus (GPa) = 19.43727 32.37917 25.90822
# Shear Modulus (GPa) = 13.69349 36.92427 25.30888
#
# Velocity S-wave (km/s) = 2.38481 3.91610 3.24216
# Velocity P-wave (km/s) = 3.95677 5.82201 4.97754
#
# Compressibility (1/GPa) = 0.05144755
#
# Stress axis : x y z
#
# Youngs Moduli (GPa) = 54.25580 147.10775 61.17339
#
# Poissons Ratio (x) = 0.15574 -0.49496
# Poissons Ratio (y) = 0.05744 0.12826
# Poissons Ratio (z) = -0.43899 0.30844
#
# Static dielectric constant tensor:
#      x y z
#    x 1.987210 0.000000 -0.061220 
#    y 0.000000 1.942910 0.000000 
#    z -0.061220 0.000000 1.931330 
# 
# From -- ./inp_files/41047.got.cif
#   From: 2010.05.17/outbox.cif.g08.bks.cpg/sg13_21_cif.got.tgz:41047.got - 2010.06.03 16:44:36.
