data_PCOD9234432
_publ_section_title
;
Structure prediction by ZEFSAII (Michael W. Deem and Ramdas Pophale) SiO2 
 PCOD9234432
Probable space group: P 2/C
;
_chemical_formula_sum "Si O2"
_cell_formula_units_Z 28
_cell_length_a 14.549587
_cell_length_b 9.097875
_cell_length_c 11.410462
_cell_angle_alpha 90.000000
_cell_angle_beta 58.414502
_cell_angle_gamma 90.000000
_cell_volume 1286.654216
_symmetry_space_group_name_H-M "P 2/C"
_symmetry_group_IT_number 13
_symmetry_cell_setting 'monoclinic'
loop_
_space_group_symop_operation_xyz
x,y,z
-x,y,1/2-z
-x,-y,-z
x,-y,1/2+z
loop_
_atom_site_type_symbol
_atom_site_label
_atom_site_fract_x
_atom_site_fract_y
_atom_site_fract_z
Si Si1 0.389767 0.153488 0.008980
Si Si2 0.250822 0.377480 0.539465
Si Si3 0.121459 0.051886 0.932811
Si Si4 0.222016 0.678123 0.463220
Si Si5 0.594390 0.701253 0.764747
Si Si6 0.409836 0.376620 0.648898
Si Si7 0.221815 0.935271 0.111131
O O1 0.384366 0.185398 0.148602
O O2 0.350112 0.983761 0.018449
O O3 0.288261 0.234291 0.017900
O O4 0.499008 0.247119 0.901943
O O5 0.190035 0.526696 0.547700
O O6 0.302291 0.327118 0.382664
O O7 0.349159 0.397213 0.565538
O O8 0.193497 0.237240 0.630742
O O9 0.132451 0.224849 0.959165
O O10 0.179879 0.015865 0.768811
O O11 0.171347 0.984687 0.019957
O O12 0.000000 0.000000 0.000000
O O13 0.315242 0.657103 0.304017
O O14 0.500000 0.763109 0.750000
O O15 0.555150 0.541899 0.839542
#
# Coordination Sequence:
#
# PCOD9234432 Si02
#       7
#     4   4   4   4   4   4   4
#     4  11  21  36  58  91 135 186 229 268 332 405
#     4  11  21  38  61  94 135 176 228 283 340 396
#     4  11  24  48  75  99 130 179 226 291 375 433
#     4  10  22  39  65  96 131 177 229 287 338 413
#     4  11  20  32  54  86 128 185 239 272 312 390
#     4  11  19  35  60  90 137 185 232 274 326 396
#     4  11  25  44  68 103 139 178 227 294 352 429
#
# _framework density 21.761869000000001
#
# number of rings (size 3 to 8) (size 9 to 14) (size 15 to 20)
#    0.000    1.143    4.286    3.857    0.000    0.571 
#    0.000    0.714    0.000    3.429    0.000    0.000 
#    0.000    0.000    0.000    0.000    0.000    0.000 
#
# Total GULP energy -155879.277812 kJ/mol
# GULP energy per Si atom -5567.117065 kJ/mol
# Density = 2.171234 g / cm^3
# Si number density = 21.761869 Si / 1000 Ang^3
#
#
#
# Elastic Constant Matrix: (Units=GPa)
#
#
# Indices 1 2 3 4 5 6 
#
# 1 115.7284 56.5873 48.3545 0.0000 21.8253 0.0000
# 2 56.5873 99.8123 31.7197 0.0000 0.5973 0.0000
# 3 48.3545 31.7197 82.1030 0.0000 24.5864 0.0000
# 4 0.0000 0.0000 0.0000 70.9212 0.0000 93.2339
# 5 21.8253 0.5973 24.5864 0.0000 33.3624 0.0000
# 6 0.0000 0.0000 0.0000 93.2339 0.0000 183.3527
#
#
#
# Elastic Compliance Matrix: (Units=1/GPa)
#
#
# Indices 1 2 3 4 5 6 
#
# 1 0.015188 -0.007264 -0.004109 0.000000 -0.006778 0.000000
# 2 -0.007264 0.015307 -0.003820 0.000000 0.007293 0.000000
# 3 -0.004109 -0.003820 0.019568 0.000000 -0.011665 0.000000
# 4 0.000000 0.000000 0.000000 0.042531 0.000000 -0.021627
# 5 -0.006778 0.007293 -0.011665 0.000000 0.042874 0.000000
# 6 0.000000 0.000000 0.000000 -0.021627 0.000000 0.016451
#
#
# Mechanical properties :
#
#
# Convention : Reuss Voigt Hill
#
# Bulk Modulus (GPa) = 50.81674 63.44074 57.12874
# Shear Modulus (GPa) = 26.47409 68.25939 47.36674
#
# Velocity S-wave (km/s) = 3.49167 5.60666 4.67046
# Velocity P-wave (km/s) = 6.29743 8.43376 7.44265
#
# Compressibility (1/GPa) = 0.01967855
#
# Stress axis : x y z
#
# Youngs Moduli (GPa) = 65.84186 65.32791 51.10288
#
# Poissons Ratio (x) = 0.47456 0.20997
# Poissons Ratio (y) = 0.47830 0.19519
# Poissons Ratio (z) = 0.27053 0.24952
#
# Static dielectric constant tensor:
#      x y z
#    x 1.879840 0.000000 0.028690 
#    y 0.000000 1.992100 0.000000 
#    z 0.028690 0.000000 1.837130 
# 
# From -- ./inp_files/36345.got.cif
#   From: 2010.05.17/outbox.cif.g08.bks.cpg/sg13_19_cif.got.tgz:36345.got - 2010.06.03 16:44:36.
