data_PCOD9234842
_publ_section_title
;
Structure prediction by ZEFSAII (Michael W. Deem and Ramdas Pophale) SiO2 
 PCOD9234842
Probable space group: P 2/C
;
_chemical_formula_sum "Si O2"
_cell_formula_units_Z 22
_cell_length_a 13.835889
_cell_length_b 6.683587
_cell_length_c 24.072673
_cell_angle_alpha 90.000000
_cell_angle_beta 151.690614
_cell_angle_gamma 90.000000
_cell_volume 1055.679892
_symmetry_space_group_name_H-M "P 2/C"
_symmetry_group_IT_number 13
_symmetry_cell_setting 'monoclinic'
loop_
_space_group_symop_operation_xyz
x,y,z
-x,y,1/2-z
-x,-y,-z
x,-y,1/2+z
loop_
_atom_site_type_symbol
_atom_site_label
_atom_site_fract_x
_atom_site_fract_y
_atom_site_fract_z
Si Si1 0.272501 0.117967 0.334847
Si Si2 0.803149 0.163831 0.083025
Si Si3 0.500000 0.027190 0.750000
Si Si4 0.268781 0.787405 0.235997
Si Si5 0.205978 0.159143 0.018697
Si Si6 0.533232 0.540289 0.919238
O O1 0.263491 0.049578 0.394325
O O2 0.436822 0.292168 0.409943
O O3 0.044634 0.203461 0.208837
O O4 0.300051 0.944219 0.302988
O O5 0.675315 0.367504 0.016419
O O6 0.771314 0.025775 0.013183
O O7 0.685216 0.899233 0.869155
O O8 0.593930 0.151134 0.746810
O O9 0.344809 0.573930 0.295552
O O10 0.032820 0.793878 0.099511
O O11 0.329208 0.343179 0.055388
#
# Coordination Sequence:
#
# PCOD9234842 Si02
#       6
#     4   4   2   4   4   4
#     4  10  22  41  65  96 134 171 210 261 322 387
#     4  10  22  41  65  96 134 171 210 261 322 387
#     4  12  22  50  66  90 126 176 218 260 324 374
#     4  11  25  44  67  96 130 170 216 265 317 382
#     4  11  25  44  67  96 130 170 216 265 317 382
#     4  12  21  41  64 100 130 165 215 264 324 380
#
# _framework density 20.839651
#
# number of rings (size 3 to 8) (size 9 to 14) (size 15 to 20)
#    0.000    1.091    3.636    2.182    0.000    5.091 
#    0.000    5.455    0.000    0.000    0.000    0.000 
#    0.000    0.000    0.000    0.000    0.000    0.000 
#
# Total GULP energy -122999.780736 kJ/mol
# GULP energy per Si atom -5590.899124 kJ/mol
# Density = 2.079222 g / cm^3
# Si number density = 20.839651 Si / 1000 Ang^3
#
#
#
# Elastic Constant Matrix: (Units=GPa)
#
#
# Indices 1 2 3 4 5 6 
#
# 1 88.5719 22.9066 7.9298 0.0000 7.5641 0.0000
# 2 22.9066 76.1604 32.3396 0.0000 8.5958 0.0000
# 3 7.9298 32.3396 89.1826 0.0000 9.3414 0.0000
# 4 0.0000 0.0000 0.0000 27.3166 0.0000 20.1587
# 5 7.5641 8.5958 9.3414 0.0000 43.1912 0.0000
# 6 0.0000 0.0000 0.0000 20.1587 0.0000 19.4576
#
#
#
# Elastic Compliance Matrix: (Units=1/GPa)
#
#
# Indices 1 2 3 4 5 6 
#
# 1 0.012344 -0.003715 0.000408 0.000000 -0.001511 0.000000
# 2 -0.003715 0.016795 -0.005605 0.000000 -0.001480 0.000000
# 3 0.000408 -0.005605 0.013403 0.000000 -0.001855 0.000000
# 4 0.000000 0.000000 0.000000 0.155483 0.000000 -0.161085
# 5 -0.001511 -0.001480 -0.001855 0.000000 0.024113 0.000000
# 6 0.000000 0.000000 0.000000 -0.161085 0.000000 0.218283
#
#
# Mechanical properties :
#
#
# Convention : Reuss Voigt Hill
#
# Bulk Modulus (GPa) = 40.45754 42.25188 41.35471
# Shear Modulus (GPa) = 10.71848 30.70900 20.71374
#
# Velocity S-wave (km/s) = 2.27035 3.84289 3.15613
# Velocity P-wave (km/s) = 5.13113 6.32528 5.75924
#
# Compressibility (1/GPa) = 0.02471727
#
# Stress axis : x y z
#
# Youngs Moduli (GPa) = 81.01367 59.54316 74.60808
#
# Poissons Ratio (x) = 0.22122 -0.03043
# Poissons Ratio (y) = 0.30099 0.41816
# Poissons Ratio (z) = -0.03305 0.33372
#
# Static dielectric constant tensor:
#      x y z
#    x 1.737260 0.000000 0.007050 
#    y 0.000000 1.721200 0.000000 
#    z 0.007050 0.000000 1.776400 
# 
# From -- ./inp_files/52343.got.cif
#   From: 2010.05.17/outbox.cif.g08.bks.cpg/sg13_27_cif.got.tgz:52343.got - 2010.06.03 16:44:36.
