data_PCOD9234102
_publ_section_title
;
Structure prediction by ZEFSAII (Michael W. Deem and Ramdas Pophale) SiO2 
 PCOD9234102
Probable space group: P 2/C
;
_chemical_formula_sum "Si O2"
_cell_formula_units_Z 20
_cell_length_a 7.291439
_cell_length_b 13.607315
_cell_length_c 10.236585
_cell_angle_alpha 90.000000
_cell_angle_beta 72.339864
_cell_angle_gamma 90.000000
_cell_volume 967.777911
_symmetry_space_group_name_H-M "P 2/C"
_symmetry_group_IT_number 13
_symmetry_cell_setting 'monoclinic'
loop_
_space_group_symop_operation_xyz
x,y,z
-x,y,1/2-z
-x,-y,-z
x,-y,1/2+z
loop_
_atom_site_type_symbol
_atom_site_label
_atom_site_fract_x
_atom_site_fract_y
_atom_site_fract_z
Si Si1 0.265745 0.055723 0.304458
Si Si2 0.587971 0.296678 0.439393
Si Si3 0.325223 0.077997 0.009715
Si Si4 0.081583 0.575766 0.587316
Si Si5 0.211778 0.737045 0.887129
O O1 0.500000 0.073972 0.250000
O O2 0.202730 0.061853 0.167887
O O3 0.186394 0.147020 0.403731
O O4 0.236922 0.957410 0.392537
O O5 0.615101 0.192288 0.507105
O O6 0.693228 0.395099 0.466822
O O7 0.691155 0.279131 0.276303
O O8 0.362009 0.305632 0.458832
O O9 0.500000 0.000000 0.000000
O O10 0.000000 0.549634 0.750000
O O11 0.000000 0.500000 0.500000
O O12 0.984984 0.679974 0.572629
#
# Coordination Sequence:
#
# PCOD9234102 Si02
#       5
#     4   4   4   4   4
#     4   9  14  25  47  73  99 130 163 196 234 292
#     4   9  16  31  53  76  99 135 168 200 245 309
#     4   9  14  25  47  73 101 130 162 195 238 289
#     4  10  22  37  56  73  97 131 169 217 260 293
#     4   9  15  31  53  75  98 131 173 204 238 306
#
# _framework density 20.665900000000001
#
# number of rings (size 3 to 8) (size 9 to 14) (size 15 to 20)
#    0.000    2.800    6.000    0.000    0.000    0.800 
#    0.000    3.000    0.000    0.000    0.000    0.000 
#    0.000    0.000    0.000    0.000    0.000    0.000 
#
# Total GULP energy -111372.752943 kJ/mol
# GULP energy per Si atom -5568.637647 kJ/mol
# Density = 2.061886 g / cm^3
# Si number density = 20.665900 Si / 1000 Ang^3
#
#
#
# Elastic Constant Matrix: (Units=GPa)
#
#
# Indices 1 2 3 4 5 6 
#
# 1 49.0064 13.1260 14.0230 0.0000 2.6655 0.0000
# 2 13.1260 60.5446 30.2246 0.0000 14.5321 0.0000
# 3 14.0230 30.2246 55.9029 0.0000 20.9406 0.0000
# 4 0.0000 0.0000 0.0000 27.0896 0.0000 12.8220
# 5 2.6655 14.5321 20.9406 0.0000 21.2835 0.0000
# 6 0.0000 0.0000 0.0000 12.8220 0.0000 26.4218
#
#
#
# Elastic Compliance Matrix: (Units=1/GPa)
#
#
# Indices 1 2 3 4 5 6 
#
# 1 0.022667 -0.003216 -0.005870 0.000000 0.005132 0.000000
# 2 -0.003216 0.023478 -0.009554 0.000000 -0.006227 0.000000
# 3 -0.005870 -0.009554 0.034535 0.000000 -0.026720 0.000000
# 4 0.000000 0.000000 0.000000 0.047922 0.000000 -0.023255
# 5 0.005132 -0.006227 -0.026720 0.000000 0.076884 0.000000
# 6 0.000000 0.000000 0.000000 -0.023255 0.000000 0.049133
#
#
# Mechanical properties :
#
#
# Convention : Reuss Voigt Hill
#
# Bulk Modulus (GPa) = 23.04092 31.13346 27.08719
# Shear Modulus (GPa) = 16.32033 22.16435 19.24234
#
# Velocity S-wave (km/s) = 2.81325 3.27847 3.05473
# Velocity P-wave (km/s) = 4.66111 5.42485 5.05742
#
# Compressibility (1/GPa) = 0.04340104
#
# Stress axis : x y z
#
# Youngs Moduli (GPa) = 44.11645 42.59241 28.95579
#
# Poissons Ratio (x) = 0.13697 0.16996
# Poissons Ratio (y) = 0.14187 0.27666
# Poissons Ratio (z) = 0.25895 0.40695
#
# Static dielectric constant tensor:
#      x y z
#    x 1.740500 0.000000 0.051120 
#    y 0.000000 1.739850 0.000000 
#    z 0.051120 0.000000 1.780060 
# 
# From -- ./inp_files/28688.got.cif
#   From: 2010.05.17/outbox.cif.g08.bks.cpg/sg13_15_cif.got.tgz:28688.got - 2010.06.03 16:44:36.
