data_PCOD9234453
_publ_section_title
;
Structure prediction by ZEFSAII (Michael W. Deem and Ramdas Pophale) SiO2 
 PCOD9234453
Probable space group: P 2/C
;
_chemical_formula_sum "Si O2"
_cell_formula_units_Z 26
_cell_length_a 12.632520
_cell_length_b 16.544816
_cell_length_c 13.296425
_cell_angle_alpha 90.000000
_cell_angle_beta 26.837332
_cell_angle_gamma 90.000000
_cell_volume 1254.599651
_symmetry_space_group_name_H-M "P 2/C"
_symmetry_group_IT_number 13
_symmetry_cell_setting 'monoclinic'
loop_
_space_group_symop_operation_xyz
x,y,z
-x,y,1/2-z
-x,-y,-z
x,-y,1/2+z
loop_
_atom_site_type_symbol
_atom_site_label
_atom_site_fract_x
_atom_site_fract_y
_atom_site_fract_z
Si Si1 0.296135 0.651406 0.147655
Si Si2 0.674292 0.225453 0.378990
Si Si3 0.032182 0.191634 0.557681
Si Si4 0.000000 0.292878 0.250000
Si Si5 0.377846 0.081752 0.568001
Si Si6 0.000000 0.552634 0.250000
Si Si7 0.248700 0.579206 0.406535
Si Si8 0.500000 0.146739 0.250000
O O1 0.211129 0.602338 0.122702
O O2 0.276931 0.594943 0.263686
O O3 0.123670 0.728917 0.296302
O O4 0.550623 0.694486 0.937571
O O5 0.781916 0.243255 0.394943
O O6 0.487881 0.154182 0.540276
O O7 0.875461 0.194590 0.134143
O O8 0.263898 0.196902 0.430422
O O9 0.896101 0.107315 0.694627
O O10 0.911015 0.348044 0.416284
O O11 0.456824 0.095836 0.386455
O O12 0.500000 0.000000 0.500000
O O13 0.885697 0.499176 0.436557
O O14 0.500000 0.582472 0.250000
#
# Coordination Sequence:
#
# PCOD9234453 Si02
#       8
#     4   4   4   2   4   2   4   2
#     4  11  23  42  65  94 129 172 230 281 336 414
#     4  10  22  39  68  94 125 175 226 272 335 400
#     4  10  22  40  67  95 130 172 222 275 323 395
#     4  11  20  42  62  97 118 174 222 279 340 398
#     4  10  23  44  62 101 139 174 214 271 329 398
#     4  11  28  38  64  95 128 176 226 279 352 416
#     4  11  23  43  63  87 134 174 215 291 349 398
#     4  10  22  40  68  94 134 178 214 264 336 382
#
# _framework density 20.723742999999999
#
# number of rings (size 3 to 8) (size 9 to 14) (size 15 to 20)
#    0.000    1.538    3.077    0.923    6.462    4.308 
#    5.538    0.000    0.000    0.000    0.000    0.000 
#    0.000    0.000    0.000    0.000    0.000    0.000 
#
# Total GULP energy -145041.786390 kJ/mol
# GULP energy per Si atom -5578.530246 kJ/mol
# Density = 2.067657 g / cm^3
# Si number density = 20.723743 Si / 1000 Ang^3
#
#
#
# Elastic Constant Matrix: (Units=GPa)
#
#
# Indices 1 2 3 4 5 6 
#
# 1 124.7622 49.7007 15.5502 0.0000 -12.6073 0.0000
# 2 49.7007 86.2895 18.8368 0.0000 -6.9367 0.0000
# 3 15.5502 18.8368 67.6265 0.0000 -10.6957 0.0000
# 4 0.0000 0.0000 0.0000 11.8632 0.0000 0.3174
# 5 -12.6073 -6.9367 -10.6957 0.0000 30.6133 0.0000
# 6 0.0000 0.0000 0.0000 0.3174 0.0000 22.1178
#
#
#
# Elastic Compliance Matrix: (Units=1/GPa)
#
#
# Indices 1 2 3 4 5 6 
#
# 1 0.010684 -0.005837 -0.000364 0.000000 0.002950 0.000000
# 2 -0.005837 0.015611 -0.002992 0.000000 0.000088 0.000000
# 3 -0.000364 -0.002992 0.016484 0.000000 0.004931 0.000000
# 4 0.000000 0.000000 0.000000 0.084327 0.000000 -0.001210
# 5 0.002950 0.000088 0.004931 0.000000 0.035623 0.000000
# 6 0.000000 0.000000 0.000000 -0.001210 0.000000 0.045230
#
#
# Mechanical properties :
#
#
# Convention : Reuss Voigt Hill
#
# Bulk Modulus (GPa) = 40.99658 49.65040 45.32349
# Shear Modulus (GPa) = 21.32400 25.89154 23.60777
#
# Velocity S-wave (km/s) = 3.21123 3.53847 3.37881
# Velocity P-wave (km/s) = 5.79437 6.38002 6.09423
#
# Compressibility (1/GPa) = 0.02439228
#
# Stress axis : x y z
#
# Youngs Moduli (GPa) = 93.59759 64.05660 60.66401
#
# Poissons Ratio (x) = 0.37390 0.02210
# Poissons Ratio (y) = 0.54634 0.18152
# Poissons Ratio (z) = 0.03409 0.19167
#
# Static dielectric constant tensor:
#      x y z
#    x 1.784880 0.000000 -0.033130 
#    y 0.000000 1.745950 0.000000 
#    z -0.033130 0.000000 1.815130 
# 
# From -- ./inp_files/34753.got.cif
#   From: 2010.05.17/outbox.cif.g08.bks.cpg/sg13_18_cif.got.tgz:34753.got - 2010.06.03 16:44:36.
