data_PCOD9234796
_publ_section_title
;
Structure prediction by ZEFSAII (Michael W. Deem and Ramdas Pophale) SiO2 
 PCOD9234796
Probable space group: P 2/C
;
_chemical_formula_sum "Si O2"
_cell_formula_units_Z 22
_cell_length_a 20.947444
_cell_length_b 4.726651
_cell_length_c 8.162118
_cell_angle_alpha 90.000000
_cell_angle_beta 108.494346
_cell_angle_gamma 90.000000
_cell_volume 766.405063
_symmetry_space_group_name_H-M "P 2/C"
_symmetry_group_IT_number 13
_symmetry_cell_setting 'monoclinic'
loop_
_space_group_symop_operation_xyz
x,y,z
-x,y,1/2-z
-x,-y,-z
x,-y,1/2+z
loop_
_atom_site_type_symbol
_atom_site_label
_atom_site_fract_x
_atom_site_fract_y
_atom_site_fract_z
Si Si1 0.770650 0.627994 0.917286
Si Si2 0.589256 0.703076 0.547863
Si Si3 0.048336 0.812433 0.425362
Si Si4 0.862938 0.251344 0.217927
Si Si5 0.500000 0.055584 0.250000
Si Si6 0.316126 0.197309 0.859655
O O1 0.801476 0.815063 0.794357
O O2 0.726036 0.371518 0.809024
O O3 0.829916 0.480413 0.072707
O O4 0.728224 0.800301 0.013411
O O5 0.532043 0.750494 0.636082
O O6 0.617887 0.392171 0.551697
O O7 0.558474 0.848183 0.362456
O O8 0.653638 0.892369 0.650804
O O9 0.099750 0.016525 0.363046
O O10 0.000000 0.672535 0.250000
O O11 0.085332 0.640136 0.599885
O O12 0.000000 0.000000 0.500000
#
# Coordination Sequence:
#
# PCOD9234796 Si02
#       6
#     4   4   4   4   2   4
#     4  10  24  40  63  99 135 182 236 298 364 429
#     4  11  24  42  65  96 136 179 238 294 361 432
#     4   9  20  41  67  95 130 183 235 289 354 424
#     4  10  22  41  63  96 134 171 234 292 351 430
#     4  10  24  40  66  96 130 182 234 300 360 426
#     4  11  24  43  66  99 139 187 236 296 364 435
#
# _framework density 28.705445999999998
#
# number of rings (size 3 to 8) (size 9 to 14) (size 15 to 20)
#    0.000    1.818    0.000    2.182    0.000   16.000 
#    0.000   11.818    0.000    0.000    0.000    0.000 
#    0.000    0.000    0.000    0.000    0.000    0.000 
#
# Total GULP energy -123443.317757 kJ/mol
# GULP energy per Si atom -5611.059898 kJ/mol
# Density = 2.864011 g / cm^3
# Si number density = 28.705446 Si / 1000 Ang^3
#
#
#
# Elastic Constant Matrix: (Units=GPa)
#
#
# Indices 1 2 3 4 5 6 
#
# 1 172.5289 45.5487 54.3290 0.0000 -33.4065 0.0000
# 2 45.5487 112.3126 45.9941 0.0000 -5.3189 0.0000
# 3 54.3290 45.9941 197.1815 0.0000 19.5444 0.0000
# 4 0.0000 0.0000 0.0000 18.3489 0.0000 1.0424
# 5 -33.4065 -5.3189 19.5444 0.0000 73.6280 0.0000
# 6 0.0000 0.0000 0.0000 1.0424 0.0000 41.8107
#
#
#
# Elastic Compliance Matrix: (Units=1/GPa)
#
#
# Indices 1 2 3 4 5 6 
#
# 1 0.007752 -0.002129 -0.002026 0.000000 0.003901 0.000000
# 2 -0.002129 0.010563 -0.001907 0.000000 0.000303 0.000000
# 3 -0.002026 -0.001907 0.006346 0.000000 -0.002741 0.000000
# 4 0.000000 0.000000 0.000000 0.054576 0.000000 -0.001361
# 5 0.003901 0.000303 -0.002741 0.000000 0.016101 0.000000
# 6 0.000000 0.000000 0.000000 -0.001361 0.000000 0.023951
#
#
# Mechanical properties :
#
#
# Convention : Reuss Voigt Hill
#
# Bulk Modulus (GPa) = 79.77093 85.97408 82.87250
# Shear Modulus (GPa) = 36.87520 49.16760 43.02140
#
# Velocity S-wave (km/s) = 3.58803 4.14313 3.87553
# Velocity P-wave (km/s) = 6.70933 7.27343 6.99707
#
# Compressibility (1/GPa) = 0.01253590
#
# Stress axis : x y z
#
# Youngs Moduli (GPa) = 129.00699 94.67308 157.57438
#
# Poissons Ratio (x) = 0.20159 0.31920
# Poissons Ratio (y) = 0.27470 0.30052
# Poissons Ratio (z) = 0.26133 0.18056
#
# Static dielectric constant tensor:
#      x y z
#    x 2.310910 0.000000 0.108160 
#    y 0.000000 2.150470 0.000000 
#    z 0.108160 0.000000 2.195290 
# 
# From -- ./inp_files/22276.got.cif
#   From: 2010.05.17/outbox.cif.g08.bks.cpg/sg13_12_cif.got.tgz:22276.got - 2010.06.03 16:44:36.
