data_PCOD9234586
_publ_section_title
;
Structure prediction by ZEFSAII (Michael W. Deem and Ramdas Pophale) SiO2 
 PCOD9234586
Probable space group: P 2/C
;
_chemical_formula_sum "Si O2"
_cell_formula_units_Z 32
_cell_length_a 15.172075
_cell_length_b 11.571637
_cell_length_c 18.456371
_cell_angle_alpha 90.000000
_cell_angle_beta 151.313077
_cell_angle_gamma 90.000000
_cell_volume 1555.422587
_symmetry_space_group_name_H-M "P 2/C"
_symmetry_group_IT_number 13
_symmetry_cell_setting 'monoclinic'
loop_
_space_group_symop_operation_xyz
x,y,z
-x,y,1/2-z
-x,-y,-z
x,-y,1/2+z
loop_
_atom_site_type_symbol
_atom_site_label
_atom_site_fract_x
_atom_site_fract_y
_atom_site_fract_z
Si Si1 0.984037 0.623524 0.129008
Si Si2 0.484379 0.910985 0.920644
Si Si3 0.302089 0.511997 0.940467
Si Si4 0.845530 0.872969 0.086027
Si Si5 0.622943 0.646071 0.647711
Si Si6 0.997268 0.319884 0.012306
Si Si7 0.161581 0.926225 0.584323
Si Si8 0.282883 0.417281 0.578892
O O1 0.127844 0.557945 0.283966
O O2 0.911772 0.742763 0.111941
O O3 0.081943 0.642116 0.122276
O O4 0.809817 0.544474 0.981275
O O5 0.410112 0.782714 0.886593
O O6 0.343744 0.959006 0.759168
O O7 0.668290 0.882569 0.008637
O O8 0.500000 0.000000 0.000000
O O9 0.378654 0.590654 0.932224
O O10 0.458832 0.417152 0.073022
O O11 0.255905 0.596023 0.973453
O O12 0.000000 0.924987 0.250000
O O13 0.819529 0.931708 0.988772
O O14 0.821608 0.617267 0.825290
O O15 0.093557 0.200426 0.059094
O O16 0.838501 0.333616 0.957768
O O17 0.000000 0.000000 0.500000
O O18 0.500000 0.412505 0.750000
#
# Coordination Sequence:
#
# PCOD9234586 Si02
#       8
#     4   4   4   4   4   4   4   4
#     4  11  22  38  65  92 129 170 215 266 316 391
#     4  11  23  43  68  99 131 170 221 277 336 392
#     4  11  23  38  63  93 130 168 212 265 322 402
#     4  11  22  40  67 101 127 165 222 270 329 390
#     4  10  22  40  64  91 130 170 214 263 332 390
#     4  10  23  41  61  88 128 165 214 264 328 390
#     4  10  23  45  68  92 125 170 217 279 328 390
#     4  12  24  37  54  89 126 168 211 253 322 387
#
# _framework density 20.573187999999998
#
# number of rings (size 3 to 8) (size 9 to 14) (size 15 to 20)
#    0.000    1.250    1.250    4.875    3.500    3.000 
#    2.250    0.000    0.000    0.000    0.000    0.000 
#    0.000    0.000    0.000    0.000    0.000    0.000 
#
# Total GULP energy -178397.049420 kJ/mol
# GULP energy per Si atom -5574.907794 kJ/mol
# Density = 2.052636 g / cm^3
# Si number density = 20.573188 Si / 1000 Ang^3
#
#
#
# Elastic Constant Matrix: (Units=GPa)
#
#
# Indices 1 2 3 4 5 6 
#
# 1 163.6854 23.5912 57.2270 0.0000 -15.0844 0.0000
# 2 23.5912 30.6123 14.0071 0.0000 -9.3167 0.0000
# 3 57.2270 14.0071 143.1014 0.0000 -1.2691 0.0000
# 4 0.0000 0.0000 0.0000 22.2416 0.0000 2.6631
# 5 -15.0844 -9.3167 -1.2691 0.0000 40.0069 0.0000
# 6 0.0000 0.0000 0.0000 2.6631 0.0000 30.6846
#
#
#
# Elastic Compliance Matrix: (Units=1/GPa)
#
#
# Indices 1 2 3 4 5 6 
#
# 1 0.007838 -0.004230 -0.002704 0.000000 0.001884 0.000000
# 2 -0.004230 0.039144 -0.002074 0.000000 0.007455 0.000000
# 3 -0.002704 -0.002074 0.008261 0.000000 -0.001240 0.000000
# 4 0.000000 0.000000 0.000000 0.045433 0.000000 -0.003943
# 5 0.001884 0.007455 -0.001240 0.000000 0.027403 0.000000
# 6 0.000000 0.000000 0.000000 -0.003943 0.000000 0.032932
#
#
# Mechanical properties :
#
#
# Convention : Reuss Voigt Hill
#
# Bulk Modulus (GPa) = 26.86101 58.56108 42.71105
# Shear Modulus (GPa) = 26.11860 34.75822 30.43841
#
# Velocity S-wave (km/s) = 3.56693 4.11480 3.85062
# Velocity P-wave (km/s) = 5.48167 7.14857 6.36988
#
# Compressibility (1/GPa) = 0.03722868
#
# Stress axis : x y z
#
# Youngs Moduli (GPa) = 127.58735 25.54674 121.04685
#
# Poissons Ratio (x) = 0.10805 0.32727
# Poissons Ratio (y) = 0.53963 0.25105
# Poissons Ratio (z) = 0.34495 0.05298
#
# Static dielectric constant tensor:
#      x y z
#    x 1.748560 0.000000 -0.038760 
#    y 0.000000 1.720420 0.000000 
#    z -0.038760 0.000000 1.746610 
# 
# From -- ./inp_files/68689.got.cif
#   From: 2010.05.17/outbox.cif.g08.bks.cpg/sg13_35_cif.got.tgz:68689.got - 2010.06.03 16:44:36.
