data_PCOD9234435
_publ_section_title
;
Structure prediction by ZEFSAII (Michael W. Deem and Ramdas Pophale) SiO2 
 PCOD9234435
Probable space group: P 2/C
;
_chemical_formula_sum "Si O2"
_cell_formula_units_Z 24
_cell_length_a 10.523703
_cell_length_b 11.013322
_cell_length_c 10.165639
_cell_angle_alpha 90.000000
_cell_angle_beta 58.100667
_cell_angle_gamma 90.000000
_cell_volume 1000.271643
_symmetry_space_group_name_H-M "P 2/C"
_symmetry_group_IT_number 13
_symmetry_cell_setting 'monoclinic'
loop_
_space_group_symop_operation_xyz
x,y,z
-x,y,1/2-z
-x,-y,-z
x,-y,1/2+z
loop_
_atom_site_type_symbol
_atom_site_label
_atom_site_fract_x
_atom_site_fract_y
_atom_site_fract_z
Si Si1 0.333976 0.885225 0.047639
Si Si2 0.103114 0.980980 0.821264
Si Si3 0.833417 0.715426 0.794710
Si Si4 0.607687 0.855105 0.071190
Si Si5 0.181011 0.638591 0.144248
Si Si6 0.818665 0.502012 0.609825
O O1 0.242394 0.930500 0.226364
O O2 0.502351 0.856331 0.998388
O O3 0.251424 0.762866 0.052523
O O4 0.332868 0.005118 0.956900
O O5 0.000000 0.002472 0.750000
O O6 0.152259 0.842238 0.789673
O O7 0.000000 0.000000 0.000000
O O8 0.775420 0.615858 0.726050
O O9 0.000000 0.679013 0.750000
O O10 0.735225 0.756481 0.973483
O O11 0.500000 0.826640 0.250000
O O12 0.228579 0.608583 0.268655
O O13 0.000000 0.648461 0.250000
O O14 0.226935 0.532817 0.014913
O O15 0.000000 0.500000 0.500000
#
# Coordination Sequence:
#
# PCOD9234435 Si02
#       6
#     4   4   4   4   4   4
#     4  10  23  39  61  92 134 178 220 271 341 410
#     4  10  23  35  61  98 130 169 226 278 335 407
#     4  10  22  40  63  95 130 170 223 280 332 404
#     4  10  24  42  63  95 136 179 216 272 346 406
#     4  10  22  39  65  98 130 177 224 280 331 399
#     4  10  22  39  65  99 134 170 225 281 338 382
#
# _framework density 23.993483000000001
#
# number of rings (size 3 to 8) (size 9 to 14) (size 15 to 20)
#    0.000    2.000    0.000    2.000   14.000    4.667 
#    0.000    0.833    0.000    3.000    0.000    0.000 
#    0.000    0.000    0.000    0.000    0.000    0.000 
#
# Total GULP energy -134159.747976 kJ/mol
# GULP energy per Si atom -5589.989499 kJ/mol
# Density = 2.393887 g / cm^3
# Si number density = 23.993483 Si / 1000 Ang^3
#
#
#
# Elastic Constant Matrix: (Units=GPa)
#
#
# Indices 1 2 3 4 5 6 
#
# 1 57.2105 17.8792 27.9582 0.0000 6.0963 0.0000
# 2 17.8792 83.9242 34.1795 0.0000 4.4298 0.0000
# 3 27.9582 34.1795 167.9350 0.0000 13.1169 0.0000
# 4 0.0000 0.0000 0.0000 20.0478 0.0000 -3.4529
# 5 6.0963 4.4298 13.1169 0.0000 35.4240 0.0000
# 6 0.0000 0.0000 0.0000 -3.4529 0.0000 14.8742
#
#
#
# Elastic Compliance Matrix: (Units=1/GPa)
#
#
# Indices 1 2 3 4 5 6 
#
# 1 0.019904 -0.003104 -0.002517 0.000000 -0.002105 0.000000
# 2 -0.003104 0.013492 -0.002203 0.000000 -0.000337 0.000000
# 3 -0.002517 -0.002203 0.006968 0.000000 -0.001872 0.000000
# 4 0.000000 0.000000 0.000000 0.051958 0.000000 0.012061
# 5 -0.002105 -0.000337 -0.001872 0.000000 0.029327 0.000000
# 6 0.000000 0.000000 0.000000 0.012061 0.000000 0.070030
#
#
# Mechanical properties :
#
#
# Convention : Reuss Voigt Hill
#
# Bulk Modulus (GPa) = 40.46055 52.12260 46.29157
# Shear Modulus (GPa) = 23.19471 29.33940 26.26706
#
# Velocity S-wave (km/s) = 3.11257 3.50066 3.31230
# Velocity P-wave (km/s) = 5.46051 6.17335 5.82784
#
# Compressibility (1/GPa) = 0.02471544
#
# Stress axis : x y z
#
# Youngs Moduli (GPa) = 50.24132 74.11952 143.50655
#
# Poissons Ratio (x) = 0.23006 0.36128
# Poissons Ratio (y) = 0.15595 0.31612
# Poissons Ratio (z) = 0.12648 0.16327
#
# Static dielectric constant tensor:
#      x y z
#    x 2.040690 0.000000 0.110780 
#    y 0.000000 1.915840 0.000000 
#    z 0.110780 0.000000 1.977020 
# 
# From -- ./inp_files/33718.got.cif
#   From: 2010.05.17/outbox.cif.g08.bks.cpg/sg13_17_cif.got.tgz:33718.got - 2010.06.03 16:44:36.
