data_PCOD9234755
_publ_section_title
;
Structure prediction by ZEFSAII (Michael W. Deem and Ramdas Pophale) SiO2 
 PCOD9234755
Probable space group: P 2/C
;
_chemical_formula_sum "Si O2"
_cell_formula_units_Z 18
_cell_length_a 10.561396
_cell_length_b 7.392500
_cell_length_c 23.867015
_cell_angle_alpha 90.000000
_cell_angle_beta 158.069129
_cell_angle_gamma 90.000000
_cell_volume 695.964373
_symmetry_space_group_name_H-M "P 2/C"
_symmetry_group_IT_number 13
_symmetry_cell_setting 'monoclinic'
loop_
_space_group_symop_operation_xyz
x,y,z
-x,y,1/2-z
-x,-y,-z
x,-y,1/2+z
loop_
_atom_site_type_symbol
_atom_site_label
_atom_site_fract_x
_atom_site_fract_y
_atom_site_fract_z
Si Si1 0.373003 0.247029 0.863062
Si Si2 0.364117 0.585413 0.139374
Si Si3 0.321866 0.242130 0.278641
Si Si4 0.000000 0.572537 0.750000
Si Si5 0.149820 0.065989 0.927928
O O1 0.601021 0.299709 0.902702
O O2 0.312379 0.431107 0.872010
O O3 0.013651 0.184903 0.688479
O O4 0.545641 0.072946 0.960864
O O5 0.500000 0.686928 0.250000
O O6 0.617163 0.415536 0.233977
O O7 0.000000 0.500000 0.000000
O O8 0.062598 0.302547 0.221819
O O9 0.677810 0.190251 0.454303
O O10 0.160830 0.067003 0.183665
#
# Coordination Sequence:
#
# PCOD9234755 Si02
#       5
#     4   4   4   2   4
#     4  10  23  41  62  89 120 157 199 243 297 351
#     4  11  22  41  64  87 118 159 202 244 290 353
#     4  10  23  41  62  89 120 157 199 243 297 351
#     4  10  24  40  64  90 120 158 200 244 292 358
#     4  10  22  41  60  90 124 154 196 245 300 352
#
# _framework density 25.863392999999999
#
# number of rings (size 3 to 8) (size 9 to 14) (size 15 to 20)
#    0.000    1.778    0.000    2.667    0.000   14.222 
#    0.000   22.222    0.000    0.000    0.000    0.000 
#    0.000    0.000    0.000    0.000    0.000    0.000 
#
# Total GULP energy -100690.710810 kJ/mol
# GULP energy per Si atom -5593.928378 kJ/mol
# Density = 2.580453 g / cm^3
# Si number density = 25.863393 Si / 1000 Ang^3
#
#
#
# Elastic Constant Matrix: (Units=GPa)
#
#
# Indices 1 2 3 4 5 6 
#
# 1 122.5139 27.0175 27.8037 0.0000 11.9445 0.0000
# 2 27.0175 92.5802 21.1277 0.0000 -14.2145 0.0000
# 3 27.8037 21.1277 136.2926 0.0000 -17.8300 0.0000
# 4 0.0000 0.0000 0.0000 66.8753 0.0000 6.4304
# 5 11.9445 -14.2145 -17.8300 0.0000 32.4980 0.0000
# 6 0.0000 0.0000 0.0000 6.4304 0.0000 30.1380
#
#
#
# Elastic Compliance Matrix: (Units=1/GPa)
#
#
# Indices 1 2 3 4 5 6 
#
# 1 0.010086 -0.003398 -0.002381 0.000000 -0.006499 0.000000
# 2 -0.003398 0.012915 -0.000438 0.000000 0.006658 0.000000
# 3 -0.002381 -0.000438 0.008597 0.000000 0.005400 0.000000
# 4 0.000000 0.000000 0.000000 0.015266 0.000000 -0.003257
# 5 -0.006499 0.006658 0.005400 0.000000 0.039035 0.000000
# 6 0.000000 0.000000 0.000000 -0.003257 0.000000 0.033876
#
#
# Mechanical properties :
#
#
# Convention : Reuss Voigt Hill
#
# Bulk Modulus (GPa) = 52.17984 55.92050 54.05017
# Shear Modulus (GPa) = 36.07584 44.26477 40.17031
#
# Velocity S-wave (km/s) = 3.73884 4.14150 3.94531
# Velocity P-wave (km/s) = 6.23358 6.67366 6.45737
#
# Compressibility (1/GPa) = 0.01916449
#
# Stress axis : x y z
#
# Youngs Moduli (GPa) = 99.15057 77.42836 116.31605
#
# Poissons Ratio (x) = 0.26309 0.27695
# Poissons Ratio (y) = 0.33690 0.05094
# Poissons Ratio (z) = 0.23608 0.03391
#
# Static dielectric constant tensor:
#      x y z
#    x 2.075460 0.000000 0.010910 
#    y 0.000000 1.927560 0.000000 
#    z 0.010910 0.000000 2.080620 
# 
# From -- ./inp_files/14775.got.cif
#   From: 2010.05.17/outbox.cif.g08.bks.cpg/sg13_8_cif.got.tgz:14775.got - 2010.06.03 16:44:36.
