data_PCOD9234706
_publ_section_title
;
Structure prediction by ZEFSAII (Michael W. Deem and Ramdas Pophale) SiO2 
 PCOD9234706
Probable space group: P 2/C
;
_chemical_formula_sum "Si O2"
_cell_formula_units_Z 30
_cell_length_a 28.341065
_cell_length_b 8.424740
_cell_length_c 7.716906
_cell_angle_alpha 90.000000
_cell_angle_beta 132.745692
_cell_angle_gamma 90.000000
_cell_volume 1353.109387
_symmetry_space_group_name_H-M "P 2/C"
_symmetry_group_IT_number 13
_symmetry_cell_setting 'monoclinic'
loop_
_space_group_symop_operation_xyz
x,y,z
-x,y,1/2-z
-x,-y,-z
x,-y,1/2+z
loop_
_atom_site_type_symbol
_atom_site_label
_atom_site_fract_x
_atom_site_fract_y
_atom_site_fract_z
Si Si1 0.023060 0.826458 0.004078
Si Si2 0.695054 0.389798 0.013907
Si Si3 0.569572 0.152957 0.474527
Si Si4 0.393169 0.828347 0.037149
Si Si5 0.567394 0.403769 0.164049
Si Si6 0.875213 0.362331 0.881006
Si Si7 0.000000 0.418330 0.750000
Si Si8 0.212714 0.388048 0.544218
O O1 0.000000 0.809980 0.750000
O O2 0.997721 0.696111 0.076867
O O3 0.097970 0.779939 0.170712
O O4 0.000000 0.000000 0.000000
O O5 0.673928 0.259439 0.099059
O O6 0.629104 0.481021 0.797112
O O7 0.738588 0.311815 0.972729
O O8 0.738400 0.521466 0.209163
O O9 0.500000 0.085573 0.250000
O O10 0.573974 0.176683 0.690805
O O11 0.575520 0.305121 0.363903
O O12 0.616020 0.009166 0.541750
O O13 0.429749 0.724622 0.983734
O O14 0.500000 0.500000 0.000000
O O15 0.837388 0.299660 0.955682
O O16 0.829615 0.478823 0.658777
O O17 0.935581 0.475003 0.086751
#
# Coordination Sequence:
#
# PCOD9234706 Si02
#       8
#     4   4   4   4   4   4   2   4
#     4  12  24  40  65 106 154 185 221 294 370 423
#     4  11  23  44  69 105 141 185 246 310 355 430
#     4  12  27  44  69 102 145 186 229 296 379 462
#     4  12  26  47  70 102 142 186 239 295 376 437
#     4  12  28  46  74 111 145 185 247 318 383 438
#     4  11  21  41  73 104 138 186 244 295 351 429
#     4  12  22  42  72 114 138 180 240 294 356 420
#     4  10  22  40  70 105 138 188 251 296 350 432
#
# _framework density 22.171154999999999
#
# number of rings (size 3 to 8) (size 9 to 14) (size 15 to 20)
#    0.000    0.533    5.333    3.200    3.733    0.533 
#    0.000    0.000    0.000   27.200    0.000    0.000 
#    0.000    0.000    0.000    0.000    0.000    0.000 
#
# Total GULP energy -167581.057228 kJ/mol
# GULP energy per Si atom -5586.035241 kJ/mol
# Density = 2.212069 g / cm^3
# Si number density = 22.171155 Si / 1000 Ang^3
#
#
#
# Elastic Constant Matrix: (Units=GPa)
#
#
# Indices 1 2 3 4 5 6 
#
# 1 181.2611 60.1795 34.1884 0.0000 -3.1708 0.0000
# 2 60.1795 111.3881 30.0257 0.0000 1.4958 0.0000
# 3 34.1884 30.0257 98.3351 0.0000 -9.1788 0.0000
# 4 0.0000 0.0000 0.0000 -22.6206 0.0000 -4.3820
# 5 -3.1708 1.4958 -9.1788 0.0000 47.8454 0.0000
# 6 0.0000 0.0000 0.0000 -4.3820 0.0000 34.1701
#
#
#
# Elastic Compliance Matrix: (Units=1/GPa)
#
#
# Indices 1 2 3 4 5 6 
#
# 1 0.006893 -0.003367 -0.001340 0.000000 0.000305 0.000000
# 2 -0.003367 0.011465 -0.002428 0.000000 -0.001047 0.000000
# 3 -0.001340 -0.002428 0.011583 0.000000 0.002209 0.000000
# 4 0.000000 0.000000 0.000000 -0.043136 0.000000 -0.005532
# 5 0.000305 -0.001047 0.002209 0.000000 0.021377 0.000000
# 6 0.000000 0.000000 0.000000 -0.005532 0.000000 0.028556
#
#
# Mechanical properties :
#
#
# Convention : Reuss Voigt Hill
#
# Bulk Modulus (GPa) = 63.81145 71.08571 67.44858
# Shear Modulus (GPa) = 88.91819 29.65169 59.28494
#
# Velocity S-wave (km/s) = 6.33975 3.66101 5.17665
# Velocity P-wave (km/s) = 9.07930 7.07125 8.13745
#
# Compressibility (1/GPa) = 0.01567117
#
# Stress axis : x y z
#
# Youngs Moduli (GPa) = 145.07940 87.22064 86.33540
#
# Poissons Ratio (x) = 0.29366 0.11568
# Poissons Ratio (y) = 0.48846 0.20962
# Poissons Ratio (z) = 0.19440 0.21177
#
# Static dielectric constant tensor:
#      x y z
#    x 1.916040 0.000000 0.001570 
#    y 0.000000 1.874460 0.000000 
#    z 0.001570 0.000000 1.853770 
# 
# From -- ./inp_files/24898.got.cif
#   From: 2010.05.17/outbox.cif.g08.bks.cpg/sg13_13_cif.got.tgz:24898.got - 2010.06.03 16:44:36.
