data_PCOD9234216
_publ_section_title
;
Structure prediction by ZEFSAII (Michael W. Deem and Ramdas Pophale) SiO2 
 PCOD9234216
Probable space group: P 2/C
;
_chemical_formula_sum "Si O2"
_cell_formula_units_Z 20
_cell_length_a 5.142303
_cell_length_b 20.777988
_cell_length_c 9.176979
_cell_angle_alpha 90.000000
_cell_angle_beta 92.703854
_cell_angle_gamma 90.000000
_cell_volume 979.438394
_symmetry_space_group_name_H-M "P 2/C"
_symmetry_group_IT_number 13
_symmetry_cell_setting 'monoclinic'
loop_
_space_group_symop_operation_xyz
x,y,z
-x,y,1/2-z
-x,-y,-z
x,-y,1/2+z
loop_
_atom_site_type_symbol
_atom_site_label
_atom_site_fract_x
_atom_site_fract_y
_atom_site_fract_z
Si Si1 0.236203 0.688269 0.144672
Si Si2 0.500000 0.000495 0.250000
Si Si3 0.644932 0.909447 0.017091
Si Si4 0.204310 0.558352 0.985314
Si Si5 0.121815 0.832174 0.088877
Si Si6 0.500000 0.506741 0.750000
O O1 0.500000 0.682209 0.250000
O O2 0.171241 0.632239 0.027020
O O3 0.219125 0.759029 0.074166
O O4 0.000000 0.682976 0.250000
O O5 0.626834 0.045534 0.375581
O O6 0.691715 0.955567 0.158861
O O7 0.369992 0.875966 0.053186
O O8 0.871009 0.857805 0.996113
O O9 0.411430 0.537877 0.115614
O O10 0.291609 0.551810 0.821514
O O11 0.000000 0.500000 0.000000
O O12 0.000000 0.835013 0.250000
#
# Coordination Sequence:
#
# PCOD9234216 Si02
#       6
#     4   2   4   4   4   2
#     4  11  23  40  67  96 124 176 221 263 322 388
#     4  10  24  40  68  94 130 166 212 262 326 382
#     4  11  23  41  64  97 126 167 212 265 317 385
#     4  11  22  40  64  96 128 170 218 279 321 390
#     4  11  21  40  64  91 130 164 217 264 314 383
#     4  10  22  38  62  90 132 160 210 278 334 374
#
# _framework density 20.419865000000001
#
# number of rings (size 3 to 8) (size 9 to 14) (size 15 to 20)
#    0.000    1.200    3.000    4.200    2.800    5.600 
#    0.000    1.000    4.400    0.000    0.000    0.000 
#    0.000    0.000    0.000    0.000    0.000    0.000 
#
# Total GULP energy -111381.515700 kJ/mol
# GULP energy per Si atom -5569.075785 kJ/mol
# Density = 2.037339 g / cm^3
# Si number density = 20.419865 Si / 1000 Ang^3
#
#
#
# Elastic Constant Matrix: (Units=GPa)
#
#
# Indices 1 2 3 4 5 6 
#
# 1 111.2902 39.0439 15.2555 0.0000 -12.7505 0.0000
# 2 39.0439 142.5350 48.2514 0.0000 -7.8303 0.0000
# 3 15.2555 48.2514 88.2378 0.0000 -16.3822 0.0000
# 4 0.0000 0.0000 0.0000 -30.3146 0.0000 32.8075
# 5 -12.7505 -7.8303 -16.3822 0.0000 22.6856 0.0000
# 6 0.0000 0.0000 0.0000 32.8075 0.0000 28.5670
#
#
#
# Elastic Compliance Matrix: (Units=1/GPa)
#
#
# Indices 1 2 3 4 5 6 
#
# 1 0.010502 -0.002829 0.000746 0.000000 0.005465 0.000000
# 2 -0.002829 0.009376 -0.005003 0.000000 -0.001967 0.000000
# 3 0.000746 -0.005003 0.015818 0.000000 0.010115 0.000000
# 4 0.000000 0.000000 0.000000 -0.014708 0.000000 0.016891
# 5 0.005465 -0.001967 0.010115 0.000000 0.053778 0.000000
# 6 0.000000 0.000000 0.000000 0.016891 0.000000 0.015607
#
#
# Mechanical properties :
#
#
# Convention : Reuss Voigt Hill
#
# Bulk Modulus (GPa) = 46.46116 60.79608 53.62862
# Shear Modulus (GPa) = 44.75403 20.15507 32.45455
#
# Velocity S-wave (km/s) = 4.68663 3.14512 3.99100
# Velocity P-wave (km/s) = 7.21722 6.55947 6.89619
#
# Compressibility (1/GPa) = 0.02152336
#
# Stress axis : x y z
#
# Youngs Moduli (GPa) = 95.22117 106.64976 63.21888
#
# Poissons Ratio (x) = 0.30171 -0.04716
# Poissons Ratio (y) = 0.26938 0.31631
# Poissons Ratio (z) = -0.07103 0.53361
#
# Static dielectric constant tensor:
#      x y z
#    x 1.813800 0.000000 0.018360 
#    y 0.000000 1.831140 0.000000 
#    z 0.018360 0.000000 1.755820 
# 
# From -- ./inp_files/9457.got.cif
#   From: 2010.05.17/outbox.cif.g08.bks.cpg/sg13_5_cif.got.tgz:9457.got - 2010.06.03 16:44:36.
