data_PCOD9234028
_publ_section_title
;
Structure prediction by ZEFSAII (Michael W. Deem and Ramdas Pophale) SiO2 
 PCOD9234028
Probable space group: P 2/C
;
_chemical_formula_sum "Si O2"
_cell_formula_units_Z 32
_cell_length_a 24.264694
_cell_length_b 11.238318
_cell_length_c 12.004462
_cell_angle_alpha 90.000000
_cell_angle_beta 29.000465
_cell_angle_gamma 90.000000
_cell_volume 1587.071250
_symmetry_space_group_name_H-M "P 2/C"
_symmetry_group_IT_number 13
_symmetry_cell_setting 'monoclinic'
loop_
_space_group_symop_operation_xyz
x,y,z
-x,y,1/2-z
-x,-y,-z
x,-y,1/2+z
loop_
_atom_site_type_symbol
_atom_site_label
_atom_site_fract_x
_atom_site_fract_y
_atom_site_fract_z
Si Si1 0.818232 0.717058 0.651480
Si Si2 0.880687 0.286469 0.406112
Si Si3 0.817036 0.734639 0.397197
Si Si4 0.132617 0.524455 0.762044
Si Si5 0.649389 0.330691 0.913528
Si Si6 0.404834 0.600751 0.512002
Si Si7 0.961971 0.135366 0.073451
Si Si8 0.572101 0.279909 0.295574
O O1 0.856702 0.731471 0.456083
O O2 0.844687 0.589850 0.661787
O O3 0.875951 0.815476 0.629413
O O4 0.682741 0.701473 0.877622
O O5 0.844945 0.381099 0.374917
O O6 0.776086 0.280772 0.675264
O O7 0.906413 0.167512 0.290395
O O8 0.000000 0.323748 0.250000
O O9 0.806623 0.597997 0.375280
O O10 0.690547 0.792231 0.611395
O O11 0.920384 0.791767 0.147570
O O12 0.000000 0.500000 0.000000
O O13 0.645494 0.468352 0.883269
O O14 0.608553 0.334865 0.112895
O O15 0.559029 0.249271 0.004095
O O16 0.500000 0.592005 0.250000
O O17 0.441549 0.641570 0.569792
O O18 0.000000 0.000000 0.000000
#
# Coordination Sequence:
#
# PCOD9234028 Si02
#       8
#     4   4   4   4   4   4   4   4
#     4  10  23  38  58  93 126 168 203 262 326 385
#     4  11  24  37  59  91 121 165 205 262 325 390
#     4  11  21  39  62  87 129 168 211 254 326 397
#     4  11  22  32  56  88 132 159 197 245 318 398
#     4  11  22  36  56  86 138 171 215 253 311 386
#     4  11  22  34  60  90 132 178 216 251 312 400
#     4  11  25  43  64  89 117 160 220 286 333 379
#     4  10  22  36  54  86 124 175 210 256 301 381
#
# _framework density 20.162927
#
# number of rings (size 3 to 8) (size 9 to 14) (size 15 to 20)
#    0.000    1.250    3.750    3.750    7.000    1.000 
#    0.000    0.000    0.000    0.750    6.500    0.000 
#    0.000    0.000    0.000    0.000    0.000    0.000 
#
# Total GULP energy -178264.811887 kJ/mol
# GULP energy per Si atom -5570.775371 kJ/mol
# Density = 2.011704 g / cm^3
# Si number density = 20.162927 Si / 1000 Ang^3
#
#
#
# Elastic Constant Matrix: (Units=GPa)
#
#
# Indices 1 2 3 4 5 6 
#
# 1 122.4277 14.8401 37.3747 0.0000 -10.8572 0.0000
# 2 14.8401 69.8698 15.9757 0.0000 0.1605 0.0000
# 3 37.3747 15.9757 124.2996 0.0000 -0.6532 0.0000
# 4 0.0000 0.0000 0.0000 10.1438 0.0000 1.9613
# 5 -10.8572 0.1605 -0.6532 0.0000 38.0491 0.0000
# 6 0.0000 0.0000 0.0000 1.9613 0.0000 3.0504
#
#
#
# Elastic Compliance Matrix: (Units=1/GPa)
#
#
# Indices 1 2 3 4 5 6 
#
# 1 0.009372 -0.001397 -0.002625 0.000000 0.002635 0.000000
# 2 -0.001397 0.014954 -0.001505 0.000000 -0.000487 0.000000
# 3 -0.002625 -0.001505 0.009025 0.000000 -0.000588 0.000000
# 4 0.000000 0.000000 0.000000 0.112578 0.000000 -0.072384
# 5 0.002635 -0.000487 -0.000588 0.000000 0.027026 0.000000
# 6 0.000000 0.000000 0.000000 -0.072384 0.000000 0.374365
#
#
# Mechanical properties :
#
#
# Convention : Reuss Voigt Hill
#
# Bulk Modulus (GPa) = 44.84473 50.33091 47.58782
# Shear Modulus (GPa) = 8.83697 26.80910 17.82303
#
# Velocity S-wave (km/s) = 2.09578 3.65036 2.97636
# Velocity P-wave (km/s) = 5.30527 6.54088 5.95521
#
# Compressibility (1/GPa) = 0.02229917
#
# Stress axis : x y z
#
# Youngs Moduli (GPa) = 106.69681 66.87121 110.80834
#
# Poissons Ratio (x) = 0.09339 0.29085
# Poissons Ratio (y) = 0.14901 0.16673
# Poissons Ratio (z) = 0.28005 0.10062
#
# Static dielectric constant tensor:
#      x y z
#    x 7.080640 0.000000 -1.320360 
#    y 0.000000 1.711450 0.000000 
#    z -1.320360 0.000000 2.072250 
# 
# From -- ./inp_files/41852.got.cif
#   From: 2010.05.17/outbox.cif.g08.bks.cpg/sg13_21_cif.got.tgz:41852.got - 2010.06.03 16:44:36.
