data_PCOD9234414
_publ_section_title
;
Structure prediction by ZEFSAII (Michael W. Deem and Ramdas Pophale) SiO2 
 PCOD9234414
Probable space group: P 2/C
;
_chemical_formula_sum "Si O2"
_cell_formula_units_Z 26
_cell_length_a 5.308550
_cell_length_b 14.297506
_cell_length_c 17.913250
_cell_angle_alpha 90.000000
_cell_angle_beta 61.209516
_cell_angle_gamma 90.000000
_cell_volume 1191.533769
_symmetry_space_group_name_H-M "P 2/C"
_symmetry_group_IT_number 13
_symmetry_cell_setting 'monoclinic'
loop_
_space_group_symop_operation_xyz
x,y,z
-x,y,1/2-z
-x,-y,-z
x,-y,1/2+z
loop_
_atom_site_type_symbol
_atom_site_label
_atom_site_fract_x
_atom_site_fract_y
_atom_site_fract_z
Si Si1 0.446985 0.243229 0.890368
Si Si2 0.263111 0.271565 0.075472
Si Si3 0.732016 0.389376 0.082030
Si Si4 0.000000 0.320901 0.750000
Si Si5 0.908323 0.578581 0.111062
Si Si6 0.828277 0.935470 0.852397
Si Si7 0.676642 0.955569 0.146213
O O1 0.279002 0.335346 0.890711
O O2 0.290428 0.147948 0.891203
O O3 0.736769 0.251457 0.802129
O O4 0.475992 0.251097 0.975176
O O5 0.435204 0.335700 0.109859
O O6 0.191006 0.171361 0.119657
O O7 0.979111 0.322323 0.082272
O O8 0.733140 0.482448 0.131696
O O9 0.831873 0.426115 0.985486
O O10 0.004500 0.389411 0.819842
O O11 0.000000 0.937739 0.750000
O O12 0.521697 0.982916 0.880472
O O13 0.020832 0.995457 0.881567
O O14 0.500000 0.949852 0.250000
#
# Coordination Sequence:
#
# PCOD9234414 Si02
#       7
#     4   4   4   2   4   4   4
#     4  11  25  38  65  97 135 168 215 269 333 392
#     4  11  23  44  67  95 129 173 222 268 324 387
#     4  10  23  42  68  92 128 179 209 266 329 382
#     4  12  22  40  62  98 134 174 218 276 320 402
#     4  10  23  40  64  93 134 168 219 260 328 395
#     4  10  23  42  64  91 126 170 222 270 321 384
#     4  10  22  39  64  93 128 171 209 268 332 381
#
# _framework density 21.820616999999999
#
# number of rings (size 3 to 8) (size 9 to 14) (size 15 to 20)
#    0.000    1.538    1.538    2.308    7.538    3.077 
#    1.385    0.000    0.000    0.000    0.000    0.000 
#    0.000    0.000    0.000    0.000    0.000    0.000 
#
# Total GULP energy -145384.581446 kJ/mol
# GULP energy per Si atom -5591.714671 kJ/mol
# Density = 2.177095 g / cm^3
# Si number density = 21.820617 Si / 1000 Ang^3
#
#
#
# Elastic Constant Matrix: (Units=GPa)
#
#
# Indices 1 2 3 4 5 6 
#
# 1 116.6111 63.8218 20.5118 0.0000 22.7147 0.0000
# 2 63.8218 172.1248 20.8954 0.0000 41.1323 0.0000
# 3 20.5118 20.8954 20.5147 0.0000 17.0968 0.0000
# 4 0.0000 0.0000 0.0000 24.6560 0.0000 -0.1721
# 5 22.7147 41.1323 17.0968 0.0000 98.4729 0.0000
# 6 0.0000 0.0000 0.0000 -0.1721 0.0000 41.9096
#
#
#
# Elastic Compliance Matrix: (Units=1/GPa)
#
#
# Indices 1 2 3 4 5 6 
#
# 1 0.011923 -0.003420 -0.008578 0.000000 0.000167 0.000000
# 2 -0.003420 0.007917 -0.002977 0.000000 -0.002001 0.000000
# 3 -0.008578 -0.002977 0.067425 0.000000 -0.008484 0.000000
# 4 0.000000 0.000000 0.000000 0.040559 0.000000 0.000167
# 5 0.000167 -0.002001 -0.008484 0.000000 0.012425 0.000000
# 6 0.000000 0.000000 0.000000 0.000167 0.000000 0.023862
#
#
# Mechanical properties :
#
#
# Convention : Reuss Voigt Hill
#
# Bulk Modulus (GPa) = 17.44704 57.74539 37.59622
# Shear Modulus (GPa) = 23.45573 46.60915 35.03244
#
# Velocity S-wave (km/s) = 3.28218 4.62672 4.01118
# Velocity P-wave (km/s) = 4.73039 7.42046 6.22253
#
# Compressibility (1/GPa) = 0.05731630
#
# Stress axis : x y z
#
# Youngs Moduli (GPa) = 83.86880 126.30388 14.83124
#
# Poissons Ratio (x) = 0.43192 0.12722
# Poissons Ratio (y) = 0.28681 0.04416
# Poissons Ratio (z) = 0.71943 0.37603
#
# Static dielectric constant tensor:
#      x y z
#    x 1.817260 0.000000 -0.005950 
#    y 0.000000 1.696680 0.000000 
#    z -0.005950 0.000000 1.858180 
# 
# From -- ./inp_files/73342.got.cif
#   From: 2010.05.17/outbox.cif.g08.bks.cpg/sg13_37_cif.got.tgz:73342.got - 2010.06.03 16:44:36.
