data_PCOD9234614
_publ_section_title
;
Structure prediction by ZEFSAII (Michael W. Deem and Ramdas Pophale) SiO2 
 PCOD9234614
Probable space group: P 2/C
;
_chemical_formula_sum "Si O2"
_cell_formula_units_Z 30
_cell_length_a 14.985001
_cell_length_b 11.617283
_cell_length_c 9.209176
_cell_angle_alpha 90.000000
_cell_angle_beta 113.414468
_cell_angle_gamma 90.000000
_cell_volume 1471.164469
_symmetry_space_group_name_H-M "P 2/C"
_symmetry_group_IT_number 13
_symmetry_cell_setting 'monoclinic'
loop_
_space_group_symop_operation_xyz
x,y,z
-x,y,1/2-z
-x,-y,-z
x,-y,1/2+z
loop_
_atom_site_type_symbol
_atom_site_label
_atom_site_fract_x
_atom_site_fract_y
_atom_site_fract_z
Si Si1 0.221971 0.130041 0.352820
Si Si2 0.261117 0.356492 0.532370
Si Si3 0.428161 0.458887 0.077342
Si Si4 0.734970 0.704309 0.148013
Si Si5 0.895435 0.548200 0.116190
Si Si6 0.776726 0.084290 0.466588
Si Si7 0.000000 0.169101 0.250000
Si Si8 0.963655 0.225418 0.554139
O O1 0.246133 0.262709 0.398175
O O2 0.262029 0.101012 0.220323
O O3 0.104791 0.114490 0.287765
O O4 0.254642 0.037909 0.492238
O O5 0.355216 0.437869 0.576179
O O6 0.271454 0.283534 0.685227
O O7 0.167829 0.440712 0.475560
O O8 0.500000 0.420467 0.250000
O O9 0.500000 0.500000 0.000000
O O10 0.358457 0.359799 0.974728
O O11 0.825963 0.617251 0.182710
O O12 0.748837 0.819672 0.066740
O O13 0.912981 0.648421 0.008445
O O14 0.000000 0.514810 0.250000
O O15 0.891221 0.116461 0.517841
O O16 0.018183 0.217506 0.431857
O O17 0.000000 0.230633 0.750000
#
# Coordination Sequence:
#
# PCOD9234614 Si02
#       8
#     4   4   4   4   4   4   2   4
#     4  11  25  39  62  89 124 173 220 276 320 380
#     4  11  24  39  64  95 133 169 216 264 327 393
#     4  11  23  43  72 101 129 166 207 265 327 397
#     4  10  22  40  65  94 129 168 214 265 324 388
#     4   9  21  37  59  88 131 180 212 258 318 387
#     4  10  23  41  61  86 122 166 215 273 324 373
#     4  10  24  36  58  92 122 174 240 274 320 392
#     4   9  20  37  59  82 120 168 223 279 322 376
#
# _framework density 20.392009999999999
#
# number of rings (size 3 to 8) (size 9 to 14) (size 15 to 20)
#    0.000    1.867    1.333    0.800   11.200    6.933 
#    0.000    0.000    5.867    1.600    0.000    0.000 
#    0.000    0.000    0.000    0.000    0.000    0.000 
#
# Total GULP energy -167006.389069 kJ/mol
# GULP energy per Si atom -5566.879636 kJ/mol
# Density = 2.034560 g / cm^3
# Si number density = 20.392010 Si / 1000 Ang^3
#
#
#
# Elastic Constant Matrix: (Units=GPa)
#
#
# Indices 1 2 3 4 5 6 
#
# 1 61.8244 -11.2834 16.3654 0.0000 10.7149 0.0000
# 2 -11.2834 51.5195 10.5907 0.0000 2.8855 0.0000
# 3 16.3654 10.5907 96.1376 0.0000 -12.8714 0.0000
# 4 0.0000 0.0000 0.0000 -18.6361 0.0000 39.5524
# 5 10.7149 2.8855 -12.8714 0.0000 36.2946 0.0000
# 6 0.0000 0.0000 0.0000 39.5524 0.0000 -36.4797
#
#
#
# Elastic Compliance Matrix: (Units=1/GPa)
#
#
# Indices 1 2 3 4 5 6 
#
# 1 0.020045 0.005912 -0.005164 0.000000 -0.008219 0.000000
# 2 0.005912 0.021817 -0.004069 0.000000 -0.004923 0.000000
# 3 -0.005164 -0.004069 0.012573 0.000000 0.006307 0.000000
# 4 0.000000 0.000000 0.000000 0.041241 0.000000 0.044714
# 5 -0.008219 -0.004923 0.006307 0.000000 0.032607 0.000000
# 6 0.000000 0.000000 0.000000 0.044714 0.000000 0.021068
#
#
# Mechanical properties :
#
#
# Convention : Reuss Voigt Hill
#
# Bulk Modulus (GPa) = 20.92307 26.75854 23.84081
# Shear Modulus (GPa) = 29.08253 9.15636 19.11944
#
# Velocity S-wave (km/s) = 3.78057 2.12130 3.06534
# Velocity P-wave (km/s) = 5.41661 4.37612 4.92392
#
# Compressibility (1/GPa) = 0.04779414
#
# Stress axis : x y z
#
# Youngs Moduli (GPa) = 49.88714 45.83557 79.53250
#
# Poissons Ratio (x) = -0.27098 0.41070
# Poissons Ratio (y) = -0.29494 0.32361
# Poissons Ratio (z) = 0.25762 0.18650
#
# Static dielectric constant tensor:
#      x y z
#    x 1.712240 0.000000 -0.010040 
#    y 0.000000 1.734620 0.000000 
#    z -0.010040 0.000000 1.765040 
# 
# From -- ./inp_files/19072.got.cif
#   From: 2010.05.17/outbox.cif.g08.bks.cpg/sg13_10_cif.got.tgz:19072.got - 2010.06.03 16:44:36.
