data_PCOD9234777
_publ_section_title
;
Structure prediction by ZEFSAII (Michael W. Deem and Ramdas Pophale) SiO2 
 PCOD9234777
Probable space group: P 2/C
;
_chemical_formula_sum "Si O2"
_cell_formula_units_Z 28
_cell_length_a 11.432318
_cell_length_b 9.204148
_cell_length_c 17.059575
_cell_angle_alpha 90.000000
_cell_angle_beta 126.621013
_cell_angle_gamma 90.000000
_cell_volume 1440.736572
_symmetry_space_group_name_H-M "P 2/C"
_symmetry_group_IT_number 13
_symmetry_cell_setting 'monoclinic'
loop_
_space_group_symop_operation_xyz
x,y,z
-x,y,1/2-z
-x,-y,-z
x,-y,1/2+z
loop_
_atom_site_type_symbol
_atom_site_label
_atom_site_fract_x
_atom_site_fract_y
_atom_site_fract_z
Si Si1 0.854244 0.584223 0.417479
Si Si2 0.139800 0.245334 0.249349
Si Si3 0.578824 0.759610 0.021352
Si Si4 0.565966 0.414650 0.353971
Si Si5 0.047510 0.869885 0.961468
Si Si6 0.286951 0.556344 0.297839
Si Si7 0.703519 0.080707 0.064861
O O1 0.720029 0.488583 0.396787
O O2 0.871248 0.742784 0.459831
O O3 0.826303 0.605286 0.313745
O O4 0.000000 0.500000 0.500000
O O5 0.231260 0.393361 0.293228
O O6 0.233100 0.115791 0.323871
O O7 0.000000 0.264918 0.250000
O O8 0.085563 0.203394 0.140991
O O9 0.683320 0.660524 0.117108
O O10 0.639116 0.920979 0.035226
O O11 0.569385 0.683104 0.932944
O O12 0.419535 0.793720 0.995888
O O13 0.500000 0.336625 0.250000
O O14 0.445987 0.538396 0.322731
O O15 0.163743 0.917065 0.942533
O O16 0.000000 0.000000 0.000000
#
# Coordination Sequence:
#
# PCOD9234777 Si02
#       7
#     4   4   4   4   4   4   4
#     4  11  24  41  62  97 132 163 225 267 323 392
#     4  10  22  41  62  93 129 170 211 270 328 390
#     4  11  23  40  71  93 128 171 223 271 327 401
#     4  10  23  40  66  98 131 166 217 278 328 386
#     4  11  25  43  66  89 136 179 211 270 337 391
#     4  11  22  40  67  95 125 170 217 271 324 386
#     4  10  24  44  60  97 131 169 220 267 332 402
#
# _framework density 19.434502999999999
#
# number of rings (size 3 to 8) (size 9 to 14) (size 15 to 20)
#    0.000    1.429    2.857    1.286    8.000    0.000 
#    0.000    0.000    0.000    0.000    0.000    0.000 
#    0.000    0.000    0.000    0.000    0.000    0.000 
#
# Total GULP energy -156166.227671 kJ/mol
# GULP energy per Si atom -5577.365274 kJ/mol
# Density = 1.939027 g / cm^3
# Si number density = 19.434503 Si / 1000 Ang^3
#
#
#
# Elastic Constant Matrix: (Units=GPa)
#
#
# Indices 1 2 3 4 5 6 
#
# 1 73.6248 33.1733 33.1781 0.0000 12.3459 0.0000
# 2 33.1733 89.9443 71.8484 0.0000 -1.7244 0.0000
# 3 33.1781 71.8484 170.9014 0.0000 -2.5423 0.0000
# 4 0.0000 0.0000 0.0000 24.0181 0.0000 -6.6358
# 5 12.3459 -1.7244 -2.5423 0.0000 30.5493 0.0000
# 6 0.0000 0.0000 0.0000 -6.6358 0.0000 19.3964
#
#
#
# Elastic Compliance Matrix: (Units=1/GPa)
#
#
# Indices 1 2 3 4 5 6 
#
# 1 0.018046 -0.005892 -0.001141 0.000000 -0.007721 0.000000
# 2 -0.005892 0.018667 -0.006661 0.000000 0.002881 0.000000
# 3 -0.001141 -0.006661 0.008886 0.000000 0.000825 0.000000
# 4 0.000000 0.000000 0.000000 0.045982 0.000000 0.015731
# 5 -0.007721 0.002881 0.000825 0.000000 0.036085 0.000000
# 6 0.000000 0.000000 0.000000 0.015731 0.000000 0.056938
#
#
# Mechanical properties :
#
#
# Convention : Reuss Voigt Hill
#
# Bulk Modulus (GPa) = 54.91497 67.87448 61.39472
# Shear Modulus (GPa) = 22.92915 27.87746 25.40331
#
# Velocity S-wave (km/s) = 3.43857 3.79150 3.61934
# Velocity P-wave (km/s) = 6.63949 7.35988 7.00895
#
# Compressibility (1/GPa) = 0.01820997
#
# Stress axis : x y z
#
# Youngs Moduli (GPa) = 55.41353 53.56920 112.54233
#
# Poissons Ratio (x) = 0.31565 0.12842
# Poissons Ratio (y) = 0.32651 0.74967
# Poissons Ratio (z) = 0.06323 0.35683
#
# Static dielectric constant tensor:
#      x y z
#    x 1.720330 0.000000 0.008280 
#    y 0.000000 1.650820 0.000000 
#    z 0.008280 0.000000 1.732110 
# 
# From -- ./inp_files/50425.got.cif
#   From: 2010.05.17/outbox.cif.g08.bks.cpg/sg13_26_cif.got.tgz:50425.got - 2010.06.03 16:44:36.
