data_PCOD9234051
_publ_section_title
;
Structure prediction by ZEFSAII (Michael W. Deem and Ramdas Pophale) SiO2 
 PCOD9234051
Probable space group: P 2/C
;
_chemical_formula_sum "Si O2"
_cell_formula_units_Z 28
_cell_length_a 23.073431
_cell_length_b 11.591576
_cell_length_c 19.684599
_cell_angle_alpha 90.000000
_cell_angle_beta 16.718051
_cell_angle_gamma 90.000000
_cell_volume 1514.482071
_symmetry_space_group_name_H-M "P 2/C"
_symmetry_group_IT_number 13
_symmetry_cell_setting 'monoclinic'
loop_
_space_group_symop_operation_xyz
x,y,z
-x,y,1/2-z
-x,-y,-z
x,-y,1/2+z
loop_
_atom_site_type_symbol
_atom_site_label
_atom_site_fract_x
_atom_site_fract_y
_atom_site_fract_z
Si Si1 0.966898 0.572007 0.605181
Si Si2 0.082981 0.013243 0.330072
Si Si3 0.593995 0.430271 0.070648
Si Si4 0.714724 0.220646 0.334797
Si Si5 0.579340 0.838123 0.583279
Si Si6 0.670999 0.938483 0.760731
Si Si7 0.404913 0.576574 0.168063
O O1 0.172255 0.590896 0.413811
O O2 0.000000 0.500000 0.500000
O O3 0.882518 0.691298 0.671711
O O4 0.802671 0.500355 0.832029
O O5 0.870641 0.018060 0.527696
O O6 0.248013 0.115689 0.153985
O O7 0.210792 0.905324 0.160765
O O8 0.000000 0.000000 0.500000
O O9 0.500000 0.431754 0.250000
O O10 0.612559 0.296638 0.028789
O O11 0.446607 0.498604 0.186311
O O12 0.737848 0.169217 0.233179
O O13 0.515419 0.300452 0.555022
O O14 0.500000 0.847539 0.750000
O O15 0.426891 0.894135 0.699106
O O16 0.500000 0.000000 0.000000
O O17 0.500000 0.500000 0.000000
#
# Coordination Sequence:
#
# PCOD9234051 Si02
#       7
#     4   4   4   4   4   4   4
#     4  11  23  36  62  94 125 164 211 263 302 378
#     4  10  22  38  61  91 122 167 212 260 308 377
#     4  10  24  42  62  94 133 166 206 259 327 384
#     4  10  22  36  61  97 120 157 216 261 313 357
#     4  11  24  41  63  95 133 166 203 266 321 384
#     4  11  22  37  65  93 125 169 210 262 314 377
#     4  11  21  38  63  93 124 165 214 263 309 368
#
# _framework density 18.488168000000002
#
# number of rings (size 3 to 8) (size 9 to 14) (size 15 to 20)
#    0.000    1.429    5.714    0.857    6.000    1.143 
#    0.000    5.714    0.000    3.429    0.000    0.000 
#    0.000    0.000    0.000    0.000    0.000    0.000 
#
# Total GULP energy -156022.904782 kJ/mol
# GULP energy per Si atom -5572.246599 kJ/mol
# Density = 1.844609 g / cm^3
# Si number density = 18.488168 Si / 1000 Ang^3
#
#
#
# Elastic Constant Matrix: (Units=GPa)
#
#
# Indices 1 2 3 4 5 6 
#
# 1 99.7072 45.2579 51.4104 0.0000 -29.0131 0.0000
# 2 45.2579 105.4364 44.0543 0.0000 -10.5892 0.0000
# 3 51.4104 44.0543 104.3517 0.0000 -33.0849 0.0000
# 4 0.0000 0.0000 0.0000 6.0329 0.0000 10.8219
# 5 -29.0131 -10.5892 -33.0849 0.0000 42.3793 0.0000
# 6 0.0000 0.0000 0.0000 10.8219 0.0000 26.6628
#
#
#
# Elastic Compliance Matrix: (Units=1/GPa)
#
#
# Indices 1 2 3 4 5 6 
#
# 1 0.016092 -0.004634 -0.003782 0.000000 0.006906 0.000000
# 2 -0.004634 0.012898 -0.004181 0.000000 -0.003214 0.000000
# 3 -0.003782 -0.004181 0.016026 0.000000 0.008877 0.000000
# 4 0.000000 0.000000 0.000000 0.609562 0.000000 -0.247408
# 5 0.006906 -0.003214 0.008877 0.000000 0.034452 0.000000
# 6 0.000000 0.000000 0.000000 -0.247408 0.000000 0.137923
#
#
# Mechanical properties :
#
#
# Convention : Reuss Voigt Hill
#
# Bulk Modulus (GPa) = 50.44870 65.66006 58.05438
# Shear Modulus (GPa) = 5.82239 26.26652 16.04445
#
# Velocity S-wave (km/s) = 1.77654 3.77333 2.94908
# Velocity P-wave (km/s) = 5.61733 7.38754 6.56240
#
# Compressibility (1/GPa) = 0.01982212
#
# Stress axis : x y z
#
# Youngs Moduli (GPa) = 62.14091 77.53417 62.39848
#
# Poissons Ratio (x) = 0.35926 0.23601
# Poissons Ratio (y) = 0.28794 0.26089
# Poissons Ratio (z) = 0.23504 0.32417
#
# Static dielectric constant tensor:
#      x y z
#    x 1.857050 0.000000 -0.365910 
#    y 0.000000 1.844980 0.000000 
#    z -0.365910 0.000000 2.148840 
# 
# From -- ./inp_files/70660.got.cif
#   From: 2010.05.17/outbox.cif.g08.bks.cpg/sg13_36_cif.got.tgz:70660.got - 2010.06.03 16:44:36.
