data_PCOD9234599
_publ_section_title
;
Structure prediction by ZEFSAII (Michael W. Deem and Ramdas Pophale) SiO2 
 PCOD9234599
Probable space group: P 2/C
;
_chemical_formula_sum "Si O2"
_cell_formula_units_Z 28
_cell_length_a 18.578146
_cell_length_b 11.793490
_cell_length_c 10.390687
_cell_angle_alpha 90.000000
_cell_angle_beta 37.186415
_cell_angle_gamma 90.000000
_cell_volume 1376.007464
_symmetry_space_group_name_H-M "P 2/C"
_symmetry_group_IT_number 13
_symmetry_cell_setting 'monoclinic'
loop_
_space_group_symop_operation_xyz
x,y,z
-x,y,1/2-z
-x,-y,-z
x,-y,1/2+z
loop_
_atom_site_type_symbol
_atom_site_label
_atom_site_fract_x
_atom_site_fract_y
_atom_site_fract_z
Si Si1 0.773920 0.436756 0.853228
Si Si2 0.132906 0.116552 0.616392
Si Si3 0.665414 0.291659 0.235093
Si Si4 0.843247 0.849193 0.895598
Si Si5 0.095152 0.237386 0.932938
Si Si6 0.429433 0.616013 0.071689
Si Si7 0.698553 0.322974 0.480587
O O1 0.886199 0.364621 0.643370
O O2 0.669308 0.409814 0.897436
O O3 0.790855 0.570837 0.845083
O O4 0.732007 0.383629 0.049258
O O5 0.244816 0.184365 0.397353
O O6 0.131941 0.155880 0.765187
O O7 0.000000 0.144437 0.750000
O O8 0.148934 0.981698 0.588949
O O9 0.528231 0.292399 0.383209
O O10 0.649733 0.324249 0.406462
O O11 0.746632 0.803112 0.935510
O O12 0.965786 0.801752 0.661922
O O13 0.824178 0.785332 0.057632
O O14 0.378564 0.650270 0.283759
O O15 0.500000 0.500000 0.000000
#
# Coordination Sequence:
#
# PCOD9234599 Si02
#       7
#     4   4   4   4   4   4   4
#     4  11  22  41  64  97 133 167 212 269 326 394
#     4  11  23  43  68  92 127 169 221 272 325 390
#     4  11  25  37  64 100 124 167 224 271 318 383
#     4  11  23  40  67  93 127 172 215 262 328 394
#     4  10  22  40  64  96 124 170 212 265 328 387
#     4  12  22  41  66  94 129 173 215 259 326 396
#     4  12  23  39  66  98 130 171 215 264 326 397
#
# _framework density 20.348727
#
# number of rings (size 3 to 8) (size 9 to 14) (size 15 to 20)
#    0.000    0.857    5.714    2.143    2.000    0.571 
#    0.000    0.714    0.000    1.714    0.000    0.000 
#    0.000    0.000    0.000    0.000    0.000    0.000 
#
# Total GULP energy -156067.543889 kJ/mol
# GULP energy per Si atom -5573.840853 kJ/mol
# Density = 2.030241 g / cm^3
# Si number density = 20.348727 Si / 1000 Ang^3
#
#
#
# Elastic Constant Matrix: (Units=GPa)
#
#
# Indices 1 2 3 4 5 6 
#
# 1 71.5731 2.3704 27.7629 0.0000 15.7803 0.0000
# 2 2.3704 82.3016 36.6374 0.0000 -16.4916 0.0000
# 3 27.7629 36.6374 76.5078 0.0000 5.8758 0.0000
# 4 0.0000 0.0000 0.0000 31.8839 0.0000 -13.9629
# 5 15.7803 -16.4916 5.8758 0.0000 30.7589 0.0000
# 6 0.0000 0.0000 0.0000 -13.9629 0.0000 34.6134
#
#
#
# Elastic Compliance Matrix: (Units=1/GPa)
#
#
# Indices 1 2 3 4 5 6 
#
# 1 0.018097 0.000770 -0.006347 0.000000 -0.007659 0.000000
# 2 0.000770 0.019095 -0.010331 0.000000 0.011816 0.000000
# 3 -0.006347 -0.010331 0.020801 0.000000 -0.006256 0.000000
# 4 0.000000 0.000000 0.000000 0.038093 0.000000 0.015367
# 5 -0.007659 0.011816 -0.006256 0.000000 0.043971 0.000000
# 6 0.000000 0.000000 0.000000 0.015367 0.000000 0.035089
#
#
# Mechanical properties :
#
#
# Convention : Reuss Voigt Hill
#
# Bulk Modulus (GPa) = 38.20236 40.43600 39.31918
# Shear Modulus (GPa) = 23.18148 30.35870 26.77009
#
# Velocity S-wave (km/s) = 3.37888 3.86673 3.63101
# Velocity P-wave (km/s) = 5.83413 6.31270 6.07812
#
# Compressibility (1/GPa) = 0.02617639
#
# Stress axis : x y z
#
# Youngs Moduli (GPa) = 55.25774 52.37002 48.07363
#
# Poissons Ratio (x) = -0.04030 0.30514
# Poissons Ratio (y) = -0.04253 0.49664
# Poissons Ratio (z) = 0.35074 0.54102
#
# Static dielectric constant tensor:
#      x y z
#    x 1.782600 0.000000 -0.055290 
#    y 0.000000 1.725780 0.000000 
#    z -0.055290 0.000000 1.770300 
# 
# From -- ./inp_files/40777.got.cif
#   From: 2010.05.17/outbox.cif.g08.bks.cpg/sg13_21_cif.got.tgz:40777.got - 2010.06.03 16:44:36.
