data_PCOD9234927
_publ_section_title
;
Structure prediction by ZEFSAII (Michael W. Deem and Ramdas Pophale) SiO2 
 PCOD9234927
Probable space group: P 2/C
;
_chemical_formula_sum "Si O2"
_cell_formula_units_Z 28
_cell_length_a 21.783985
_cell_length_b 8.670363
_cell_length_c 14.733264
_cell_angle_alpha 90.000000
_cell_angle_beta 156.702930
_cell_angle_gamma 90.000000
_cell_volume 1100.571999
_symmetry_space_group_name_H-M "P 2/C"
_symmetry_group_IT_number 13
_symmetry_cell_setting 'monoclinic'
loop_
_space_group_symop_operation_xyz
x,y,z
-x,y,1/2-z
-x,-y,-z
x,-y,1/2+z
loop_
_atom_site_type_symbol
_atom_site_label
_atom_site_fract_x
_atom_site_fract_y
_atom_site_fract_z
Si Si1 0.161544 0.418331 0.577715
Si Si2 0.142173 0.064828 0.571896
Si Si3 0.370537 0.787028 0.646791
Si Si4 0.191027 0.045123 0.336199
Si Si5 0.407484 0.843111 0.890549
Si Si6 0.329124 0.646866 0.944538
Si Si7 0.192055 0.490033 0.912819
O O1 0.196152 0.235815 0.618975
O O2 0.250403 0.517079 0.774230
O O3 0.200357 0.482554 0.531021
O O4 0.977100 0.446661 0.344515
O O5 0.959736 0.052554 0.306507
O O6 0.163171 0.059658 0.709659
O O7 0.233451 0.915634 0.659912
O O8 0.500000 0.749094 0.750000
O O9 0.428067 0.750978 0.825717
O O10 0.212996 0.690706 0.421115
O O11 0.330834 0.967186 0.580263
O O12 0.225483 0.209787 0.339944
O O13 0.437935 0.741551 0.021284
O O14 0.500000 0.000000 0.000000
O O15 0.336720 0.562777 0.053167
#
# Coordination Sequence:
#
# PCOD9234927 Si02
#       7
#     4   4   4   4   4   4   4
#     4  11  23  42  68 105 143 175 229 295 350 424
#     4  10  22  41  70 102 142 174 228 291 352 418
#     4  12  26  47  66  99 140 183 239 291 345 426
#     4  10  23  39  73 104 131 185 225 288 354 408
#     4  11  26  48  70  99 139 189 238 289 357 412
#     4  11  22  45  69 102 141 181 228 285 348 422
#     4  11  25  40  70 102 139 183 233 282 360 417
#
# _framework density 25.441317000000002
#
# number of rings (size 3 to 8) (size 9 to 14) (size 15 to 20)
#    0.000    1.143    2.857    3.000    8.000    0.571 
#    2.571    2.143    0.000    0.000    0.000    0.000 
#    0.000    0.000    0.000    0.000    0.000    0.000 
#
# Total GULP energy -156438.612900 kJ/mol
# GULP energy per Si atom -5587.093318 kJ/mol
# Density = 2.538341 g / cm^3
# Si number density = 25.441317 Si / 1000 Ang^3
#
#
#
# Elastic Constant Matrix: (Units=GPa)
#
#
# Indices 1 2 3 4 5 6 
#
# 1 169.4736 37.0413 18.3390 0.0000 -1.6291 0.0000
# 2 37.0413 101.0375 10.4155 0.0000 -2.6010 0.0000
# 3 18.3390 10.4155 24.7672 0.0000 -1.5422 0.0000
# 4 0.0000 0.0000 0.0000 34.8950 0.0000 11.2679
# 5 -1.6291 -2.6010 -1.5422 0.0000 24.3792 0.0000
# 6 0.0000 0.0000 0.0000 11.2679 0.0000 32.3998
#
#
#
# Elastic Compliance Matrix: (Units=1/GPa)
#
#
# Indices 1 2 3 4 5 6 
#
# 1 0.006803 -0.002065 -0.004171 0.000000 -0.000030 0.000000
# 2 -0.002065 0.010989 -0.003040 0.000000 0.000842 0.000000
# 3 -0.004171 -0.003040 0.044882 0.000000 0.002236 0.000000
# 4 0.000000 0.000000 0.000000 0.032283 0.000000 -0.011227
# 5 -0.000030 0.000842 0.002236 0.000000 0.041248 0.000000
# 6 0.000000 0.000000 0.000000 -0.011227 0.000000 0.034769
#
#
# Mechanical properties :
#
#
# Convention : Reuss Voigt Hill
#
# Bulk Modulus (GPa) = 22.66399 47.43000 35.04699
# Shear Modulus (GPa) = 24.48185 33.63363 29.05774
#
# Velocity S-wave (km/s) = 3.10544 3.63989 3.38323
# Velocity P-wave (km/s) = 4.66755 6.02896 5.39140
#
# Compressibility (1/GPa) = 0.04412286
#
# Stress axis : x y z
#
# Youngs Moduli (GPa) = 146.99448 90.99699 22.28068
#
# Poissons Ratio (x) = 0.18789 0.09293
# Poissons Ratio (y) = 0.30352 0.06773
# Poissons Ratio (z) = 0.61308 0.27664
#
# Static dielectric constant tensor:
#      x y z
#    x 1.997930 0.000000 0.013190 
#    y 0.000000 1.990480 0.000000 
#    z 0.013190 0.000000 2.134590 
# 
# From -- ./inp_files/57538.got.cif
#   From: 2010.05.17/outbox.cif.g08.bks.cpg/sg13_29_cif.got.tgz:57538.got - 2010.06.03 16:44:36.
