data_PCOD9234394
_publ_section_title
;
Structure prediction by ZEFSAII (Michael W. Deem and Ramdas Pophale) SiO2 
 PCOD9234394
Probable space group: P 2/C
;
_chemical_formula_sum "Si O2"
_cell_formula_units_Z 14
_cell_length_a 5.590286
_cell_length_b 4.805213
_cell_length_c 20.244509
_cell_angle_alpha 90.000000
_cell_angle_beta 105.937304
_cell_angle_gamma 90.000000
_cell_volume 522.915534
_symmetry_space_group_name_H-M "P 2/C"
_symmetry_group_IT_number 13
_symmetry_cell_setting 'monoclinic'
loop_
_space_group_symop_operation_xyz
x,y,z
-x,y,1/2-z
-x,-y,-z
x,-y,1/2+z
loop_
_atom_site_type_symbol
_atom_site_label
_atom_site_fract_x
_atom_site_fract_y
_atom_site_fract_z
Si Si1 0.677635 0.162263 0.320124
Si Si2 0.660425 0.458720 0.612707
Si Si3 0.000000 0.552927 0.250000
Si Si4 0.895555 0.007210 0.065377
O O1 0.500000 0.035719 0.250000
O O2 0.546671 0.356299 0.365730
O O3 0.843528 0.358776 0.286671
O O4 0.855788 0.947886 0.371433
O O5 0.811818 0.688993 0.582606
O O6 0.803265 0.312993 0.685735
O O7 0.665321 0.201465 0.562270
O O8 0.000000 0.000000 0.000000
#
# Coordination Sequence:
#
# PCOD9234394 Si02
#       4
#     4   4   2   4
#     4   9  20  41  66  95 130 173 220 275 337 394
#     4  10  22  39  63  92 127 170 217 269 330 392
#     4   8  18  38  62  92 124 162 216 272 322 388
#     4  11  24  41  62  93 131 171 220 271 324 397
#
# _framework density 26.772964999999999
#
# number of rings (size 3 to 8) (size 9 to 14) (size 15 to 20)
#    0.000    2.286    0.000    0.857    0.000   13.714 
#    0.000   18.571    0.000    0.000    0.000    0.000 
#    0.000    0.000    0.000    0.000    0.000    0.000 
#
# Total GULP energy -78161.236835 kJ/mol
# GULP energy per Si atom -5582.945488 kJ/mol
# Density = 2.671203 g / cm^3
# Si number density = 26.772965 Si / 1000 Ang^3
#
#
#
# Elastic Constant Matrix: (Units=GPa)
#
#
# Indices 1 2 3 4 5 6 
#
# 1 109.3438 36.0082 75.3815 0.0000 -53.0480 0.0000
# 2 36.0082 109.8818 48.3313 0.0000 -26.9497 0.0000
# 3 75.3815 48.3313 147.6332 0.0000 -44.7110 0.0000
# 4 0.0000 0.0000 0.0000 30.7542 0.0000 -28.3029
# 5 -53.0480 -26.9497 -44.7110 0.0000 68.8900 0.0000
# 6 0.0000 0.0000 0.0000 -28.3029 0.0000 58.8699
#
#
#
# Elastic Compliance Matrix: (Units=1/GPa)
#
#
# Indices 1 2 3 4 5 6 
#
# 1 0.018476 -0.000932 -0.006137 0.000000 0.009880 0.000000
# 2 -0.000932 0.010998 -0.002538 0.000000 0.001937 0.000000
# 3 -0.006137 -0.002538 0.011209 0.000000 0.001557 0.000000
# 4 0.000000 0.000000 0.000000 0.058319 0.000000 0.028038
# 5 0.009880 0.001937 0.001557 0.000000 0.023892 0.000000
# 6 0.000000 0.000000 0.000000 0.028038 0.000000 0.030467
#
#
# Mechanical properties :
#
#
# Convention : Reuss Voigt Hill
#
# Bulk Modulus (GPa) = 46.57653 76.25565 61.41609
# Shear Modulus (GPa) = 27.81938 45.51198 36.66568
#
# Velocity S-wave (km/s) = 3.22698 4.12748 3.70470
# Velocity P-wave (km/s) = 5.59635 7.15954 6.42566
#
# Compressibility (1/GPa) = 0.02147004
#
# Stress axis : x y z
#
# Youngs Moduli (GPa) = 54.12316 90.92973 89.21315
#
# Poissons Ratio (x) = 0.08478 0.54747
# Poissons Ratio (y) = 0.05046 0.22638
# Poissons Ratio (z) = 0.33213 0.23073
#
# Static dielectric constant tensor:
#      x y z
#    x 2.242540 0.000000 0.193970 
#    y 0.000000 2.035700 0.000000 
#    z 0.193970 0.000000 2.248610 
# 
# From -- ./inp_files/60123.got.cif
#   From: 2010.05.17/outbox.cif.g08.bks.cpg/sg13_31_cif.got.tgz:60123.got - 2010.06.03 16:44:36.
