data_PCOD9234041
_publ_section_title
;
Structure prediction by ZEFSAII (Michael W. Deem and Ramdas Pophale) SiO2 
 PCOD9234041
Probable space group: P 2/C
;
_chemical_formula_sum "Si O2"
_cell_formula_units_Z 28
_cell_length_a 12.643259
_cell_length_b 14.260869
_cell_length_c 9.028899
_cell_angle_alpha 90.000000
_cell_angle_beta 57.794862
_cell_angle_gamma 90.000000
_cell_volume 1377.478427
_symmetry_space_group_name_H-M "P 2/C"
_symmetry_group_IT_number 13
_symmetry_cell_setting 'monoclinic'
loop_
_space_group_symop_operation_xyz
x,y,z
-x,y,1/2-z
-x,-y,-z
x,-y,1/2+z
loop_
_atom_site_type_symbol
_atom_site_label
_atom_site_fract_x
_atom_site_fract_y
_atom_site_fract_z
Si Si1 0.216161 0.180057 0.807633
Si Si2 0.850339 0.390986 0.612140
Si Si3 0.842554 0.989380 0.323862
Si Si4 0.443944 0.411914 0.627638
Si Si5 0.000000 0.000000 0.500000
Si Si6 0.387669 0.091562 0.934270
Si Si7 0.000000 0.496304 0.250000
Si Si8 0.461479 0.783020 0.949700
O O1 0.147369 0.277742 0.883074
O O2 0.128412 0.092102 0.823219
O O3 0.296543 0.150538 0.892029
O O4 0.317258 0.192236 0.599285
O O5 0.705073 0.418002 0.739859
O O6 0.924950 0.438113 0.691659
O O7 0.908099 0.432381 0.418120
O O8 0.900246 0.970463 0.436696
O O9 0.698128 0.010808 0.436848
O O10 0.919123 0.067555 0.180383
O O11 0.500000 0.401207 0.750000
O O12 0.500000 0.500000 0.500000
O O13 0.474958 0.321255 0.505682
O O14 0.500000 0.053974 0.750000
O O15 0.449430 0.152085 0.016703
O O16 0.500000 0.788773 0.750000
#
# Coordination Sequence:
#
# PCOD9234041 Si02
#       8
#     4   4   4   4   2   4   2   4
#     4  10  22  41  63  89 129 164 211 267 324 384
#     4  10  22  42  63  97 125 167 213 266 320 386
#     4  11  22  43  63  88 125 171 214 268 319 378
#     4  11  21  38  66  91 133 170 206 267 336 403
#     4  10  24  40  62  84 122 164 220 258 306 384
#     4  10  22  41  64  91 127 169 211 272 333 384
#     4  10  22  42  68  90 130 164 218 268 316 384
#     4  10  22  36  59  96 126 158 212 265 324 395
#
# _framework density 20.326996999999999
#
# number of rings (size 3 to 8) (size 9 to 14) (size 15 to 20)
#    0.000    1.714    1.429    3.429    2.000    5.143 
#    2.571    2.857    0.000    0.000    0.000    0.000 
#    0.000    0.000    0.000    0.000    0.000    0.000 
#
# Total GULP energy -155938.964725 kJ/mol
# GULP energy per Si atom -5569.248740 kJ/mol
# Density = 2.028073 g / cm^3
# Si number density = 20.326997 Si / 1000 Ang^3
#
#
#
# Elastic Constant Matrix: (Units=GPa)
#
#
# Indices 1 2 3 4 5 6 
#
# 1 104.0801 32.4548 51.7105 0.0000 -0.6195 0.0000
# 2 32.4548 108.1450 47.1206 0.0000 -9.3465 0.0000
# 3 51.7105 47.1206 144.7730 0.0000 16.0903 0.0000
# 4 0.0000 0.0000 0.0000 18.2354 0.0000 3.5087
# 5 -0.6195 -9.3465 16.0903 0.0000 36.1879 0.0000
# 6 0.0000 0.0000 0.0000 3.5087 0.0000 21.2313
#
#
#
# Elastic Compliance Matrix: (Units=1/GPa)
#
#
# Indices 1 2 3 4 5 6 
#
# 1 0.012121 -0.001808 -0.003905 0.000000 0.001477 0.000000
# 2 -0.001808 0.011814 -0.003719 0.000000 0.004674 0.000000
# 3 -0.003905 -0.003719 0.010127 0.000000 -0.005530 0.000000
# 4 0.000000 0.000000 0.000000 0.056640 0.000000 -0.009360
# 5 0.001477 0.004674 -0.005530 0.000000 0.031325 0.000000
# 6 0.000000 0.000000 0.000000 -0.009360 0.000000 0.048647
#
#
# Mechanical properties :
#
#
# Convention : Reuss Voigt Hill
#
# Bulk Modulus (GPa) = 65.79926 68.84111 67.32018
# Shear Modulus (GPa) = 25.69333 30.17838 27.93586
#
# Velocity S-wave (km/s) = 3.55914 3.85729 3.71121
# Velocity P-wave (km/s) = 7.02357 7.33339 7.18015
#
# Compressibility (1/GPa) = 0.01519774
#
# Stress axis : x y z
#
# Youngs Moduli (GPa) = 82.50311 84.64694 98.74528
#
# Poissons Ratio (x) = 0.15308 0.38558
# Poissons Ratio (y) = 0.14921 0.36720
# Poissons Ratio (z) = 0.32216 0.31477
#
# Static dielectric constant tensor:
#      x y z
#    x 1.952330 0.000000 -0.459440 
#    y 0.000000 -0.295880 0.000000 
#    z -0.459440 0.000000 2.516170 
# 
# From -- ./inp_files/16685.got.cif
#   From: 2010.05.17/outbox.cif.g08.bks.cpg/sg13_9_cif.got.tgz:16685.got - 2010.06.03 16:44:36.
