data_PCOD9234680
_publ_section_title
;
Structure prediction by ZEFSAII (Michael W. Deem and Ramdas Pophale) SiO2 
 PCOD9234680
Probable space group: P 2/C
;
_chemical_formula_sum "Si O2"
_cell_formula_units_Z 24
_cell_length_a 14.314131
_cell_length_b 5.438536
_cell_length_c 21.405763
_cell_angle_alpha 90.000000
_cell_angle_beta 141.124073
_cell_angle_gamma 90.000000
_cell_volume 1045.888935
_symmetry_space_group_name_H-M "P 2/C"
_symmetry_group_IT_number 13
_symmetry_cell_setting 'monoclinic'
loop_
_space_group_symop_operation_xyz
x,y,z
-x,y,1/2-z
-x,-y,-z
x,-y,1/2+z
loop_
_atom_site_type_symbol
_atom_site_label
_atom_site_fract_x
_atom_site_fract_y
_atom_site_fract_z
Si Si1 0.648483 0.505366 0.660675
Si Si2 0.140687 0.854744 0.433716
Si Si3 0.596825 0.805845 0.013944
Si Si4 0.682062 0.277980 0.349088
Si Si5 0.648175 0.782538 0.283448
Si Si6 0.021551 0.660012 0.685643
O O1 0.508943 0.686789 0.593187
O O2 0.643185 0.396237 0.588436
O O3 0.622720 0.297801 0.699170
O O4 0.807153 0.632784 0.745289
O O5 0.256746 0.914094 0.439107
O O6 0.242399 0.800043 0.546938
O O7 0.055473 0.600821 0.372978
O O8 0.041984 0.100076 0.382975
O O9 0.500000 0.000000 0.000000
O O10 0.500000 0.299559 0.250000
O O11 0.736039 0.548606 0.357377
O O12 0.720898 0.048906 0.324924
O O13 0.500000 0.802765 0.250000
O O14 0.000000 0.690332 0.750000
#
# Coordination Sequence:
#
# PCOD9234680 Si02
#       6
#     4   4   4   4   4   4
#     4  11  26  44  69 109 143 188 238 306 351 431
#     4  12  26  46  75 102 146 190 239 288 366 434
#     4  11  25  41  73 107 139 181 249 300 361 412
#     4  10  22  42  67  99 131 183 238 295 342 407
#     4  10  22  40  68  95 138 177 232 292 356 397
#     4  12  26  48  68 106 150 192 225 290 375 437
#
# _framework density 22.946985999999999
#
# number of rings (size 3 to 8) (size 9 to 14) (size 15 to 20)
#    0.000    1.000    1.667    4.500   11.667    0.000 
#    0.000    5.000    0.000    0.000    0.000    0.000 
#    0.000    0.000    0.000    0.000    0.000    0.000 
#
# Total GULP energy -134123.351837 kJ/mol
# GULP energy per Si atom -5588.472993 kJ/mol
# Density = 2.289476 g / cm^3
# Si number density = 22.946986 Si / 1000 Ang^3
#
#
#
# Elastic Constant Matrix: (Units=GPa)
#
#
# Indices 1 2 3 4 5 6 
#
# 1 66.3869 1.6611 35.5903 0.0000 6.1438 0.0000
# 2 1.6611 126.5704 41.5869 0.0000 12.3904 0.0000
# 3 35.5903 41.5869 116.9333 0.0000 5.5914 0.0000
# 4 0.0000 0.0000 0.0000 48.7097 0.0000 -13.6062
# 5 6.1438 12.3904 5.5914 0.0000 29.7750 0.0000
# 6 0.0000 0.0000 0.0000 -13.6062 0.0000 31.5445
#
#
#
# Elastic Compliance Matrix: (Units=1/GPa)
#
#
# Indices 1 2 3 4 5 6 
#
# 1 0.018717 0.002175 -0.006299 0.000000 -0.003584 0.000000
# 2 0.002175 0.009502 -0.003866 0.000000 -0.003677 0.000000
# 3 -0.006299 -0.003866 0.011811 0.000000 0.000690 0.000000
# 4 0.000000 0.000000 0.000000 0.023342 0.000000 0.010068
# 5 -0.003584 -0.003677 0.000690 0.000000 0.035725 0.000000
# 6 0.000000 0.000000 0.000000 0.010068 0.000000 0.036044
#
#
# Mechanical properties :
#
#
# Convention : Reuss Voigt Hill
#
# Bulk Modulus (GPa) = 41.57808 51.95191 46.76500
# Shear Modulus (GPa) = 31.41916 37.40931 34.41424
#
# Velocity S-wave (km/s) = 3.70429 4.04202 3.87683
# Velocity P-wave (km/s) = 6.03773 6.66881 6.36110
#
# Compressibility (1/GPa) = 0.02405113
#
# Stress axis : x y z
#
# Youngs Moduli (GPa) = 53.42616 105.23804 84.66796
#
# Poissons Ratio (x) = -0.22888 0.53332
# Poissons Ratio (y) = -0.11620 0.32729
# Poissons Ratio (z) = 0.33653 0.40681
#
# Static dielectric constant tensor:
#      x y z
#    x 1.790960 0.000000 -0.066150 
#    y 0.000000 1.850900 0.000000 
#    z -0.066150 0.000000 1.895580 
# 
# From -- ./inp_files/87743.got.cif
#   From: 2010.05.17/outbox.cif.g08.bks.cpg/sg13_44_cif.got.tgz:87743.got - 2010.06.03 16:44:36.
