data_PCOD9234065
_publ_section_title
;
Structure prediction by ZEFSAII (Michael W. Deem and Ramdas Pophale) SiO2 
 PCOD9234065
Probable space group: P 2/C
;
_chemical_formula_sum "Si O2"
_cell_formula_units_Z 28
_cell_length_a 14.003450
_cell_length_b 10.009960
_cell_length_c 8.378851
_cell_angle_alpha 90.000000
_cell_angle_beta 63.474411
_cell_angle_gamma 90.000000
_cell_volume 1050.863429
_symmetry_space_group_name_H-M "P 2/C"
_symmetry_group_IT_number 13
_symmetry_cell_setting 'monoclinic'
loop_
_space_group_symop_operation_xyz
x,y,z
-x,y,1/2-z
-x,-y,-z
x,-y,1/2+z
loop_
_atom_site_type_symbol
_atom_site_label
_atom_site_fract_x
_atom_site_fract_y
_atom_site_fract_z
Si Si1 0.855586 0.990939 0.757476
Si Si2 0.000000 0.404853 0.250000
Si Si3 0.762825 0.528125 0.795532
Si Si4 0.997712 0.222799 0.531559
Si Si5 0.201685 0.322851 0.533177
Si Si6 0.541867 0.646336 0.031458
Si Si7 0.715385 0.967871 0.609813
Si Si8 0.500000 0.153224 0.250000
O O1 0.917612 0.128878 0.688574
O O2 0.735973 0.000884 0.778449
O O3 0.820686 0.956371 0.961767
O O4 0.927610 0.878223 0.626607
O O5 0.112694 0.457948 0.240149
O O6 0.952531 0.320702 0.433704
O O7 0.756445 0.563402 0.616210
O O8 0.749995 0.370901 0.837274
O O9 0.671451 0.624118 0.937698
O O10 0.077862 0.309770 0.579303
O O11 0.249957 0.184823 0.444161
O O12 0.500000 0.670557 0.250000
O O13 0.500000 0.500000 0.000000
O O14 0.516009 0.753043 0.901512
O O15 0.594978 0.953958 0.657385
#
# Coordination Sequence:
#
# PCOD9234065 Si02
#       8
#     4   2   4   4   4   4   4   2
#     4  10  22  41  70  94 132 181 234 303 369 429
#     4  10  22  36  62  94 146 178 222 292 346 456
#     4  11  23  42  62 102 143 186 227 286 370 435
#     4   9  20  39  65 101 129 181 242 282 355 450
#     4  10  22  40  66  96 147 180 226 295 344 450
#     4  12  24  45  77 105 145 205 254 306 367 441
#     4  11  24  45  68  98 137 182 241 315 366 433
#     4  12  26  48  70 110 148 186 258 318 366 452
#
# _framework density 26.644755
#
# number of rings (size 3 to 8) (size 9 to 14) (size 15 to 20)
#    0.000    1.429    2.143    2.571    0.000   10.857 
#    2.571    0.000    0.000    0.000    0.000    0.000 
#    0.000    0.000    0.000    0.000    0.000    0.000 
#
# Total GULP energy -155994.470429 kJ/mol
# GULP energy per Si atom -5571.231087 kJ/mol
# Density = 2.658411 g / cm^3
# Si number density = 26.644755 Si / 1000 Ang^3
#
#
#
# Elastic Constant Matrix: (Units=GPa)
#
#
# Indices 1 2 3 4 5 6 
#
# 1 121.4174 14.4354 37.7799 0.0000 -18.6606 0.0000
# 2 14.4354 27.9472 22.3544 0.0000 7.3682 0.0000
# 3 37.7799 22.3544 127.7840 0.0000 -7.8116 0.0000
# 4 0.0000 0.0000 0.0000 27.5840 0.0000 17.2837
# 5 -18.6606 7.3682 -7.8116 0.0000 29.0786 0.0000
# 6 0.0000 0.0000 0.0000 17.2837 0.0000 39.0706
#
#
#
# Elastic Compliance Matrix: (Units=1/GPa)
#
#
# Indices 1 2 3 4 5 6 
#
# 1 0.010729 -0.006436 -0.001551 0.000000 0.008099 0.000000
# 2 -0.006436 0.050658 -0.008130 0.000000 -0.019151 0.000000
# 3 -0.001551 -0.008130 0.009935 0.000000 0.003734 0.000000
# 4 0.000000 0.000000 0.000000 0.050155 0.000000 -0.022187
# 5 0.008099 -0.019151 0.003734 0.000000 0.045443 0.000000
# 6 0.000000 0.000000 0.000000 -0.022187 0.000000 0.035410
#
#
# Mechanical properties :
#
#
# Convention : Reuss Voigt Hill
#
# Bulk Modulus (GPa) = 25.58375 47.36532 36.47453
# Shear Modulus (GPa) = 20.19448 32.65189 26.42318
#
# Velocity S-wave (km/s) = 2.75601 3.50444 3.15252
# Velocity P-wave (km/s) = 4.44411 5.84722 5.19327
#
# Compressibility (1/GPa) = 0.03908732
#
# Stress axis : x y z
#
# Youngs Moduli (GPa) = 93.20881 19.74010 100.65722
#
# Poissons Ratio (x) = 0.12706 0.15611
# Poissons Ratio (y) = 0.59993 0.81833
# Poissons Ratio (z) = 0.14455 0.16048
#
# Static dielectric constant tensor:
#      x y z
#    x 2.210710 0.000000 -0.082710 
#    y 0.000000 2.109250 0.000000 
#    z -0.082710 0.000000 2.266740 
# 
# From -- ./inp_files/18710.got.cif
#   From: 2010.05.17/outbox.cif.g08.bks.cpg/sg13_10_cif.got.tgz:18710.got - 2010.06.03 16:44:36.
