data_PCOD9234321
_publ_section_title
;
Structure prediction by ZEFSAII (Michael W. Deem and Ramdas Pophale) SiO2 
 PCOD9234321
Probable space group: P 2/C
;
_chemical_formula_sum "Si O2"
_cell_formula_units_Z 26
_cell_length_a 19.432553
_cell_length_b 9.447075
_cell_length_c 9.255544
_cell_angle_alpha 90.000000
_cell_angle_beta 132.771935
_cell_angle_gamma 90.000000
_cell_volume 1247.275129
_symmetry_space_group_name_H-M "P 2/C"
_symmetry_group_IT_number 13
_symmetry_cell_setting 'monoclinic'
loop_
_space_group_symop_operation_xyz
x,y,z
-x,y,1/2-z
-x,-y,-z
x,-y,1/2+z
loop_
_atom_site_type_symbol
_atom_site_label
_atom_site_fract_x
_atom_site_fract_y
_atom_site_fract_z
Si Si1 0.392525 0.622111 0.566066
Si Si2 0.000000 0.146909 0.250000
Si Si3 0.719033 0.888161 0.021733
Si Si4 0.792976 0.873947 0.456782
Si Si5 0.003509 0.666961 0.030231
Si Si6 0.278526 0.434408 0.626945
Si Si7 0.156265 0.698132 0.497261
O O1 0.500000 0.589732 0.750000
O O2 0.368943 0.784058 0.578651
O O3 0.325347 0.514742 0.559002
O O4 0.360988 0.604154 0.356065
O O5 0.099787 0.071661 0.362096
O O6 0.974199 0.247096 0.080068
O O7 0.768720 0.889783 0.250913
O O8 0.772040 0.810159 0.964130
O O9 0.719530 0.044744 0.956370
O O10 0.780564 0.708477 0.479155
O O11 0.906057 0.728280 0.952703
O O12 0.000000 0.500000 0.000000
O O13 0.082498 0.684315 0.262392
O O14 0.208682 0.550137 0.594946
#
# Coordination Sequence:
#
# PCOD9234321 Si02
#       7
#     4   2   4   4   4   4   4
#     4  10  22  43  68  96 123 154 198 261 319 376
#     4  12  24  34  60  86 130 162 222 252 284 360
#     4  10  24  43  60  85 125 164 208 253 308 371
#     4  11  24  41  57  90 124 170 208 252 301 354
#     4  11  21  34  56  88 123 163 210 257 298 356
#     4  10  22  39  66  94 124 156 202 255 310 377
#     4  10  22  39  58  86 123 165 206 254 312 349
#
# _framework density 20.84544
#
# number of rings (size 3 to 8) (size 9 to 14) (size 15 to 20)
#    0.000    1.538    1.538    3.231    8.615    3.077 
#    0.000    3.846    0.000    0.000    0.000    0.000 
#    0.000    0.000    0.000    0.000    0.000    0.000 
#
# Total GULP energy -145113.829132 kJ/mol
# GULP energy per Si atom -5581.301120 kJ/mol
# Density = 2.079799 g / cm^3
# Si number density = 20.845440 Si / 1000 Ang^3
#
#
#
# Elastic Constant Matrix: (Units=GPa)
#
#
# Indices 1 2 3 4 5 6 
#
# 1 51.5149 6.1440 18.8379 0.0000 2.7364 0.0000
# 2 6.1440 61.3769 5.7036 0.0000 -0.1229 0.0000
# 3 18.8379 5.7036 70.7271 0.0000 -1.8662 0.0000
# 4 0.0000 0.0000 0.0000 16.5382 0.0000 -3.2700
# 5 2.7364 -0.1229 -1.8662 0.0000 24.2372 0.0000
# 6 0.0000 0.0000 0.0000 -3.2700 0.0000 15.6766
#
#
#
# Elastic Compliance Matrix: (Units=1/GPa)
#
#
# Indices 1 2 3 4 5 6 
#
# 1 0.021875 -0.001659 -0.005770 0.000000 -0.002922 0.000000
# 2 -0.001659 0.016542 -0.000887 0.000000 0.000203 0.000000
# 3 -0.005770 -0.000887 0.015796 0.000000 0.001863 0.000000
# 4 0.000000 0.000000 0.000000 0.063067 0.000000 0.013155
# 5 -0.002922 0.000203 0.001863 0.000000 0.041733 0.000000
# 6 0.000000 0.000000 0.000000 0.013155 0.000000 0.066533
#
#
# Mechanical properties :
#
#
# Convention : Reuss Voigt Hill
#
# Bulk Modulus (GPa) = 26.60884 27.22109 26.91497
# Shear Modulus (GPa) = 19.63056 21.48596 20.55826
#
# Velocity S-wave (km/s) = 3.07207 3.21398 3.14383
# Velocity P-wave (km/s) = 5.03747 5.18264 5.11057
#
# Compressibility (1/GPa) = 0.03758149
#
# Stress axis : x y z
#
# Youngs Moduli (GPa) = 45.71466 60.45332 63.30625
#
# Poissons Ratio (x) = 0.10032 0.36525
# Poissons Ratio (y) = 0.07586 0.05613
# Poissons Ratio (z) = 0.26375 0.05360
#
# Static dielectric constant tensor:
#      x y z
#    x 1.739010 0.000000 0.002270 
#    y 0.000000 1.921540 0.000000 
#    z 0.002270 0.000000 1.714560 
# 
# From -- ./inp_files/23011.got.cif
#   From: 2010.05.17/outbox.cif.g08.bks.cpg/sg13_12_cif.got.tgz:23011.got - 2010.06.03 16:44:36.
