data_PCOD9234536
_publ_section_title
;
Structure prediction by ZEFSAII (Michael W. Deem and Ramdas Pophale) SiO2 
 PCOD9234536
Probable space group: P 2/C
;
_chemical_formula_sum "Si O2"
_cell_formula_units_Z 24
_cell_length_a 7.518115
_cell_length_b 5.679062
_cell_length_c 25.302445
_cell_angle_alpha 90.000000
_cell_angle_beta 107.285316
_cell_angle_gamma 90.000000
_cell_volume 1031.519150
_symmetry_space_group_name_H-M "P 2/C"
_symmetry_group_IT_number 13
_symmetry_cell_setting 'monoclinic'
loop_
_space_group_symop_operation_xyz
x,y,z
-x,y,1/2-z
-x,-y,-z
x,-y,1/2+z
loop_
_atom_site_type_symbol
_atom_site_label
_atom_site_fract_x
_atom_site_fract_y
_atom_site_fract_z
Si Si1 0.446044 0.872287 0.140550
Si Si2 0.500000 0.388319 0.750000
Si Si3 0.815679 0.278017 0.518829
Si Si4 0.835056 0.372287 0.640550
Si Si5 0.000000 0.888319 0.250000
Si Si6 0.304555 0.250000 0.304555
Si Si7 0.778021 0.221983 0.981171
O O1 0.413536 0.761835 0.195023
O O2 0.633557 0.750000 0.133557
O O3 0.288582 0.830768 0.084067
O O4 0.504815 0.141074 0.156343
O O5 0.649656 0.551347 0.733793
O O6 0.879551 0.330768 0.584067
O O7 0.708259 0.517060 0.491975
O O8 0.997747 0.250000 0.497747
O O9 0.724307 0.017060 0.508024
O O10 0.807870 0.641075 0.656343
O O11 0.976510 0.261836 0.695023
O O12 0.817931 0.051346 0.233793
#
# Coordination Sequence:
#
# PCOD9234536 Si02
#       7
#     4   2   4   4   2   4   4
#     4  10  23  40  62  94 125 166 212 261 322 384
#     4  10  22  40  62  96 126 164 210 264 326 390
#     4  10  24  44  65  93 127 170 218 267 321 383
#     4  10  23  40  62  94 125 166 212 261 322 384
#     4  10  22  40  62  96 126 164 210 264 326 390
#     4  10  22  40  62  94 128 166 212 266 324 396
#     4  10  24  44  65  93 127 170 218 267 321 383
#
# _framework density 23.266653999999999
#
# number of rings (size 3 to 8) (size 9 to 14) (size 15 to 20)
#    0.000    2.000    0.000    1.000    9.333    8.000 
#    3.000    0.000    0.000    0.000    0.000    0.000 
#    0.000    0.000    0.000    0.000    0.000    0.000 
#
# Total GULP energy -134065.186903 kJ/mol
# GULP energy per Si atom -5586.049454 kJ/mol
# Density = 2.321370 g / cm^3
# Si number density = 23.266654 Si / 1000 Ang^3
#
#
#
# Elastic Constant Matrix: (Units=GPa)
#
#
# Indices 1 2 3 4 5 6 
#
# 1 49.2896 10.8741 -0.5476 0.0000 0.0737 0.0000
# 2 10.8741 170.3848 74.1497 0.0000 0.9730 0.0000
# 3 -0.5476 74.1497 157.6430 0.0000 1.5924 0.0000
# 4 0.0000 0.0000 0.0000 22.3595 0.0000 0.1049
# 5 0.0737 0.9730 1.5924 0.0000 27.3445 0.0000
# 6 0.0000 0.0000 0.0000 0.1049 0.0000 15.5270
#
#
#
# Elastic Compliance Matrix: (Units=1/GPa)
#
#
# Indices 1 2 3 4 5 6 
#
# 1 0.020673 -0.001698 0.000871 0.000000 -0.000046 0.000000
# 2 -0.001698 0.007519 -0.003542 0.000000 -0.000057 0.000000
# 3 0.000871 -0.003542 0.008016 0.000000 -0.000343 0.000000
# 4 0.000000 0.000000 0.000000 0.044725 0.000000 -0.000302
# 5 -0.000046 -0.000057 -0.000343 0.000000 0.036593 0.000000
# 6 0.000000 0.000000 0.000000 -0.000302 0.000000 0.064406
#
#
# Mechanical properties :
#
#
# Convention : Reuss Voigt Hill
#
# Bulk Modulus (GPa) = 36.40408 60.69665 48.55037
# Shear Modulus (GPa) = 25.02170 32.56894 28.79532
#
# Velocity S-wave (km/s) = 3.28294 3.74546 3.52180
# Velocity P-wave (km/s) = 5.48185 6.69692 6.11961
#
# Compressibility (1/GPa) = 0.02746945
#
# Stress axis : x y z
#
# Youngs Moduli (GPa) = 48.37311 132.99170 124.74999
#
# Poissons Ratio (x) = 0.22584 -0.10866
# Poissons Ratio (y) = 0.08214 0.44188
# Poissons Ratio (z) = -0.04213 0.47107
#
# Static dielectric constant tensor:
#      x y z
#    x 1.913090 0.000000 -0.001560 
#    y 0.000000 1.974110 0.000000 
#    z -0.001560 0.000000 1.811580 
# 
# From -- ./inp_files/84328.got.cif
#   From: 2010.05.17/outbox.cif.g08.bks.cpg/sg13_43_cif.got.tgz:84328.got - 2010.06.03 16:44:36.
