data_PCOD9234561
_publ_section_title
;
Structure prediction by ZEFSAII (Michael W. Deem and Ramdas Pophale) SiO2 
 PCOD9234561
Probable space group: P 2/C
;
_chemical_formula_sum "Si O2"
_cell_formula_units_Z 30
_cell_length_a 18.424072
_cell_length_b 4.812845
_cell_length_c 14.081639
_cell_angle_alpha 90.000000
_cell_angle_beta 75.396729
_cell_angle_gamma 90.000000
_cell_volume 1208.312036
_symmetry_space_group_name_H-M "P 2/C"
_symmetry_group_IT_number 13
_symmetry_cell_setting 'monoclinic'
loop_
_space_group_symop_operation_xyz
x,y,z
-x,y,1/2-z
-x,-y,-z
x,-y,1/2+z
loop_
_atom_site_type_symbol
_atom_site_label
_atom_site_fract_x
_atom_site_fract_y
_atom_site_fract_z
Si Si1 0.273677 0.901099 0.325363
Si Si2 0.664147 0.084747 0.376672
Si Si3 0.708419 0.399045 0.071420
Si Si4 0.414623 0.418186 0.520512
Si Si5 0.064745 0.828740 0.535150
Si Si6 0.000000 0.187445 0.250000
Si Si7 0.880494 0.799438 0.181166
Si Si8 0.184613 0.782885 0.106853
O O1 0.335313 0.991090 0.231568
O O2 0.271712 0.575470 0.343712
O O3 0.189877 0.988854 0.325578
O O4 0.291220 0.071351 0.413006
O O5 0.602635 0.900958 0.451601
O O6 0.746938 0.985057 0.382437
O O7 0.638961 0.400153 0.393261
O O8 0.626120 0.483951 0.065339
O O9 0.773713 0.442221 0.972657
O O10 0.500000 0.500000 0.500000
O O11 0.096229 0.670593 0.429393
O O12 0.034931 0.669994 0.641640
O O13 0.124217 0.044583 0.563903
O O14 0.000000 0.000000 0.500000
O O15 0.058021 0.987977 0.286259
O O16 0.848128 0.643633 0.285516
#
# Coordination Sequence:
#
# PCOD9234561 Si02
#       8
#     4   4   4   4   4   2   4   4
#     4  11  22  39  64  97 126 165 220 281 317 384
#     4  10  22  40  63  93 129 169 220 269 326 395
#     4  11  22  39  64  94 126 165 220 266 332 390
#     4  11  23  42  64  91 129 175 214 264 334 404
#     4   9  15  28  53  88 125 171 217 275 326 392
#     4   8  16  28  52  90 130 174 218 266 336 392
#     4   9  17  31  57  87 127 170 219 274 328 391
#     4   9  18  33  55  89 124 171 220 272 330 393
#
# _framework density 24.828022000000001
#
# number of rings (size 3 to 8) (size 9 to 14) (size 15 to 20)
#    0.000    2.133    1.333    2.800    0.000    0.000 
#    0.000    4.000    0.000    8.000    0.000    0.000 
#    0.000    0.000    0.000    0.000    0.000    0.000 
#
# Total GULP energy -167155.820664 kJ/mol
# GULP energy per Si atom -5571.860689 kJ/mol
# Density = 2.477151 g / cm^3
# Si number density = 24.828022 Si / 1000 Ang^3
#
#
#
# Elastic Constant Matrix: (Units=GPa)
#
#
# Indices 1 2 3 4 5 6 
#
# 1 141.2676 7.9570 35.3842 0.0000 8.9481 0.0000
# 2 7.9570 47.7723 1.7303 0.0000 5.5537 0.0000
# 3 35.3842 1.7303 148.5187 0.0000 24.6843 0.0000
# 4 0.0000 0.0000 0.0000 25.7981 0.0000 10.2540
# 5 8.9481 5.5537 24.6843 0.0000 20.0496 0.0000
# 6 0.0000 0.0000 0.0000 10.2540 0.0000 27.5113
#
#
#
# Elastic Compliance Matrix: (Units=1/GPa)
#
#
# Indices 1 2 3 4 5 6 
#
# 1 0.007615 -0.001081 -0.001618 0.000000 -0.001108 0.000000
# 2 -0.001081 0.021886 0.001169 0.000000 -0.007019 0.000000
# 3 -0.001618 0.001169 0.008850 0.000000 -0.010497 0.000000
# 4 0.000000 0.000000 0.000000 0.045504 0.000000 -0.016960
# 5 -0.001108 -0.007019 -0.010497 0.000000 0.065239 0.000000
# 6 0.000000 0.000000 0.000000 -0.016960 0.000000 0.042670
#
#
# Mechanical properties :
#
#
# Convention : Reuss Voigt Hill
#
# Bulk Modulus (GPa) = 28.33485 47.52242 37.92863
# Shear Modulus (GPa) = 24.20299 34.17095 29.18697
#
# Velocity S-wave (km/s) = 3.12561 3.71388 3.43237
# Velocity P-wave (km/s) = 4.94602 6.12966 5.56938
#
# Compressibility (1/GPa) = 0.03529223
#
# Stress axis : x y z
#
# Youngs Moduli (GPa) = 131.32021 45.69057 112.99970
#
# Poissons Ratio (x) = 0.04939 0.18278
# Poissons Ratio (y) = 0.14196 -0.13212
# Poissons Ratio (z) = 0.21242 -0.05342
#
# Static dielectric constant tensor:
#      x y z
#    x 1.986040 0.000000 -0.026040 
#    y 0.000000 1.976700 0.000000 
#    z -0.026040 0.000000 2.130190 
# 
# From -- ./inp_files/54635.got.cif
#   From: 2010.05.17/outbox.cif.g08.bks.cpg/sg13_28_cif.got.tgz:54635.got - 2010.06.03 16:44:36.
