data_PCOD9234141
_publ_section_title
;
Structure prediction by ZEFSAII (Michael W. Deem and Ramdas Pophale) SiO2 
 PCOD9234141
Probable space group: P 2/C
;
_chemical_formula_sum "Si O2"
_cell_formula_units_Z 30
_cell_length_a 23.133504
_cell_length_b 5.494350
_cell_length_c 24.548912
_cell_angle_alpha 90.000000
_cell_angle_beta 25.795577
_cell_angle_gamma 90.000000
_cell_volume 1357.814844
_symmetry_space_group_name_H-M "P 2/C"
_symmetry_group_IT_number 13
_symmetry_cell_setting 'monoclinic'
loop_
_space_group_symop_operation_xyz
x,y,z
-x,y,1/2-z
-x,-y,-z
x,-y,1/2+z
loop_
_atom_site_type_symbol
_atom_site_label
_atom_site_fract_x
_atom_site_fract_y
_atom_site_fract_z
Si Si1 0.407831 0.206677 0.421631
Si Si2 0.541721 0.451496 0.526971
Si Si3 0.630615 0.187286 0.733417
Si Si4 0.500000 0.550610 0.250000
Si Si5 0.868555 0.477121 0.147705
Si Si6 0.123983 0.830658 0.183906
Si Si7 0.838226 0.315435 0.289144
Si Si8 0.159735 0.023758 0.867479
O O1 0.419459 0.303504 0.473534
O O2 0.422421 0.409411 0.363135
O O3 0.263187 0.093961 0.537645
O O4 0.532548 0.036531 0.307873
O O5 0.500000 0.500000 0.500000
O O6 0.435135 0.331303 0.659094
O O7 0.679382 0.299832 0.412293
O O8 0.613548 0.320971 0.690438
O O9 0.775136 0.103260 0.630704
O O10 0.905434 0.400322 0.176511
O O11 0.806048 0.746826 0.200508
O O12 0.787451 0.245079 0.192962
O O13 0.000000 0.500000 0.000000
O O14 0.140618 0.549303 0.189351
O O15 0.000000 0.839857 0.250000
O O16 0.108887 0.050341 0.239795
O O17 0.000000 0.000000 0.000000
#
# Coordination Sequence:
#
# PCOD9234141 Si02
#       8
#     4   4   4   2   4   4   4   4
#     4  10  23  44  65 101 136 174 239 289 345 421
#     4  10  22  37  66  99 133 175 222 290 351 413
#     4  11  22  42  68  97 136 183 232 288 352 420
#     4  10  24  44  68  96 138 186 238 290 350 414
#     4  10  22  43  64  94 143 176 221 279 347 421
#     4  11  24  46  70  97 137 182 236 292 338 405
#     4  11  22  42  67 101 134 177 233 282 347 413
#     4  10  23  41  65  94 140 179 220 280 344 422
#
# _framework density 22.094321999999998
#
# number of rings (size 3 to 8) (size 9 to 14) (size 15 to 20)
#    0.000    1.600    1.333    2.400    5.600    1.600 
#    4.800    4.000    0.000    0.000    0.000    0.000 
#    0.000    0.000    0.000    0.000    0.000    0.000 
#
# Total GULP energy -167217.332606 kJ/mol
# GULP energy per Si atom -5573.911087 kJ/mol
# Density = 2.204403 g / cm^3
# Si number density = 22.094322 Si / 1000 Ang^3
#
#
#
# Elastic Constant Matrix: (Units=GPa)
#
#
# Indices 1 2 3 4 5 6 
#
# 1 170.7601 46.1146 48.7493 0.0000 -21.0405 0.0000
# 2 46.1146 112.6319 3.8930 0.0000 -6.6829 0.0000
# 3 48.7493 3.8930 62.3563 0.0000 -15.5781 0.0000
# 4 0.0000 0.0000 0.0000 13.8208 0.0000 0.7737
# 5 -21.0405 -6.6829 -15.5781 0.0000 39.2591 0.0000
# 6 0.0000 0.0000 0.0000 0.7737 0.0000 27.2260
#
#
#
# Elastic Compliance Matrix: (Units=1/GPa)
#
#
# Indices 1 2 3 4 5 6 
#
# 1 0.008705 -0.003252 -0.006189 0.000000 0.001656 0.000000
# 2 -0.003252 0.010186 0.002114 0.000000 0.000830 0.000000
# 3 -0.006189 0.002114 0.022206 0.000000 0.005854 0.000000
# 4 0.000000 0.000000 0.000000 0.072470 0.000000 -0.002059
# 5 0.001656 0.000830 0.005854 0.000000 0.028824 0.000000
# 6 0.000000 0.000000 0.000000 -0.002059 0.000000 0.036788
#
#
# Mechanical properties :
#
#
# Convention : Reuss Voigt Hill
#
# Bulk Modulus (GPa) = 37.81731 60.36243 49.08987
# Shear Modulus (GPa) = 24.67341 32.52730 28.60036
#
# Velocity S-wave (km/s) = 3.34538 3.84109 3.60177
# Velocity P-wave (km/s) = 5.66353 6.85942 6.28996
#
# Compressibility (1/GPa) = 0.02644292
#
# Stress axis : x y z
#
# Youngs Moduli (GPa) = 114.87277 98.17283 45.03324
#
# Poissons Ratio (x) = 0.31926 0.27871
# Poissons Ratio (y) = 0.37357 -0.09519
# Poissons Ratio (z) = 0.71093 -0.20751
#
# Static dielectric constant tensor:
#      x y z
#    x 1.795950 0.000000 -0.001700 
#    y 0.000000 1.945060 0.000000 
#    z -0.001700 0.000000 1.850530 
# 
# From -- ./inp_files/88352.got.cif
#   From: 2010.05.17/outbox.cif.g08.bks.cpg/sg13_45_cif.got.tgz:88352.got - 2010.06.03 16:44:36.
