data_PCOD9234109
_publ_section_title
;
Structure prediction by ZEFSAII (Michael W. Deem and Ramdas Pophale) SiO2 
 PCOD9234109
Probable space group: P 2/C
;
_chemical_formula_sum "Si O2"
_cell_formula_units_Z 16
_cell_length_a 5.257758
_cell_length_b 9.798061
_cell_length_c 14.193292
_cell_angle_alpha 90.000000
_cell_angle_beta 113.190642
_cell_angle_gamma 90.000000
_cell_volume 672.099742
_symmetry_space_group_name_H-M "P 2/C"
_symmetry_group_IT_number 13
_symmetry_cell_setting 'monoclinic'
loop_
_space_group_symop_operation_xyz
x,y,z
-x,y,1/2-z
-x,-y,-z
x,-y,1/2+z
loop_
_atom_site_type_symbol
_atom_site_label
_atom_site_fract_x
_atom_site_fract_y
_atom_site_fract_z
Si Si1 0.652602 0.342767 0.939623
Si Si2 0.777693 0.862377 0.782970
Si Si3 0.074514 0.505653 0.368538
Si Si4 0.412214 0.029347 0.593757
O O1 0.339232 0.392148 0.911931
O O2 0.656762 0.186962 0.908825
O O3 0.812401 0.433616 0.886133
O O4 0.823445 0.371626 0.060368
O O5 0.500000 0.771896 0.750000
O O6 0.000000 0.796344 0.750000
O O7 0.671353 0.986388 0.698416
O O8 0.818671 0.929811 0.891311
O O9 0.000000 0.491379 0.250000
O O10 0.500000 0.000000 0.500000
#
# Coordination Sequence:
#
# PCOD9234109 Si02
#       4
#     4   4   4   4
#     4  10  22  37  59  90 113 154 197 240 302 349
#     4   8  20  34  53  82 109 155 192 230 287 340
#     4  10  22  38  61  85 117 152 198 250 291 347
#     4   9  21  36  59  85 119 150 193 241 292 361
#
# _framework density 23.805992
#
# number of rings (size 3 to 8) (size 9 to 14) (size 15 to 20)
#    1.500    1.000    0.000    0.750   10.500    1.000 
#    0.000    1.250   27.500    0.000    0.000    0.000 
#    0.000    0.000    0.000    0.000    0.000    0.000 
#
# Total GULP energy -89267.403598 kJ/mol
# GULP energy per Si atom -5579.212725 kJ/mol
# Density = 2.375181 g / cm^3
# Si number density = 23.805992 Si / 1000 Ang^3
#
#
#
# Elastic Constant Matrix: (Units=GPa)
#
#
# Indices 1 2 3 4 5 6 
#
# 1 140.3185 -8.6974 -0.8492 0.0000 -24.5951 0.0000
# 2 -8.6974 59.1269 0.2853 0.0000 4.0220 0.0000
# 3 -0.8492 0.2853 115.9508 0.0000 -43.8071 0.0000
# 4 0.0000 0.0000 0.0000 20.9019 0.0000 -7.9184
# 5 -24.5951 4.0220 -43.8071 0.0000 43.3379 0.0000
# 6 0.0000 0.0000 0.0000 -7.9184 0.0000 4.4827
#
#
#
# Elastic Compliance Matrix: (Units=1/GPa)
#
#
# Indices 1 2 3 4 5 6 
#
# 1 0.008566 0.000711 0.003030 0.000000 0.007858 0.000000
# 2 0.000711 0.017156 -0.000786 0.000000 -0.001984 0.000000
# 3 0.003030 -0.000786 0.015088 0.000000 0.017044 0.000000
# 4 0.000000 0.000000 0.000000 0.144625 0.000000 0.255471
# 5 0.007858 -0.001984 0.017044 0.000000 0.044946 0.000000
# 6 0.000000 0.000000 0.000000 0.255471 0.000000 0.674353
#
#
# Mechanical properties :
#
#
# Convention : Reuss Voigt Hill
#
# Bulk Modulus (GPa) = 21.40451 32.98595 27.19523
# Shear Modulus (GPa) = 5.46807 35.38834 20.42820
#
# Velocity S-wave (km/s) = 1.51721 3.85974 2.93253
# Velocity P-wave (km/s) = 3.47563 5.80945 4.78694
#
# Compressibility (1/GPa) = 0.04671913
#
# Stress axis : x y z
#
# Youngs Moduli (GPa) = 116.73418 58.28835 66.27928
#
# Poissons Ratio (x) = -0.04144 -0.20082
# Poissons Ratio (y) = -0.08299 0.05213
# Poissons Ratio (z) = -0.35370 0.04584
#
# Static dielectric constant tensor:
#      x y z
#    x 2.107130 0.000000 0.085570 
#    y 0.000000 1.848910 0.000000 
#    z 0.085570 0.000000 1.960320 
# 
# From -- ./inp_files/34097.got.cif
#   From: 2010.05.17/outbox.cif.g08.bks.cpg/sg13_18_cif.got.tgz:34097.got - 2010.06.03 16:44:36.
