data_PCOD9234896
_publ_section_title
;
Structure prediction by ZEFSAII (Michael W. Deem and Ramdas Pophale) SiO2 
 PCOD9234896
Probable space group: P 2/C
;
_chemical_formula_sum "Si O2"
_cell_formula_units_Z 26
_cell_length_a 12.462566
_cell_length_b 11.762796
_cell_length_c 8.681870
_cell_angle_alpha 90.000000
_cell_angle_beta 64.273193
_cell_angle_gamma 90.000000
_cell_volume 1146.556289
_symmetry_space_group_name_H-M "P 2/C"
_symmetry_group_IT_number 13
_symmetry_cell_setting 'monoclinic'
loop_
_space_group_symop_operation_xyz
x,y,z
-x,y,1/2-z
-x,-y,-z
x,-y,1/2+z
loop_
_atom_site_type_symbol
_atom_site_label
_atom_site_fract_x
_atom_site_fract_y
_atom_site_fract_z
Si Si1 0.183770 0.588814 0.214417
Si Si2 0.615103 0.706601 0.270463
Si Si3 0.378269 0.335841 0.387798
Si Si4 0.000000 0.600166 0.750000
Si Si5 0.963395 0.227824 0.544509
Si Si6 0.238326 0.909543 0.467226
Si Si7 0.230246 0.147284 0.332044
O O1 0.282265 0.610443 0.284904
O O2 0.102513 0.702222 0.279437
O O3 0.099253 0.480935 0.264018
O O4 0.265530 0.589498 0.011286
O O5 0.500000 0.670004 0.250000
O O6 0.590734 0.724904 0.467547
O O7 0.667556 0.819590 0.159939
O O8 0.500000 0.389262 0.250000
O O9 0.325569 0.246441 0.300183
O O10 0.047622 0.681851 0.588188
O O11 0.883950 0.120489 0.546323
O O12 0.100163 0.191119 0.466625
O O13 0.223742 0.887468 0.657380
O O14 0.267367 0.038782 0.409872
#
# Coordination Sequence:
#
# PCOD9234896 Si02
#       7
#     4   4   4   2   4   4   4
#     4   9  23  39  69  99 135 178 224 286 336 413
#     4   9  20  42  67  99 139 181 227 281 333 398
#     4  10  22  41  68 102 132 181 225 282 336 399
#     4  12  20  44  68 108 130 182 232 278 352 402
#     4  11  23  41  68  97 140 176 223 288 337 416
#     4  11  23  40  63 104 137 184 224 281 340 410
#     4  12  23  40  65 102 140 180 228 275 348 410
#
# _framework density 22.676600000000001
#
# number of rings (size 3 to 8) (size 9 to 14) (size 15 to 20)
#    0.923    0.615    1.538    3.692    0.000    0.615 
#    0.000    3.077    0.000   15.692    0.000    0.000 
#    0.000    0.000    0.000    0.000    0.000    0.000 
#
# Total GULP energy -145210.414367 kJ/mol
# GULP energy per Si atom -5585.015937 kJ/mol
# Density = 2.262499 g / cm^3
# Si number density = 22.676600 Si / 1000 Ang^3
#
#
#
# Elastic Constant Matrix: (Units=GPa)
#
#
# Indices 1 2 3 4 5 6 
#
# 1 105.3421 5.2340 4.8493 0.0000 -2.9759 0.0000
# 2 5.2340 36.6023 -2.9534 0.0000 -1.5851 0.0000
# 3 4.8493 -2.9534 106.0948 0.0000 -14.6611 0.0000
# 4 0.0000 0.0000 0.0000 11.4284 0.0000 23.3571
# 5 -2.9759 -1.5851 -14.6611 0.0000 34.0184 0.0000
# 6 0.0000 0.0000 0.0000 23.3571 0.0000 18.3107
#
#
#
# Elastic Compliance Matrix: (Units=1/GPa)
#
#
# Indices 1 2 3 4 5 6 
#
# 1 0.009597 -0.001378 -0.000393 0.000000 0.000606 0.000000
# 2 -0.001378 0.027673 0.001058 0.000000 0.001625 0.000000
# 3 -0.000393 0.001058 0.010075 0.000000 0.004357 0.000000
# 4 0.000000 0.000000 0.000000 -0.054449 0.000000 0.069455
# 5 0.000606 0.001625 0.004357 0.000000 0.031402 0.000000
# 6 0.000000 0.000000 0.000000 0.069455 0.000000 -0.033984
#
#
# Mechanical properties :
#
#
# Convention : Reuss Voigt Hill
#
# Bulk Modulus (GPa) = 21.77762 29.14433 25.46098
# Shear Modulus (GPa) = 709.55973 28.81213 369.18593
#
# Velocity S-wave (km/s) = 17.70828 3.56837 12.77334
# Velocity P-wave (km/s) = 20.68176 5.46422 15.12602
#
# Compressibility (1/GPa) = 0.04591869
#
# Stress axis : x y z
#
# Youngs Moduli (GPa) = 104.20407 36.13571 99.25522
#
# Poissons Ratio (x) = 0.04979 0.03903
# Poissons Ratio (y) = 0.14357 -0.10500
# Poissons Ratio (z) = 0.04098 -0.03823
#
# Static dielectric constant tensor:
#      x y z
#    x 1.824100 0.000000 0.003460 
#    y 0.000000 1.796680 0.000000 
#    z 0.003460 0.000000 1.887510 
# 
# From -- ./inp_files/18695.got.cif
#   From: 2010.05.17/outbox.cif.g08.bks.cpg/sg13_10_cif.got.tgz:18695.got - 2010.06.03 16:44:36.
