data_PCOD9234889
_publ_section_title
;
Structure prediction by ZEFSAII (Michael W. Deem and Ramdas Pophale) SiO2 
 PCOD9234889
Probable space group: P 2/C
;
_chemical_formula_sum "Si O2"
_cell_formula_units_Z 16
_cell_length_a 5.592713
_cell_length_b 11.644511
_cell_length_c 9.923617
_cell_angle_alpha 90.000000
_cell_angle_beta 88.188997
_cell_angle_gamma 90.000000
_cell_volume 645.946877
_symmetry_space_group_name_H-M "P 2/C"
_symmetry_group_IT_number 13
_symmetry_cell_setting 'monoclinic'
loop_
_space_group_symop_operation_xyz
x,y,z
-x,y,1/2-z
-x,-y,-z
x,-y,1/2+z
loop_
_atom_site_type_symbol
_atom_site_label
_atom_site_fract_x
_atom_site_fract_y
_atom_site_fract_z
Si Si1 0.644901 0.747564 0.041257
Si Si2 0.747400 0.540207 0.834274
Si Si3 0.859342 0.285292 0.915653
Si Si4 0.954163 0.103595 0.401192
O O1 0.674913 0.634334 0.947519
O O2 0.688944 0.852339 0.938769
O O3 0.397119 0.761913 0.117692
O O4 0.871153 0.739448 0.138392
O O5 0.500000 0.524830 0.750000
O O6 0.815897 0.421050 0.906998
O O7 0.000000 0.568314 0.750000
O O8 0.894139 0.217639 0.059368
O O9 0.000000 0.069474 0.250000
O O10 0.000000 0.000000 0.500000
#
# Coordination Sequence:
#
# PCOD9234889 Si02
#       4
#     4   4   4   4
#     4  10  22  41  67  97 138 181 231 276 346 413
#     4  12  23  37  67 105 142 180 222 279 347 419
#     4  10  23  42  66  99 136 183 225 280 345 415
#     4  10  25  46  74 100 137 185 239 290 346 406
#
# _framework density 24.769839999999999
#
# number of rings (size 3 to 8) (size 9 to 14) (size 15 to 20)
#    1.500    0.000    0.000    5.250    3.500    2.000 
#    0.000    0.000    0.000    0.000    0.000    0.000 
#    0.000    0.000    0.000    0.000    0.000    0.000 
#
# Total GULP energy -89122.625984 kJ/mol
# GULP energy per Si atom -5570.164124 kJ/mol
# Density = 2.471346 g / cm^3
# Si number density = 24.769840 Si / 1000 Ang^3
#
#
#
# Elastic Constant Matrix: (Units=GPa)
#
#
# Indices 1 2 3 4 5 6 
#
# 1 217.0366 11.6133 88.0828 0.0000 -22.1718 0.0000
# 2 11.6133 94.9506 63.7383 0.0000 -6.8747 0.0000
# 3 88.0828 63.7383 152.4261 0.0000 -15.4874 0.0000
# 4 0.0000 0.0000 0.0000 19.3879 0.0000 -8.4377
# 5 -22.1718 -6.8747 -15.4874 0.0000 49.6472 0.0000
# 6 0.0000 0.0000 0.0000 -8.4377 0.0000 -1.1442
#
#
#
# Elastic Compliance Matrix: (Units=1/GPa)
#
#
# Indices 1 2 3 4 5 6 
#
# 1 0.006531 0.002422 -0.004603 0.000000 0.001816 0.000000
# 2 0.002422 0.015541 -0.007818 0.000000 0.000795 0.000000
# 3 -0.004603 -0.007818 0.012569 0.000000 0.000783 0.000000
# 4 0.000000 0.000000 0.000000 0.012254 0.000000 -0.090359
# 5 0.001816 0.000795 0.000783 0.000000 0.021308 0.000000
# 6 0.000000 0.000000 0.000000 -0.090359 0.000000 -0.207624
#
#
# Mechanical properties :
#
#
# Convention : Reuss Voigt Hill
#
# Bulk Modulus (GPa) = 68.28117 87.92021 78.10069
# Shear Modulus (GPa) = -43.65133 33.64344 -5.00395
#
# Velocity S-wave (km/s) = -4.20250 3.68943 -1.42287
# Velocity P-wave (km/s) = 2.01942 7.32947 5.37583
#
# Compressibility (1/GPa) = 0.01464533
#
# Stress axis : x y z
#
# Youngs Moduli (GPa) = 153.10555 64.34651 79.56172
#
# Poissons Ratio (x) = -0.15587 0.36620
# Poissons Ratio (y) = -0.37088 0.62198
# Poissons Ratio (z) = 0.70470 0.50303
#
# Static dielectric constant tensor:
#      x y z
#    x 2.058710 0.000000 0.070340 
#    y 0.000000 1.954010 0.000000 
#    z 0.070340 0.000000 0.765600 
# 
# From -- ./inp_files/25666.got.cif
#   From: 2010.05.17/outbox.cif.g08.bks.cpg/sg13_13_cif.got.tgz:25666.got - 2010.06.03 16:44:36.
