data_PCOD9234066
_publ_section_title
;
Structure prediction by ZEFSAII (Michael W. Deem and Ramdas Pophale) SiO2 
 PCOD9234066
Probable space group: P 2/C
;
_chemical_formula_sum "Si O2"
_cell_formula_units_Z 24
_cell_length_a 21.616181
_cell_length_b 5.262088
_cell_length_c 22.283805
_cell_angle_alpha 90.000000
_cell_angle_beta 158.785642
_cell_angle_gamma 90.000000
_cell_volume 917.201667
_symmetry_space_group_name_H-M "P 2/C"
_symmetry_group_IT_number 13
_symmetry_cell_setting 'monoclinic'
loop_
_space_group_symop_operation_xyz
x,y,z
-x,y,1/2-z
-x,-y,-z
x,-y,1/2+z
loop_
_atom_site_type_symbol
_atom_site_label
_atom_site_fract_x
_atom_site_fract_y
_atom_site_fract_z
Si Si1 0.500000 0.655217 0.250000
Si Si2 0.564869 0.370785 0.940542
Si Si3 0.448260 0.750865 0.915440
Si Si4 0.227925 0.052117 0.642831
Si Si5 0.939019 0.303998 0.315962
Si Si6 0.000000 0.008197 0.750000
Si Si7 0.196970 0.700993 0.508970
O O1 0.410587 0.732511 0.105573
O O2 0.655340 0.500619 0.361326
O O3 0.544944 0.671559 0.940032
O O4 0.379256 0.253912 0.789772
O O5 0.734908 0.297026 0.131917
O O6 0.260955 0.830078 0.721082
O O7 0.500000 0.500000 0.000000
O O8 0.500000 0.000000 0.000000
O O9 0.043843 0.178427 0.465568
O O10 0.261346 0.927336 0.608247
O O11 0.981457 0.157024 0.292410
O O12 0.027161 0.579229 0.385243
O O13 0.845487 0.197509 0.595086
#
# Coordination Sequence:
#
# PCOD9234066 Si02
#       7
#     2   4   4   4   4   2   4
#     4  12  22  38  72 108 156 194 250 300 398 464
#     4  12  26  45  76 113 149 206 253 314 394 465
#     4  12  26  52  84 109 152 204 268 328 388 456
#     4  11  24  47  73 108 150 200 250 324 382 456
#     4  11  24  44  67 107 156 195 261 311 382 465
#     4  10  22  36  62  94 150 208 238 308 372 450
#     4  11  23  40  64 106 157 200 246 310 369 475
#
# _framework density 26.166546
#
# number of rings (size 3 to 8) (size 9 to 14) (size 15 to 20)
#    0.000    0.667    5.000    2.500    4.667    2.667 
#    0.000    1.667    0.000    0.000    0.000    0.000 
#    0.000    0.000    0.000    0.000    0.000    0.000 
#
# Total GULP energy -133754.018949 kJ/mol
# GULP energy per Si atom -5573.084123 kJ/mol
# Density = 2.610699 g / cm^3
# Si number density = 26.166546 Si / 1000 Ang^3
#
#
#
# Elastic Constant Matrix: (Units=GPa)
#
#
# Indices 1 2 3 4 5 6 
#
# 1 73.6835 28.1806 52.2564 0.0000 -14.4333 0.0000
# 2 28.1806 121.7083 74.8624 0.0000 -15.4660 0.0000
# 3 52.2564 74.8624 244.9103 0.0000 -22.4530 0.0000
# 4 0.0000 0.0000 0.0000 52.6841 0.0000 -31.5017
# 5 -14.4333 -15.4660 -22.4530 0.0000 55.5909 0.0000
# 6 0.0000 0.0000 0.0000 -31.5017 0.0000 12.5705
#
#
#
# Elastic Compliance Matrix: (Units=1/GPa)
#
#
# Indices 1 2 3 4 5 6 
#
# 1 0.016770 -0.001834 -0.002768 0.000000 0.002726 0.000000
# 2 -0.001834 0.010463 -0.002683 0.000000 0.001351 0.000000
# 3 -0.002768 -0.002683 0.005566 0.000000 0.000783 0.000000
# 4 0.000000 0.000000 0.000000 -0.038082 0.000000 -0.095433
# 5 0.002726 0.001351 0.000783 0.000000 0.019388 0.000000
# 6 0.000000 0.000000 0.000000 -0.095433 0.000000 -0.159603
#
#
# Mechanical properties :
#
#
# Convention : Reuss Voigt Hill
#
# Bulk Modulus (GPa) = 54.85836 83.43344 69.14590
# Shear Modulus (GPa) = -40.04731 43.16927 1.56098
#
# Velocity S-wave (km/s) = -3.91638 4.06617 0.77321
# Velocity P-wave (km/s) = 0.74828 7.34845 5.22301
#
# Compressibility (1/GPa) = 0.01822876
#
# Stress axis : x y z
#
# Youngs Moduli (GPa) = 59.63098 95.57411 179.67634
#
# Poissons Ratio (x) = 0.17530 0.49727
# Poissons Ratio (y) = 0.10937 0.48208
# Poissons Ratio (z) = 0.16503 0.25643
#
# Static dielectric constant tensor:
#      x y z
#    x 2.185560 0.000000 -0.070430 
#    y 0.000000 2.152160 0.000000 
#    z -0.070430 0.000000 2.068970 
# 
# From -- ./inp_files/88819.got.cif
#   From: 2010.05.17/outbox.cif.g08.bks.cpg/sg13_45_cif.got.tgz:88819.got - 2010.06.03 16:44:36.
