data_PCOD9234092
_publ_section_title
;
Structure prediction by ZEFSAII (Michael W. Deem and Ramdas Pophale) SiO2 
 PCOD9234092
Probable space group: P 2/C
;
_chemical_formula_sum "Si O2"
_cell_formula_units_Z 28
_cell_length_a 13.056021
_cell_length_b 9.020415
_cell_length_c 17.572036
_cell_angle_alpha 90.000000
_cell_angle_beta 143.463810
_cell_angle_gamma 90.000000
_cell_volume 1232.019300
_symmetry_space_group_name_H-M "P 2/C"
_symmetry_group_IT_number 13
_symmetry_cell_setting 'monoclinic'
loop_
_space_group_symop_operation_xyz
x,y,z
-x,y,1/2-z
-x,-y,-z
x,-y,1/2+z
loop_
_atom_site_type_symbol
_atom_site_label
_atom_site_fract_x
_atom_site_fract_y
_atom_site_fract_z
Si Si1 0.780482 0.172685 0.683148
Si Si2 0.353431 0.325894 0.225617
Si Si3 0.158995 0.339943 0.410850
Si Si4 0.558494 0.328284 0.045739
Si Si5 0.677127 0.346435 0.844811
Si Si6 0.991477 0.169091 0.966870
Si Si7 0.000000 0.921111 0.750000
Si Si8 0.000000 0.590191 0.250000
O O1 0.581180 0.213722 0.575065
O O2 0.910478 0.178413 0.833005
O O3 0.838284 0.306524 0.662743
O O4 0.838302 0.022825 0.676362
O O5 0.500000 0.289517 0.250000
O O6 0.408593 0.289764 0.345564
O O7 0.332116 0.505234 0.209980
O O8 0.174809 0.248097 0.092421
O O9 0.266325 0.320476 0.397514
O O10 0.294369 0.393582 0.551932
O O11 0.058683 0.185365 0.354084
O O12 0.025289 0.475105 0.332692
O O13 0.500000 0.500000 0.000000
O O14 0.500000 0.257887 0.750000
O O15 0.842224 0.253458 0.923143
O O16 0.000000 0.000000 0.000000
#
# Coordination Sequence:
#
# PCOD9234092 Si02
#       8
#     4   4   4   4   4   4   2   2
#     4  11  24  44  68  99 137 186 233 277 340 417
#     4  11  27  46  70 104 142 178 231 295 352 406
#     4  11  23  42  69 100 136 174 230 283 342 408
#     4  12  24  43  73 105 132 176 236 291 342 406
#     4  11  24  44  71 102 140 179 228 290 348 408
#     4  12  27  45  71 100 145 189 231 276 356 418
#     4  10  26  42  68  94 140 178 236 274 338 408
#     4  10  22  36  72  94 132 172 230 280 332 394
#
# _framework density 22.726915999999999
#
# number of rings (size 3 to 8) (size 9 to 14) (size 15 to 20)
#    0.000    0.857    1.429    5.571   10.000    1.143 
#    2.571    0.000    0.000    0.000    0.000    0.000 
#    0.000    0.000    0.000    0.000    0.000    0.000 
#
# Total GULP energy -156156.333841 kJ/mol
# GULP energy per Si atom -5577.011923 kJ/mol
# Density = 2.267519 g / cm^3
# Si number density = 22.726916 Si / 1000 Ang^3
#
#
#
# Elastic Constant Matrix: (Units=GPa)
#
#
# Indices 1 2 3 4 5 6 
#
# 1 48.4904 10.3086 1.0903 0.0000 16.2816 0.0000
# 2 10.3086 119.5244 26.4550 0.0000 19.8024 0.0000
# 3 1.0903 26.4550 96.7477 0.0000 12.3378 0.0000
# 4 0.0000 0.0000 0.0000 17.8209 0.0000 3.9862
# 5 16.2816 19.8024 12.3378 0.0000 54.6122 0.0000
# 6 0.0000 0.0000 0.0000 3.9862 0.0000 -13.3022
#
#
#
# Elastic Compliance Matrix: (Units=1/GPa)
#
#
# Indices 1 2 3 4 5 6 
#
# 1 0.023078 -0.001079 0.000888 0.000000 -0.006690 0.000000
# 2 -0.001079 0.009379 -0.002224 0.000000 -0.002577 0.000000
# 3 0.000888 -0.002224 0.011187 0.000000 -0.001986 0.000000
# 4 0.000000 0.000000 0.000000 0.052589 0.000000 0.015759
# 5 -0.006690 -0.002577 -0.001986 0.000000 0.021688 0.000000
# 6 0.000000 0.000000 0.000000 0.015759 0.000000 -0.070453
#
#
# Mechanical properties :
#
#
# Convention : Reuss Voigt Hill
#
# Bulk Modulus (GPa) = 25.76289 37.83003 31.79646
# Shear Modulus (GPa) = 76.64517 26.95343 51.79930
#
# Velocity S-wave (km/s) = 5.81357 3.44753 4.77928
# Velocity P-wave (km/s) = 7.51159 5.70341 6.66906
#
# Compressibility (1/GPa) = 0.03881553
#
# Stress axis : x y z
#
# Youngs Moduli (GPa) = 43.33090 106.62547 89.38571
#
# Poissons Ratio (x) = 0.11501 -0.07937
# Poissons Ratio (y) = 0.04674 0.19877
# Poissons Ratio (z) = -0.03848 0.23711
#
# Static dielectric constant tensor:
#      x y z
#    x 2.054150 0.000000 -0.087080 
#    y 0.000000 1.846920 0.000000 
#    z -0.087080 0.000000 1.935350 
# 
# From -- ./inp_files/80041.got.cif
#   From: 2010.05.17/outbox.cif.g08.bks.cpg/sg13_41_cif.got.tgz:80041.got - 2010.06.03 16:44:36.
