data_PCOD9234220
_publ_section_title
;
Structure prediction by ZEFSAII (Michael W. Deem and Ramdas Pophale) SiO2 
 PCOD9234220
Probable space group: P 2/C
;
_chemical_formula_sum "Si O2"
_cell_formula_units_Z 26
_cell_length_a 11.453146
_cell_length_b 9.016709
_cell_length_c 21.525753
_cell_angle_alpha 90.000000
_cell_angle_beta 150.279715
_cell_angle_gamma 90.000000
_cell_volume 1102.067232
_symmetry_space_group_name_H-M "P 2/C"
_symmetry_group_IT_number 13
_symmetry_cell_setting 'monoclinic'
loop_
_space_group_symop_operation_xyz
x,y,z
-x,y,1/2-z
-x,-y,-z
x,-y,1/2+z
loop_
_atom_site_type_symbol
_atom_site_label
_atom_site_fract_x
_atom_site_fract_y
_atom_site_fract_z
Si Si1 0.500000 0.806715 0.250000
Si Si2 0.577105 0.792151 0.470018
Si Si3 0.541296 0.041974 0.175465
Si Si4 0.848387 0.630195 0.499744
Si Si5 0.269123 0.459344 0.848821
Si Si6 0.277144 0.673777 0.610093
Si Si7 0.225948 0.222539 0.311433
O O1 0.651025 0.706207 0.364992
O O2 0.635976 0.925984 0.269913
O O3 0.787821 0.688940 0.540263
O O4 0.345883 0.691409 0.351148
O O5 0.581024 0.814139 0.545777
O O6 0.588136 0.940422 0.435477
O O7 0.371829 0.172602 0.123655
O O8 0.752145 0.115901 0.235615
O O9 0.821604 0.452022 0.482281
O O10 0.082236 0.686845 0.573861
O O11 0.262696 0.609203 0.805847
O O12 0.000000 0.445217 0.750000
O O13 0.500000 0.500000 0.000000
O O14 0.500000 0.610468 0.750000
O O15 0.000000 0.206385 0.250000
#
# Coordination Sequence:
#
# PCOD9234220 Si02
#       7
#     2   4   4   4   4   4   4
#     4  10  22  42  62  94 130 170 212 270 328 402
#     4  10  22  40  62  94 133 169 214 273 331 405
#     4  11  23  39  63  95 133 170 218 266 344 392
#     4  10  23  43  67  96 128 171 223 276 331 390
#     4   9  19  40  64  92 129 176 226 274 327 398
#     4  11  23  42  68  94 128 171 224 277 327 398
#     4  10  22  38  62  91 126 173 220 270 323 393
#
# _framework density 23.592027999999999
#
# number of rings (size 3 to 8) (size 9 to 14) (size 15 to 20)
#    0.000    1.846    1.538    1.385    2.154    4.308 
#    2.769    6.154    0.000    0.000    0.000    0.000 
#    0.000    0.000    0.000    0.000    0.000    0.000 
#
# Total GULP energy -144984.637403 kJ/mol
# GULP energy per Si atom -5576.332208 kJ/mol
# Density = 2.353833 g / cm^3
# Si number density = 23.592028 Si / 1000 Ang^3
#
#
#
# Elastic Constant Matrix: (Units=GPa)
#
#
# Indices 1 2 3 4 5 6 
#
# 1 98.9572 44.6996 21.6527 0.0000 9.7565 0.0000
# 2 44.6996 120.3685 12.9111 0.0000 -1.5459 0.0000
# 3 21.6527 12.9111 58.4526 0.0000 12.0077 0.0000
# 4 0.0000 0.0000 0.0000 15.3230 0.0000 -39.4048
# 5 9.7565 -1.5459 12.0077 0.0000 36.0267 0.0000
# 6 0.0000 0.0000 0.0000 -39.4048 0.0000 281.4970
#
#
#
# Elastic Compliance Matrix: (Units=1/GPa)
#
#
# Indices 1 2 3 4 5 6 
#
# 1 0.013154 -0.004563 -0.003320 0.000000 -0.002652 0.000000
# 2 -0.004563 0.010130 -0.000956 0.000000 0.001989 0.000000
# 3 -0.003320 -0.000956 0.019723 0.000000 -0.005716 0.000000
# 4 0.000000 0.000000 0.000000 0.101968 0.000000 0.014274
# 5 -0.002652 0.001989 -0.005716 0.000000 0.030466 0.000000
# 6 0.000000 0.000000 0.000000 0.014274 0.000000 0.005551
#
#
# Mechanical properties :
#
#
# Convention : Reuss Voigt Hill
#
# Bulk Modulus (GPa) = 39.47941 48.47833 43.97887
# Shear Modulus (GPa) = 24.14135 79.80366 51.97251
#
# Velocity S-wave (km/s) = 3.20235 5.82237 4.69867
# Velocity P-wave (km/s) = 5.51760 8.11130 6.93675
#
# Compressibility (1/GPa) = 0.02532966
#
# Stress axis : x y z
#
# Youngs Moduli (GPa) = 76.02028 98.71323 50.70196
#
# Poissons Ratio (x) = 0.45042 0.16834
# Poissons Ratio (y) = 0.34687 0.04847
# Poissons Ratio (z) = 0.25241 0.09437
#
# Static dielectric constant tensor:
#      x y z
#    x 1.907800 0.000000 -0.012000 
#    y 0.000000 1.924020 0.000000 
#    z -0.012000 0.000000 1.994090 
# 
# From -- ./inp_files/86471.got.cif
#   From: 2010.05.17/outbox.cif.g08.bks.cpg/sg13_44_cif.got.tgz:86471.got - 2010.06.03 16:44:36.
