data_PCOD9234198
_publ_section_title
;
Structure prediction by ZEFSAII (Michael W. Deem and Ramdas Pophale) SiO2 
 PCOD9234198
Probable space group: P 2/C
;
_chemical_formula_sum "Si O2"
_cell_formula_units_Z 22
_cell_length_a 10.162565
_cell_length_b 19.022621
_cell_length_c 5.277485
_cell_angle_alpha 90.000000
_cell_angle_beta 98.548091
_cell_angle_gamma 90.000000
_cell_volume 1008.902788
_symmetry_space_group_name_H-M "P 2/C"
_symmetry_group_IT_number 13
_symmetry_cell_setting 'monoclinic'
loop_
_space_group_symop_operation_xyz
x,y,z
-x,y,1/2-z
-x,-y,-z
x,-y,1/2+z
loop_
_atom_site_type_symbol
_atom_site_label
_atom_site_fract_x
_atom_site_fract_y
_atom_site_fract_z
Si Si1 0.500000 0.323858 0.250000
Si Si2 0.268557 0.343862 0.524315
Si Si3 0.000000 0.706578 0.750000
Si Si4 0.000000 0.952019 0.750000
Si Si5 0.110574 0.161467 0.988144
Si Si6 0.632333 0.213848 0.674180
Si Si7 0.843952 0.455075 0.683120
O O1 0.393068 0.365858 0.387830
O O2 0.581024 0.271339 0.457137
O O3 0.297350 0.262356 0.594878
O O4 0.249729 0.390156 0.769816
O O5 0.123358 0.342266 0.358647
O O6 0.060622 0.761284 0.562203
O O7 0.113994 0.894069 0.719923
O O8 0.000000 0.000000 0.500000
O O9 0.255301 0.165989 0.910393
O O10 0.000000 0.139207 0.750000
O O11 0.500000 0.179301 0.750000
O O12 0.820968 0.489115 0.403901
O O13 0.000000 0.434666 0.750000
#
# Coordination Sequence:
#
# PCOD9234198 Si02
#       7
#     2   4   2   2   4   4   4
#     4  10  22  40  58  88 132 164 206 252 348 384
#     4  11  23  37  64  88 129 164 206 270 330 391
#     4  11  22  32  62  98 124 159 206 268 330 379
#     4  11  24  42  64  98 138 177 210 262 304 357
#     4  11  21  38  65 100 131 164 217 259 312 375
#     4  10  22  38  60  95 131 166 203 263 334 385
#     4  10  25  42  60  88 121 166 217 267 321 386
#
# _framework density 21.805868
#
# number of rings (size 3 to 8) (size 9 to 14) (size 15 to 20)
#    0.000    1.455    4.545    0.000    8.909    0.000 
#    0.000    0.909    0.000    1.091    0.000    0.000 
#    0.000    0.000    0.000    0.000    0.000    0.000 
#
# Total GULP energy -122874.806080 kJ/mol
# GULP energy per Si atom -5585.218458 kJ/mol
# Density = 2.175624 g / cm^3
# Si number density = 21.805868 Si / 1000 Ang^3
#
#
#
# Elastic Constant Matrix: (Units=GPa)
#
#
# Indices 1 2 3 4 5 6 
#
# 1 186.3577 48.4632 48.6475 0.0000 -38.3206 0.0000
# 2 48.4632 70.0180 23.2393 0.0000 -24.9447 0.0000
# 3 48.6475 23.2393 82.7193 0.0000 -18.2564 0.0000
# 4 0.0000 0.0000 0.0000 42.9006 0.0000 -19.4523
# 5 -38.3206 -24.9447 -18.2564 0.0000 48.2157 0.0000
# 6 0.0000 0.0000 0.0000 -19.4523 0.0000 3.4746
#
#
#
# Elastic Compliance Matrix: (Units=1/GPa)
#
#
# Indices 1 2 3 4 5 6 
#
# 1 0.007615 -0.003128 -0.002860 0.000000 0.003351 0.000000
# 2 -0.003128 0.019599 -0.002158 0.000000 0.006837 0.000000
# 3 -0.002860 -0.002158 0.014872 0.000000 0.002242 0.000000
# 4 0.000000 0.000000 0.000000 -0.015151 0.000000 -0.084822
# 5 0.003351 0.006837 0.002242 0.000000 0.027789 0.000000
# 6 0.000000 0.000000 0.000000 -0.084822 0.000000 -0.187068
#
#
# Mechanical properties :
#
#
# Convention : Reuss Voigt Hill
#
# Bulk Modulus (GPa) = 38.76770 64.42167 51.59468
# Shear Modulus (GPa) = -46.53149 33.50118 -6.51516
#
# Velocity S-wave (km/s) = -4.62442 3.92387 -1.73040
# Velocity P-wave (km/s) = 3.27056 7.08070 4.44071
#
# Compressibility (1/GPa) = 0.02579467
#
# Stress axis : x y z
#
# Youngs Moduli (GPa) = 131.31783 51.02387 67.23999
#
# Poissons Ratio (x) = 0.15958 0.19232
# Poissons Ratio (y) = 0.41071 0.14509
# Poissons Ratio (z) = 0.37559 0.11010
#
# Static dielectric constant tensor:
#      x y z
#    x 1.792650 0.000000 -0.018220 
#    y 0.000000 1.807610 0.000000 
#    z -0.018220 0.000000 1.926270 
# 
# From -- ./inp_files/2150.got.cif
#   From: 2010.05.17/outbox.cif.g08.bks.cpg/sg13_2_cif.got.tgz:2150.got - 2010.06.03 16:44:36.
