data_PCOD9234408
_publ_section_title
;
Structure prediction by ZEFSAII (Michael W. Deem and Ramdas Pophale) SiO2 
 PCOD9234408
Probable space group: P 2/C
;
_chemical_formula_sum "Si O2"
_cell_formula_units_Z 28
_cell_length_a 11.735245
_cell_length_b 20.852410
_cell_length_c 5.422228
_cell_angle_alpha 90.000000
_cell_angle_beta 111.894292
_cell_angle_gamma 90.000000
_cell_volume 1231.161199
_symmetry_space_group_name_H-M "P 2/C"
_symmetry_group_IT_number 13
_symmetry_cell_setting 'monoclinic'
loop_
_space_group_symop_operation_xyz
x,y,z
-x,y,1/2-z
-x,-y,-z
x,-y,1/2+z
loop_
_atom_site_type_symbol
_atom_site_label
_atom_site_fract_x
_atom_site_fract_y
_atom_site_fract_z
Si Si1 0.618393 0.900090 0.995216
Si Si2 0.570933 0.250635 0.546789
Si Si3 0.251481 0.890505 0.898745
Si Si4 0.773948 0.345754 0.850362
Si Si5 0.863070 0.243351 0.257641
Si Si6 0.643016 0.523938 0.147221
Si Si7 0.000000 0.692525 0.250000
Si Si8 0.000000 0.040088 0.250000
O O1 0.500000 0.927070 0.750000
O O2 0.718263 0.909219 0.859480
O O3 0.593651 0.824346 0.013263
O O4 0.658522 0.916676 0.309541
O O5 0.500000 0.257291 0.750000
O O6 0.693526 0.290832 0.659381
O O7 0.500000 0.275801 0.250000
O O8 0.231942 0.813253 0.877195
O O9 0.120031 0.917233 0.856847
O O10 0.683296 0.406314 0.777375
O O11 0.909147 0.351975 0.837557
O O12 0.807611 0.311852 0.134423
O O13 0.000000 0.233354 0.250000
O O14 0.903095 0.255919 0.565077
O O15 0.693665 0.480189 0.410171
O O16 0.500000 0.500000 0.000000
O O17 0.000000 0.000000 0.500000
#
# Coordination Sequence:
#
# PCOD9234408 Si02
#       8
#     4   4   4   4   4   4   2   2
#     4  11  23  40  63 104 148 190 229 292 360 437
#     4  11  24  36  62 100 142 182 222 284 366 420
#     4  12  23  43  73 101 146 189 241 299 357 430
#     4  11  24  41  69  94 143 174 238 291 359 432
#     4  10  22  39  64 104 133 183 222 291 366 426
#     4  10  25  45  66  94 127 177 233 286 342 414
#     4  10  24  41  66  98 141 172 228 294 376 438
#     4  12  28  49  74 110 145 192 248 306 360 416
#
# _framework density 22.742756
#
# number of rings (size 3 to 8) (size 9 to 14) (size 15 to 20)
#    0.000    1.143    2.143    3.857   10.000    0.571 
#    0.000    0.714    0.000    8.571    0.000    0.000 
#    0.000    0.000    0.000    0.000    0.000    0.000 
#
# Total GULP energy -155884.987910 kJ/mol
# GULP energy per Si atom -5567.320997 kJ/mol
# Density = 2.269099 g / cm^3
# Si number density = 22.742756 Si / 1000 Ang^3
#
#
#
# Elastic Constant Matrix: (Units=GPa)
#
#
# Indices 1 2 3 4 5 6 
#
# 1 95.2575 16.5568 17.1743 0.0000 -2.8855 0.0000
# 2 16.5568 48.6494 13.3902 0.0000 0.4865 0.0000
# 3 17.1743 13.3902 154.6823 0.0000 1.3876 0.0000
# 4 0.0000 0.0000 0.0000 108.3228 0.0000 160.2579
# 5 -2.8855 0.4865 1.3876 0.0000 35.5453 0.0000
# 6 0.0000 0.0000 0.0000 160.2579 0.0000 254.4959
#
#
#
# Elastic Compliance Matrix: (Units=1/GPa)
#
#
# Indices 1 2 3 4 5 6 
#
# 1 0.011327 -0.003602 -0.000955 0.000000 0.001006 0.000000
# 2 -0.003602 0.022204 -0.001517 0.000000 -0.000537 0.000000
# 3 -0.000955 -0.001517 0.006705 0.000000 -0.000318 0.000000
# 4 0.000000 0.000000 0.000000 0.135004 0.000000 -0.085013
# 5 0.001006 -0.000537 -0.000318 0.000000 0.028235 0.000000
# 6 0.000000 0.000000 0.000000 -0.085013 0.000000 0.057463
#
#
# Mechanical properties :
#
#
# Convention : Reuss Voigt Hill
#
# Bulk Modulus (GPa) = 35.60318 43.64799 39.62559
# Shear Modulus (GPa) = 17.70234 96.43731 57.06982
#
# Velocity S-wave (km/s) = 2.79296 6.51886 5.01479
# Velocity P-wave (km/s) = 5.10779 8.71174 7.14087
#
# Compressibility (1/GPa) = 0.02808738
#
# Stress axis : x y z
#
# Youngs Moduli (GPa) = 88.28818 45.03670 149.14054
#
# Poissons Ratio (x) = 0.16222 0.14240
# Poissons Ratio (y) = 0.31802 0.22630
# Poissons Ratio (z) = 0.08430 0.06834
#
# Static dielectric constant tensor:
#      x y z
#    x 1.980750 0.000000 -0.051550 
#    y 0.000000 1.859690 0.000000 
#    z -0.051550 0.000000 2.020080 
# 
# From -- ./inp_files/4159.got.cif
#   From: 2010.05.17/outbox.cif.g08.bks.cpg/sg13_3_cif.got.tgz:4159.got - 2010.06.03 16:44:36.
