data_PCOD9234469
_publ_section_title
;
Structure prediction by ZEFSAII (Michael W. Deem and Ramdas Pophale) SiO2 
 PCOD9234469
Probable space group: P 2/C
;
_chemical_formula_sum "Si O2"
_cell_formula_units_Z 14
_cell_length_a 6.602523
_cell_length_b 13.156943
_cell_length_c 7.877958
_cell_angle_alpha 90.000000
_cell_angle_beta 91.131522
_cell_angle_gamma 90.000000
_cell_volume 684.217032
_symmetry_space_group_name_H-M "P 2/C"
_symmetry_group_IT_number 13
_symmetry_cell_setting 'monoclinic'
loop_
_space_group_symop_operation_xyz
x,y,z
-x,y,1/2-z
-x,-y,-z
x,-y,1/2+z
loop_
_atom_site_type_symbol
_atom_site_label
_atom_site_fract_x
_atom_site_fract_y
_atom_site_fract_z
Si Si1 0.500000 0.251256 0.250000
Si Si2 0.000000 0.444170 0.750000
Si Si3 0.843273 0.875347 0.605505
Si Si4 0.304942 0.424459 0.027315
Si Si5 0.000000 0.925733 0.250000
O O1 0.363479 0.180944 0.365357
O O2 0.375266 0.326821 0.129430
O O3 0.143524 0.513695 0.636036
O O4 0.828876 0.389234 0.635859
O O5 0.913249 0.867735 0.411620
O O6 0.000000 0.832199 0.750000
O O7 0.840365 0.994673 0.660648
O O8 0.500000 0.500000 0.000000
#
# Coordination Sequence:
#
# PCOD9234469 Si02
#       5
#     2   2   4   4   2
#     4  12  24  36  68 100 136 160 242 276 314 396
#     4  10  22  39  71  78 122 192 206 276 334 386
#     4   9  20  40  67  96 129 174 210 282 322 418
#     4  11  22  42  63  92 127 177 226 271 336 393
#     4   8  18  45  69  88 138 174 210 252 380 394
#
# _framework density 20.461341999999998
#
# number of rings (size 3 to 8) (size 9 to 14) (size 15 to 20)
#    0.857    1.143    2.857    0.000    2.000    1.143 
#    0.000    8.571    0.000    0.000    0.000    0.000 
#    0.000    0.000    0.000    0.000    0.000    0.000 
#
# Total GULP energy -77953.589026 kJ/mol
# GULP energy per Si atom -5568.113502 kJ/mol
# Density = 2.041477 g / cm^3
# Si number density = 20.461342 Si / 1000 Ang^3
#
#
#
# Elastic Constant Matrix: (Units=GPa)
#
#
# Indices 1 2 3 4 5 6 
#
# 1 125.6750 51.7703 73.9137 0.0000 -8.7684 0.0000
# 2 51.7703 56.7776 44.5646 0.0000 -12.2114 0.0000
# 3 73.9137 44.5646 178.0595 0.0000 -3.6138 0.0000
# 4 0.0000 0.0000 0.0000 32.6644 0.0000 -21.7327
# 5 -8.7684 -12.2114 -3.6138 0.0000 47.3559 0.0000
# 6 0.0000 0.0000 0.0000 -21.7327 0.0000 16.8451
#
#
#
# Elastic Compliance Matrix: (Units=1/GPa)
#
#
# Indices 1 2 3 4 5 6 
#
# 1 0.014143 -0.010390 -0.003276 0.000000 -0.000311 0.000000
# 2 -0.010390 0.030933 -0.003311 0.000000 0.005800 0.000000
# 3 -0.003276 -0.003311 0.007787 0.000000 -0.000866 0.000000
# 4 0.000000 0.000000 0.000000 0.216175 0.000000 0.278899
# 5 -0.000311 0.005800 -0.000866 0.000000 0.022489 0.000000
# 6 0.000000 0.000000 0.000000 0.278899 0.000000 0.419187
#
#
# Mechanical properties :
#
#
# Convention : Reuss Voigt Hill
#
# Bulk Modulus (GPa) = 52.89072 77.88990 65.39031
# Shear Modulus (GPa) = 6.65804 32.05732 19.35768
#
# Velocity S-wave (km/s) = 1.80583 3.96248 3.07915
# Velocity P-wave (km/s) = 5.50029 7.68665 6.68348
#
# Compressibility (1/GPa) = 0.01890691
#
# Stress axis : x y z
#
# Youngs Moduli (GPa) = 70.70843 32.32802 128.41456
#
# Poissons Ratio (x) = 0.33590 0.42075
# Poissons Ratio (y) = 0.73469 0.42518
# Poissons Ratio (z) = 0.23167 0.10704
#
# Static dielectric constant tensor:
#      x y z
#    x 1.731480 0.000000 0.018700 
#    y 0.000000 1.716730 0.000000 
#    z 0.018700 0.000000 1.769380 
# 
# From -- ./inp_files/8442.got.cif
#   From: 2010.05.17/outbox.cif.g08.bks.cpg/sg13_5_cif.got.tgz:8442.got - 2010.06.03 16:44:36.
