data_PCOD9234329
_publ_section_title
;
Structure prediction by ZEFSAII (Michael W. Deem and Ramdas Pophale) SiO2 
 PCOD9234329
Probable space group: P 2/C
;
_chemical_formula_sum "Si O2"
_cell_formula_units_Z 28
_cell_length_a 8.832917
_cell_length_b 5.420816
_cell_length_c 29.770985
_cell_angle_alpha 90.000000
_cell_angle_beta 115.041944
_cell_angle_gamma 90.000000
_cell_volume 1291.484910
_symmetry_space_group_name_H-M "P 2/C"
_symmetry_group_IT_number 13
_symmetry_cell_setting 'monoclinic'
loop_
_space_group_symop_operation_xyz
x,y,z
-x,y,1/2-z
-x,-y,-z
x,-y,1/2+z
loop_
_atom_site_type_symbol
_atom_site_label
_atom_site_fract_x
_atom_site_fract_y
_atom_site_fract_z
Si Si1 0.894982 0.315388 0.691419
Si Si2 0.155191 0.595558 0.547973
Si Si3 0.423112 0.709530 0.042333
Si Si4 0.691586 0.190711 0.147879
Si Si5 0.918499 0.252589 0.876644
Si Si6 0.731450 0.022422 0.556319
Si Si7 0.654985 0.015711 0.383796
O O1 0.779077 0.556491 0.672836
O O2 0.000000 0.319704 0.750000
O O3 0.018091 0.333295 0.663866
O O4 0.792096 0.056696 0.675708
O O5 0.316853 0.533134 0.537491
O O6 0.132144 0.458635 0.593139
O O7 0.194304 0.871606 0.567394
O O8 0.000000 0.500000 0.500000
O O9 0.610879 0.739367 0.048414
O O10 0.424009 0.813987 0.093078
O O11 0.319058 0.881053 0.994995
O O12 0.502161 0.191648 0.142855
O O13 0.691442 0.158033 0.093505
O O14 0.078920 0.107335 0.916579
O O15 0.751456 0.087100 0.853234
#
# Coordination Sequence:
#
# PCOD9234329 Si02
#       7
#     4   4   4   4   4   4   4
#     4  11  25  47  74  99 125 164 222 281 347 404
#     4  11  22  33  58  89 132 179 218 265 324 391
#     4   9  19  35  53  84 129 173 221 265 310 383
#     4  10  24  42  72  94 132 170 214 277 336 398
#     4  10  23  37  62  86 130 164 221 266 330 388
#     4   9  18  37  56  89 124 173 222 266 315 379
#     4  10  22  39  59  90 133 175 220 263 333 388
#
# _framework density 21.68047
#
# number of rings (size 3 to 8) (size 9 to 14) (size 15 to 20)
#    0.000    2.000    0.000    2.143   14.000    2.286 
#    0.000    3.571    0.000    0.000    0.000    0.000 
#    0.000    0.000    0.000    0.000    0.000    0.000 
#
# Total GULP energy -156244.745948 kJ/mol
# GULP energy per Si atom -5580.169498 kJ/mol
# Density = 2.163112 g / cm^3
# Si number density = 21.680470 Si / 1000 Ang^3
#
#
#
# Elastic Constant Matrix: (Units=GPa)
#
#
# Indices 1 2 3 4 5 6 
#
# 1 153.6591 39.3863 52.5942 0.0000 -7.4980 0.0000
# 2 39.3863 68.4387 27.5655 0.0000 1.9333 0.0000
# 3 52.5942 27.5655 101.3292 0.0000 1.3571 0.0000
# 4 0.0000 0.0000 0.0000 23.9336 0.0000 2.3304
# 5 -7.4980 1.9333 1.3571 0.0000 13.4585 0.0000
# 6 0.0000 0.0000 0.0000 2.3304 0.0000 28.2266
#
#
#
# Elastic Compliance Matrix: (Units=1/GPa)
#
#
# Indices 1 2 3 4 5 6 
#
# 1 0.009074 -0.003888 -0.003733 0.000000 0.005990 0.000000
# 2 -0.003888 0.018125 -0.002852 0.000000 -0.004482 0.000000
# 3 -0.003733 -0.002852 0.012622 0.000000 -0.002942 0.000000
# 4 0.000000 0.000000 0.000000 0.042121 0.000000 -0.003478
# 5 0.005990 -0.004482 -0.002942 0.000000 0.078580 0.000000
# 6 0.000000 0.000000 0.000000 -0.003478 0.000000 0.035715
#
#
# Mechanical properties :
#
#
# Convention : Reuss Voigt Hill
#
# Bulk Modulus (GPa) = 52.98179 62.50211 57.74195
# Shear Modulus (GPa) = 22.37394 26.71582 24.54488
#
# Velocity S-wave (km/s) = 3.21594 3.51415 3.36835
# Velocity P-wave (km/s) = 6.18711 6.73476 6.46674
#
# Compressibility (1/GPa) = 0.01887441
#
# Stress axis : x y z
#
# Youngs Moduli (GPa) = 110.20013 55.17316 79.22958
#
# Poissons Ratio (x) = 0.21452 0.29572
# Poissons Ratio (y) = 0.42847 0.22600
# Poissons Ratio (z) = 0.41132 0.15738
#
# Static dielectric constant tensor:
#      x y z
#    x 1.828560 0.000000 0.028310 
#    y 0.000000 1.930610 0.000000 
#    z 0.028310 0.000000 1.763740 
# 
# From -- ./inp_files/95523.got.cif
#   From: 2010.05.17/outbox.cif.g08.bks.cpg/sg13_48_cif.got.tgz:95523.got - 2010.06.03 16:44:36.
