data_PCOD9234107
_publ_section_title
;
Structure prediction by ZEFSAII (Michael W. Deem and Ramdas Pophale) SiO2 
 PCOD9234107
Probable space group: P 2/C
;
_chemical_formula_sum "Si O2"
_cell_formula_units_Z 26
_cell_length_a 10.942828
_cell_length_b 14.659273
_cell_length_c 19.354068
_cell_angle_alpha 90.000000
_cell_angle_beta 24.547986
_cell_angle_gamma 90.000000
_cell_volume 1289.847808
_symmetry_space_group_name_H-M "P 2/C"
_symmetry_group_IT_number 13
_symmetry_cell_setting 'monoclinic'
loop_
_space_group_symop_operation_xyz
x,y,z
-x,y,1/2-z
-x,-y,-z
x,-y,1/2+z
loop_
_atom_site_type_symbol
_atom_site_label
_atom_site_fract_x
_atom_site_fract_y
_atom_site_fract_z
Si Si1 0.000000 0.032122 0.750000
Si Si2 0.475168 0.906896 0.429699
Si Si3 0.628907 0.609807 0.864530
Si Si4 0.348667 0.739188 0.397291
Si Si5 0.745254 0.039967 0.179064
Si Si6 0.311259 0.756206 0.776662
Si Si7 0.334320 0.418746 0.996999
O O1 0.260571 0.093189 0.649789
O O2 0.191807 0.964098 0.602236
O O3 0.379957 0.812606 0.443125
O O4 0.631303 0.965782 0.290137
O O5 0.559966 0.697710 0.852976
O O6 0.445744 0.521812 0.934936
O O7 0.978668 0.588026 0.678115
O O8 0.573449 0.619854 0.974968
O O9 0.500000 0.774220 0.250000
O O10 0.463409 0.644941 0.370518
O O11 0.016818 0.719482 0.544061
O O12 0.500000 0.058828 0.250000
O O13 0.763788 0.138790 0.204870
O O14 0.000000 0.000000 0.000000
O O15 0.500000 0.748618 0.750000
#
# Coordination Sequence:
#
# PCOD9234107 Si02
#       7
#     2   4   4   4   4   4   4
#     4  10  24  38  58  86 118 160 202 248 304 360
#     4  11  22  40  59  85 122 157 198 248 300 360
#     4   9  19  39  61  84 113 150 193 243 297 352
#     4  11  23  39  59  85 118 155 195 245 301 355
#     4  11  21  36  59  84 114 155 198 239 289 355
#     4  10  22  37  59  88 118 156 198 242 297 360
#     4   9  20  38  61  84 111 150 196 241 296 358
#
# _framework density 20.157416000000001
#
# number of rings (size 3 to 8) (size 9 to 14) (size 15 to 20)
#    0.000    1.846    0.000    4.154    0.000    8.000 
#    0.000    6.154    0.000    0.000    0.000    0.000 
#    0.000    0.000    0.000    0.000    0.000    0.000 
#
# Total GULP energy -144849.056315 kJ/mol
# GULP energy per Si atom -5571.117551 kJ/mol
# Density = 2.011154 g / cm^3
# Si number density = 20.157416 Si / 1000 Ang^3
#
#
#
# Elastic Constant Matrix: (Units=GPa)
#
#
# Indices 1 2 3 4 5 6 
#
# 1 79.2686 46.3252 24.2223 0.0000 -15.7453 0.0000
# 2 46.3252 97.5364 20.1531 0.0000 4.2707 0.0000
# 3 24.2223 20.1531 70.2170 0.0000 7.1807 0.0000
# 4 0.0000 0.0000 0.0000 32.6164 0.0000 -15.7382
# 5 -15.7453 4.2707 7.1807 0.0000 31.7184 0.0000
# 6 0.0000 0.0000 0.0000 -15.7382 0.0000 87.6132
#
#
#
# Elastic Compliance Matrix: (Units=1/GPa)
#
#
# Indices 1 2 3 4 5 6 
#
# 1 0.023733 -0.010539 -0.006667 0.000000 0.014710 0.000000
# 2 -0.010539 0.015597 -0.000094 0.000000 -0.007310 0.000000
# 3 -0.006667 -0.000094 0.017306 0.000000 -0.007215 0.000000
# 4 0.000000 0.000000 0.000000 0.033569 0.000000 0.006030
# 5 0.014710 -0.007310 -0.007215 0.000000 0.041447 0.000000
# 6 0.000000 0.000000 0.000000 0.006030 0.000000 0.012497
#
#
# Mechanical properties :
#
#
# Convention : Reuss Voigt Hill
#
# Bulk Modulus (GPa) = 45.37465 47.60257 46.48861
# Shear Modulus (GPa) = 26.86815 40.81103 33.83959
#
# Velocity S-wave (km/s) = 3.65487 4.50445 4.10172
# Velocity P-wave (km/s) = 6.35372 7.12181 6.74870
#
# Compressibility (1/GPa) = 0.02203874
#
# Stress axis : x y z
#
# Youngs Moduli (GPa) = 42.13501 64.11314 57.78360
#
# Poissons Ratio (x) = 0.67567 0.38522
# Poissons Ratio (y) = 0.44405 0.00541
# Poissons Ratio (z) = 0.28090 0.00600
#
# Static dielectric constant tensor:
#      x y z
#    x 1.752240 0.000000 -0.011950 
#    y 0.000000 2.088590 0.000000 
#    z -0.011950 0.000000 1.731520 
# 
# From -- ./inp_files/16427.got.cif
#   From: 2010.05.17/outbox.cif.g08.bks.cpg/sg13_9_cif.got.tgz:16427.got - 2010.06.03 16:44:36.
