data_PCOD9234598
_publ_section_title
;
Structure prediction by ZEFSAII (Michael W. Deem and Ramdas Pophale) SiO2 
 PCOD9234598
Probable space group: P 2/C
;
_chemical_formula_sum "Si O2"
_cell_formula_units_Z 26
_cell_length_a 23.927920
_cell_length_b 5.321762
_cell_length_c 27.367171
_cell_angle_alpha 90.000000
_cell_angle_beta 161.888226
_cell_angle_gamma 90.000000
_cell_volume 1083.356913
_symmetry_space_group_name_H-M "P 2/C"
_symmetry_group_IT_number 13
_symmetry_cell_setting 'monoclinic'
loop_
_space_group_symop_operation_xyz
x,y,z
-x,y,1/2-z
-x,-y,-z
x,-y,1/2+z
loop_
_atom_site_type_symbol
_atom_site_label
_atom_site_fract_x
_atom_site_fract_y
_atom_site_fract_z
Si Si1 0.465710 0.436951 0.389851
Si Si2 0.004913 0.594431 0.869024
Si Si3 0.687214 0.290660 0.649454
Si Si4 0.500000 0.028253 0.250000
Si Si5 0.643222 0.704088 0.280918
Si Si6 0.914370 0.892293 0.124155
Si Si7 0.203341 0.042510 0.178600
O O1 0.592891 0.230586 0.519676
O O2 0.454197 0.632096 0.425018
O O3 0.502039 0.522837 0.365744
O O4 0.267270 0.323282 0.223305
O O5 0.013023 0.372173 0.835926
O O6 0.832889 0.505853 0.758035
O O7 0.020000 0.866972 0.854703
O O8 0.179996 0.577699 0.049541
O O9 0.770182 0.050442 0.744234
O O10 0.558410 0.861574 0.253010
O O11 0.694915 0.137069 0.431707
O O12 0.697370 0.879482 0.280452
O O13 0.000000 0.928489 0.250000
O O14 0.000000 0.000000 0.000000
#
# Coordination Sequence:
#
# PCOD9234598 Si02
#       7
#     4   4   4   2   4   4   4
#     4  10  22  40  64  95 137 176 233 280 361 412
#     4  11  25  45  72 102 136 183 234 292 354 424
#     4  10  23  39  63  98 136 178 226 295 343 432
#     4  10  26  46  72 100 142 180 240 298 342 436
#     4  10  24  43  64  99 129 183 230 284 356 408
#     4  11  27  49  72 104 140 185 244 290 360 413
#     4  11  22  38  67  96 136 176 228 284 350 424
#
# _framework density 23.999476000000001
#
# number of rings (size 3 to 8) (size 9 to 14) (size 15 to 20)
#    0.000    1.538    0.000    2.769   12.923    6.154 
#    0.000    0.000    0.000    0.000    0.000    0.000 
#    0.000    0.000    0.000    0.000    0.000    0.000 
#
# Total GULP energy -144895.863051 kJ/mol
# GULP energy per Si atom -5572.917810 kJ/mol
# Density = 2.394485 g / cm^3
# Si number density = 23.999476 Si / 1000 Ang^3
#
#
#
# Elastic Constant Matrix: (Units=GPa)
#
#
# Indices 1 2 3 4 5 6 
#
# 1 118.4787 25.0351 39.4971 0.0000 -28.1303 0.0000
# 2 25.0351 69.6052 1.3645 0.0000 -8.2449 0.0000
# 3 39.4971 1.3645 77.5778 0.0000 -19.7811 0.0000
# 4 0.0000 0.0000 0.0000 13.6530 0.0000 -14.5262
# 5 -28.1303 -8.2449 -19.7811 0.0000 54.4915 0.0000
# 6 0.0000 0.0000 0.0000 -14.5262 0.0000 30.2136
#
#
#
# Elastic Compliance Matrix: (Units=1/GPa)
#
#
# Indices 1 2 3 4 5 6 
#
# 1 0.011760 -0.003693 -0.004978 0.000000 0.003705 0.000000
# 2 -0.003693 0.015797 0.001902 0.000000 0.001174 0.000000
# 3 -0.004978 0.001902 0.016320 0.000000 0.003642 0.000000
# 4 0.000000 0.000000 0.000000 0.149947 0.000000 0.072092
# 5 0.003705 0.001174 0.003642 0.000000 0.021764 0.000000
# 6 0.000000 0.000000 0.000000 0.072092 0.000000 0.067758
#
#
# Mechanical properties :
#
#
# Convention : Reuss Voigt Hill
#
# Bulk Modulus (GPa) = 32.96133 44.16167 38.56150
# Shear Modulus (GPa) = 16.28684 32.98930 24.63807
#
# Velocity S-wave (km/s) = 2.60788 3.71156 3.20755
# Velocity P-wave (km/s) = 4.77829 6.06701 5.46080
#
# Compressibility (1/GPa) = 0.03033858
#
# Stress axis : x y z
#
# Youngs Moduli (GPa) = 85.03571 63.30363 61.27519
#
# Poissons Ratio (x) = 0.23379 0.30500
# Poissons Ratio (y) = 0.31406 -0.11653
# Poissons Ratio (z) = 0.42327 -0.12039
#
# Static dielectric constant tensor:
#      x y z
#    x 1.879650 0.000000 0.015130 
#    y 0.000000 2.131360 0.000000 
#    z 0.015130 0.000000 2.071440 
# 
# From -- ./inp_files/90805.got.cif
#   From: 2010.05.17/outbox.cif.g08.bks.cpg/sg13_46_cif.got.tgz:90805.got - 2010.06.03 16:44:36.
