data_PCOD9234515
_publ_section_title
;
Structure prediction by ZEFSAII (Michael W. Deem and Ramdas Pophale) SiO2 
 PCOD9234515
Probable space group: P 2/C
;
_chemical_formula_sum "Si O2"
_cell_formula_units_Z 16
_cell_length_a 4.896141
_cell_length_b 5.524777
_cell_length_c 25.232212
_cell_angle_alpha 90.000000
_cell_angle_beta 116.783636
_cell_angle_gamma 90.000000
_cell_volume 609.307621
_symmetry_space_group_name_H-M "P 2/C"
_symmetry_group_IT_number 13
_symmetry_cell_setting 'monoclinic'
loop_
_space_group_symop_operation_xyz
x,y,z
-x,y,1/2-z
-x,-y,-z
x,-y,1/2+z
loop_
_atom_site_type_symbol
_atom_site_label
_atom_site_fract_x
_atom_site_fract_y
_atom_site_fract_z
Si Si1 0.231133 0.807464 0.488330
Si Si2 0.733479 0.363572 0.820403
Si Si3 0.855518 0.137363 0.294727
Si Si4 0.580952 0.619974 0.424348
O O1 0.301551 0.652860 0.440542
O O2 0.295780 0.640721 0.545258
O O3 0.859490 0.820575 0.456763
O O4 0.500000 0.000000 0.500000
O O5 0.500000 0.359767 0.750000
O O6 0.921171 0.613002 0.830434
O O7 0.543981 0.374263 0.858207
O O8 0.912916 0.109378 0.831322
O O9 0.500000 0.142225 0.250000
O O10 0.000000 0.129609 0.250000
#
# Coordination Sequence:
#
# PCOD9234515 Si02
#       4
#     4   4   4   4
#     4  10  22  43  66  93 134 171 234 283 344 403
#     4  10  23  43  66  99 136 173 223 275 342 417
#     4  10  22  40  62  88 131 174 215 265 323 399
#     4  10  23  40  65  99 127 178 224 286 344 412
#
# _framework density 26.259311
#
# number of rings (size 3 to 8) (size 9 to 14) (size 15 to 20)
#    0.000    2.000    0.000    1.500    3.500    8.000 
#    4.500    0.000    0.000    0.000    0.000    0.000 
#    0.000    0.000    0.000    0.000    0.000    0.000 
#
# Total GULP energy -89337.884070 kJ/mol
# GULP energy per Si atom -5583.617754 kJ/mol
# Density = 2.619954 g / cm^3
# Si number density = 26.259311 Si / 1000 Ang^3
#
#
#
# Elastic Constant Matrix: (Units=GPa)
#
#
# Indices 1 2 3 4 5 6 
#
# 1 169.4612 16.9502 19.1484 0.0000 -47.0272 0.0000
# 2 16.9502 197.9356 -2.2008 0.0000 -3.2204 0.0000
# 3 19.1484 -2.2008 110.0130 0.0000 -16.4766 0.0000
# 4 0.0000 0.0000 0.0000 27.9527 0.0000 -0.2917
# 5 -47.0272 -3.2204 -16.4766 0.0000 51.4773 0.0000
# 6 0.0000 0.0000 0.0000 -0.2917 0.0000 38.3446
#
#
#
# Elastic Compliance Matrix: (Units=1/GPa)
#
#
# Indices 1 2 3 4 5 6 
#
# 1 0.007979 -0.000571 -0.000330 0.000000 0.007148 0.000000
# 2 -0.000571 0.005101 0.000180 0.000000 -0.000145 0.000000
# 3 -0.000330 0.000180 0.009566 0.000000 0.002772 0.000000
# 4 0.000000 0.000000 0.000000 0.035778 0.000000 0.000272
# 5 0.007148 -0.000145 0.002772 0.000000 0.026834 0.000000
# 6 0.000000 0.000000 0.000000 0.000272 0.000000 0.026081
#
#
# Mechanical properties :
#
#
# Convention : Reuss Voigt Hill
#
# Bulk Modulus (GPa) = 47.15996 60.57839 53.86917
# Shear Modulus (GPa) = 41.71944 53.12240 47.42092
#
# Velocity S-wave (km/s) = 3.99023 4.50265 4.25416
# Velocity P-wave (km/s) = 6.26320 7.08175 6.68501
#
# Compressibility (1/GPa) = 0.02120443
#
# Stress axis : x y z
#
# Youngs Moduli (GPa) = 125.32825 196.05309 104.53737
#
# Poissons Ratio (x) = 0.11188 0.03446
# Poissons Ratio (y) = 0.07152 -0.01878
# Poissons Ratio (z) = 0.04131 -0.03523
#
# Static dielectric constant tensor:
#      x y z
#    x 2.074770 0.000000 0.121570 
#    y 0.000000 2.348040 0.000000 
#    z 0.121570 0.000000 2.060380 
# 
# From -- ./inp_files/82860.got.cif
#   From: 2010.05.17/outbox.cif.g08.bks.cpg/sg13_42_cif.got.tgz:82860.got - 2010.06.03 16:44:36.
