data_PCOD9234938
_publ_section_title
;
Structure prediction by ZEFSAII (Michael W. Deem and Ramdas Pophale) SiO2 
 PCOD9234938
Probable space group: P 2/C
;
_chemical_formula_sum "Si O2"
_cell_formula_units_Z 20
_cell_length_a 16.615046
_cell_length_b 6.711848
_cell_length_c 9.469513
_cell_angle_alpha 90.000000
_cell_angle_beta 49.816373
_cell_angle_gamma 90.000000
_cell_volume 806.777073
_symmetry_space_group_name_H-M "P 2/C"
_symmetry_group_IT_number 13
_symmetry_cell_setting 'monoclinic'
loop_
_space_group_symop_operation_xyz
x,y,z
-x,y,1/2-z
-x,-y,-z
x,-y,1/2+z
loop_
_atom_site_type_symbol
_atom_site_label
_atom_site_fract_x
_atom_site_fract_y
_atom_site_fract_z
Si Si1 0.614421 0.234740 0.167961
Si Si2 0.072988 0.189193 0.918786
Si Si3 0.326460 0.514974 0.166947
Si Si4 0.119017 0.563828 0.762387
Si Si5 0.256617 0.853806 0.412533
O O1 0.500000 0.164279 0.250000
O O2 0.616017 0.333046 0.322246
O O3 0.694142 0.049916 0.077958
O O4 0.645020 0.408349 0.021141
O O5 0.996557 0.342340 0.089713
O O6 0.101983 0.327100 0.750655
O O7 0.177975 0.107492 0.871906
O O8 0.000000 0.000000 0.000000
O O9 0.200921 0.460797 0.302764
O O10 0.342900 0.707288 0.247472
O O11 0.185312 0.717951 0.594830
#
# Coordination Sequence:
#
# PCOD9234938 Si02
#       5
#     4   4   4   4   4
#     4  12  28  48  77 107 146 199 254 320 387 450
#     4  10  22  41  71 102 147 194 243 296 369 445
#     4  11  25  48  75 103 150 187 252 317 377 453
#     4  10  22  43  66 106 142 190 237 300 368 450
#     4  11  25  44  72 108 149 190 248 310 377 448
#
# _framework density 24.789994
#
# number of rings (size 3 to 8) (size 9 to 14) (size 15 to 20)
#    0.000    1.200    2.000    2.400    8.400    1.600 
#    3.600    0.000    0.000    0.000    0.000    0.000 
#    0.000    0.000    0.000    0.000    0.000    0.000 
#
# Total GULP energy -111583.692032 kJ/mol
# GULP energy per Si atom -5579.184602 kJ/mol
# Density = 2.473357 g / cm^3
# Si number density = 24.789994 Si / 1000 Ang^3
#
#
#
# Elastic Constant Matrix: (Units=GPa)
#
#
# Indices 1 2 3 4 5 6 
#
# 1 111.4953 67.0011 26.2410 0.0000 -19.8433 0.0000
# 2 67.0011 143.9520 37.6391 0.0000 -1.9641 0.0000
# 3 26.2410 37.6391 67.6839 0.0000 -0.5164 0.0000
# 4 0.0000 0.0000 0.0000 24.1421 0.0000 0.2274
# 5 -19.8433 -1.9641 -0.5164 0.0000 33.2414 0.0000
# 6 0.0000 0.0000 0.0000 0.2274 0.0000 38.7082
#
#
#
# Elastic Compliance Matrix: (Units=1/GPa)
#
#
# Indices 1 2 3 4 5 6 
#
# 1 0.014661 -0.006132 -0.002210 0.000000 0.008355 0.000000
# 2 -0.006132 0.010699 -0.003596 0.000000 -0.003084 0.000000
# 3 -0.002210 -0.003596 0.017622 0.000000 -0.001258 0.000000
# 4 0.000000 0.000000 0.000000 0.041424 0.000000 -0.000243
# 5 0.008355 -0.003084 -0.001258 0.000000 0.034869 0.000000
# 6 0.000000 0.000000 0.000000 -0.000243 0.000000 0.025836
#
#
# Mechanical properties :
#
#
# Convention : Reuss Voigt Hill
#
# Bulk Modulus (GPa) = 52.34160 64.98817 58.66488
# Shear Modulus (GPa) = 28.51365 32.03502 30.27434
#
# Velocity S-wave (km/s) = 3.39515 3.59870 3.49840
# Velocity P-wave (km/s) = 6.04394 6.59848 6.32729
#
# Compressibility (1/GPa) = 0.01910526
#
# Stress axis : x y z
#
# Youngs Moduli (GPa) = 68.20774 93.46722 56.74860
#
# Poissons Ratio (x) = 0.57313 0.12544
# Poissons Ratio (y) = 0.41824 0.20406
# Poissons Ratio (z) = 0.15077 0.33610
#
# Static dielectric constant tensor:
#      x y z
#    x 2.986080 0.000000 0.182330 
#    y 0.000000 2.061810 0.000000 
#    z 0.182330 0.000000 2.130130 
# 
# From -- ./inp_files/38089.got.cif
#   From: 2010.05.17/outbox.cif.g08.bks.cpg/sg13_20_cif.got.tgz:38089.got - 2010.06.03 16:44:36.
