data_PCOD9234929
_publ_section_title
;
Structure prediction by ZEFSAII (Michael W. Deem and Ramdas Pophale) SiO2 
 PCOD9234929
Probable space group: P 2/C
;
_chemical_formula_sum "Si O2"
_cell_formula_units_Z 24
_cell_length_a 11.163734
_cell_length_b 5.520284
_cell_length_c 18.991314
_cell_angle_alpha 90.000000
_cell_angle_beta 113.922097
_cell_angle_gamma 90.000000
_cell_volume 1069.839189
_symmetry_space_group_name_H-M "P 2/C"
_symmetry_group_IT_number 13
_symmetry_cell_setting 'monoclinic'
loop_
_space_group_symop_operation_xyz
x,y,z
-x,y,1/2-z
-x,-y,-z
x,-y,1/2+z
loop_
_atom_site_type_symbol
_atom_site_label
_atom_site_fract_x
_atom_site_fract_y
_atom_site_fract_z
Si Si1 0.154113 0.569080 0.958159
Si Si2 0.618010 0.694619 0.029063
Si Si3 0.125108 0.288278 0.095095
Si Si4 0.688626 0.038463 0.920614
Si Si5 0.645290 0.567196 0.750769
Si Si6 0.405247 0.072909 0.832100
O O1 0.240878 0.429100 0.922222
O O2 0.017613 0.693012 0.904943
O O3 0.116698 0.389148 0.013357
O O4 0.257363 0.758790 0.014944
O O5 0.594453 0.893641 0.083243
O O6 0.500000 0.500000 0.000000
O O7 0.639966 0.813528 0.957588
O O8 0.188694 0.025337 0.099369
O O9 0.239059 0.424345 0.164414
O O10 0.558730 0.097144 0.846719
O O11 0.500000 0.575957 0.750000
O O12 0.659385 0.317220 0.712255
O O13 0.650897 0.816228 0.706317
#
# Coordination Sequence:
#
# PCOD9234929 Si02
#       6
#     4   4   4   4   4   4
#     4  10  22  41  70  93 133 167 227 280 331 391
#     4  11  23  40  65  98 131 169 225 279 332 389
#     4  10  23  42  64 101 130 174 220 275 340 389
#     4  11  21  39  68  98 127 168 221 285 326 388
#     4  12  25  42  66  97 137 175 216 272 333 411
#     4  12  25  40  67  98 135 175 219 272 335 401
#
# _framework density 22.433277
#
# number of rings (size 3 to 8) (size 9 to 14) (size 15 to 20)
#    0.000    1.000    3.333    3.500    4.667    0.000 
#    0.000    0.833    0.000    0.000    0.000    0.000 
#    0.000    0.000    0.000    0.000    0.000    0.000 
#
# Total GULP energy -134064.423531 kJ/mol
# GULP energy per Si atom -5586.017647 kJ/mol
# Density = 2.238222 g / cm^3
# Si number density = 22.433277 Si / 1000 Ang^3
#
#
#
# Elastic Constant Matrix: (Units=GPa)
#
#
# Indices 1 2 3 4 5 6 
#
# 1 112.2641 14.0844 0.4396 0.0000 10.5111 0.0000
# 2 14.0844 85.2380 1.9356 0.0000 -10.1686 0.0000
# 3 0.4396 1.9356 41.4852 0.0000 -4.0743 0.0000
# 4 0.0000 0.0000 0.0000 32.0084 0.0000 -3.4831
# 5 10.5111 -10.1686 -4.0743 0.0000 23.8900 0.0000
# 6 0.0000 0.0000 0.0000 -3.4831 0.0000 31.1208
#
#
#
# Elastic Compliance Matrix: (Units=1/GPa)
#
#
# Indices 1 2 3 4 5 6 
#
# 1 0.009684 -0.002220 -0.000519 0.000000 -0.005294 0.000000
# 2 -0.002220 0.012868 0.000058 0.000000 0.006464 0.000000
# 3 -0.000519 0.000058 0.024544 0.000000 0.004439 0.000000
# 4 0.000000 0.000000 0.000000 0.031627 0.000000 0.003540
# 5 -0.005294 0.006464 0.004439 0.000000 0.047696 0.000000
# 6 0.000000 0.000000 0.000000 0.003540 0.000000 0.032529
#
#
# Mechanical properties :
#
#
# Convention : Reuss Voigt Hill
#
# Bulk Modulus (GPa) = 23.96122 30.21185 27.08653
# Shear Modulus (GPa) = 28.05500 32.23901 30.14701
#
# Velocity S-wave (km/s) = 3.54022 3.79503 3.66984
# Velocity P-wave (km/s) = 5.23595 5.71836 5.48246
#
# Compressibility (1/GPa) = 0.04173410
#
# Stress axis : x y z
#
# Youngs Moduli (GPa) = 103.26544 77.70926 40.74366
#
# Poissons Ratio (x) = 0.17251 0.02114
# Poissons Ratio (y) = 0.22924 -0.00236
# Poissons Ratio (z) = 0.05359 -0.00450
#
# Static dielectric constant tensor:
#      x y z
#    x 1.852470 0.000000 0.014470 
#    y 0.000000 1.915220 0.000000 
#    z 0.014470 0.000000 1.898760 
# 
# From -- ./inp_files/77310.got.cif
#   From: 2010.05.17/outbox.cif.g08.bks.cpg/sg13_39_cif.got.tgz:77310.got - 2010.06.03 16:44:36.
