data_PCOD9234750
_publ_section_title
;
Structure prediction by ZEFSAII (Michael W. Deem and Ramdas Pophale) SiO2 
 PCOD9234750
Probable space group: P 2/C
;
_chemical_formula_sum "Si O2"
_cell_formula_units_Z 30
_cell_length_a 14.837565
_cell_length_b 11.787988
_cell_length_c 8.955933
_cell_angle_alpha 90.000000
_cell_angle_beta 111.761514
_cell_angle_gamma 90.000000
_cell_volume 1454.805720
_symmetry_space_group_name_H-M "P 2/C"
_symmetry_group_IT_number 13
_symmetry_cell_setting 'monoclinic'
loop_
_space_group_symop_operation_xyz
x,y,z
-x,y,1/2-z
-x,-y,-z
x,-y,1/2+z
loop_
_atom_site_type_symbol
_atom_site_label
_atom_site_fract_x
_atom_site_fract_y
_atom_site_fract_z
Si Si1 0.000000 0.170271 0.750000
Si Si2 0.628600 0.574807 0.439316
Si Si3 0.571991 0.360046 0.567328
Si Si4 0.844609 0.814067 0.935397
Si Si5 0.830883 0.073342 0.849692
Si Si6 0.244358 0.776157 0.931074
Si Si7 0.326871 0.143664 0.979623
Si Si8 0.431821 0.064533 0.579346
O O1 0.078405 0.101037 0.700959
O O2 0.935602 0.232143 0.584156
O O3 0.621176 0.442965 0.476380
O O4 0.543321 0.624313 0.493921
O O5 0.605858 0.600597 0.252521
O O6 0.724433 0.646216 0.529492
O O7 0.599880 0.231823 0.548616
O O8 0.824885 0.783923 0.753684
O O9 0.848948 0.952011 0.935501
O O10 0.748598 0.785859 0.969297
O O11 0.735888 0.079579 0.685711
O O12 0.810473 0.167642 0.962528
O O13 0.346359 0.848533 0.979376
O O14 0.375564 0.046315 0.108302
O O15 0.500000 0.115374 0.750000
O O16 0.500000 0.000000 0.500000
#
# Coordination Sequence:
#
# PCOD9234750 Si02
#       8
#     2   4   4   4   4   4   4   4
#     4  10  24  38  62  88 122 168 188 248 316 368
#     4  10  23  39  60  86 118 165 210 259 293 340
#     4  10  22  41  58  84 123 161 216 255 291 341
#     4  11  22  38  59  90 124 158 199 244 302 377
#     4  11  20  40  59  88 124 157 200 248 303 372
#     4  12  22  37  60  88 126 162 204 251 296 356
#     4  11  21  38  56  83 124 165 197 254 294 349
#     4  12  23  34  54  84 122 168 203 231 291 355
#
# _framework density 20.621309
#
# number of rings (size 3 to 8) (size 9 to 14) (size 15 to 20)
#    0.000    1.067    4.000    3.600    3.733    0.533 
#    2.400    0.000    0.000    0.000    0.000   14.933 
#    0.000    0.000    0.000    0.000    0.000    0.000 
#
# Total GULP energy -167485.818424 kJ/mol
# GULP energy per Si atom -5582.860614 kJ/mol
# Density = 2.057437 g / cm^3
# Si number density = 20.621309 Si / 1000 Ang^3
#
#
#
# Elastic Constant Matrix: (Units=GPa)
#
#
# Indices 1 2 3 4 5 6 
#
# 1 64.2066 10.4859 18.9060 0.0000 -2.7730 0.0000
# 2 10.4859 67.3867 8.4981 0.0000 1.9882 0.0000
# 3 18.9060 8.4981 99.8961 0.0000 3.0731 0.0000
# 4 0.0000 0.0000 0.0000 15.9338 0.0000 -8.2378
# 5 -2.7730 1.9882 3.0731 0.0000 31.7875 0.0000
# 6 0.0000 0.0000 0.0000 -8.2378 0.0000 15.1999
#
#
#
# Elastic Compliance Matrix: (Units=1/GPa)
#
#
# Indices 1 2 3 4 5 6 
#
# 1 0.016938 -0.002305 -0.003068 0.000000 0.001918 0.000000
# 2 -0.002305 0.015336 -0.000835 0.000000 -0.001080 0.000000
# 3 -0.003068 -0.000835 0.010701 0.000000 -0.001250 0.000000
# 4 0.000000 0.000000 0.000000 0.087190 0.000000 0.047254
# 5 0.001918 -0.001080 -0.001250 0.000000 0.031815 0.000000
# 6 0.000000 0.000000 0.000000 0.047254 0.000000 0.091400
#
#
# Mechanical properties :
#
#
# Convention : Reuss Voigt Hill
#
# Bulk Modulus (GPa) = 32.72663 34.14107 33.43385
# Shear Modulus (GPa) = 18.11714 25.49087 21.80401
#
# Velocity S-wave (km/s) = 2.96727 3.51970 3.25522
# Velocity P-wave (km/s) = 5.25779 5.75411 5.51154
#
# Compressibility (1/GPa) = 0.03055616
#
# Stress axis : x y z
#
# Youngs Moduli (GPa) = 59.04031 65.20775 93.45249
#
# Poissons Ratio (x) = 0.15032 0.28676
# Poissons Ratio (y) = 0.13610 0.07804
# Poissons Ratio (z) = 0.18116 0.05445
#
# Static dielectric constant tensor:
#      x y z
#    x 1.792870 0.000000 0.010300 
#    y 0.000000 1.726610 0.000000 
#    z 0.010300 0.000000 1.781240 
# 
# From -- ./inp_files/19066.got.cif
#   From: 2010.05.17/outbox.cif.g08.bks.cpg/sg13_10_cif.got.tgz:19066.got - 2010.06.03 16:44:36.
