data_PCOD9234958
_publ_section_title
;
Structure prediction by ZEFSAII (Michael W. Deem and Ramdas Pophale) SiO2 
 PCOD9234958
Probable space group: P 2/C
;
_chemical_formula_sum "Si O2"
_cell_formula_units_Z 26
_cell_length_a 20.276840
_cell_length_b 10.603108
_cell_length_c 25.137698
_cell_angle_alpha 90.000000
_cell_angle_beta 166.236560
_cell_angle_gamma 90.000000
_cell_volume 1285.814977
_symmetry_space_group_name_H-M "P 2/C"
_symmetry_group_IT_number 13
_symmetry_cell_setting 'monoclinic'
loop_
_space_group_symop_operation_xyz
x,y,z
-x,y,1/2-z
-x,-y,-z
x,-y,1/2+z
loop_
_atom_site_type_symbol
_atom_site_label
_atom_site_fract_x
_atom_site_fract_y
_atom_site_fract_z
Si Si1 0.379632 0.227193 0.237880
Si Si2 0.861676 0.087545 0.795100
Si Si3 0.736531 0.754996 0.511288
Si Si4 0.181580 0.035427 0.937800
Si Si5 0.324256 0.177175 0.315236
Si Si6 0.500000 0.437959 0.250000
Si Si7 0.174392 0.666821 0.033892
O O1 0.427223 0.217845 0.337911
O O2 0.497842 0.349073 0.300090
O O3 0.542476 0.112351 0.339269
O O4 0.059315 0.193914 0.975155
O O5 0.572728 0.152428 0.551523
O O6 0.818289 0.962572 0.797186
O O7 0.002286 0.035723 0.850760
O O8 0.727237 0.902506 0.516377
O O9 0.799178 0.753551 0.497588
O O10 0.434334 0.691302 0.277492
O O11 0.000000 0.700555 0.750000
O O12 0.000000 0.101472 0.750000
O O13 0.110620 0.287397 0.164491
O O14 0.760299 0.530665 0.441497
#
# Coordination Sequence:
#
# PCOD9234958 Si02
#       7
#     4   4   4   4   4   2   4
#     4  12  23  39  63  88 124 163 206 250 305 359
#     4  11  22  38  61  97 130 160 189 246 322 385
#     4   9  19  34  63  89 119 159 203 249 302 373
#     4  11  19  35  63  93 122 164 202 243 308 382
#     4  11  24  39  61  95 129 155 195 257 318 371
#     4  10  24  42  66  84 114 172 228 246 284 362
#     4  10  22  42  59  88 123 164 209 260 300 341
#
# _framework density 20.220638000000001
#
# number of rings (size 3 to 8) (size 9 to 14) (size 15 to 20)
#    0.000    1.538    4.615    1.385    2.154    1.846 
#    0.000   10.000    0.000    0.000    0.000    0.000 
#    0.000    0.000    0.000    0.000    0.000    0.000 
#
# Total GULP energy -144772.041815 kJ/mol
# GULP energy per Si atom -5568.155454 kJ/mol
# Density = 2.017462 g / cm^3
# Si number density = 20.220638 Si / 1000 Ang^3
#
#
#
# Elastic Constant Matrix: (Units=GPa)
#
#
# Indices 1 2 3 4 5 6 
#
# 1 76.2367 27.6744 22.2173 0.0000 7.6646 0.0000
# 2 27.6744 82.7065 31.7674 0.0000 7.3096 0.0000
# 3 22.2173 31.7674 93.8797 0.0000 -8.5213 0.0000
# 4 0.0000 0.0000 0.0000 37.0703 0.0000 -1.7933
# 5 7.6646 7.3096 -8.5213 0.0000 31.5805 0.0000
# 6 0.0000 0.0000 0.0000 -1.7933 0.0000 29.4381
#
#
#
# Elastic Compliance Matrix: (Units=1/GPa)
#
#
# Indices 1 2 3 4 5 6 
#
# 1 0.015687 -0.003878 -0.002731 0.000000 -0.003647 0.000000
# 2 -0.003878 0.015539 -0.004697 0.000000 -0.003923 0.000000
# 3 -0.002731 -0.004697 0.013374 0.000000 0.005359 0.000000
# 4 0.000000 0.000000 0.000000 0.027056 0.000000 0.001648
# 5 -0.003647 -0.003923 0.005359 0.000000 0.034904 0.000000
# 6 0.000000 0.000000 0.000000 0.001648 0.000000 0.034070
#
#
# Mechanical properties :
#
#
# Convention : Reuss Voigt Hill
#
# Bulk Modulus (GPa) = 45.47712 46.23792 45.85752
# Shear Modulus (GPa) = 29.31332 31.02870 30.17101
#
# Velocity S-wave (km/s) = 3.81159 3.92153 3.86695
# Velocity P-wave (km/s) = 6.47381 6.58945 6.53189
#
# Compressibility (1/GPa) = 0.02198908
#
# Stress axis : x y z
#
# Youngs Moduli (GPa) = 63.74581 64.35375 74.77208
#
# Poissons Ratio (x) = 0.24954 0.20423
# Poissons Ratio (y) = 0.24719 0.35117
# Poissons Ratio (z) = 0.17411 0.30224
#
# Static dielectric constant tensor:
#      x y z
#    x 1.761560 0.000000 -0.014970 
#    y 0.000000 1.755920 0.000000 
#    z -0.014970 0.000000 1.802640 
# 
# From -- ./inp_files/97695.got.cif
#   From: 2010.05.17/outbox.cif.g08.bks.cpg/sg13_49_cif.got.tgz:97695.got - 2010.06.03 16:44:36.
