data_PCOD9234979
_publ_section_title
;
Structure prediction by ZEFSAII (Michael W. Deem and Ramdas Pophale) SiO2 
 PCOD9234979
Probable space group: P 2/C
;
_chemical_formula_sum "Si O2"
_cell_formula_units_Z 26
_cell_length_a 12.016592
_cell_length_b 8.757833
_cell_length_c 15.050181
_cell_angle_alpha 90.000000
_cell_angle_beta 55.067609
_cell_angle_gamma 90.000000
_cell_volume 1298.501934
_symmetry_space_group_name_H-M "P 2/C"
_symmetry_group_IT_number 13
_symmetry_cell_setting 'monoclinic'
loop_
_space_group_symop_operation_xyz
x,y,z
-x,y,1/2-z
-x,-y,-z
x,-y,1/2+z
loop_
_atom_site_type_symbol
_atom_site_label
_atom_site_fract_x
_atom_site_fract_y
_atom_site_fract_z
Si Si1 0.981402 0.767269 0.910291
Si Si2 0.752193 0.231665 0.093142
Si Si3 0.543229 0.275864 0.852147
Si Si4 0.500000 0.558376 0.750000
Si Si5 0.000000 0.479740 0.250000
Si Si6 0.701634 0.129288 0.614033
Si Si7 0.000000 0.981967 0.250000
Si Si8 0.219305 0.726118 0.127234
O O1 0.971645 0.624989 0.848169
O O2 0.111255 0.749897 0.913067
O O3 0.997244 0.913529 0.838540
O O4 0.846618 0.795805 0.028759
O O5 0.631831 0.335852 0.185573
O O6 0.712916 0.052687 0.112813
O O7 0.777224 0.279933 0.980342
O O8 0.509724 0.444168 0.829923
O O9 0.637709 0.196446 0.733495
O O10 0.403401 0.181524 0.914937
O O11 0.630922 0.275222 0.900574
O O12 0.130317 0.586616 0.205467
O O13 0.866675 0.876727 0.308810
#
# Coordination Sequence:
#
# PCOD9234979 Si02
#       8
#     4   4   4   2   2   4   2   4
#     4  11  23  43  65  93 126 166 205 262 307 378
#     4  12  24  40  69  95 125 161 212 257 316 365
#     4  10  24  44  63  88 133 165 210 256 307 375
#     4  10  24  44  60  94 124 172 204 254 310 376
#     4  10  26  40  62  94 128 164 210 250 320 364
#     4  10  22  42  67  92 122 169 209 254 316 363
#     4  10  22  42  62  96 128 156 212 256 318 362
#     4  11  24  41  63  97 123 166 205 263 308 370
#
# _framework density 20.023074999999999
#
# number of rings (size 3 to 8) (size 9 to 14) (size 15 to 20)
#    0.000    1.538    1.538    3.231    8.615    1.846 
#    5.538    0.000    0.000    0.000    0.000    0.000 
#    0.000    0.000    0.000    0.000    0.000    0.000 
#
# Total GULP energy -145412.707149 kJ/mol
# GULP energy per Si atom -5592.796429 kJ/mol
# Density = 1.997750 g / cm^3
# Si number density = 20.023075 Si / 1000 Ang^3
#
#
#
# Elastic Constant Matrix: (Units=GPa)
#
#
# Indices 1 2 3 4 5 6 
#
# 1 141.8156 4.0615 14.4363 0.0000 1.0379 0.0000
# 2 4.0615 43.7030 7.5772 0.0000 5.8083 0.0000
# 3 14.4363 7.5772 41.3121 0.0000 -10.8053 0.0000
# 4 0.0000 0.0000 0.0000 -7.3741 0.0000 11.4291
# 5 1.0379 5.8083 -10.8053 0.0000 29.7059 0.0000
# 6 0.0000 0.0000 0.0000 11.4291 0.0000 -1.5328
#
#
#
# Elastic Compliance Matrix: (Units=1/GPa)
#
#
# Indices 1 2 3 4 5 6 
#
# 1 0.007358 -0.000003 -0.002915 0.000000 -0.001317 0.000000
# 2 -0.000003 0.024965 -0.006470 0.000000 -0.007235 0.000000
# 3 -0.002915 -0.006470 0.029583 0.000000 0.012128 0.000000
# 4 0.000000 0.000000 0.000000 0.012846 0.000000 0.095784
# 5 -0.001317 -0.007235 0.012128 0.000000 0.039535 0.000000
# 6 0.000000 0.000000 0.000000 0.095784 0.000000 0.061800
#
#
# Mechanical properties :
#
#
# Convention : Reuss Voigt Hill
#
# Bulk Modulus (GPa) = 23.18586 30.99784 27.09185
# Shear Modulus (GPa) = 23.89589 17.54352 20.71971
#
# Velocity S-wave (km/s) = 3.45834 2.96322 3.22031
# Velocity P-wave (km/s) = 5.24895 5.21749 5.23325
#
# Compressibility (1/GPa) = 0.04312974
#
# Stress axis : x y z
#
# Youngs Moduli (GPa) = 135.90883 40.05555 33.80292
#
# Poissons Ratio (x) = 0.00014 0.09853
# Poissons Ratio (y) = 0.00046 0.21871
# Poissons Ratio (z) = 0.39616 0.25916
#
# Static dielectric constant tensor:
#      x y z
#    x 1.687000 0.000000 0.003820 
#    y 0.000000 1.697310 0.000000 
#    z 0.003820 0.000000 1.693930 
# 
# From -- ./inp_files/49932.got.cif
#   From: 2010.05.17/outbox.cif.g08.bks.cpg/sg13_25_cif.got.tgz:49932.got - 2010.06.03 16:44:36.
