data_PCOD9234381
_publ_section_title
;
Structure prediction by ZEFSAII (Michael W. Deem and Ramdas Pophale) SiO2 
 PCOD9234381
Probable space group: P 2/C
;
_chemical_formula_sum "Si O2"
_cell_formula_units_Z 14
_cell_length_a 6.988247
_cell_length_b 10.323426
_cell_length_c 12.125802
_cell_angle_alpha 90.000000
_cell_angle_beta 132.473214
_cell_angle_gamma 90.000000
_cell_volume 645.237221
_symmetry_space_group_name_H-M "P 2/C"
_symmetry_group_IT_number 13
_symmetry_cell_setting 'monoclinic'
loop_
_space_group_symop_operation_xyz
x,y,z
-x,y,1/2-z
-x,-y,-z
x,-y,1/2+z
loop_
_atom_site_type_symbol
_atom_site_label
_atom_site_fract_x
_atom_site_fract_y
_atom_site_fract_z
Si Si1 0.500000 0.461078 0.750000
Si Si2 0.432175 0.871055 0.039849
Si Si3 0.862217 0.778302 0.376742
Si Si4 0.451920 0.286663 0.108654
O O1 0.257352 0.365010 0.649704
O O2 0.508369 0.560539 0.855511
O O3 0.201649 0.864524 0.039789
O O4 0.313872 0.834801 0.289452
O O5 0.377001 0.765686 0.923803
O O6 0.500000 0.000000 0.000000
O O7 0.160558 0.757229 0.467926
O O8 0.500000 0.229427 0.250000
#
# Coordination Sequence:
#
# PCOD9234381 Si02
#       4
#     2   4   4   4
#     4   8  20  38  66  88 122 150 204 242 298 368
#     4  10  23  41  61  85 120 161 205 243 295 356
#     4  10  22  41  62  90 121 158 197 253 298 348
#     4  10  22  39  62  92 120 156 198 244 306 357
#
# _framework density 21.697448000000001
#
# number of rings (size 3 to 8) (size 9 to 14) (size 15 to 20)
#    0.857    1.714    0.000    1.714    4.000    6.857 
#    5.143    5.714    0.000    0.000    0.000    0.000 
#    0.000    0.000    0.000    0.000    0.000    0.000 
#
# Total GULP energy -78067.892982 kJ/mol
# GULP energy per Si atom -5576.278070 kJ/mol
# Density = 2.164806 g / cm^3
# Si number density = 21.697448 Si / 1000 Ang^3
#
#
#
# Elastic Constant Matrix: (Units=GPa)
#
#
# Indices 1 2 3 4 5 6 
#
# 1 63.0192 19.8458 13.6292 0.0000 -28.0029 0.0000
# 2 19.8458 117.3763 12.0509 0.0000 -31.9743 0.0000
# 3 13.6292 12.0509 45.0782 0.0000 -30.0646 0.0000
# 4 0.0000 0.0000 0.0000 16.5780 0.0000 -33.6008
# 5 -28.0029 -31.9743 -30.0646 0.0000 44.1650 0.0000
# 6 0.0000 0.0000 0.0000 -33.6008 0.0000 -22.1008
#
#
#
# Elastic Compliance Matrix: (Units=1/GPa)
#
#
# Indices 1 2 3 4 5 6 
#
# 1 0.022732 0.000647 0.005273 0.000000 0.018471 0.000000
# 2 0.000647 0.011081 0.004517 0.000000 0.011507 0.000000
# 3 0.005273 0.004517 0.043577 0.000000 0.036278 0.000000
# 4 0.000000 0.000000 0.000000 0.014779 0.000000 -0.022469
# 5 0.018471 0.011507 0.036278 0.000000 0.067381 0.000000
# 6 0.000000 0.000000 0.000000 -0.022469 0.000000 -0.011086
#
#
# Mechanical properties :
#
#
# Convention : Reuss Voigt Hill
#
# Bulk Modulus (GPa) = 10.17660 35.16950 22.67305
# Shear Modulus (GPa) = 31.18275 19.72495 25.45385
#
# Velocity S-wave (km/s) = 3.79510 3.01838 3.42881
# Velocity P-wave (km/s) = 4.88919 5.32839 5.11351
#
# Compressibility (1/GPa) = 0.09826466
#
# Stress axis : x y z
#
# Youngs Moduli (GPa) = 43.99133 90.24284 22.94771
#
# Poissons Ratio (x) = -0.05837 -0.12101
# Poissons Ratio (y) = -0.02846 -0.10365
# Poissons Ratio (z) = -0.23199 -0.40761
#
# Static dielectric constant tensor:
#      x y z
#    x 1.817270 0.000000 0.005790 
#    y 0.000000 1.822840 0.000000 
#    z 0.005790 0.000000 1.794630 
# 
# From -- ./inp_files/45375.got.cif
#   From: 2010.05.17/outbox.cif.g08.bks.cpg/sg13_23_cif.got.tgz:45375.got - 2010.06.03 16:44:36.
