data_PCOD9234705
_publ_section_title
;
Structure prediction by ZEFSAII (Michael W. Deem and Ramdas Pophale) SiO2 
 PCOD9234705
Probable space group: P 2/C
;
_chemical_formula_sum "Si O2"
_cell_formula_units_Z 22
_cell_length_a 22.428315
_cell_length_b 6.188457
_cell_length_c 15.519288
_cell_angle_alpha 90.000000
_cell_angle_beta 22.110126
_cell_angle_gamma 90.000000
_cell_volume 810.749317
_symmetry_space_group_name_H-M "P 2/C"
_symmetry_group_IT_number 13
_symmetry_cell_setting 'monoclinic'
loop_
_space_group_symop_operation_xyz
x,y,z
-x,y,1/2-z
-x,-y,-z
x,-y,1/2+z
loop_
_atom_site_type_symbol
_atom_site_label
_atom_site_fract_x
_atom_site_fract_y
_atom_site_fract_z
Si Si1 0.371326 0.725916 0.056155
Si Si2 0.878431 0.368180 0.050564
Si Si3 0.000000 0.000000 0.000000
Si Si4 0.000000 0.346035 0.250000
Si Si5 0.267435 0.947481 0.542536
Si Si6 0.708492 0.022502 0.677287
Si Si7 0.500000 0.565783 0.250000
O O1 0.238129 0.552788 0.259780
O O2 0.399153 0.852371 0.107888
O O3 0.498799 0.582054 0.835879
O O4 0.297475 0.895459 0.085523
O O5 0.944692 0.236054 0.041536
O O6 0.779710 0.192068 0.125736
O O7 0.009422 0.486883 0.817493
O O8 0.921286 0.046739 0.202511
O O9 0.846102 0.198988 0.471362
O O10 0.346458 0.022034 0.347229
O O11 0.350493 0.722685 0.450712
#
# Coordination Sequence:
#
# PCOD9234705 Si02
#       7
#     4   4   2   2   4   4   2
#     4  11  25  48  76 106 150 202 250 305 387 450
#     4  11  23  44  68 111 155 187 248 308 379 451
#     4  12  22  44  76 108 148 190 244 328 366 438
#     4  10  22  40  70 104 154 194 240 302 394 444
#     4  12  27  46  79 107 153 196 255 319 380 446
#     4  11  24  47  69 112 147 198 252 322 362 457
#     4  12  26  52  70 110 152 204 254 312 372 466
#
# _framework density 27.135393000000001
#
# number of rings (size 3 to 8) (size 9 to 14) (size 15 to 20)
#    0.000    0.727    3.636    3.273    2.545    5.818 
#    3.273    6.364    0.000    0.000    0.000    0.000 
#    0.000    0.000    0.000    0.000    0.000    0.000 
#
# Total GULP energy -122835.417630 kJ/mol
# GULP energy per Si atom -5583.428074 kJ/mol
# Density = 2.707363 g / cm^3
# Si number density = 27.135393 Si / 1000 Ang^3
#
#
#
# Elastic Constant Matrix: (Units=GPa)
#
#
# Indices 1 2 3 4 5 6 
#
# 1 96.0624 68.4385 35.4649 0.0000 35.2475 0.0000
# 2 68.4385 205.3563 66.5094 0.0000 21.9670 0.0000
# 3 35.4649 66.5094 150.7321 0.0000 62.5388 0.0000
# 4 0.0000 0.0000 0.0000 5448.4958 0.0000 335.4516
# 5 35.2475 21.9670 62.5388 0.0000 53.3241 0.0000
# 6 0.0000 0.0000 0.0000 335.4516 0.0000 80.9648
#
#
#
# Elastic Compliance Matrix: (Units=1/GPa)
#
#
# Indices 1 2 3 4 5 6 
#
# 1 0.018612 -0.006068 0.004608 0.000000 -0.015207 0.000000
# 2 -0.006068 0.007698 -0.004514 0.000000 0.006134 0.000000
# 3 0.004608 -0.004514 0.015649 0.000000 -0.019539 0.000000
# 4 0.000000 0.000000 0.000000 0.000246 0.000000 -0.001021
# 5 -0.015207 0.006134 -0.019539 0.000000 0.049194 0.000000
# 6 0.000000 0.000000 0.000000 -0.001021 0.000000 0.016581
#
#
# Mechanical properties :
#
#
# Convention : Reuss Voigt Hill
#
# Bulk Modulus (GPa) = 33.32275 88.10851 60.71563
# Shear Modulus (GPa) = 38.48223 1135.33947 586.91085
#
# Velocity S-wave (km/s) = 3.76993 20.47697 14.72275
# Velocity P-wave (km/s) = 5.59076 24.32315 17.64755
#
# Compressibility (1/GPa) = 0.03000953
#
# Stress axis : x y z
#
# Youngs Moduli (GPa) = 53.72938 129.90894 63.90385
#
# Poissons Ratio (x) = 0.78834 -0.29446
# Poissons Ratio (y) = 0.32605 0.28844
# Poissons Ratio (z) = -0.24758 0.58637
#
# Static dielectric constant tensor:
#      x y z
#    x 0.930060 0.000000 1.258450 
#    y 0.000000 2.193930 0.000000 
#    z 1.258450 0.000000 0.846880 
# 
# From -- ./inp_files/72103.got.cif
#   From: 2010.05.17/outbox.cif.g08.bks.cpg/sg13_37_cif.got.tgz:72103.got - 2010.06.03 16:44:36.
