data_PCOD9234897
_publ_section_title
;
Structure prediction by ZEFSAII (Michael W. Deem and Ramdas Pophale) SiO2 
 PCOD9234897
Probable space group: P 2/C
;
_chemical_formula_sum "Si O2"
_cell_formula_units_Z 22
_cell_length_a 6.942508
_cell_length_b 17.673660
_cell_length_c 8.867185
_cell_angle_alpha 90.000000
_cell_angle_beta 72.084231
_cell_angle_gamma 90.000000
_cell_volume 1035.242062
_symmetry_space_group_name_H-M "P 2/C"
_symmetry_group_IT_number 13
_symmetry_cell_setting 'monoclinic'
loop_
_space_group_symop_operation_xyz
x,y,z
-x,y,1/2-z
-x,-y,-z
x,-y,1/2+z
loop_
_atom_site_type_symbol
_atom_site_label
_atom_site_fract_x
_atom_site_fract_y
_atom_site_fract_z
Si Si1 0.500000 0.357301 0.750000
Si Si2 0.788712 0.739285 0.385428
Si Si3 0.801572 0.597023 0.592671
Si Si4 0.739181 0.447107 0.440859
Si Si5 0.155726 0.026153 0.093678
Si Si6 0.555052 0.885420 0.407544
O O1 0.332909 0.305698 0.712708
O O2 0.603332 0.406640 0.596770
O O3 0.797813 0.680916 0.523631
O O4 0.660109 0.813507 0.458544
O O5 0.000000 0.759378 0.250000
O O6 0.736194 0.536340 0.480387
O O7 0.303462 0.578716 0.720427
O O8 0.033913 0.578561 0.574596
O O9 0.000000 0.060118 0.250000
O O10 0.277971 0.952466 0.124795
O O11 0.340383 0.083366 0.018812
O O12 0.000000 0.000000 0.000000
O O13 0.500000 0.865139 0.250000
#
# Coordination Sequence:
#
# PCOD9234897 Si02
#       6
#     2   4   4   4   4   4
#     4  12  24  42  72 100 132 188 248 294 358 428
#     4  12  25  43  70 100 140 193 235 296 362 426
#     4  10  22  42  68  96 141 183 238 306 361 410
#     4  10  22  41  68 102 133 184 251 300 351 425
#     4  11  23  45  77 109 144 184 233 291 338 416
#     4  11  24  43  76 108 141 187 239 280 353 432
#
# _framework density 21.251066999999999
#
# number of rings (size 3 to 8) (size 9 to 14) (size 15 to 20)
#    0.000    1.091    4.545    1.636    2.545    3.636 
#    0.000    3.636    0.000    0.000    0.000    0.000 
#    0.000    0.000    0.000    0.000    0.000    0.000 
#
# Total GULP energy -122862.414951 kJ/mol
# GULP energy per Si atom -5584.655225 kJ/mol
# Density = 2.120270 g / cm^3
# Si number density = 21.251067 Si / 1000 Ang^3
#
#
#
# Elastic Constant Matrix: (Units=GPa)
#
#
# Indices 1 2 3 4 5 6 
#
# 1 84.7182 25.5602 45.1267 0.0000 -15.4258 0.0000
# 2 25.5602 138.2596 53.4659 0.0000 -12.0358 0.0000
# 3 45.1267 53.4659 131.4613 0.0000 -14.4092 0.0000
# 4 0.0000 0.0000 0.0000 25.1265 0.0000 -6.0016
# 5 -15.4258 -12.0358 -14.4092 0.0000 39.0189 0.0000
# 6 0.0000 0.0000 0.0000 -6.0016 0.0000 56.6596
#
#
#
# Elastic Compliance Matrix: (Units=1/GPa)
#
#
# Indices 1 2 3 4 5 6 
#
# 1 0.015144 -0.000718 -0.004455 0.000000 0.004120 0.000000
# 2 -0.000718 0.008692 -0.003154 0.000000 0.001233 0.000000
# 3 -0.004455 -0.003154 0.010546 0.000000 0.001161 0.000000
# 4 0.000000 0.000000 0.000000 0.040832 0.000000 0.004325
# 5 0.004120 0.001233 0.001161 0.000000 0.028066 0.000000
# 6 0.000000 0.000000 0.000000 0.004325 0.000000 0.018107
#
#
# Mechanical properties :
#
#
# Convention : Reuss Voigt Hill
#
# Bulk Modulus (GPa) = 56.40541 66.97164 61.68853
# Shear Modulus (GPa) = 34.73437 39.51341 37.12389
#
# Velocity S-wave (km/s) = 4.04725 4.31671 4.18415
# Velocity P-wave (km/s) = 6.95991 7.51187 7.24115
#
# Compressibility (1/GPa) = 0.01772880
#
# Stress axis : x y z
#
# Youngs Moduli (GPa) = 66.03437 115.04349 94.82545
#
# Poissons Ratio (x) = 0.08264 0.42241
# Poissons Ratio (y) = 0.04743 0.29903
# Poissons Ratio (z) = 0.29416 0.36279
#
# Static dielectric constant tensor:
#      x y z
#    x 1.784520 0.000000 0.040850 
#    y 0.000000 1.777530 0.000000 
#    z 0.040850 0.000000 1.732730 
# 
# From -- ./inp_files/26479.got.cif
#   From: 2010.05.17/outbox.cif.g08.bks.cpg/sg13_14_cif.got.tgz:26479.got - 2010.06.03 16:44:36.
