data_PCOD9234643
_publ_section_title
;
Structure prediction by ZEFSAII (Michael W. Deem and Ramdas Pophale) SiO2 
 PCOD9234643
Probable space group: P 2/C
;
_chemical_formula_sum "Si O2"
_cell_formula_units_Z 30
_cell_length_a 5.282919
_cell_length_b 8.109120
_cell_length_c 28.365451
_cell_angle_alpha 90.000000
_cell_angle_beta 95.898160
_cell_angle_gamma 90.000000
_cell_volume 1208.737960
_symmetry_space_group_name_H-M "P 2/C"
_symmetry_group_IT_number 13
_symmetry_cell_setting 'monoclinic'
loop_
_space_group_symop_operation_xyz
x,y,z
-x,y,1/2-z
-x,-y,-z
x,-y,1/2+z
loop_
_atom_site_type_symbol
_atom_site_label
_atom_site_fract_x
_atom_site_fract_y
_atom_site_fract_z
Si Si1 0.884975 0.302323 0.800981
Si Si2 0.933228 0.035675 0.192709
Si Si3 0.179632 0.619214 0.822243
Si Si4 0.473259 0.468206 0.602323
Si Si5 0.472960 0.067028 0.885415
Si Si6 0.500000 0.508311 0.750000
Si Si7 0.948844 0.557242 0.051013
Si Si8 0.998189 0.949660 0.055372
O O1 0.611316 0.381675 0.790112
O O2 0.000000 0.292745 0.750000
O O3 0.043699 0.445322 0.828360
O O4 0.909354 0.122618 0.822423
O O5 0.981223 0.217658 0.174292
O O6 0.000000 0.041746 0.250000
O O7 0.647393 0.991350 0.167713
O O8 0.425991 0.602526 0.858785
O O9 0.284591 0.614913 0.770437
O O10 0.502499 0.269922 0.614697
O O11 0.184472 0.509854 0.585548
O O12 0.670212 0.490361 0.563105
O O13 0.739484 0.003555 0.912553
O O14 0.251831 0.007212 0.918250
O O15 0.981950 0.752322 0.054375
O O16 0.000000 0.500000 0.000000
O O17 0.000000 0.000000 0.000000
#
# Coordination Sequence:
#
# PCOD9234643 Si02
#       8
#     4   4   4   4   4   2   4   4
#     4   9  20  41  62  89 128 174 226 280 353 401
#     4  11  23  44  63  97 137 187 237 292 345 418
#     4  11  23  42  65  95 136 176 239 289 352 404
#     4  10  22  40  67  93 134 179 227 286 342 420
#     4  10  22  43  64  99 135 183 230 282 349 428
#     4  10  22  40  70  92 130 186 230 302 350 422
#     4  10  22  40  66  97 132 173 222 276 353 428
#     4  10  22  41  69  98 135 173 224 287 352 424
#
# _framework density 24.819275000000001
#
# number of rings (size 3 to 8) (size 9 to 14) (size 15 to 20)
#    0.000    1.867    1.333    2.000    1.867    3.200 
#    4.800    3.333    0.000    0.000    0.000    0.000 
#    0.000    0.000    0.000    0.000    0.000    0.000 
#
# Total GULP energy -167571.573260 kJ/mol
# GULP energy per Si atom -5585.719109 kJ/mol
# Density = 2.476278 g / cm^3
# Si number density = 24.819275 Si / 1000 Ang^3
#
#
#
# Elastic Constant Matrix: (Units=GPa)
#
#
# Indices 1 2 3 4 5 6 
#
# 1 113.8601 11.9772 51.9389 0.0000 -2.5337 0.0000
# 2 11.9772 98.8351 19.4306 0.0000 -0.0664 0.0000
# 3 51.9389 19.4306 133.8955 0.0000 1.9856 0.0000
# 4 0.0000 0.0000 0.0000 29.9857 0.0000 2.1780
# 5 -2.5337 -0.0664 1.9856 0.0000 43.8475 0.0000
# 6 0.0000 0.0000 0.0000 2.1780 0.0000 18.4166
#
#
#
# Elastic Compliance Matrix: (Units=1/GPa)
#
#
# Indices 1 2 3 4 5 6 
#
# 1 0.010723 -0.000493 -0.004100 0.000000 0.000805 0.000000
# 2 -0.000493 0.010438 -0.001324 0.000000 0.000047 0.000000
# 3 -0.004100 -0.001324 0.009261 0.000000 -0.000658 0.000000
# 4 0.000000 0.000000 0.000000 0.033638 0.000000 -0.003978
# 5 0.000805 0.000047 -0.000658 0.000000 0.022883 0.000000
# 6 0.000000 0.000000 0.000000 -0.003978 0.000000 0.054769
#
#
# Mechanical properties :
#
#
# Convention : Reuss Voigt Hill
#
# Bulk Modulus (GPa) = 53.79936 57.03156 55.41546
# Shear Modulus (GPa) = 31.30063 35.99956 33.65009
#
# Velocity S-wave (km/s) = 3.55511 3.81263 3.68612
# Velocity P-wave (km/s) = 6.21090 6.51231 6.36339
#
# Compressibility (1/GPa) = 0.01858758
#
# Stress axis : x y z
#
# Youngs Moduli (GPa) = 93.26068 95.80415 107.98234
#
# Poissons Ratio (x) = 0.04722 0.44270
# Poissons Ratio (y) = 0.04596 0.14300
# Poissons Ratio (z) = 0.38235 0.12687
#
# Static dielectric constant tensor:
#      x y z
#    x 2.015690 0.000000 0.031790 
#    y 0.000000 1.946550 0.000000 
#    z 0.031790 0.000000 2.260640 
# 
# From -- ./inp_files/94912.got.cif
#   From: 2010.05.17/outbox.cif.g08.bks.cpg/sg13_48_cif.got.tgz:94912.got - 2010.06.03 16:44:36.
