data_PCOD9234909
_publ_section_title
;
Structure prediction by ZEFSAII (Michael W. Deem and Ramdas Pophale) SiO2 
 PCOD9234909
Probable space group: P 2/C
;
_chemical_formula_sum "Si O2"
_cell_formula_units_Z 18
_cell_length_a 7.023221
_cell_length_b 5.334872
_cell_length_c 18.811420
_cell_angle_alpha 90.000000
_cell_angle_beta 73.907327
_cell_angle_gamma 90.000000
_cell_volume 677.207121
_symmetry_space_group_name_H-M "P 2/C"
_symmetry_group_IT_number 13
_symmetry_cell_setting 'monoclinic'
loop_
_space_group_symop_operation_xyz
x,y,z
-x,y,1/2-z
-x,-y,-z
x,-y,1/2+z
loop_
_atom_site_type_symbol
_atom_site_label
_atom_site_fract_x
_atom_site_fract_y
_atom_site_fract_z
Si Si1 0.000000 0.000000 0.500000
Si Si2 0.726453 0.168701 0.817669
Si Si3 0.738799 0.562961 0.540034
Si Si4 0.727965 0.669815 0.903058
Si Si5 0.247522 0.192756 0.848520
O O1 0.132986 0.997775 0.410434
O O2 0.855186 0.775224 0.487834
O O3 0.784327 0.423414 0.852454
O O4 0.484740 0.162051 0.835893
O O5 0.799362 0.171067 0.729059
O O6 0.776796 0.917020 0.854779
O O7 0.509957 0.637652 0.564098
O O8 0.791153 0.321405 0.480765
O O9 0.790793 0.464978 0.612412
#
# Coordination Sequence:
#
# PCOD9234909 Si02
#       5
#     2   4   4   4   4
#     4  12  22  40  64  94 138 182 220 290 348 432
#     4  10  22  41  68  98 129 172 237 291 341 405
#     4  10  23  39  66  98 135 178 232 279 354 421
#     4  10  22  41  69  97 132 177 229 289 341 417
#     4  10  23  38  66  96 131 175 233 287 344 421
#
# _framework density 26.579753
#
# number of rings (size 3 to 8) (size 9 to 14) (size 15 to 20)
#    0.000    1.778    2.222    0.667    6.222    4.444 
#    0.000    1.111    0.000    0.000    0.000    0.000 
#    0.000    0.000    0.000    0.000    0.000    0.000 
#
# Total GULP energy -100505.077524 kJ/mol
# GULP energy per Si atom -5583.615418 kJ/mol
# Density = 2.651926 g / cm^3
# Si number density = 26.579753 Si / 1000 Ang^3
#
#
#
# Elastic Constant Matrix: (Units=GPa)
#
#
# Indices 1 2 3 4 5 6 
#
# 1 54.7036 2.4684 64.2356 0.0000 5.5344 0.0000
# 2 2.4684 174.3074 88.1978 0.0000 21.4093 0.0000
# 3 64.2356 88.1978 235.5886 0.0000 22.8124 0.0000
# 4 0.0000 0.0000 0.0000 50.3777 0.0000 -9.6332
# 5 5.5344 21.4093 22.8124 0.0000 62.7263 0.0000
# 6 0.0000 0.0000 0.0000 -9.6332 0.0000 21.1460
#
#
#
# Elastic Compliance Matrix: (Units=1/GPa)
#
#
# Indices 1 2 3 4 5 6 
#
# 1 0.029528 0.004568 -0.009700 0.000000 -0.000637 0.000000
# 2 0.004568 0.007924 -0.004054 0.000000 -0.001633 0.000000
# 3 -0.009700 -0.004054 0.008489 0.000000 -0.000848 0.000000
# 4 0.000000 0.000000 0.000000 0.021744 0.000000 0.009906
# 5 -0.000637 -0.001633 -0.000848 0.000000 0.016864 0.000000
# 6 0.000000 0.000000 0.000000 0.009906 0.000000 0.051803
#
#
# Mechanical properties :
#
#
# Convention : Reuss Voigt Hill
#
# Bulk Modulus (GPa) = 36.27055 86.04480 61.15768
# Shear Modulus (GPa) = 30.50368 47.49653 39.00011
#
# Velocity S-wave (km/s) = 3.39134 4.23181 3.83467
# Velocity P-wave (km/s) = 5.38614 7.50468 6.53187
#
# Compressibility (1/GPa) = 0.02757058
#
# Stress axis : x y z
#
# Youngs Moduli (GPa) = 33.86561 126.19611 117.79679
#
# Poissons Ratio (x) = -0.57647 1.14259
# Poissons Ratio (y) = -0.15470 0.47754
# Poissons Ratio (z) = 0.32849 0.51159
#
# Static dielectric constant tensor:
#      x y z
#    x 2.069970 0.000000 0.005260 
#    y 0.000000 1.553130 0.000000 
#    z 0.005260 0.000000 1.959480 
# 
# From -- ./inp_files/62282.got.cif
#   From: 2010.05.17/outbox.cif.g08.bks.cpg/sg13_32_cif.got.tgz:62282.got - 2010.06.03 16:44:36.
