data_PCOD9234901
_publ_section_title
;
Structure prediction by ZEFSAII (Michael W. Deem and Ramdas Pophale) SiO2 
 PCOD9234901
Probable space group: P 2/C
;
_chemical_formula_sum "Si O2"
_cell_formula_units_Z 26
_cell_length_a 8.412920
_cell_length_b 9.166591
_cell_length_c 21.070800
_cell_angle_alpha 90.000000
_cell_angle_beta 47.005665
_cell_angle_gamma 90.000000
_cell_volume 1188.510821
_symmetry_space_group_name_H-M "P 2/C"
_symmetry_group_IT_number 13
_symmetry_cell_setting 'monoclinic'
loop_
_space_group_symop_operation_xyz
x,y,z
-x,y,1/2-z
-x,-y,-z
x,-y,1/2+z
loop_
_atom_site_type_symbol
_atom_site_label
_atom_site_fract_x
_atom_site_fract_y
_atom_site_fract_z
Si Si1 0.398155 0.718335 0.615843
Si Si2 0.059256 0.894121 0.542001
Si Si3 0.190364 0.613247 0.927368
Si Si4 0.500000 0.566148 0.250000
Si Si5 0.168408 0.983719 0.148643
Si Si6 0.520996 0.739495 0.044247
Si Si7 0.236841 0.440288 0.709718
O O1 0.650166 0.685270 0.563321
O O2 0.315676 0.884938 0.638076
O O3 0.369027 0.681555 0.549554
O O4 0.256496 0.616529 0.701285
O O5 0.058882 0.963832 0.612495
O O6 0.300834 0.830168 0.465886
O O7 0.911225 0.751089 0.580274
O O8 0.000000 0.000000 0.500000
O O9 0.351396 0.527427 0.837334
O O10 0.000000 0.500000 0.000000
O O11 0.680917 0.634260 0.247633
O O12 0.000000 0.943558 0.250000
O O13 0.326872 0.853034 0.085176
O O14 0.417500 0.609459 0.110725
O O15 0.000000 0.399546 0.750000
#
# Coordination Sequence:
#
# PCOD9234901 Si02
#       7
#     4   4   4   2   4   4   4
#     4  10  22  41  68  93 128 168 230 266 328 429
#     4  11  23  43  69  95 129 181 221 277 347 403
#     4  11  24  42  69  98 136 177 219 285 346 397
#     4  10  26  42  62 108 134 166 240 282 322 434
#     4  11  24  42  65  96 133 171 226 277 338 413
#     4  11  23  43  63  96 128 172 226 273 334 421
#     4  11  24  41  68  95 134 174 219 280 351 387
#
# _framework density 21.876114999999999
#
# number of rings (size 3 to 8) (size 9 to 14) (size 15 to 20)
#    0.000    1.231    0.000    6.923   10.769    0.000 
#    8.308    0.000    0.000    0.000    0.000    0.000 
#    0.000    0.000    0.000    0.000    0.000    0.000 
#
# Total GULP energy -145073.444678 kJ/mol
# GULP energy per Si atom -5579.747872 kJ/mol
# Density = 2.182632 g / cm^3
# Si number density = 21.876115 Si / 1000 Ang^3
#
#
#
# Elastic Constant Matrix: (Units=GPa)
#
#
# Indices 1 2 3 4 5 6 
#
# 1 159.8783 29.4856 20.4386 0.0000 -5.1947 0.0000
# 2 29.4856 61.3904 3.5578 0.0000 5.0335 0.0000
# 3 20.4386 3.5578 59.7079 0.0000 -13.5052 0.0000
# 4 0.0000 0.0000 0.0000 16.9506 0.0000 13.1198
# 5 -5.1947 5.0335 -13.5052 0.0000 18.8920 0.0000
# 6 0.0000 0.0000 0.0000 13.1198 0.0000 -52.0957
#
#
#
# Elastic Compliance Matrix: (Units=1/GPa)
#
#
# Indices 1 2 3 4 5 6 
#
# 1 0.007188 -0.003468 -0.001906 0.000000 0.001538 0.000000
# 2 -0.003468 0.018615 -0.001503 0.000000 -0.006987 0.000000
# 3 -0.001906 -0.001503 0.020830 0.000000 0.014767 0.000000
# 4 0.000000 0.000000 0.000000 0.049371 0.000000 0.012434
# 5 0.001538 -0.006987 0.014767 0.000000 0.065774 0.000000
# 6 0.000000 0.000000 0.000000 0.012434 0.000000 -0.016064
#
#
# Mechanical properties :
#
#
# Convention : Reuss Voigt Hill
#
# Bulk Modulus (GPa) = 30.41357 43.10452 36.75904
# Shear Modulus (GPa) = 29.33809 11.91566 20.62687
#
# Velocity S-wave (km/s) = 3.66608 2.33639 3.07399
# Velocity P-wave (km/s) = 5.64385 5.19855 5.42577
#
# Compressibility (1/GPa) = 0.03288006
#
# Stress axis : x y z
#
# Youngs Moduli (GPa) = 139.12118 53.72057 48.00698
#
# Poissons Ratio (x) = 0.18630 0.09150
# Poissons Ratio (y) = 0.48247 0.07213
# Poissons Ratio (z) = 0.26517 0.08072
#
# Static dielectric constant tensor:
#      x y z
#    x 1.885690 0.000000 -0.002260 
#    y 0.000000 1.812170 0.000000 
#    z -0.002260 0.000000 1.761490 
# 
# From -- ./inp_files/75646.got.cif
#   From: 2010.05.17/outbox.cif.g08.bks.cpg/sg13_38_cif.got.tgz:75646.got - 2010.06.03 16:44:36.
