data_PCOD9234636
_publ_section_title
;
Structure prediction by ZEFSAII (Michael W. Deem and Ramdas Pophale) SiO2 
 PCOD9234636
Probable space group: P 2/C
;
_chemical_formula_sum "Si O2"
_cell_formula_units_Z 20
_cell_length_a 25.148437
_cell_length_b 6.928933
_cell_length_c 17.754697
_cell_angle_alpha 90.000000
_cell_angle_beta 17.806486
_cell_angle_gamma 90.000000
_cell_volume 946.090081
_symmetry_space_group_name_H-M "P 2/C"
_symmetry_group_IT_number 13
_symmetry_cell_setting 'monoclinic'
loop_
_space_group_symop_operation_xyz
x,y,z
-x,y,1/2-z
-x,-y,-z
x,-y,1/2+z
loop_
_atom_site_type_symbol
_atom_site_label
_atom_site_fract_x
_atom_site_fract_y
_atom_site_fract_z
Si Si1 0.400319 0.931483 0.279242
Si Si2 0.899676 0.016723 0.714057
Si Si3 0.150142 0.865738 0.995650
Si Si4 0.640794 0.708705 0.504706
Si Si5 0.390866 0.590313 0.578906
O O1 0.266032 0.896829 0.529937
O O2 0.286540 0.025651 0.365088
O O3 0.543601 0.095284 0.106617
O O4 0.491982 0.740442 0.126178
O O5 0.045230 0.994763 0.581376
O O6 0.806362 0.225739 0.830113
O O7 0.000000 0.000000 0.500000
O O8 0.000000 0.775372 0.250000
O O9 0.241002 0.712093 0.820375
O O10 0.500000 0.613993 0.750000
O O11 0.677375 0.573223 0.385265
O O12 0.500000 0.500000 0.500000
#
# Coordination Sequence:
#
# PCOD9234636 Si02
#       5
#     4   4   4   4   4
#     4  10  22  44  67  88 128 174 218 261 320 398
#     4  10  22  40  66  94 129 166 210 272 331 379
#     4  10  22  42  64  92 132 168 211 270 324 383
#     4  10  23  42  65  95 126 165 219 270 321 390
#     4  12  24  39  70  95 126 174 223 261 319 400
#
# _framework density 21.139637
#
# number of rings (size 3 to 8) (size 9 to 14) (size 15 to 20)
#    0.000    1.600    2.000    1.800    2.800    4.800 
#    3.600    0.000    0.000    0.000    0.000    0.000 
#    0.000    0.000    0.000    0.000    0.000    0.000 
#
# Total GULP energy -111582.424072 kJ/mol
# GULP energy per Si atom -5579.121204 kJ/mol
# Density = 2.109152 g / cm^3
# Si number density = 21.139637 Si / 1000 Ang^3
#
#
#
# Elastic Constant Matrix: (Units=GPa)
#
#
# Indices 1 2 3 4 5 6 
#
# 1 100.8308 10.9887 13.6469 0.0000 -0.5549 0.0000
# 2 10.9887 51.4296 30.5504 0.0000 7.0215 0.0000
# 3 13.6469 30.5504 115.9129 0.0000 33.2534 0.0000
# 4 0.0000 0.0000 0.0000 13.9066 0.0000 21.0574
# 5 -0.5549 7.0215 33.2534 0.0000 47.2782 0.0000
# 6 0.0000 0.0000 0.0000 21.0574 0.0000 33.5195
#
#
#
# Elastic Compliance Matrix: (Units=1/GPa)
#
#
# Indices 1 2 3 4 5 6 
#
# 1 0.010256 -0.001702 -0.001085 0.000000 0.001136 0.000000
# 2 -0.001702 0.023379 -0.006213 0.000000 0.000878 0.000000
# 3 -0.001085 -0.006213 0.012693 0.000000 -0.008017 0.000000
# 4 0.000000 0.000000 0.000000 1.474644 0.000000 -0.926389
# 5 0.001136 0.000878 -0.008017 0.000000 0.026673 0.000000
# 6 0.000000 0.000000 0.000000 -0.926389 0.000000 0.611802
#
#
# Mechanical properties :
#
#
# Convention : Reuss Voigt Hill
#
# Bulk Modulus (GPa) = 35.30207 42.06058 38.68133
# Shear Modulus (GPa) = 2.28635 33.14003 17.71319
#
# Velocity S-wave (km/s) = 1.04110 3.96368 2.89781
# Velocity P-wave (km/s) = 4.26391 6.39433 5.43453
#
# Compressibility (1/GPa) = 0.02832695
#
# Stress axis : x y z
#
# Youngs Moduli (GPa) = 97.50214 42.77400 78.78662
#
# Poissons Ratio (x) = 0.07281 0.08547
# Poissons Ratio (y) = 0.16596 0.48952
# Poissons Ratio (z) = 0.10577 0.26577
#
# Static dielectric constant tensor:
#      x y z
#    x 1.637510 0.000000 0.229820 
#    y 0.000000 1.851130 0.000000 
#    z 0.229820 0.000000 1.500290 
# 
# From -- ./inp_files/65249.got.cif
#   From: 2010.05.17/outbox.cif.g08.bks.cpg/sg13_33_cif.got.tgz:65249.got - 2010.06.03 16:44:36.
