data_PCOD9234556
_publ_section_title
;
Structure prediction by ZEFSAII (Michael W. Deem and Ramdas Pophale) SiO2 
 PCOD9234556
Probable space group: P 2/C
;
_chemical_formula_sum "Si O2"
_cell_formula_units_Z 16
_cell_length_a 9.028837
_cell_length_b 7.505657
_cell_length_c 9.147041
_cell_angle_alpha 90.000000
_cell_angle_beta 99.207006
_cell_angle_gamma 90.000000
_cell_volume 611.884786
_symmetry_space_group_name_H-M "P 2/C"
_symmetry_group_IT_number 13
_symmetry_cell_setting 'monoclinic'
loop_
_space_group_symop_operation_xyz
x,y,z
-x,y,1/2-z
-x,-y,-z
x,-y,1/2+z
loop_
_atom_site_type_symbol
_atom_site_label
_atom_site_fract_x
_atom_site_fract_y
_atom_site_fract_z
Si Si1 0.867622 0.633792 0.027661
Si Si2 0.334110 0.527312 0.736945
Si Si3 0.348942 0.862178 0.135345
Si Si4 0.140631 0.009736 0.345953
O O1 0.920520 0.829750 0.082917
O O2 0.241506 0.546129 0.363637
O O3 0.769106 0.659356 0.868352
O O4 0.000000 0.500000 0.000000
O O5 0.500000 0.608851 0.750000
O O6 0.356654 0.350721 0.641321
O O7 0.500000 0.918817 0.250000
O O8 0.223247 0.928640 0.221994
O O9 0.276400 0.910577 0.966394
O O10 0.000000 0.112921 0.250000
#
# Coordination Sequence:
#
# PCOD9234556 Si02
#       4
#     4   4   4   4
#     4  11  22  39  61  89 126 168 211 259 312 374
#     4  10  22  40  63  92 126 165 211 261 313 374
#     4  10  22  41  65  94 127 163 208 259 311 376
#     4  11  23  40  61  91 128 166 209 257 311 374
#
# _framework density 26.148713000000001
#
# number of rings (size 3 to 8) (size 9 to 14) (size 15 to 20)
#    0.000    1.500    0.000    6.000    0.000    3.000 
#    0.000    3.750    0.000    0.000    0.000    0.000 
#    0.000    0.000    0.000    0.000    0.000    0.000 
#
# Total GULP energy -89221.583898 kJ/mol
# GULP energy per Si atom -5576.348994 kJ/mol
# Density = 2.608920 g / cm^3
# Si number density = 26.148713 Si / 1000 Ang^3
#
#
#
# Elastic Constant Matrix: (Units=GPa)
#
#
# Indices 1 2 3 4 5 6 
#
# 1 152.8191 28.8705 56.3711 0.0000 43.6237 0.0000
# 2 28.8705 66.8481 29.0215 0.0000 9.0630 0.0000
# 3 56.3711 29.0215 155.1176 0.0000 33.7140 0.0000
# 4 0.0000 0.0000 0.0000 64.8240 0.0000 0.8408
# 5 43.6237 9.0630 33.7140 0.0000 52.5984 0.0000
# 6 0.0000 0.0000 0.0000 0.8408 0.0000 37.1022
#
#
#
# Elastic Compliance Matrix: (Units=1/GPa)
#
#
# Indices 1 2 3 4 5 6 
#
# 1 0.009417 -0.002524 -0.001565 0.000000 -0.006372 0.000000
# 2 -0.002524 0.017003 -0.002419 0.000000 0.000714 0.000000
# 3 -0.001565 -0.002419 0.008244 0.000000 -0.003569 0.000000
# 4 0.000000 0.000000 0.000000 0.015431 0.000000 -0.000350
# 5 -0.006372 0.000714 -0.003569 0.000000 0.026461 0.000000
# 6 0.000000 0.000000 0.000000 -0.000350 0.000000 0.026960
#
#
# Mechanical properties :
#
#
# Convention : Reuss Voigt Hill
#
# Bulk Modulus (GPa) = 46.19450 67.03454 56.61452
# Shear Modulus (GPa) = 40.40488 48.27304 44.33896
#
# Velocity S-wave (km/s) = 3.93516 4.30128 4.12229
# Velocity P-wave (km/s) = 6.19288 7.09645 6.66001
#
# Compressibility (1/GPa) = 0.02164760
#
# Stress axis : x y z
#
# Youngs Moduli (GPa) = 106.19449 58.81438 121.30278
#
# Poissons Ratio (x) = 0.14842 0.18985
# Poissons Ratio (y) = 0.26799 0.29345
# Poissons Ratio (z) = 0.16620 0.14228
#
# Static dielectric constant tensor:
#      x y z
#    x 2.181420 0.000000 0.179120 
#    y 0.000000 2.080940 0.000000 
#    z 0.179120 0.000000 2.241320 
# 
# From -- ./inp_files/11155.got.cif
#   From: 2010.05.17/outbox.cif.g08.bks.cpg/sg13_6_cif.got.tgz:11155.got - 2010.06.03 16:44:36.
