data_PCOD9234722
_publ_section_title
;
Structure prediction by ZEFSAII (Michael W. Deem and Ramdas Pophale) SiO2 
 PCOD9234722
Probable space group: P 2/C
;
_chemical_formula_sum "Si O2"
_cell_formula_units_Z 20
_cell_length_a 5.328564
_cell_length_b 11.064083
_cell_length_c 14.423436
_cell_angle_alpha 90.000000
_cell_angle_beta 113.066124
_cell_angle_gamma 90.000000
_cell_volume 782.361252
_symmetry_space_group_name_H-M "P 2/C"
_symmetry_group_IT_number 13
_symmetry_cell_setting 'monoclinic'
loop_
_space_group_symop_operation_xyz
x,y,z
-x,y,1/2-z
-x,-y,-z
x,-y,1/2+z
loop_
_atom_site_type_symbol
_atom_site_label
_atom_site_fract_x
_atom_site_fract_y
_atom_site_fract_z
Si Si1 0.000000 0.017271 0.250000
Si Si2 0.322139 0.150200 0.914842
Si Si3 0.550186 0.195811 0.139615
Si Si4 0.972050 0.371365 0.883746
Si Si5 0.989419 0.349276 0.394984
Si Si6 0.500000 0.786684 0.250000
O O1 0.264918 0.101063 0.276602
O O2 0.064670 0.932595 0.347891
O O3 0.244978 0.292593 0.912206
O O4 0.497889 0.142013 0.846505
O O5 0.439191 0.123327 0.032820
O O6 0.297479 0.275319 0.142517
O O7 0.782079 0.285266 0.133012
O O8 0.965224 0.512100 0.860783
O O9 0.756684 0.301243 0.791150
O O10 0.907931 0.356104 0.983726
#
# Coordination Sequence:
#
# PCOD9234722 Si02
#       6
#     2   4   4   4   4   2
#     4  12  26  48  70 102 142 196 242 294 352 418
#     4  11  24  45  67 108 138 186 245 294 351 419
#     4  11  26  47  71 103 146 187 234 296 351 427
#     4  10  22  40  71 101 140 179 233 299 352 426
#     4  10  24  45  71 102 141 183 229 291 369 417
#     4  12  20  38  70 102 138 184 234 286 356 414
#
# _framework density 25.563637
#
# number of rings (size 3 to 8) (size 9 to 14) (size 15 to 20)
#    0.000    1.200    4.000    0.600    2.800    6.400 
#    0.000    4.000    0.000    0.000    0.000    0.000 
#    0.000    0.000    0.000    0.000    0.000    0.000 
#
# Total GULP energy -111880.481291 kJ/mol
# GULP energy per Si atom -5594.024065 kJ/mol
# Density = 2.550545 g / cm^3
# Si number density = 25.563637 Si / 1000 Ang^3
#
#
#
# Elastic Constant Matrix: (Units=GPa)
#
#
# Indices 1 2 3 4 5 6 
#
# 1 150.5340 68.5284 29.1094 0.0000 9.6113 0.0000
# 2 68.5284 170.4055 43.8374 0.0000 12.5225 0.0000
# 3 29.1094 43.8374 132.6241 0.0000 14.4164 0.0000
# 4 0.0000 0.0000 0.0000 0.7816 0.0000 -1.3319
# 5 9.6113 12.5225 14.4164 0.0000 44.9521 0.0000
# 6 0.0000 0.0000 0.0000 -1.3319 0.0000 27.7939
#
#
#
# Elastic Compliance Matrix: (Units=1/GPa)
#
#
# Indices 1 2 3 4 5 6 
#
# 1 0.008224 -0.003073 -0.000716 0.000000 -0.000672 0.000000
# 2 -0.003073 0.007620 -0.001746 0.000000 -0.000906 0.000000
# 3 -0.000716 -0.001746 0.008501 0.000000 -0.002087 0.000000
# 4 0.000000 0.000000 0.000000 1.393239 0.000000 0.066766
# 5 -0.000672 -0.000906 -0.002087 0.000000 0.023311 0.000000
# 6 0.000000 0.000000 0.000000 0.066766 0.000000 0.039179
#
#
# Mechanical properties :
#
#
# Convention : Reuss Voigt Hill
#
# Bulk Modulus (GPa) = 75.33267 81.83489 78.58378
# Shear Modulus (GPa) = 3.34321 35.51142 19.42731
#
# Velocity S-wave (km/s) = 1.14483 3.73116 2.75973
# Velocity P-wave (km/s) = 5.59287 7.11644 6.40015
#
# Compressibility (1/GPa) = 0.01327445
#
# Stress axis : x y z
#
# Youngs Moduli (GPa) = 121.60173 131.23372 117.63156
#
# Poissons Ratio (x) = 0.40335 0.08422
# Poissons Ratio (y) = 0.37374 0.20534
# Poissons Ratio (z) = 0.08706 0.22909
#
# Static dielectric constant tensor:
#      x y z
#    x 2.059040 0.000000 -0.046530 
#    y 0.000000 2.015080 0.000000 
#    z -0.046530 0.000000 2.115100 
# 
# From -- ./inp_files/60980.got.cif
#   From: 2010.05.17/outbox.cif.g08.bks.cpg/sg13_31_cif.got.tgz:60980.got - 2010.06.03 16:44:36.
