data_PCOD9234673
_publ_section_title
;
Structure prediction by ZEFSAII (Michael W. Deem and Ramdas Pophale) SiO2 
 PCOD9234673
Probable space group: P 2/C
;
_chemical_formula_sum "Si O2"
_cell_formula_units_Z 24
_cell_length_a 21.052682
_cell_length_b 11.461769
_cell_length_c 10.632126
_cell_angle_alpha 90.000000
_cell_angle_beta 25.097514
_cell_angle_gamma 90.000000
_cell_volume 1088.200800
_symmetry_space_group_name_H-M "P 2/C"
_symmetry_group_IT_number 13
_symmetry_cell_setting 'monoclinic'
loop_
_space_group_symop_operation_xyz
x,y,z
-x,y,1/2-z
-x,-y,-z
x,-y,1/2+z
loop_
_atom_site_type_symbol
_atom_site_label
_atom_site_fract_x
_atom_site_fract_y
_atom_site_fract_z
Si Si1 0.162139 0.811318 0.005684
Si Si2 0.279542 0.934711 0.339978
Si Si3 0.500000 0.816085 0.750000
Si Si4 0.352166 0.206159 0.938219
Si Si5 0.000000 0.778101 0.750000
Si Si6 0.786158 0.670224 0.337160
Si Si7 0.406753 0.454090 0.785514
O O1 0.165420 0.725834 0.117283
O O2 0.000000 0.848623 0.250000
O O3 0.235556 0.754261 0.752186
O O4 0.252374 0.928668 0.874859
O O5 0.306040 0.901916 0.437154
O O6 0.130977 0.862008 0.568108
O O7 0.416570 0.891622 0.007068
O O8 0.632654 0.736356 0.569876
O O9 0.500000 0.178989 0.750000
O O10 0.374718 0.319210 0.811950
O O11 0.083523 0.699801 0.495811
O O12 0.737634 0.535936 0.437614
O O13 0.500000 0.455931 0.750000
O O14 0.500000 0.500000 0.500000
#
# Coordination Sequence:
#
# PCOD9234673 Si02
#       7
#     4   4   2   4   2   4   4
#     4  12  27  46  67  98 145 187 227 286 354 415
#     4  11  24  44  68  97 140 182 228 284 350 415
#     4  10  22  40  68 106 126 172 240 282 338 412
#     4  11  26  44  71 105 134 177 234 292 348 412
#     4  10  24  42  68 100 134 188 234 272 342 426
#     4  11  23  44  72 103 134 184 234 284 348 422
#     4  11  23  46  75 106 145 183 230 299 365 415
#
# _framework density 22.054752000000001
#
# number of rings (size 3 to 8) (size 9 to 14) (size 15 to 20)
#    0.000    1.000    1.667    5.000    8.167    2.667 
#    1.500    1.667    0.000    0.000    0.000    0.000 
#    0.000    0.000    0.000    0.000    0.000    0.000 
#
# Total GULP energy -134359.878618 kJ/mol
# GULP energy per Si atom -5598.328276 kJ/mol
# Density = 2.200455 g / cm^3
# Si number density = 22.054752 Si / 1000 Ang^3
#
#
#
# Elastic Constant Matrix: (Units=GPa)
#
#
# Indices 1 2 3 4 5 6 
#
# 1 74.5003 17.2011 27.4866 0.0000 11.7615 0.0000
# 2 17.2011 54.8386 -0.3536 0.0000 -14.2131 0.0000
# 3 27.4866 -0.3536 118.6517 0.0000 10.9407 0.0000
# 4 0.0000 0.0000 0.0000 55.8676 0.0000 -17.2795
# 5 11.7615 -14.2131 10.9407 0.0000 28.3679 0.0000
# 6 0.0000 0.0000 0.0000 -17.2795 0.0000 67.3315
#
#
#
# Elastic Compliance Matrix: (Units=1/GPa)
#
#
# Indices 1 2 3 4 5 6 
#
# 1 0.018259 -0.008484 -0.003282 0.000000 -0.010555 0.000000
# 2 -0.008484 0.025000 0.000581 0.000000 0.015819 0.000000
# 3 -0.003282 0.000581 0.009371 0.000000 -0.001962 0.000000
# 4 0.000000 0.000000 0.000000 0.019443 0.000000 0.004990
# 5 -0.010555 0.015819 -0.001962 0.000000 0.048310 0.000000
# 6 0.000000 0.000000 0.000000 0.004990 0.000000 0.016132
#
#
# Mechanical properties :
#
#
# Convention : Reuss Voigt Hill
#
# Bulk Modulus (GPa) = 33.04607 37.40654 35.22630
# Shear Modulus (GPa) = 29.59081 43.89049 36.74065
#
# Velocity S-wave (km/s) = 3.66689 4.46586 4.08595
# Velocity P-wave (km/s) = 5.73971 6.60223 6.18602
#
# Compressibility (1/GPa) = 0.03026079
#
# Stress axis : x y z
#
# Youngs Moduli (GPa) = 54.76809 39.99950 106.71279
#
# Poissons Ratio (x) = 0.33936 0.35021
# Poissons Ratio (y) = 0.46466 -0.06203
# Poissons Ratio (z) = 0.17974 -0.02325
#
# Static dielectric constant tensor:
#      x y z
#    x 1.789520 0.000000 -0.007750 
#    y 0.000000 1.782010 0.000000 
#    z -0.007750 0.000000 1.751100 
# 
# From -- ./inp_files/41832.got.cif
#   From: 2010.05.17/outbox.cif.g08.bks.cpg/sg13_21_cif.got.tgz:41832.got - 2010.06.03 16:44:36.
