data_PCOD9234275
_publ_section_title
;
Structure prediction by ZEFSAII (Michael W. Deem and Ramdas Pophale) SiO2 
 PCOD9234275
Probable space group: P 2/C
;
_chemical_formula_sum "Si O2"
_cell_formula_units_Z 30
_cell_length_a 21.338154
_cell_length_b 5.158059
_cell_length_c 25.250060
_cell_angle_alpha 90.000000
_cell_angle_beta 27.679721
_cell_angle_gamma 90.000000
_cell_volume 1290.975690
_symmetry_space_group_name_H-M "P 2/C"
_symmetry_group_IT_number 13
_symmetry_cell_setting 'monoclinic'
loop_
_space_group_symop_operation_xyz
x,y,z
-x,y,1/2-z
-x,-y,-z
x,-y,1/2+z
loop_
_atom_site_type_symbol
_atom_site_label
_atom_site_fract_x
_atom_site_fract_y
_atom_site_fract_z
Si Si1 0.569511 0.827191 0.901794
Si Si2 0.500000 0.287220 0.250000
Si Si3 0.600725 0.060727 0.071982
Si Si4 0.031125 0.697782 0.059332
Si Si5 0.724023 0.690671 0.256700
Si Si6 0.711349 0.676394 0.050729
Si Si7 0.101076 0.711536 0.125947
Si Si8 0.199612 0.177487 0.912816
O O1 0.460668 0.848747 0.936271
O O2 0.628925 0.531545 0.855076
O O3 0.693827 0.016808 0.797269
O O4 0.500000 0.000000 0.000000
O O5 0.500844 0.142741 0.193717
O O6 0.632246 0.461179 0.143161
O O7 0.619713 0.756813 0.069701
O O8 0.754431 0.159527 0.966830
O O9 0.037201 0.785064 0.116886
O O10 0.879867 0.646807 0.153550
O O11 0.106919 0.425287 0.995670
O O12 0.109854 0.923457 0.968302
O O13 0.710922 0.720405 0.202856
O O14 0.728626 0.884334 0.084545
O O15 0.851022 0.583551 0.921359
O O16 0.000000 0.739785 0.250000
#
# Coordination Sequence:
#
# PCOD9234275 Si02
#       8
#     4   2   4   4   4   4   4   4
#     4  12  30  48  68 103 140 198 246 283 347 428
#     4  10  22  38  68 102 140 178 226 290 370 420
#     4  11  24  43  70  98 142 179 233 298 350 417
#     4  11  23  44  69 105 140 179 233 295 351 434
#     4  12  26  46  75  99 140 193 230 296 353 419
#     4  10  22  39  64 102 137 174 226 297 353 428
#     4  10  24  42  67  97 135 184 231 286 358 418
#     4  11  22  42  69 108 140 171 234 290 374 419
#
# _framework density 23.238239
#
# number of rings (size 3 to 8) (size 9 to 14) (size 15 to 20)
#    0.000    1.067    1.333    4.000    9.333    1.600 
#    0.000    0.000    0.000    0.000    0.000    0.000 
#    0.000    0.000    0.000    0.000    0.000    0.000 
#
# Total GULP energy -167259.903226 kJ/mol
# GULP energy per Si atom -5575.330108 kJ/mol
# Density = 2.318535 g / cm^3
# Si number density = 23.238239 Si / 1000 Ang^3
#
#
#
# Elastic Constant Matrix: (Units=GPa)
#
#
# Indices 1 2 3 4 5 6 
#
# 1 75.5385 14.2677 10.0123 0.0000 -3.3166 0.0000
# 2 14.2677 98.0720 17.3887 0.0000 -2.5674 0.0000
# 3 10.0123 17.3887 102.0825 0.0000 9.7710 0.0000
# 4 0.0000 0.0000 0.0000 40.2533 0.0000 -0.4548
# 5 -3.3166 -2.5674 9.7710 0.0000 33.6640 0.0000
# 6 0.0000 0.0000 0.0000 -0.4548 0.0000 41.2245
#
#
#
# Elastic Compliance Matrix: (Units=1/GPa)
#
#
# Indices 1 2 3 4 5 6 
#
# 1 0.013798 -0.001752 -0.001206 0.000000 0.001576 0.000000
# 2 -0.001752 0.010798 -0.001779 0.000000 0.001167 0.000000
# 3 -0.001206 -0.001779 0.010534 0.000000 -0.003312 0.000000
# 4 0.000000 0.000000 0.000000 0.024846 0.000000 0.000274
# 5 0.001576 0.001167 -0.003312 0.000000 0.030911 0.000000
# 6 0.000000 0.000000 0.000000 0.000274 0.000000 0.024260
#
#
# Mechanical properties :
#
#
# Convention : Reuss Voigt Hill
#
# Bulk Modulus (GPa) = 38.97747 39.89226 39.43486
# Shear Modulus (GPa) = 37.54504 38.63000 38.08752
#
# Velocity S-wave (km/s) = 4.02388 4.08161 4.05285
# Velocity P-wave (km/s) = 6.19663 6.27827 6.23758
#
# Compressibility (1/GPa) = 0.02565584
#
# Stress axis : x y z
#
# Youngs Moduli (GPa) = 72.47294 92.61377 94.92786
#
# Poissons Ratio (x) = 0.16229 0.11445
# Poissons Ratio (y) = 0.12700 0.16889
# Poissons Ratio (z) = 0.08738 0.16477
#
# Static dielectric constant tensor:
#      x y z
#    x 1.997820 0.000000 -0.002120 
#    y 0.000000 2.011450 0.000000 
#    z -0.002120 0.000000 1.871410 
# 
# From -- ./inp_files/88353.got.cif
#   From: 2010.05.17/outbox.cif.g08.bks.cpg/sg13_45_cif.got.tgz:88353.got - 2010.06.03 16:44:36.
