data_PCOD9234265
_publ_section_title
;
Structure prediction by ZEFSAII (Michael W. Deem and Ramdas Pophale) SiO2 
 PCOD9234265
Probable space group: P 2/C
;
_chemical_formula_sum "Si O2"
_cell_formula_units_Z 28
_cell_length_a 29.104530
_cell_length_b 5.203864
_cell_length_c 9.123419
_cell_angle_alpha 90.000000
_cell_angle_beta 53.003762
_cell_angle_gamma 90.000000
_cell_volume 1103.606506
_symmetry_space_group_name_H-M "P 2/C"
_symmetry_group_IT_number 13
_symmetry_cell_setting 'monoclinic'
loop_
_space_group_symop_operation_xyz
x,y,z
-x,y,1/2-z
-x,-y,-z
x,-y,1/2+z
loop_
_atom_site_type_symbol
_atom_site_label
_atom_site_fract_x
_atom_site_fract_y
_atom_site_fract_z
Si Si1 0.500000 0.888328 0.750000
Si Si2 0.000000 0.500000 0.000000
Si Si3 0.398265 0.174446 0.879802
Si Si4 0.232930 0.652000 0.014357
Si Si5 0.057173 0.017504 0.555417
Si Si6 0.895796 0.685508 0.295366
Si Si7 0.435580 0.510119 0.062629
Si Si8 0.269986 0.144582 0.119400
O O1 0.551839 0.725105 0.582875
O O2 0.459700 0.048809 0.718028
O O3 0.037068 0.742556 0.997156
O O4 0.950241 0.516242 0.230238
O O5 0.394712 0.407172 0.770889
O O6 0.411601 0.272532 0.017994
O O7 0.336538 0.048172 0.991406
O O8 0.166398 0.577374 0.113959
O O9 0.261049 0.395818 0.031815
O O10 0.235982 0.897577 0.119813
O O11 0.256589 0.755441 0.811080
O O12 0.106470 0.099539 0.574424
O O13 0.000000 0.943349 0.750000
O O14 0.077049 0.794494 0.408396
O O15 0.500000 0.500000 0.000000
#
# Coordination Sequence:
#
# PCOD9234265 Si02
#       8
#     2   2   4   4   4   4   4   4
#     4  12  24  38  72 104 142 186 238 302 384 444
#     4  10  22  38  66 108 138 184 224 302 374 454
#     4  12  27  43  75 100 150 188 245 311 374 460
#     4  12  29  54  80 113 154 208 270 323 386 459
#     4  10  22  42  63 109 140 186 230 299 378 449
#     4  11  25  42  73  98 148 184 247 307 375 453
#     4  12  23  44  63 110 143 186 234 303 385 453
#     4  12  30  54  79 116 152 214 268 325 386 462
#
# _framework density 25.371362000000001
#
# number of rings (size 3 to 8) (size 9 to 14) (size 15 to 20)
#    0.000    0.571    2.857    4.714    8.000    5.143 
#    0.000    0.000    0.000    0.000    0.000    0.000 
#    0.000    0.000    0.000    0.000    0.000    0.000 
#
# Total GULP energy -156000.562990 kJ/mol
# GULP energy per Si atom -5571.448678 kJ/mol
# Density = 2.531362 g / cm^3
# Si number density = 25.371362 Si / 1000 Ang^3
#
#
#
# Elastic Constant Matrix: (Units=GPa)
#
#
# Indices 1 2 3 4 5 6 
#
# 1 109.3122 18.1523 19.3095 0.0000 -15.4536 0.0000
# 2 18.1523 92.4566 -1.8876 0.0000 11.7596 0.0000
# 3 19.3095 -1.8876 69.2739 0.0000 7.3337 0.0000
# 4 0.0000 0.0000 0.0000 34.9518 0.0000 9.9261
# 5 -15.4536 11.7596 7.3337 0.0000 44.6980 0.0000
# 6 0.0000 0.0000 0.0000 9.9261 0.0000 37.3403
#
#
#
# Elastic Compliance Matrix: (Units=1/GPa)
#
#
# Indices 1 2 3 4 5 6 
#
# 1 0.011014 -0.002896 -0.003697 0.000000 0.005176 0.000000
# 2 -0.002896 0.011979 0.001601 0.000000 -0.004416 0.000000
# 3 -0.003697 0.001601 0.015967 0.000000 -0.004319 0.000000
# 4 0.000000 0.000000 0.000000 0.030947 0.000000 -0.008227
# 5 0.005176 -0.004416 -0.004319 0.000000 0.026032 0.000000
# 6 0.000000 0.000000 0.000000 -0.008227 0.000000 0.028968
#
#
# Mechanical properties :
#
#
# Convention : Reuss Voigt Hill
#
# Bulk Modulus (GPa) = 34.51196 38.02122 36.26659
# Shear Modulus (GPa) = 34.59031 39.09594 36.84313
#
# Velocity S-wave (km/s) = 3.69638 3.92975 3.81485
# Velocity P-wave (km/s) = 5.64357 5.96733 5.80770
#
# Compressibility (1/GPa) = 0.02897546
#
# Stress axis : x y z
#
# Youngs Moduli (GPa) = 90.79439 83.48070 62.62988
#
# Poissons Ratio (x) = 0.24178 0.23154
# Poissons Ratio (y) = 0.26296 -0.10028
# Poissons Ratio (z) = 0.33566 -0.13367
#
# Static dielectric constant tensor:
#      x y z
#    x 1.585310 0.000000 0.004900 
#    y 0.000000 2.506640 0.000000 
#    z 0.004900 0.000000 1.861770 
# 
# From -- ./inp_files/24770.got.cif
#   From: 2010.05.17/outbox.cif.g08.bks.cpg/sg13_13_cif.got.tgz:24770.got - 2010.06.03 16:44:36.
