data_PCOD9234421
_publ_section_title
;
Structure prediction by ZEFSAII (Michael W. Deem and Ramdas Pophale) SiO2 
 PCOD9234421
Probable space group: P 2/C
;
_chemical_formula_sum "Si O2"
_cell_formula_units_Z 20
_cell_length_a 8.697993
_cell_length_b 5.513291
_cell_length_c 19.860262
_cell_angle_alpha 90.000000
_cell_angle_beta 59.835710
_cell_angle_gamma 90.000000
_cell_volume 823.425324
_symmetry_space_group_name_H-M "P 2/C"
_symmetry_group_IT_number 13
_symmetry_cell_setting 'monoclinic'
loop_
_space_group_symop_operation_xyz
x,y,z
-x,y,1/2-z
-x,-y,-z
x,-y,1/2+z
loop_
_atom_site_type_symbol
_atom_site_label
_atom_site_fract_x
_atom_site_fract_y
_atom_site_fract_z
Si Si1 0.300238 0.447244 0.523722
Si Si2 0.785613 0.204894 0.228725
Si Si3 0.154825 0.799575 0.460005
Si Si4 0.416259 0.840846 0.868454
Si Si5 0.969966 0.693636 0.158346
O O1 0.500000 0.500000 0.500000
O O2 0.184611 0.678440 0.525624
O O3 0.323719 0.303009 0.448910
O O4 0.183372 0.310124 0.604940
O O5 0.679806 0.218236 0.180700
O O6 0.626047 0.192395 0.317759
O O7 0.894515 0.453899 0.210896
O O8 0.894769 0.951237 0.201564
O O9 0.093378 0.665748 0.405933
O O10 0.353425 0.887189 0.397362
O O11 0.000000 0.000000 0.500000
#
# Coordination Sequence:
#
# PCOD9234421 Si02
#       5
#     4   4   4   4   4
#     4  12  25  41  68  99 142 180 230 287 350 417
#     4  10  23  39  71  98 134 172 232 287 339 405
#     4  11  21  41  69  97 129 175 230 291 334 404
#     4  10  22  39  65 101 132 173 226 287 340 403
#     4  11  22  42  67 101 128 176 227 282 341 405
#
# _framework density 24.288785000000001
#
# number of rings (size 3 to 8) (size 9 to 14) (size 15 to 20)
#    0.000    1.200    4.000    3.000    2.800    2.400 
#    0.000    1.000    0.000    0.000    0.000    0.000 
#    0.000    0.000    0.000    0.000    0.000    0.000 
#
# Total GULP energy -111738.087493 kJ/mol
# GULP energy per Si atom -5586.904375 kJ/mol
# Density = 2.423350 g / cm^3
# Si number density = 24.288785 Si / 1000 Ang^3
#
#
#
# Elastic Constant Matrix: (Units=GPa)
#
#
# Indices 1 2 3 4 5 6 
#
# 1 96.3887 52.8711 36.2183 0.0000 -21.0930 0.0000
# 2 52.8711 128.0872 63.5401 0.0000 -42.5702 0.0000
# 3 36.2183 63.5401 141.5066 0.0000 -58.1651 0.0000
# 4 0.0000 0.0000 0.0000 10.7241 0.0000 -28.0841
# 5 -21.0930 -42.5702 -58.1651 0.0000 47.6751 0.0000
# 6 0.0000 0.0000 0.0000 -28.0841 0.0000 7.1657
#
#
#
# Elastic Compliance Matrix: (Units=1/GPa)
#
#
# Indices 1 2 3 4 5 6 
#
# 1 0.013577 -0.004976 -0.001199 0.000000 0.000101 0.000000
# 2 -0.004976 0.013166 -0.001426 0.000000 0.007815 0.000000
# 3 -0.001199 -0.001426 0.014588 0.000000 0.015994 0.000000
# 4 0.000000 0.000000 0.000000 -0.010066 0.000000 -0.039451
# 5 0.000101 0.007815 0.015994 0.000000 0.047511 0.000000
# 6 0.000000 0.000000 0.000000 -0.039451 0.000000 -0.015065
#
#
# Mechanical properties :
#
#
# Convention : Reuss Voigt Hill
#
# Bulk Modulus (GPa) = 38.27223 74.58239 56.42731
# Shear Modulus (GPa) = 57.06258 27.33652 42.19955
#
# Velocity S-wave (km/s) = 4.85226 3.35846 4.17275
# Velocity P-wave (km/s) = 6.86905 6.76847 6.81895
#
# Compressibility (1/GPa) = 0.02612860
#
# Stress axis : x y z
#
# Youngs Moduli (GPa) = 73.65621 75.95505 68.54727
#
# Poissons Ratio (x) = 0.37793 0.08221
# Poissons Ratio (y) = 0.36649 0.09775
# Poissons Ratio (z) = 0.08834 0.10831
#
# Static dielectric constant tensor:
#      x y z
#    x 1.920790 0.000000 -0.024980 
#    y 0.000000 2.174070 0.000000 
#    z -0.024980 0.000000 1.887700 
# 
# From -- ./inp_files/62414.got.cif
#   From: 2010.05.17/outbox.cif.g08.bks.cpg/sg13_32_cif.got.tgz:62414.got - 2010.06.03 16:44:36.
