data_PCOD9234417
_publ_section_title
;
Structure prediction by ZEFSAII (Michael W. Deem and Ramdas Pophale) SiO2 
 PCOD9234417
Probable space group: P 2/C
;
_chemical_formula_sum "Si O2"
_cell_formula_units_Z 30
_cell_length_a 11.097804
_cell_length_b 21.635642
_cell_length_c 11.860013
_cell_angle_alpha 90.000000
_cell_angle_beta 147.075266
_cell_angle_gamma 90.000000
_cell_volume 1547.821942
_symmetry_space_group_name_H-M "P 2/C"
_symmetry_group_IT_number 13
_symmetry_cell_setting 'monoclinic'
loop_
_space_group_symop_operation_xyz
x,y,z
-x,y,1/2-z
-x,-y,-z
x,-y,1/2+z
loop_
_atom_site_type_symbol
_atom_site_label
_atom_site_fract_x
_atom_site_fract_y
_atom_site_fract_z
Si Si1 0.650318 0.727935 0.258040
Si Si2 0.774961 0.468159 0.860422
Si Si3 0.702576 0.047699 0.186167
Si Si4 0.582279 0.873499 0.186889
Si Si5 0.999110 0.352541 0.375227
Si Si6 0.500000 0.575892 0.750000
Si Si7 0.005797 0.937823 0.123751
Si Si8 0.493920 0.378704 0.013865
O O1 0.500000 0.712258 0.250000
O O2 0.627494 0.800512 0.223010
O O3 0.565734 0.685780 0.090321
O O4 0.899068 0.702706 0.472150
O O5 0.669256 0.526543 0.835397
O O6 0.619474 0.435271 0.644221
O O7 0.000000 0.500000 0.000000
O O8 0.833212 0.410561 0.986578
O O9 0.775052 0.062864 0.371905
O O10 0.913376 0.009260 0.307237
O O11 0.621627 0.107320 0.054722
O O12 0.500000 0.000000 0.000000
O O13 0.500000 0.891734 0.250000
O O14 0.805399 0.904344 0.306719
O O15 0.000000 0.328670 0.250000
O O16 0.760565 0.378347 0.221627
O O17 0.414606 0.615937 0.579524
O O18 0.000000 0.915336 0.250000
#
# Coordination Sequence:
#
# PCOD9234417 Si02
#       8
#     4   4   4   4   4   2   4   4
#     4  10  22  43  63  89 124 163 217 266 311 380
#     4  11  24  38  60  90 126 160 201 255 318 397
#     4   9  21  37  62  96 132 169 211 267 321 386
#     4  10  23  40  63  95 131 169 224 276 318 384
#     4  11  21  38  64  86 117 164 204 257 317 374
#     4  12  24  40  62  94 126 156 206 262 318 394
#     4  10  22  39  64  95 134 176 214 260 335 399
#     4  11  24  42  59  91 124 163 209 259 327 381
#
# _framework density 19.382075
#
# number of rings (size 3 to 8) (size 9 to 14) (size 15 to 20)
#    0.000    1.600    2.667    1.200    9.333    2.667 
#    0.000    2.667    0.000    0.000    0.000    0.000 
#    0.000    0.000    0.000    0.000    0.000    0.000 
#
# Total GULP energy -167011.853957 kJ/mol
# GULP energy per Si atom -5567.061799 kJ/mol
# Density = 1.933796 g / cm^3
# Si number density = 19.382075 Si / 1000 Ang^3
#
#
#
# Elastic Constant Matrix: (Units=GPa)
#
#
# Indices 1 2 3 4 5 6 
#
# 1 91.8729 33.6716 47.1156 0.0000 -20.8225 0.0000
# 2 33.6716 95.6956 44.9428 0.0000 -9.6631 0.0000
# 3 47.1156 44.9428 139.3436 0.0000 -19.4242 0.0000
# 4 0.0000 0.0000 0.0000 23.2277 0.0000 -24.2539
# 5 -20.8225 -9.6631 -19.4242 0.0000 28.3632 0.0000
# 6 0.0000 0.0000 0.0000 -24.2539 0.0000 241.8075
#
#
#
# Elastic Compliance Matrix: (Units=1/GPa)
#
#
# Indices 1 2 3 4 5 6 
#
# 1 0.015476 -0.003179 -0.003068 0.000000 0.008178 0.000000
# 2 -0.003179 0.013037 -0.003135 0.000000 -0.000040 0.000000
# 3 -0.003068 -0.003135 0.009687 0.000000 0.003314 0.000000
# 4 0.000000 0.000000 0.000000 0.048088 0.000000 0.004823
# 5 0.008178 -0.000040 0.003314 0.000000 0.043516 0.000000
# 6 0.000000 0.000000 0.000000 0.004823 0.000000 0.004619
#
#
# Mechanical properties :
#
#
# Convention : Reuss Voigt Hill
#
# Bulk Modulus (GPa) = 51.45084 64.26358 57.85721
# Shear Modulus (GPa) = 31.31509 72.09184 51.70347
#
# Velocity S-wave (km/s) = 4.02390 6.10540 5.17048
# Velocity P-wave (km/s) = 6.94207 9.10655 8.09696
#
# Compressibility (1/GPa) = 0.01943603
#
# Stress axis : x y z
#
# Youngs Moduli (GPa) = 64.61453 76.70520 103.23171
#
# Poissons Ratio (x) = 0.24385 0.31668
# Poissons Ratio (y) = 0.20541 0.32368
# Poissons Ratio (z) = 0.19821 0.24050
#
# Static dielectric constant tensor:
#      x y z
#    x 1.684290 0.000000 0.000970 
#    y 0.000000 1.677390 0.000000 
#    z 0.000970 0.000000 1.746320 
# 
# From -- ./inp_files/34895.got.cif
#   From: 2010.05.17/outbox.cif.g08.bks.cpg/sg13_18_cif.got.tgz:34895.got - 2010.06.03 16:44:36.
