data_PCOD9234798
_publ_section_title
;
Structure prediction by ZEFSAII (Michael W. Deem and Ramdas Pophale) SiO2 
 PCOD9234798
Probable space group: P 2/C
;
_chemical_formula_sum "Si O2"
_cell_formula_units_Z 14
_cell_length_a 9.956102
_cell_length_b 12.623655
_cell_length_c 9.752507
_cell_angle_alpha 90.000000
_cell_angle_beta 150.546221
_cell_angle_gamma 90.000000
_cell_volume 602.711843
_symmetry_space_group_name_H-M "P 2/C"
_symmetry_group_IT_number 13
_symmetry_cell_setting 'monoclinic'
loop_
_space_group_symop_operation_xyz
x,y,z
-x,y,1/2-z
-x,-y,-z
x,-y,1/2+z
loop_
_atom_site_type_symbol
_atom_site_label
_atom_site_fract_x
_atom_site_fract_y
_atom_site_fract_z
Si Si1 0.724680 0.411488 0.567998
Si Si2 0.000000 0.179250 0.250000
Si Si3 0.695169 0.009001 0.805167
Si Si4 0.630995 0.649626 0.516351
O O1 0.765361 0.533169 0.655332
O O2 0.606799 0.343316 0.585353
O O3 0.000000 0.369491 0.750000
O O4 0.500000 0.416797 0.250000
O O5 0.218892 0.109502 0.524688
O O6 0.154055 0.257276 0.282466
O O7 0.500000 0.948471 0.750000
O O8 0.500000 0.000000 0.500000
O O9 0.000000 0.000000 0.000000
O O10 0.500000 0.652687 0.250000
#
# Coordination Sequence:
#
# PCOD9234798 Si02
#       4
#     4   2   4   4
#     4  10  22  41  64 100 147 196 243 290 352 403
#     4  12  24  44  78 108 150 188 260 290 380 446
#     4  12  25  49  80 109 141 190 241 312 393 456
#     4  10  23  38  70 100 142 197 246 292 349 432
#
# _framework density 23.228346999999999
#
# number of rings (size 3 to 8) (size 9 to 14) (size 15 to 20)
#    0.000    1.143    4.286    0.857    4.000    3.429 
#    0.000    1.429    6.286    0.000    0.000    0.000 
#    0.000    0.000    0.000    0.000    0.000    0.286 
#
# Total GULP energy -77973.242626 kJ/mol
# GULP energy per Si atom -5569.517330 kJ/mol
# Density = 2.317548 g / cm^3
# Si number density = 23.228347 Si / 1000 Ang^3
#
#
#
# Elastic Constant Matrix: (Units=GPa)
#
#
# Indices 1 2 3 4 5 6 
#
# 1 237.6684 20.3053 64.4134 0.0000 29.1769 0.0000
# 2 20.3053 43.6519 34.3386 0.0000 5.2170 0.0000
# 3 64.4134 34.3386 161.3339 0.0000 9.9609 0.0000
# 4 0.0000 0.0000 0.0000 17.8521 0.0000 23.7528
# 5 29.1769 5.2170 9.9609 0.0000 55.3124 0.0000
# 6 0.0000 0.0000 0.0000 23.7528 0.0000 37.4833
#
#
#
# Elastic Compliance Matrix: (Units=1/GPa)
#
#
# Indices 1 2 3 4 5 6 
#
# 1 0.005010 -0.000716 -0.001708 0.000000 -0.002268 0.000000
# 2 -0.000716 0.027751 -0.005544 0.000000 -0.001241 0.000000
# 3 -0.001708 -0.005544 0.008062 0.000000 -0.000028 0.000000
# 4 0.000000 0.000000 0.000000 0.357117 0.000000 -0.226302
# 5 -0.002268 -0.001241 -0.000028 0.000000 0.019397 0.000000
# 6 0.000000 0.000000 0.000000 -0.226302 0.000000 0.170084
#
#
# Mechanical properties :
#
#
# Convention : Reuss Voigt Hill
#
# Bulk Modulus (GPa) = 40.18125 75.64098 57.91111
# Shear Modulus (GPa) = 8.17457 43.70269 25.93863
#
# Velocity S-wave (km/s) = 1.87799 4.34226 3.34530
# Velocity P-wave (km/s) = 4.69451 7.60099 6.31718
#
# Compressibility (1/GPa) = 0.02488723
#
# Stress axis : x y z
#
# Youngs Moduli (GPa) = 199.60236 36.03449 124.03960
#
# Poissons Ratio (x) = 0.02580 0.21184
# Poissons Ratio (y) = 0.14291 0.68769
# Poissons Ratio (z) = 0.34089 0.19978
#
# Static dielectric constant tensor:
#      x y z
#    x 1.839560 0.000000 0.133930 
#    y 0.000000 1.923570 0.000000 
#    z 0.133930 0.000000 1.823350 
# 
# From -- ./inp_files/12032.got.cif
#   From: 2010.05.17/outbox.cif.g08.bks.cpg/sg13_7_cif.got.tgz:12032.got - 2010.06.03 16:44:36.
