data_PCOD9234884
_publ_section_title
;
Structure prediction by ZEFSAII (Michael W. Deem and Ramdas Pophale) SiO2 
 PCOD9234884
Probable space group: P 2/C
;
_chemical_formula_sum "Si O2"
_cell_formula_units_Z 18
_cell_length_a 8.671395
_cell_length_b 5.056708
_cell_length_c 15.388133
_cell_angle_alpha 90.000000
_cell_angle_beta 95.427287
_cell_angle_gamma 90.000000
_cell_volume 671.724938
_symmetry_space_group_name_H-M "P 2/C"
_symmetry_group_IT_number 13
_symmetry_cell_setting 'monoclinic'
loop_
_space_group_symop_operation_xyz
x,y,z
-x,y,1/2-z
-x,-y,-z
x,-y,1/2+z
loop_
_atom_site_type_symbol
_atom_site_label
_atom_site_fract_x
_atom_site_fract_y
_atom_site_fract_z
Si Si1 0.535460 0.739247 0.413132
Si Si2 0.500000 0.320772 0.250000
Si Si3 0.235778 0.035564 0.699525
Si Si4 0.241754 0.421990 0.963452
Si Si5 0.933426 0.443089 0.361756
O O1 0.525050 0.519270 0.333722
O O2 0.647419 0.956380 0.377405
O O3 0.632995 0.639908 0.501109
O O4 0.360221 0.795047 0.432658
O O5 0.643945 0.126140 0.233903
O O6 0.160828 0.327687 0.694440
O O7 0.093776 0.840179 0.680267
O O8 0.110678 0.483691 0.886402
O O9 0.145172 0.399308 0.047475
#
# Coordination Sequence:
#
# PCOD9234884 Si02
#       5
#     4   2   4   4   4
#     4  10  22  42  70  98 125 172 221 267 318 391
#     4  12  22  44  64  92 130 178 210 266 312 402
#     4  11  22  41  67  91 127 174 210 262 327 383
#     4   9  20  43  68 102 124 165 219 275 322 381
#     4  10  22  41  67  96 132 162 207 276 334 375
#
# _framework density 26.796681
#
# number of rings (size 3 to 8) (size 9 to 14) (size 15 to 20)
#    0.000    1.778    4.444    0.667    0.000    8.889 
#    8.000    1.111    4.889    0.000    0.000    0.000 
#    0.000    0.000    0.000    0.000    0.000    0.000 
#
# Total GULP energy -100423.655364 kJ/mol
# GULP energy per Si atom -5579.091965 kJ/mol
# Density = 2.673569 g / cm^3
# Si number density = 26.796681 Si / 1000 Ang^3
#
#
#
# Elastic Constant Matrix: (Units=GPa)
#
#
# Indices 1 2 3 4 5 6 
#
# 1 195.5539 19.9127 61.3017 0.0000 0.4468 0.0000
# 2 19.9127 127.2307 61.3154 0.0000 -5.3039 0.0000
# 3 61.3017 61.3154 118.7223 0.0000 -4.0949 0.0000
# 4 0.0000 0.0000 0.0000 28.5779 0.0000 -4.7036
# 5 0.4468 -5.3039 -4.0949 0.0000 44.4304 0.0000
# 6 0.0000 0.0000 0.0000 -4.7036 0.0000 -31.1884
#
#
#
# Elastic Compliance Matrix: (Units=1/GPa)
#
#
# Indices 1 2 3 4 5 6 
#
# 1 0.006160 0.000747 -0.003577 0.000000 -0.000302 0.000000
# 2 0.000747 0.010580 -0.005825 0.000000 0.000719 0.000000
# 3 -0.003577 -0.005825 0.013298 0.000000 0.000566 0.000000
# 4 0.000000 0.000000 0.000000 0.034145 0.000000 -0.005149
# 5 -0.000302 0.000719 0.000566 0.000000 0.022648 0.000000
# 6 0.000000 0.000000 0.000000 -0.005149 0.000000 -0.031287
#
#
# Mechanical properties :
#
#
# Convention : Reuss Voigt Hill
#
# Bulk Modulus (GPa) = 78.56795 80.72962 79.64879
# Shear Modulus (GPa) = 64.85462 28.29578 46.57520
#
# Velocity S-wave (km/s) = 4.92494 3.25305 4.17357
# Velocity P-wave (km/s) = 7.85644 6.65597 7.28099
#
# Compressibility (1/GPa) = 0.01272784
#
# Stress axis : x y z
#
# Youngs Moduli (GPa) = 162.35053 94.51756 75.20033
#
# Poissons Ratio (x) = -0.07061 0.26897
# Poissons Ratio (y) = -0.12129 0.43805
# Poissons Ratio (z) = 0.58068 0.55058
#
# Static dielectric constant tensor:
#      x y z
#    x 2.091750 0.000000 -0.003780 
#    y 0.000000 2.119940 0.000000 
#    z -0.003780 0.000000 2.276840 
# 
# From -- ./inp_files/62149.got.cif
#   From: 2010.05.17/outbox.cif.g08.bks.cpg/sg13_32_cif.got.tgz:62149.got - 2010.06.03 16:44:36.
