data_PCOD9234807
_publ_section_title
;
Structure prediction by ZEFSAII (Michael W. Deem and Ramdas Pophale) SiO2 
 PCOD9234807
Probable space group: P 2/C
;
_chemical_formula_sum "Si O2"
_cell_formula_units_Z 20
_cell_length_a 7.954341
_cell_length_b 23.534258
_cell_length_c 8.706663
_cell_angle_alpha 90.000000
_cell_angle_beta 144.709618
_cell_angle_gamma 90.000000
_cell_volume 941.617053
_symmetry_space_group_name_H-M "P 2/C"
_symmetry_group_IT_number 13
_symmetry_cell_setting 'monoclinic'
loop_
_space_group_symop_operation_xyz
x,y,z
-x,y,1/2-z
-x,-y,-z
x,-y,1/2+z
loop_
_atom_site_type_symbol
_atom_site_label
_atom_site_fract_x
_atom_site_fract_y
_atom_site_fract_z
Si Si1 0.819850 0.847871 0.458026
Si Si2 0.337720 0.449842 0.469024
Si Si3 0.643837 0.669808 0.686891
Si Si4 0.134714 0.736783 0.180644
Si Si5 0.204901 0.037777 0.755860
O O1 0.500000 0.824188 0.250000
O O2 0.950669 0.797966 0.452570
O O3 0.757097 0.904264 0.310951
O O4 0.000000 0.858869 0.750000
O O5 0.500000 0.500000 0.500000
O O6 0.361828 0.391703 0.391785
O O7 0.000000 0.463575 0.250000
O O8 0.500000 0.441663 0.750000
O O9 0.500000 0.667371 0.750000
O O10 0.464092 0.716075 0.453210
O O11 0.971432 0.690933 0.954376
O O12 0.000000 0.735486 0.250000
O O13 0.000000 0.049902 0.750000
O O14 0.000000 0.000000 0.500000
O O15 0.500000 0.000000 0.000000
#
# Coordination Sequence:
#
# PCOD9234807 Si02
#       5
#     4   4   4   4   4
#     4  12  25  41  64  95 130 167 214 265 316 379
#     4  12  26  43  66  95 130 171 219 270 326 389
#     4  10  22  41  65  92 127 167 213 265 323 385
#     4  10  22  41  64  92 127 169 211 261 323 384
#     4  12  25  44  68  94 128 168 213 263 319 381
#
# _framework density 21.240058000000001
#
# number of rings (size 3 to 8) (size 9 to 14) (size 15 to 20)
#    0.000    0.800    0.000    7.800    0.000    7.200 
#    0.000    6.000    0.000    0.000    0.000    0.000 
#    0.000    0.000    0.000    0.000    0.000    0.000 
#
# Total GULP energy -111739.107857 kJ/mol
# GULP energy per Si atom -5586.955393 kJ/mol
# Density = 2.119171 g / cm^3
# Si number density = 21.240058 Si / 1000 Ang^3
#
#
#
# Elastic Constant Matrix: (Units=GPa)
#
#
# Indices 1 2 3 4 5 6 
#
# 1 60.4560 31.9350 51.3773 0.0000 -5.9132 0.0000
# 2 31.9350 153.0833 56.4438 0.0000 -25.7816 0.0000
# 3 51.3773 56.4438 180.2227 0.0000 -5.8160 0.0000
# 4 0.0000 0.0000 0.0000 40.6311 0.0000 -16.6603
# 5 -5.9132 -25.7816 -5.8160 0.0000 35.2322 0.0000
# 6 0.0000 0.0000 0.0000 -16.6603 0.0000 49.7557
#
#
#
# Elastic Compliance Matrix: (Units=1/GPa)
#
#
# Indices 1 2 3 4 5 6 
#
# 1 0.022786 -0.002476 -0.005686 0.000000 0.001074 0.000000
# 2 -0.002476 0.008671 -0.001828 0.000000 0.005628 0.000000
# 3 -0.005686 -0.001828 0.007709 0.000000 -0.001019 0.000000
# 4 0.000000 0.000000 0.000000 0.028529 0.000000 0.009553
# 5 0.001074 0.005628 -0.001019 0.000000 0.032513 0.000000
# 6 0.000000 0.000000 0.000000 0.009553 0.000000 0.023297
#
#
# Mechanical properties :
#
#
# Convention : Reuss Voigt Hill
#
# Bulk Modulus (GPa) = 52.12130 74.80826 63.46478
# Shear Modulus (GPa) = 33.36023 42.05754 37.70889
#
# Velocity S-wave (km/s) = 3.96741 4.45466 4.21808
# Velocity P-wave (km/s) = 6.75127 7.85847 7.32582
#
# Compressibility (1/GPa) = 0.01918601
#
# Stress axis : x y z
#
# Youngs Moduli (GPa) = 43.88711 115.33014 129.71626
#
# Poissons Ratio (x) = 0.28558 0.73750
# Poissons Ratio (y) = 0.10867 0.23713
# Poissons Ratio (z) = 0.24952 0.21083
#
# Static dielectric constant tensor:
#      x y z
#    x 1.101870 0.000000 -0.100910 
#    y 0.000000 1.719970 0.000000 
#    z -0.100910 0.000000 1.725040 
# 
# From -- ./inp_files/13838.got.cif
#   From: 2010.05.17/outbox.cif.g08.bks.cpg/sg13_7_cif.got.tgz:13838.got - 2010.06.03 16:44:36.
