data_PCOD9234114
_publ_section_title
;
Structure prediction by ZEFSAII (Michael W. Deem and Ramdas Pophale) SiO2 
 PCOD9234114
Probable space group: P 2/C
;
_chemical_formula_sum "Si O2"
_cell_formula_units_Z 30
_cell_length_a 7.751334
_cell_length_b 5.651371
_cell_length_c 31.964911
_cell_angle_alpha 90.000000
_cell_angle_beta 112.648328
_cell_angle_gamma 90.000000
_cell_volume 1292.265368
_symmetry_space_group_name_H-M "P 2/C"
_symmetry_group_IT_number 13
_symmetry_cell_setting 'monoclinic'
loop_
_space_group_symop_operation_xyz
x,y,z
-x,y,1/2-z
-x,-y,-z
x,-y,1/2+z
loop_
_atom_site_type_symbol
_atom_site_label
_atom_site_fract_x
_atom_site_fract_y
_atom_site_fract_z
Si Si1 0.279142 0.083971 0.284460
Si Si2 0.628003 0.234231 0.470014
Si Si3 0.427304 0.869487 0.624525
Si Si4 0.724570 0.265584 0.004543
Si Si5 0.974899 0.365524 0.396463
Si Si6 0.500000 0.699924 0.250000
Si Si7 0.735363 0.741088 0.344147
Si Si8 0.949851 0.871497 0.810577
O O1 0.429315 0.217022 0.326948
O O2 0.176295 0.233956 0.238732
O O3 0.119145 0.003988 0.301874
O O4 0.376495 0.871275 0.268539
O O5 0.514124 0.187639 0.416776
O O6 0.484268 0.250331 0.495239
O O7 0.728885 0.490906 0.477978
O O8 0.751264 0.994543 0.486613
O O9 0.221161 0.759711 0.609759
O O10 0.402619 0.145923 0.634346
O O11 0.870310 0.305888 0.055539
O O12 0.908135 0.633649 0.385402
O O13 0.027599 0.295672 0.353928
O O14 0.632155 0.585793 0.298397
O O15 0.820356 0.949410 0.323925
#
# Coordination Sequence:
#
# PCOD9234114 Si02
#       8
#     4   4   4   4   4   2   4   4
#     4   9  17  37  60  86 118 161 205 253 313 372
#     4  10  23  45  66  93 124 166 215 265 326 371
#     4  10  22  37  60  87 123 161 204 258 317 379
#     4  10  24  43  67  92 126 166 214 267 316 387
#     4  11  23  37  59  90 121 161 204 258 317 380
#     4   8  16  34  58  80 120 160 198 248 306 374
#     4   9  20  36  54  87 119 160 203 250 314 371
#     4   9  19  36  60  84 120 160 204 257 306 377
#
# _framework density 23.215046999999998
#
# number of rings (size 3 to 8) (size 9 to 14) (size 15 to 20)
#    0.000    2.400    0.000    1.600    5.600    2.133 
#    2.400    8.000    0.000    0.000    0.000    0.000 
#    0.000    0.000    0.000    0.000    0.000    0.000 
#
# Total GULP energy -167076.168479 kJ/mol
# GULP energy per Si atom -5569.205616 kJ/mol
# Density = 2.316221 g / cm^3
# Si number density = 23.215047 Si / 1000 Ang^3
#
#
#
# Elastic Constant Matrix: (Units=GPa)
#
#
# Indices 1 2 3 4 5 6 
#
# 1 32.9413 4.6849 5.5330 0.0000 1.0112 0.0000
# 2 4.6849 86.4430 59.5962 0.0000 5.3887 0.0000
# 3 5.5330 59.5962 134.4300 0.0000 26.8320 0.0000
# 4 0.0000 0.0000 0.0000 -381.4923 0.0000 -73.4216
# 5 1.0112 5.3887 26.8320 0.0000 42.4736 0.0000
# 6 0.0000 0.0000 0.0000 -73.4216 0.0000 -12.1431
#
#
#
# Elastic Compliance Matrix: (Units=1/GPa)
#
#
# Indices 1 2 3 4 5 6 
#
# 1 0.030647 -0.001153 -0.000725 0.000000 -0.000125 0.000000
# 2 -0.001153 0.017027 -0.008096 0.000000 0.002982 0.000000
# 3 -0.000725 -0.008096 0.012415 0.000000 -0.006798 0.000000
# 4 0.000000 0.000000 0.000000 0.016015 0.000000 -0.096833
# 5 -0.000125 0.002982 -0.006798 0.000000 0.027464 0.000000
# 6 0.000000 0.000000 0.000000 -0.096833 0.000000 0.503136
#
#
# Mechanical properties :
#
#
# Convention : Reuss Voigt Hill
#
# Bulk Modulus (GPa) = 24.91323 43.71584 34.31454
# Shear Modulus (GPa) = 7.81212 -57.96569 -25.07679
#
# Velocity S-wave (km/s) = 1.83641 -5.00232 -3.29020
# Velocity P-wave (km/s) = 3.90530 3.80691 0.61594
#
# Compressibility (1/GPa) = 0.04013931
#
# Stress axis : x y z
#
# Youngs Moduli (GPa) = 32.62998 58.73188 80.54924
#
# Poissons Ratio (x) = 0.06773 0.05841
# Poissons Ratio (y) = 0.03763 0.65213
# Poissons Ratio (z) = 0.02366 0.47549
#
# Static dielectric constant tensor:
#      x y z
#    x 1.877130 0.000000 0.057960 
#    y 0.000000 1.976500 0.000000 
#    z 0.057960 0.000000 1.822070 
# 
# From -- ./inp_files/95683.got.cif
#   From: 2010.05.17/outbox.cif.g08.bks.cpg/sg13_48_cif.got.tgz:95683.got - 2010.06.03 16:44:36.
