data_PCOD9234202
_publ_section_title
;
Structure prediction by ZEFSAII (Michael W. Deem and Ramdas Pophale) SiO2 
 PCOD9234202
Probable space group: P 2/C
;
_chemical_formula_sum "Si O2"
_cell_formula_units_Z 28
_cell_length_a 8.499177
_cell_length_b 6.119214
_cell_length_c 27.498058
_cell_angle_alpha 90.000000
_cell_angle_beta 120.868921
_cell_angle_gamma 90.000000
_cell_volume 1227.539797
_symmetry_space_group_name_H-M "P 2/C"
_symmetry_group_IT_number 13
_symmetry_cell_setting 'monoclinic'
loop_
_space_group_symop_operation_xyz
x,y,z
-x,y,1/2-z
-x,-y,-z
x,-y,1/2+z
loop_
_atom_site_type_symbol
_atom_site_label
_atom_site_fract_x
_atom_site_fract_y
_atom_site_fract_z
Si Si1 0.310261 0.367273 0.285474
Si Si2 0.000000 0.674090 0.250000
Si Si3 0.181192 0.147465 0.519187
Si Si4 0.500000 0.715894 0.250000
Si Si5 0.320349 0.427788 0.002242
Si Si6 0.500766 0.083627 0.395499
Si Si7 0.154793 0.999429 0.692929
Si Si8 0.193256 0.939665 0.420542
O O1 0.436879 0.551427 0.282025
O O2 0.417410 0.193131 0.334764
O O3 0.161690 0.509662 0.291369
O O4 0.207443 0.227161 0.227375
O O5 0.935640 0.834113 0.282334
O O6 0.191706 0.404232 0.511297
O O7 0.334043 0.087341 0.583271
O O8 0.255959 0.073864 0.477730
O O9 0.000000 0.000000 0.500000
O O10 0.662023 0.874355 0.292664
O O11 0.196212 0.303668 0.942519
O O12 0.500000 0.500000 0.000000
O O13 0.407298 0.271817 0.057090
O O14 0.336299 0.973877 0.399889
O O15 0.004535 0.977491 0.627419
#
# Coordination Sequence:
#
# PCOD9234202 Si02
#       8
#     4   2   4   2   4   4   4   4
#     4  11  24  42  66  94 134 170 223 278 335 401
#     4  10  22  38  60  98 120 166 218 270 328 398
#     4  11  25  41  63  97 133 173 223 276 339 404
#     4  10  26  46  64  94 136 182 222 266 352 422
#     4  11  21  41  67  92 135 173 221 283 336 402
#     4  11  23  40  67  97 126 173 225 275 337 402
#     4  11  24  42  66  94 134 170 223 278 335 401
#     4  11  23  40  67  97 126 173 225 275 337 402
#
# _framework density 22.809851999999999
#
# number of rings (size 3 to 8) (size 9 to 14) (size 15 to 20)
#    0.000    1.143    2.857    3.429    2.000   11.429 
#    0.000    0.000    0.000    0.000    0.000    0.000 
#    0.000    0.000    0.000    0.000    0.000    0.000 
#
# Total GULP energy -156434.552395 kJ/mol
# GULP energy per Si atom -5586.948300 kJ/mol
# Density = 2.275794 g / cm^3
# Si number density = 22.809852 Si / 1000 Ang^3
#
#
#
# Elastic Constant Matrix: (Units=GPa)
#
#
# Indices 1 2 3 4 5 6 
#
# 1 96.9341 27.4902 2.4513 0.0000 14.9488 0.0000
# 2 27.4902 84.1954 -6.1351 0.0000 3.3389 0.0000
# 3 2.4513 -6.1351 59.7564 0.0000 11.3823 0.0000
# 4 0.0000 0.0000 0.0000 28.3603 0.0000 3.0304
# 5 14.9488 3.3389 11.3823 0.0000 25.7983 0.0000
# 6 0.0000 0.0000 0.0000 3.0304 0.0000 50.0014
#
#
#
# Elastic Compliance Matrix: (Units=1/GPa)
#
#
# Indices 1 2 3 4 5 6 
#
# 1 0.012436 -0.003756 0.000419 0.000000 -0.006905 0.000000
# 2 -0.003756 0.013225 0.001554 0.000000 -0.000221 0.000000
# 3 0.000419 0.001554 0.018518 0.000000 -0.008614 0.000000
# 4 0.000000 0.000000 0.000000 0.035490 0.000000 -0.002151
# 5 -0.006905 -0.000221 -0.008614 0.000000 0.046592 0.000000
# 6 0.000000 0.000000 0.000000 -0.002151 0.000000 0.020130
#
#
# Mechanical properties :
#
#
# Convention : Reuss Voigt Hill
#
# Bulk Modulus (GPa) = 24.62206 32.05540 28.33873
# Shear Modulus (GPa) = 30.58208 35.30398 32.94303
#
# Velocity S-wave (km/s) = 3.66558 3.93842 3.80445
# Velocity P-wave (km/s) = 5.36034 5.89621 5.63465
#
# Compressibility (1/GPa) = 0.04061399
#
# Stress axis : x y z
#
# Youngs Moduli (GPa) = 80.41383 75.61179 54.00213
#
# Poissons Ratio (x) = 0.28399 -0.02265
# Poissons Ratio (y) = 0.30203 -0.08392
# Poissons Ratio (z) = -0.03373 -0.11750
#
# Static dielectric constant tensor:
#      x y z
#    x 1.937250 0.000000 0.003950 
#    y 0.000000 1.934070 0.000000 
#    z 0.003950 0.000000 1.831350 
# 
# From -- ./inp_files/95731.got.cif
#   From: 2010.05.17/outbox.cif.g08.bks.cpg/sg13_48_cif.got.tgz:95731.got - 2010.06.03 16:44:36.
