data_PCOD9234502
_publ_section_title
;
Structure prediction by ZEFSAII (Michael W. Deem and Ramdas Pophale) SiO2 
 PCOD9234502
Probable space group: P 2/C
;
_chemical_formula_sum "Si O2"
_cell_formula_units_Z 28
_cell_length_a 7.933217
_cell_length_b 19.273211
_cell_length_c 13.216574
_cell_angle_alpha 90.000000
_cell_angle_beta 139.380444
_cell_angle_gamma 90.000000
_cell_volume 1315.605031
_symmetry_space_group_name_H-M "P 2/C"
_symmetry_group_IT_number 13
_symmetry_cell_setting 'monoclinic'
loop_
_space_group_symop_operation_xyz
x,y,z
-x,y,1/2-z
-x,-y,-z
x,-y,1/2+z
loop_
_atom_site_type_symbol
_atom_site_label
_atom_site_fract_x
_atom_site_fract_y
_atom_site_fract_z
Si Si1 0.732177 0.618926 0.504746
Si Si2 0.274455 0.773400 0.008427
Si Si3 0.857860 0.759915 0.313183
Si Si4 0.000000 0.014625 0.750000
Si Si5 0.151052 0.111438 0.184530
Si Si6 0.859706 0.607519 0.338564
Si Si7 0.274476 0.875623 0.506144
Si Si8 0.000000 0.489590 0.250000
O O1 0.788265 0.697566 0.565099
O O2 0.892875 0.602807 0.474915
O O3 0.440506 0.615030 0.330766
O O4 0.776973 0.563355 0.612861
O O5 0.584352 0.781185 0.137524
O O6 0.215440 0.763125 0.101176
O O7 0.090370 0.838195 0.899340
O O8 0.962678 0.681817 0.347290
O O9 0.087024 0.812206 0.396081
O O10 0.786644 0.063351 0.600351
O O11 0.113286 0.963309 0.717270
O O12 0.422988 0.141976 0.348539
O O13 0.184978 0.103300 0.079276
O O14 0.958511 0.540668 0.325187
#
# Coordination Sequence:
#
# PCOD9234502 Si02
#       8
#     4   4   4   2   4   4   4   2
#     4   9  19  36  55  77 108 145 184 225 273 331
#     4   8  16  35  61  82 106 147 191 229 277 335
#     4   8  16  35  61  82 106 147 191 229 277 335
#     4  12  24  38  56  84 118 158 182 210 278 356
#     4  10  22  40  61  86 114 144 186 237 278 321
#     4   9  19  36  55  77 108 145 184 225 273 331
#     4  10  22  40  61  86 114 144 186 237 278 321
#     4  12  20  30  52  84 112 142 180 228 276 322
#
# _framework density 21.282983000000002
#
# number of rings (size 3 to 8) (size 9 to 14) (size 15 to 20)
#    0.000    2.571    0.000    3.429    0.000    3.429 
#    0.000    8.571    0.000    6.857    0.000    0.000 
#    0.000    0.000    0.000    0.000    0.000    0.000 
#
# Total GULP energy -156252.655638 kJ/mol
# GULP energy per Si atom -5580.451987 kJ/mol
# Density = 2.123454 g / cm^3
# Si number density = 21.282983 Si / 1000 Ang^3
#
#
#
# Elastic Constant Matrix: (Units=GPa)
#
#
# Indices 1 2 3 4 5 6 
#
# 1 55.1531 28.0091 8.8881 0.0000 -1.3440 0.0000
# 2 28.0091 155.8637 55.1589 0.0000 12.2341 0.0000
# 3 8.8881 55.1589 91.5664 0.0000 -0.2840 0.0000
# 4 0.0000 0.0000 0.0000 40.4957 0.0000 -3.3503
# 5 -1.3440 12.2341 -0.2840 0.0000 24.6064 0.0000
# 6 0.0000 0.0000 0.0000 -3.3503 0.0000 -1.4876
#
#
#
# Elastic Compliance Matrix: (Units=1/GPa)
#
#
# Indices 1 2 3 4 5 6 
#
# 1 0.020183 -0.004044 0.000487 0.000000 0.003119 0.000000
# 2 -0.004044 0.009403 -0.005287 0.000000 -0.004957 0.000000
# 3 0.000487 -0.005287 0.014067 0.000000 0.002818 0.000000
# 4 0.000000 0.000000 0.000000 0.020816 0.000000 -0.046879
# 5 0.003119 -0.004957 0.002818 0.000000 0.043307 0.000000
# 6 0.000000 0.000000 0.000000 -0.046879 0.000000 -0.566643
#
#
# Mechanical properties :
#
#
# Convention : Reuss Voigt Hill
#
# Bulk Modulus (GPa) = 38.51458 54.07725 46.29592
# Shear Modulus (GPa) = -11.56004 26.75803 7.59899
#
# Velocity S-wave (km/s) = -2.33311 3.54962 1.89161
# Velocity P-wave (km/s) = 3.29816 6.50104 5.15468
#
# Compressibility (1/GPa) = 0.02596419
#
# Stress axis : x y z
#
# Youngs Moduli (GPa) = 49.54772 106.35331 71.08661
#
# Poissons Ratio (x) = 0.43007 -0.03459
# Poissons Ratio (y) = 0.20036 0.37583
# Poissons Ratio (z) = -0.02411 0.56228
#
# Static dielectric constant tensor:
#      x y z
#    x 1.806310 0.000000 -0.009490 
#    y 0.000000 1.767320 0.000000 
#    z -0.009490 0.000000 1.969640 
# 
# From -- ./inp_files/48118.got.cif
#   From: 2010.05.17/outbox.cif.g08.bks.cpg/sg13_25_cif.got.tgz:48118.got - 2010.06.03 16:44:36.
