data_PCOD9234590
_publ_section_title
;
Structure prediction by ZEFSAII (Michael W. Deem and Ramdas Pophale) SiO2 
 PCOD9234590
Probable space group: P 2/C
;
_chemical_formula_sum "Si O2"
_cell_formula_units_Z 16
_cell_length_a 8.359198
_cell_length_b 13.407056
_cell_length_c 8.931402
_cell_angle_alpha 90.000000
_cell_angle_beta 133.281241
_cell_angle_gamma 90.000000
_cell_volume 728.697732
_symmetry_space_group_name_H-M "P 2/C"
_symmetry_group_IT_number 13
_symmetry_cell_setting 'monoclinic'
loop_
_space_group_symop_operation_xyz
x,y,z
-x,y,1/2-z
-x,-y,-z
x,-y,1/2+z
loop_
_atom_site_type_symbol
_atom_site_label
_atom_site_fract_x
_atom_site_fract_y
_atom_site_fract_z
Si Si1 0.598548 0.391295 0.593143
Si Si2 0.000000 0.021592 0.750000
Si Si3 0.130011 0.142504 0.123513
Si Si4 0.500000 0.720224 0.750000
Si Si5 0.169090 0.674650 0.982384
O O1 0.500000 0.500000 0.500000
O O2 0.639986 0.344620 0.457155
O O3 0.794463 0.385269 0.839338
O O4 0.401920 0.329508 0.547270
O O5 0.903702 0.090163 0.558246
O O6 0.842584 0.944905 0.737647
O O7 0.338838 0.211619 0.241298
O O8 0.927033 0.216187 0.035823
O O9 0.000000 0.632254 0.750000
#
# Coordination Sequence:
#
# PCOD9234590 Si02
#       5
#     4   2   4   2   4
#     4  11  25  43  67  99 133 170 228 274 321 405
#     4  10  22  40  64  92 134 170 232 266 330 402
#     4  11  22  41  64  96 130 180 214 278 333 394
#     4  12  22  42  64  98 136 170 228 274 344 382
#     4  11  22  46  67  92 135 181 209 271 339 386
#
# _framework density 21.956979
#
# number of rings (size 3 to 8) (size 9 to 14) (size 15 to 20)
#    0.000    1.000    3.750    3.000    0.000    2.000 
#    4.500   10.000    0.000    0.000    0.000    0.000 
#    0.000    0.000    0.000    0.000    0.000    0.000 
#
# Total GULP energy -89285.370178 kJ/mol
# GULP energy per Si atom -5580.335636 kJ/mol
# Density = 2.190700 g / cm^3
# Si number density = 21.956979 Si / 1000 Ang^3
#
#
#
# Elastic Constant Matrix: (Units=GPa)
#
#
# Indices 1 2 3 4 5 6 
#
# 1 53.8874 28.3397 23.0569 0.0000 -12.8376 0.0000
# 2 28.3397 120.4857 58.7663 0.0000 -16.7516 0.0000
# 3 23.0569 58.7663 185.5861 0.0000 -40.2317 0.0000
# 4 0.0000 0.0000 0.0000 21.2046 0.0000 -6.0553
# 5 -12.8376 -16.7516 -40.2317 0.0000 36.9968 0.0000
# 6 0.0000 0.0000 0.0000 -6.0553 0.0000 5.1447
#
#
#
# Elastic Compliance Matrix: (Units=1/GPa)
#
#
# Indices 1 2 3 4 5 6 
#
# 1 0.022257 -0.004378 -0.000176 0.000000 0.005549 0.000000
# 2 -0.004378 0.010732 -0.002787 0.000000 0.000309 0.000000
# 3 -0.000176 -0.002787 0.007859 0.000000 0.007223 0.000000
# 4 0.000000 0.000000 0.000000 0.071035 0.000000 0.083608
# 5 0.005549 0.000309 0.007223 0.000000 0.036949 0.000000
# 6 0.000000 0.000000 0.000000 0.083608 0.000000 0.292780
#
#
# Mechanical properties :
#
#
# Convention : Reuss Voigt Hill
#
# Bulk Modulus (GPa) = 38.21868 64.47613 51.34740
# Shear Modulus (GPa) = 10.75234 29.32232 20.03733
#
# Velocity S-wave (km/s) = 2.21532 3.65834 3.02416
# Velocity P-wave (km/s) = 4.89770 6.87554 5.96911
#
# Compressibility (1/GPa) = 0.02616521
#
# Stress axis : x y z
#
# Youngs Moduli (GPa) = 44.93011 93.17973 127.25009
#
# Poissons Ratio (x) = 0.40791 0.02239
# Poissons Ratio (y) = 0.19669 0.35470
# Poissons Ratio (z) = 0.00790 0.25973
#
# Static dielectric constant tensor:
#      x y z
#    x 1.826130 0.000000 -0.031660 
#    y 0.000000 1.787120 0.000000 
#    z -0.031660 0.000000 1.821640 
# 
# From -- ./inp_files/11530.got.cif
#   From: 2010.05.17/outbox.cif.g08.bks.cpg/sg13_6_cif.got.tgz:11530.got - 2010.06.03 16:44:36.
