data_PCOD9234027
_publ_section_title
;
Structure prediction by ZEFSAII (Michael W. Deem and Ramdas Pophale) SiO2 
 PCOD9234027
Probable space group: P 2/C
;
_chemical_formula_sum "Si O2"
_cell_formula_units_Z 26
_cell_length_a 21.565914
_cell_length_b 6.630981
_cell_length_c 7.864807
_cell_angle_alpha 90.000000
_cell_angle_beta 106.642629
_cell_angle_gamma 90.000000
_cell_volume 1077.578662
_symmetry_space_group_name_H-M "P 2/C"
_symmetry_group_IT_number 13
_symmetry_cell_setting 'monoclinic'
loop_
_space_group_symop_operation_xyz
x,y,z
-x,y,1/2-z
-x,-y,-z
x,-y,1/2+z
loop_
_atom_site_type_symbol
_atom_site_label
_atom_site_fract_x
_atom_site_fract_y
_atom_site_fract_z
Si Si1 0.433551 0.822608 0.161396
Si Si2 0.293080 0.829735 0.036470
Si Si3 0.290179 0.563164 0.696083
Si Si4 0.000000 0.134288 0.250000
Si Si5 0.095190 0.116707 0.585654
Si Si6 0.186439 0.828586 0.441846
Si Si7 0.433754 0.598394 0.799062
O O1 0.500000 0.937940 0.250000
O O2 0.433973 0.646746 0.304565
O O3 0.364238 0.926746 0.111865
O O4 0.435706 0.711229 0.980446
O O5 0.292483 0.672436 0.879719
O O6 0.284695 0.679385 0.189697
O O7 0.238707 0.992148 0.958591
O O8 0.227568 0.650221 0.553848
O O9 0.360420 0.622955 0.670222
O O10 0.052521 0.239427 0.414469
O O11 0.044217 0.990971 0.168999
O O12 0.134786 0.935608 0.526478
O O13 0.146865 0.230602 0.742660
O O14 0.500000 0.641077 0.750000
#
# Coordination Sequence:
#
# PCOD9234027 Si02
#       7
#     4   4   4   2   4   4   4
#     4   9  16  29  47  70  99 140 190 237 281 329
#     4  10  22  36  54  81 115 151 191 236 287 337
#     4  10  22  36  54  81 115 151 191 236 287 337
#     4   8  16  34  56  94 112 142 194 220 262 322
#     4   9  18  32  60  86 119 144 184 230 263 330
#     4  11  20  37  55  88 119 148 186 226 283 334
#     4   9  16  29  47  70  99 140 190 237 281 329
#
# _framework density 24.128167999999999
#
# number of rings (size 3 to 8) (size 9 to 14) (size 15 to 20)
#    0.000    2.462    1.538    1.846    2.154    1.231 
#    0.000    0.769    0.000    3.692    0.000   75.385 
#    0.000    0.000    0.000    0.000    0.000    0.000 
#
# Total GULP energy -145059.285973 kJ/mol
# GULP energy per Si atom -5579.203307 kJ/mol
# Density = 2.407325 g / cm^3
# Si number density = 24.128168 Si / 1000 Ang^3
#
#
#
# Elastic Constant Matrix: (Units=GPa)
#
#
# Indices 1 2 3 4 5 6 
#
# 1 152.5814 13.8033 50.3880 0.0000 29.5900 0.0000
# 2 13.8033 54.1351 4.9708 0.0000 8.4263 0.0000
# 3 50.3880 4.9708 134.7520 0.0000 52.6487 0.0000
# 4 0.0000 0.0000 0.0000 4.6934 0.0000 0.3917
# 5 29.5900 8.4263 52.6487 0.0000 49.1021 0.0000
# 6 0.0000 0.0000 0.0000 0.3917 0.0000 8.1795
#
#
#
# Elastic Compliance Matrix: (Units=1/GPa)
#
#
# Indices 1 2 3 4 5 6 
#
# 1 0.007781 -0.001437 -0.001929 0.000000 -0.002374 0.000000
# 2 -0.001437 0.019321 0.001345 0.000000 -0.003892 0.000000
# 3 -0.001929 0.001345 0.013301 0.000000 -0.013330 0.000000
# 4 0.000000 0.000000 0.000000 0.213918 0.000000 -0.010243
# 5 -0.002374 -0.003892 -0.013330 0.000000 0.036757 0.000000
# 6 0.000000 0.000000 0.000000 -0.010243 0.000000 0.122747
#
#
# Mechanical properties :
#
#
# Convention : Reuss Voigt Hill
#
# Bulk Modulus (GPa) = 27.50185 53.31031 40.40608
# Shear Modulus (GPa) = 11.62822 30.54877 21.08850
#
# Velocity S-wave (km/s) = 2.19768 3.56210 2.95959
# Velocity P-wave (km/s) = 4.22643 6.24985 5.33495
#
# Compressibility (1/GPa) = 0.03636119
#
# Stress axis : x y z
#
# Youngs Moduli (GPa) = 128.51180 51.75694 75.18302
#
# Poissons Ratio (x) = 0.07440 0.14503
# Poissons Ratio (y) = 0.18472 -0.10115
# Poissons Ratio (z) = 0.24791 -0.06963
#
# Static dielectric constant tensor:
#      x y z
#    x 1.974030 0.000000 -0.031120 
#    y 0.000000 1.881760 0.000000 
#    z -0.031120 0.000000 2.023710 
# 
# From -- ./inp_files/22587.got.cif
#   From: 2010.05.17/outbox.cif.g08.bks.cpg/sg13_12_cif.got.tgz:22587.got - 2010.06.03 16:44:36.
