data_PCOD9234584
_publ_section_title
;
Structure prediction by ZEFSAII (Michael W. Deem and Ramdas Pophale) SiO2 
 PCOD9234584
Probable space group: P 2/C
;
_chemical_formula_sum "Si O2"
_cell_formula_units_Z 22
_cell_length_a 17.308619
_cell_length_b 6.581782
_cell_length_c 28.005375
_cell_angle_alpha 90.000000
_cell_angle_beta 19.906838
_cell_angle_gamma 90.000000
_cell_volume 1086.310356
_symmetry_space_group_name_H-M "P 2/C"
_symmetry_group_IT_number 13
_symmetry_cell_setting 'monoclinic'
loop_
_space_group_symop_operation_xyz
x,y,z
-x,y,1/2-z
-x,-y,-z
x,-y,1/2+z
loop_
_atom_site_type_symbol
_atom_site_label
_atom_site_fract_x
_atom_site_fract_y
_atom_site_fract_z
Si Si1 0.368796 0.165325 0.544491
Si Si2 0.089442 0.568328 0.039653
Si Si3 0.972560 0.156328 0.838242
Si Si4 0.500000 0.349991 0.750000
Si Si5 0.221178 0.809124 0.754355
Si Si6 0.194399 0.103457 0.854940
O O1 0.206850 0.080702 0.596624
O O2 0.568075 0.273840 0.399273
O O3 0.184997 0.263626 0.687102
O O4 0.500000 0.000000 0.500000
O O5 0.137537 0.687456 0.060814
O O6 0.940245 0.370929 0.136456
O O7 0.935924 0.719833 0.097834
O O8 0.311430 0.493016 0.883464
O O9 0.078254 0.967601 0.805224
O O10 0.383353 0.205613 0.778344
O O11 0.289734 0.940841 0.761240
O O12 0.000000 0.000000 0.000000
#
# Coordination Sequence:
#
# PCOD9234584 Si02
#       6
#     4   4   4   2   4   4
#     4   9  19  39  66  91 127 166 207 264 320 384
#     4  11  25  42  62  98 126 168 222 263 321 398
#     4   9  21  41  62  93 127 166 211 258 324 382
#     4  12  26  42  68  94 128 178 214 278 332 380
#     4  10  22  40  64  90 127 167 210 269 315 387
#     4  11  25  44  62  94 133 167 220 267 331 392
#
# _framework density 20.252040999999998
#
# number of rings (size 3 to 8) (size 9 to 14) (size 15 to 20)
#    0.000    1.818    1.818    0.545    5.091    1.455 
#    0.000    7.273    0.000    0.000    0.000    0.000 
#    0.000    0.000    0.000    0.000    0.000    0.000 
#
# Total GULP energy -122762.520412 kJ/mol
# GULP energy per Si atom -5580.114564 kJ/mol
# Density = 2.020595 g / cm^3
# Si number density = 20.252041 Si / 1000 Ang^3
#
#
#
# Elastic Constant Matrix: (Units=GPa)
#
#
# Indices 1 2 3 4 5 6 
#
# 1 135.3398 37.5067 31.6679 0.0000 -7.3041 0.0000
# 2 37.5067 73.9701 35.6758 0.0000 9.9050 0.0000
# 3 31.6679 35.6758 116.8798 0.0000 16.8058 0.0000
# 4 0.0000 0.0000 0.0000 -3.3110 0.0000 -5.0846
# 5 -7.3041 9.9050 16.8058 0.0000 33.5088 0.0000
# 6 0.0000 0.0000 0.0000 -5.0846 0.0000 14.0896
#
#
#
# Elastic Compliance Matrix: (Units=1/GPa)
#
#
# Indices 1 2 3 4 5 6 
#
# 1 0.009248 -0.004400 -0.001767 0.000000 0.004203 0.000000
# 2 -0.004400 0.018132 -0.003701 0.000000 -0.004463 0.000000
# 3 -0.001767 -0.003701 0.010844 0.000000 -0.004730 0.000000
# 4 0.000000 0.000000 0.000000 -0.194329 0.000000 -0.070128
# 5 0.004203 -0.004463 -0.004730 0.000000 0.034450 0.000000
# 6 0.000000 0.000000 0.000000 -0.070128 0.000000 0.045667
#
#
# Mechanical properties :
#
#
# Convention : Reuss Voigt Hill
#
# Bulk Modulus (GPa) = 54.08472 59.54336 56.81404
# Shear Modulus (GPa) = -99.82602 23.61344 -38.10629
#
# Velocity S-wave (km/s) = -7.02843 3.41835 -4.34245
# Velocity P-wave (km/s) = 6.25311 6.71157 1.72392
#
# Compressibility (1/GPa) = 0.01848951
#
# Stress axis : x y z
#
# Youngs Moduli (GPa) = 108.12604 55.14963 92.21415
#
# Poissons Ratio (x) = 0.24266 0.16295
# Poissons Ratio (y) = 0.47575 0.34127
# Poissons Ratio (z) = 0.19107 0.20410
#
# Static dielectric constant tensor:
#      x y z
#    x 1.742410 0.000000 0.022610 
#    y 0.000000 1.670630 0.000000 
#    z 0.022610 0.000000 1.745660 
# 
# From -- ./inp_files/42577.got.cif
#   From: 2010.05.17/outbox.cif.g08.bks.cpg/sg13_22_cif.got.tgz:42577.got - 2010.06.03 16:44:36.
