data_PCOD9234925
_publ_section_title
;
Structure prediction by ZEFSAII (Michael W. Deem and Ramdas Pophale) SiO2 
 PCOD9234925
Probable space group: P 2/C
;
_chemical_formula_sum "Si O2"
_cell_formula_units_Z 24
_cell_length_a 8.480293
_cell_length_b 9.323285
_cell_length_c 18.129642
_cell_angle_alpha 90.000000
_cell_angle_beta 131.872253
_cell_angle_gamma 90.000000
_cell_volume 1067.363675
_symmetry_space_group_name_H-M "P 2/C"
_symmetry_group_IT_number 13
_symmetry_cell_setting 'monoclinic'
loop_
_space_group_symop_operation_xyz
x,y,z
-x,y,1/2-z
-x,-y,-z
x,-y,1/2+z
loop_
_atom_site_type_symbol
_atom_site_label
_atom_site_fract_x
_atom_site_fract_y
_atom_site_fract_z
Si Si1 0.524872 0.966912 0.887333
Si Si2 0.700423 0.656580 0.896329
Si Si3 0.000000 0.221791 0.250000
Si Si4 0.843951 0.003347 0.605833
Si Si5 0.950290 0.301798 0.870329
Si Si6 0.500000 0.819178 0.250000
Si Si7 0.737428 0.436954 0.241039
O O1 0.459083 0.077137 0.805329
O O2 0.586231 0.811061 0.874254
O O3 0.342354 0.976351 0.892396
O O4 0.739987 0.019270 0.994234
O O5 0.512604 0.539877 0.848699
O O6 0.763628 0.635378 0.830728
O O7 0.889063 0.648730 0.014693
O O8 0.004783 0.118612 0.180871
O O9 0.806958 0.330071 0.198213
O O10 0.944391 0.161548 0.634719
O O11 0.718871 0.263931 0.830744
O O12 0.887463 0.425575 0.793372
#
# Coordination Sequence:
#
# PCOD9234925 Si02
#       7
#     4   4   2   4   4   2   4
#     4  10  22  41  70 100 133 181 225 295 331 413
#     4  10  22  45  70  96 141 179 236 278 346 408
#     4  12  24  40  70 100 128 186 224 284 334 412
#     4  10  23  43  66 100 138 177 229 279 351 399
#     4  11  26  43  69 101 140 182 223 295 337 415
#     4  12  24  38  68 108 134 178 236 278 362 386
#     4  11  24  43  68  98 137 182 231 274 347 407
#
# _framework density 22.485308
#
# number of rings (size 3 to 8) (size 9 to 14) (size 15 to 20)
#    0.000    1.333    1.667    3.500    4.667    3.333 
#    0.000    0.833    0.000    0.000    0.000    0.000 
#    0.000    0.000    0.000    0.000    0.000    0.000 
#
# Total GULP energy -133961.356308 kJ/mol
# GULP energy per Si atom -5581.723179 kJ/mol
# Density = 2.243413 g / cm^3
# Si number density = 22.485308 Si / 1000 Ang^3
#
#
#
# Elastic Constant Matrix: (Units=GPa)
#
#
# Indices 1 2 3 4 5 6 
#
# 1 54.3525 30.3809 13.0758 0.0000 6.4938 0.0000
# 2 30.3809 94.0352 43.0756 0.0000 11.3226 0.0000
# 3 13.0758 43.0756 121.9430 0.0000 28.8700 0.0000
# 4 0.0000 0.0000 0.0000 27.0027 0.0000 -3.9735
# 5 6.4938 11.3226 28.8700 0.0000 29.5161 0.0000
# 6 0.0000 0.0000 0.0000 -3.9735 0.0000 33.7002
#
#
#
# Elastic Compliance Matrix: (Units=1/GPa)
#
#
# Indices 1 2 3 4 5 6 
#
# 1 0.022663 -0.007364 0.000889 0.000000 -0.003030 0.000000
# 2 -0.007364 0.015089 -0.004625 0.000000 0.000355 0.000000
# 3 0.000889 -0.004625 0.012187 0.000000 -0.010342 0.000000
# 4 0.000000 0.000000 0.000000 0.037687 0.000000 0.004444
# 5 -0.003030 0.000355 -0.010342 0.000000 0.044526 0.000000
# 6 0.000000 0.000000 0.000000 0.004444 0.000000 0.030197
#
#
# Mechanical properties :
#
#
# Convention : Reuss Voigt Hill
#
# Bulk Modulus (GPa) = 36.05000 49.26615 42.65807
# Shear Modulus (GPa) = 25.80025 30.29704 28.04865
#
# Velocity S-wave (km/s) = 3.39104 3.67470 3.53572
# Velocity P-wave (km/s) = 5.60355 6.32159 5.97337
#
# Compressibility (1/GPa) = 0.02773925
#
# Stress axis : x y z
#
# Youngs Moduli (GPa) = 44.12490 66.27256 82.05216
#
# Poissons Ratio (x) = 0.48804 -0.07292
# Poissons Ratio (y) = 0.32494 0.37946
# Poissons Ratio (z) = -0.03921 0.30649
#
# Static dielectric constant tensor:
#      x y z
#    x 1.860060 0.000000 0.040290 
#    y 0.000000 1.873690 0.000000 
#    z 0.040290 0.000000 1.855770 
# 
# From -- ./inp_files/75800.got.cif
#   From: 2010.05.17/outbox.cif.g08.bks.cpg/sg13_38_cif.got.tgz:75800.got - 2010.06.03 16:44:36.
