data_PCOD9234876
_publ_section_title
;
Structure prediction by ZEFSAII (Michael W. Deem and Ramdas Pophale) SiO2 
 PCOD9234876
Probable space group: P 2/C
;
_chemical_formula_sum "Si O2"
_cell_formula_units_Z 32
_cell_length_a 17.399239
_cell_length_b 5.122470
_cell_length_c 15.551212
_cell_angle_alpha 90.000000
_cell_angle_beta 89.903116
_cell_angle_gamma 90.000000
_cell_volume 1386.032131
_symmetry_space_group_name_H-M "P 2/C"
_symmetry_group_IT_number 13
_symmetry_cell_setting 'monoclinic'
loop_
_space_group_symop_operation_xyz
x,y,z
-x,y,1/2-z
-x,-y,-z
x,-y,1/2+z
loop_
_atom_site_type_symbol
_atom_site_label
_atom_site_fract_x
_atom_site_fract_y
_atom_site_fract_z
Si Si1 0.910968 0.613883 0.091371
Si Si2 0.776172 0.430029 0.509088
Si Si3 0.143697 0.201676 0.590987
Si Si4 0.995331 0.864834 0.854724
Si Si5 0.333944 0.598028 0.335629
Si Si6 0.814605 0.532290 0.753679
Si Si7 0.723524 0.897739 0.855522
Si Si8 0.410987 0.912616 0.769443
O O1 0.836009 0.777577 0.047848
O O2 0.863990 0.476421 0.169390
O O3 0.980489 0.390467 0.089771
O O4 0.956634 0.874499 0.122824
O O5 0.851867 0.621924 0.494610
O O6 0.710779 0.485034 0.578211
O O7 0.734018 0.336383 0.423690
O O8 0.136857 0.401269 0.670819
O O9 0.088137 0.963515 0.610188
O O10 0.233990 0.124607 0.594242
O O11 0.000000 0.824153 0.750000
O O12 0.265176 0.618637 0.265923
O O13 0.378129 0.870550 0.334910
O O14 0.391348 0.371959 0.306057
O O15 0.781469 0.814443 0.778654
O O16 0.640114 0.937826 0.817444
O O17 0.500000 0.948339 0.750000
#
# Coordination Sequence:
#
# PCOD9234876 Si02
#       8
#     4   4   4   4   4   4   4   4
#     4  11  25  41  61  92 127 171 229 280 339 379
#     4  10  26  41  66  94 135 180 216 273 329 397
#     4  11  22  39  62  89 126 176 221 273 330 391
#     4  12  25  39  63  90 128 172 230 290 332 375
#     4  10  22  42  68  99 131 171 220 263 322 395
#     4   9  19  38  62  89 118 173 225 275 312 385
#     4  10  22  41  67  93 131 171 223 263 328 396
#     4  11  23  44  74 104 132 168 215 270 323 394
#
# _framework density 23.087486999999999
#
# number of rings (size 3 to 8) (size 9 to 14) (size 15 to 20)
#    0.000    1.500    2.500    1.500    7.000    3.000 
#    0.000    1.250    0.000    0.000    0.000    0.000 
#    0.000    0.000    0.000    0.000    0.000    0.000 
#
# Total GULP energy -178188.951439 kJ/mol
# GULP energy per Si atom -5568.404732 kJ/mol
# Density = 2.303494 g / cm^3
# Si number density = 23.087487 Si / 1000 Ang^3
#
#
#
# Elastic Constant Matrix: (Units=GPa)
#
#
# Indices 1 2 3 4 5 6 
#
# 1 148.5175 29.2791 62.8408 0.0000 11.0003 0.0000
# 2 29.2791 117.4099 50.7563 0.0000 11.8510 0.0000
# 3 62.8408 50.7563 148.1810 0.0000 8.4622 0.0000
# 4 0.0000 0.0000 0.0000 56.5490 0.0000 19.6471
# 5 11.0003 11.8510 8.4622 0.0000 32.0055 0.0000
# 6 0.0000 0.0000 0.0000 19.6471 0.0000 33.3136
#
#
#
# Elastic Compliance Matrix: (Units=1/GPa)
#
#
# Indices 1 2 3 4 5 6 
#
# 1 0.008347 -0.000484 -0.003270 0.000000 -0.001825 0.000000
# 2 -0.000484 0.010286 -0.003158 0.000000 -0.002808 0.000000
# 3 -0.003270 -0.003158 0.009225 0.000000 -0.000146 0.000000
# 4 0.000000 0.000000 0.000000 0.022241 0.000000 -0.013117
# 5 -0.001825 -0.002808 -0.000146 0.000000 0.032950 0.000000
# 6 0.000000 0.000000 0.000000 -0.013117 0.000000 0.037754
#
#
# Mechanical properties :
#
#
# Convention : Reuss Voigt Hill
#
# Bulk Modulus (GPa) = 71.24713 77.76230 74.50472
# Shear Modulus (GPa) = 35.89224 42.45576 39.17400
#
# Velocity S-wave (km/s) = 3.94714 4.29290 4.12365
# Velocity P-wave (km/s) = 7.19026 7.63719 7.41709
#
# Compressibility (1/GPa) = 0.01403565
#
# Stress axis : x y z
#
# Youngs Moduli (GPa) = 119.79783 97.21617 108.39796
#
# Poissons Ratio (x) = 0.04703 0.35447
# Poissons Ratio (y) = 0.05795 0.34231
# Poissons Ratio (z) = 0.39174 0.30700
#
# Static dielectric constant tensor:
#      x y z
#    x 1.797200 0.000000 -0.154310 
#    y 0.000000 3.072190 0.000000 
#    z -0.154310 0.000000 1.352390 
# 
# From -- ./inp_files/67574.got.cif
#   From: 2010.05.17/outbox.cif.g08.bks.cpg/sg13_34_cif.got.tgz:67574.got - 2010.06.03 16:44:36.
