data_PCOD9234269
_publ_section_title
;
Structure prediction by ZEFSAII (Michael W. Deem and Ramdas Pophale) SiO2 
 PCOD9234269
Probable space group: P 2/C
;
_chemical_formula_sum "Si O2"
_cell_formula_units_Z 32
_cell_length_a 20.713930
_cell_length_b 5.468785
_cell_length_c 17.158721
_cell_angle_alpha 90.000000
_cell_angle_beta 133.253866
_cell_angle_gamma 90.000000
_cell_volume 1415.674231
_symmetry_space_group_name_H-M "P 2/C"
_symmetry_group_IT_number 13
_symmetry_cell_setting 'monoclinic'
loop_
_space_group_symop_operation_xyz
x,y,z
-x,y,1/2-z
-x,-y,-z
x,-y,1/2+z
loop_
_atom_site_type_symbol
_atom_site_label
_atom_site_fract_x
_atom_site_fract_y
_atom_site_fract_z
Si Si1 0.066271 0.518725 0.479252
Si Si2 0.994797 0.973119 0.652322
Si Si3 0.198680 0.107443 0.295555
Si Si4 0.586808 0.444026 0.281016
Si Si5 0.496790 0.277971 0.932709
Si Si6 0.339059 0.643567 0.005731
Si Si7 0.340417 0.243881 0.890276
Si Si8 0.261754 0.629027 0.700308
O O1 0.054822 0.270998 0.419058
O O2 0.169551 0.536712 0.587998
O O3 0.000000 0.500000 0.500000
O O4 0.040633 0.771733 0.413321
O O5 0.000000 0.990045 0.750000
O O6 0.095532 0.924801 0.709671
O O7 0.241201 0.291410 0.394501
O O8 0.233028 0.166057 0.237480
O O9 0.251672 0.863829 0.354214
O O10 0.500000 0.323030 0.250000
O O11 0.543560 0.616802 0.180444
O O12 0.641092 0.607996 0.388225
O O13 0.663422 0.293526 0.299931
O O14 0.420246 0.113008 0.908653
O O15 0.500000 0.500000 0.000000
O O16 0.591418 0.175831 0.980293
O O17 0.372099 0.396842 0.991272
O O18 0.304457 0.428237 0.793278
#
# Coordination Sequence:
#
# PCOD9234269 Si02
#       8
#     4   4   4   4   4   4   4   4
#     4  12  25  48  77 106 141 191 247 299 361 438
#     4  12  29  47  71 105 150 186 236 306 372 432
#     4  11  23  39  62  92 127 171 226 279 352 420
#     4   9  18  36  62  92 129 170 219 277 342 413
#     4   8  15  33  58  85 118 163 211 266 329 398
#     4   9  19  34  57  87 122 167 210 264 338 407
#     4   9  19  36  59  85 124 163 212 272 334 405
#     4  10  22  38  66  94 126 176 230 283 341 420
#
# _framework density 22.604071999999999
#
# number of rings (size 3 to 8) (size 9 to 14) (size 15 to 20)
#    0.000    2.000    1.250    2.250    5.250    1.500 
#    0.000    2.500    0.000    9.750    0.000    0.000 
#    0.000    0.000    0.000    0.000    0.000    0.000 
#
# Total GULP energy -178182.871668 kJ/mol
# GULP energy per Si atom -5568.214740 kJ/mol
# Density = 2.255262 g / cm^3
# Si number density = 22.604072 Si / 1000 Ang^3
#
#
#
# Elastic Constant Matrix: (Units=GPa)
#
#
# Indices 1 2 3 4 5 6 
#
# 1 94.3074 5.5326 32.2225 0.0000 3.9351 0.0000
# 2 5.5326 61.4270 29.0404 0.0000 -14.5684 0.0000
# 3 32.2225 29.0404 135.9812 0.0000 -9.6894 0.0000
# 4 0.0000 0.0000 0.0000 11.3805 0.0000 -0.7768
# 5 3.9351 -14.5684 -9.6894 0.0000 45.6630 0.0000
# 6 0.0000 0.0000 0.0000 -0.7768 0.0000 6.6377
#
#
#
# Elastic Compliance Matrix: (Units=1/GPa)
#
#
# Indices 1 2 3 4 5 6 
#
# 1 0.011654 -0.000086 -0.002860 0.000000 -0.001639 0.000000
# 2 -0.000086 0.019324 -0.003723 0.000000 0.005383 0.000000
# 3 -0.002860 -0.003723 0.008894 0.000000 0.000946 0.000000
# 4 0.000000 0.000000 0.000000 0.088577 0.000000 0.010366
# 5 -0.001639 0.005383 0.000946 0.000000 0.023959 0.000000
# 6 0.000000 0.000000 0.000000 0.010366 0.000000 0.151868
#
#
# Mechanical properties :
#
#
# Convention : Reuss Voigt Hill
#
# Bulk Modulus (GPa) = 37.68738 47.25628 42.47183
# Shear Modulus (GPa) = 15.31585 27.73090 21.52338
#
# Velocity S-wave (km/s) = 2.60584 3.50638 3.08911
# Velocity P-wave (km/s) = 5.07572 6.11101 5.61727
#
# Compressibility (1/GPa) = 0.02653408
#
# Stress axis : x y z
#
# Youngs Moduli (GPa) = 85.80572 51.74951 112.43369
#
# Poissons Ratio (x) = 0.00446 0.32156
# Poissons Ratio (y) = 0.00740 0.41858
# Poissons Ratio (z) = 0.24540 0.19266
#
# Static dielectric constant tensor:
#      x y z
#    x 3.079270 0.000000 1.459600 
#    y 0.000000 2.023810 0.000000 
#    z 1.459600 0.000000 3.581900 
# 
# From -- ./inp_files/70305.got.cif
#   From: 2010.05.17/outbox.cif.g08.bks.cpg/sg13_36_cif.got.tgz:70305.got - 2010.06.03 16:44:36.
