data_PCOD9234687
_publ_section_title
;
Structure prediction by ZEFSAII (Michael W. Deem and Ramdas Pophale) SiO2 
 PCOD9234687
Probable space group: P 2/C
;
_chemical_formula_sum "Si O2"
_cell_formula_units_Z 18
_cell_length_a 10.729342
_cell_length_b 11.049261
_cell_length_c 14.014028
_cell_angle_alpha 90.000000
_cell_angle_beta 32.073189
_cell_angle_gamma 90.000000
_cell_volume 882.196958
_symmetry_space_group_name_H-M "P 2/C"
_symmetry_group_IT_number 13
_symmetry_cell_setting 'monoclinic'
loop_
_space_group_symop_operation_xyz
x,y,z
-x,y,1/2-z
-x,-y,-z
x,-y,1/2+z
loop_
_atom_site_type_symbol
_atom_site_label
_atom_site_fract_x
_atom_site_fract_y
_atom_site_fract_z
Si Si1 0.782722 0.768585 0.828453
Si Si2 0.775155 0.545270 0.708767
Si Si3 0.500000 0.273009 0.250000
Si Si4 0.091943 0.864602 0.949532
Si Si5 0.381240 0.289607 0.723107
O O1 0.836133 0.629679 0.759131
O O2 0.773050 0.842018 0.737305
O O3 0.000000 0.810937 0.750000
O O4 0.555269 0.780977 0.040884
O O5 0.599838 0.632471 0.763349
O O6 0.651553 0.418441 0.807229
O O7 0.000000 0.500000 0.500000
O O8 0.722982 0.182852 0.090953
O O9 0.865373 0.777495 0.102466
O O10 0.000000 0.000000 0.000000
O O11 0.500000 0.307257 0.750000
#
# Coordination Sequence:
#
# PCOD9234687 Si02
#       5
#     4   4   2   4   4
#     4  11  23  40  66 102 129 176 230 270 344 406
#     4  11  20  40  65  98 140 171 215 280 343 404
#     4  10  22  40  68  98 134 176 226 272 336 406
#     4  11  26  45  67  94 139 182 230 279 328 396
#     4  12  22  41  69  98 136 181 218 282 345 396
#
# _framework density 20.403606
#
# number of rings (size 3 to 8) (size 9 to 14) (size 15 to 20)
#    0.000    0.889    7.778    0.667    1.556    0.889 
#    0.000    6.667    0.000    0.000    0.000    0.000 
#    0.000    0.000    0.000    0.000    0.000    0.000 
#
# Total GULP energy -100290.563350 kJ/mol
# GULP energy per Si atom -5571.697964 kJ/mol
# Density = 2.035717 g / cm^3
# Si number density = 20.403606 Si / 1000 Ang^3
#
#
#
# Elastic Constant Matrix: (Units=GPa)
#
#
# Indices 1 2 3 4 5 6 
#
# 1 54.6490 1.2589 0.0044 0.0000 -16.0569 0.0000
# 2 1.2589 104.4956 -10.2223 0.0000 -13.3681 0.0000
# 3 0.0044 -10.2223 82.2627 0.0000 -0.8173 0.0000
# 4 0.0000 0.0000 0.0000 16.0136 0.0000 -11.4727
# 5 -16.0569 -13.3681 -0.8173 0.0000 40.7538 0.0000
# 6 0.0000 0.0000 0.0000 -11.4727 0.0000 23.1347
#
#
#
# Elastic Compliance Matrix: (Units=1/GPa)
#
#
# Indices 1 2 3 4 5 6 
#
# 1 0.020766 0.000851 0.000189 0.000000 0.008465 0.000000
# 2 0.000851 0.010159 0.001299 0.000000 0.003694 0.000000
# 3 0.000189 0.001299 0.012325 0.000000 0.000748 0.000000
# 4 0.000000 0.000000 0.000000 0.096860 0.000000 0.048033
# 5 0.008465 0.003694 0.000748 0.000000 0.029099 0.000000
# 6 0.000000 0.000000 0.000000 0.048033 0.000000 0.067045
#
#
# Mechanical properties :
#
#
# Convention : Reuss Voigt Hill
#
# Bulk Modulus (GPa) = 20.86453 24.83216 22.84835
# Shear Modulus (GPa) = 20.19774 32.67150 26.43462
#
# Velocity S-wave (km/s) = 3.14970 4.00592 3.60333
# Velocity P-wave (km/s) = 4.84516 5.79598 5.34177
#
# Compressibility (1/GPa) = 0.04792823
#
# Stress axis : x y z
#
# Youngs Moduli (GPa) = 48.15552 98.43337 81.13579
#
# Poissons Ratio (x) = -0.08378 -0.01532
# Poissons Ratio (y) = -0.04099 -0.10540
# Poissons Ratio (z) = -0.00909 -0.12787
#
# Static dielectric constant tensor:
#      x y z
#    x 1.797260 0.000000 -0.032350 
#    y 0.000000 1.760760 0.000000 
#    z -0.032350 0.000000 1.751330 
# 
# From -- ./inp_files/32961.got.cif
#   From: 2010.05.17/outbox.cif.g08.bks.cpg/sg13_17_cif.got.tgz:32961.got - 2010.06.03 16:44:36.
