data_PCOD9234133
_publ_section_title
;
Structure prediction by ZEFSAII (Michael W. Deem and Ramdas Pophale) SiO2 
 PCOD9234133
Probable space group: P 2/C
;
_chemical_formula_sum "Si O2"
_cell_formula_units_Z 24
_cell_length_a 11.736244
_cell_length_b 10.114251
_cell_length_c 16.863867
_cell_angle_alpha 90.000000
_cell_angle_beta 30.129248
_cell_angle_gamma 90.000000
_cell_volume 1004.806607
_symmetry_space_group_name_H-M "P 2/C"
_symmetry_group_IT_number 13
_symmetry_cell_setting 'monoclinic'
loop_
_space_group_symop_operation_xyz
x,y,z
-x,y,1/2-z
-x,-y,-z
x,-y,1/2+z
loop_
_atom_site_type_symbol
_atom_site_label
_atom_site_fract_x
_atom_site_fract_y
_atom_site_fract_z
Si Si1 0.253991 0.412877 0.878254
Si Si2 0.533540 0.881863 0.411995
Si Si3 0.921074 0.756230 0.881444
Si Si4 0.114608 0.692313 0.999629
Si Si5 0.282612 0.896120 0.774666
Si Si6 0.758543 0.799116 0.419531
O O1 0.500000 0.362221 0.750000
O O2 0.140182 0.345800 0.871620
O O3 0.112232 0.363402 0.038561
O O4 0.249677 0.570722 0.877592
O O5 0.306415 0.837970 0.504116
O O6 0.640645 0.772588 0.405902
O O7 0.500000 0.000000 0.500000
O O8 0.702233 0.946215 0.245731
O O9 0.000000 0.704150 0.750000
O O10 0.112099 0.845481 0.808740
O O11 0.152743 0.693281 0.070392
O O12 0.194362 0.826506 0.907456
O O13 0.544964 0.855541 0.599747
O O14 0.000000 0.872065 0.250000
#
# Coordination Sequence:
#
# PCOD9234133 Si02
#       6
#     4   4   4   4   4   4
#     4  10  23  42  69  94 134 170 225 285 322 390
#     4  10  22  37  64  91 134 172 214 270 320 395
#     4  11  21  40  66  98 132 179 223 269 339 381
#     4  10  23  46  67  95 128 180 222 271 340 393
#     4  10  22  41  70  88 130 182 222 266 329 405
#     4  11  23  36  66  95 130 166 219 272 327 395
#
# _framework density 23.885195
#
# number of rings (size 3 to 8) (size 9 to 14) (size 15 to 20)
#    0.000    1.667    3.333    1.500    7.000    0.667 
#    0.000    5.000    3.667    0.000    0.000    0.000 
#    0.000    0.000    0.000    0.000    0.000    0.000 
#
# Total GULP energy -133711.917447 kJ/mol
# GULP energy per Si atom -5571.329894 kJ/mol
# Density = 2.383083 g / cm^3
# Si number density = 23.885195 Si / 1000 Ang^3
#
#
#
# Elastic Constant Matrix: (Units=GPa)
#
#
# Indices 1 2 3 4 5 6 
#
# 1 190.0935 43.6806 40.9125 0.0000 -25.7670 0.0000
# 2 43.6806 59.0324 22.2700 0.0000 13.2746 0.0000
# 3 40.9125 22.2700 92.9053 0.0000 -21.8158 0.0000
# 4 0.0000 0.0000 0.0000 14.8727 0.0000 2.3284
# 5 -25.7670 13.2746 -21.8158 0.0000 47.1954 0.0000
# 6 0.0000 0.0000 0.0000 2.3284 0.0000 30.8352
#
#
#
# Elastic Compliance Matrix: (Units=1/GPa)
#
#
# Indices 1 2 3 4 5 6 
#
# 1 0.007752 -0.006973 -0.000323 0.000000 0.006044 0.000000
# 2 -0.006973 0.028224 -0.007238 0.000000 -0.015092 0.000000
# 3 -0.000323 -0.007238 0.014670 0.000000 0.008641 0.000000
# 4 0.000000 0.000000 0.000000 0.068041 0.000000 -0.005138
# 5 0.006044 -0.015092 0.008641 0.000000 0.032727 0.000000
# 6 0.000000 0.000000 0.000000 -0.005138 0.000000 0.032818
#
#
# Mechanical properties :
#
#
# Convention : Reuss Voigt Hill
#
# Bulk Modulus (GPa) = 46.34632 61.75084 54.04858
# Shear Modulus (GPa) = 22.67633 34.25852 28.46743
#
# Velocity S-wave (km/s) = 3.08456 3.79132 3.45605
# Velocity P-wave (km/s) = 5.66850 6.71378 6.21316
#
# Compressibility (1/GPa) = 0.02157669
#
# Stress axis : x y z
#
# Youngs Moduli (GPa) = 129.00440 35.43080 68.16675
#
# Poissons Ratio (x) = 0.24707 0.02200
# Poissons Ratio (y) = 0.89958 0.49342
# Poissons Ratio (z) = 0.04164 0.25647
#
# Static dielectric constant tensor:
#      x y z
#    x 1.932060 0.000000 -0.033190 
#    y 0.000000 1.979540 0.000000 
#    z -0.033190 0.000000 2.043250 
# 
# From -- ./inp_files/66586.got.cif
#   From: 2010.05.17/outbox.cif.g08.bks.cpg/sg13_34_cif.got.tgz:66586.got - 2010.06.03 16:44:36.
