data_PCOD9234865
_publ_section_title
;
Structure prediction by ZEFSAII (Michael W. Deem and Ramdas Pophale) SiO2 
 PCOD9234865
Probable space group: P 2/C
;
_chemical_formula_sum "Si O2"
_cell_formula_units_Z 28
_cell_length_a 15.009698
_cell_length_b 8.715060
_cell_length_c 17.623005
_cell_angle_alpha 90.000000
_cell_angle_beta 142.459160
_cell_angle_gamma 90.000000
_cell_volume 1404.664346
_symmetry_space_group_name_H-M "P 2/C"
_symmetry_group_IT_number 13
_symmetry_cell_setting 'monoclinic'
loop_
_space_group_symop_operation_xyz
x,y,z
-x,y,1/2-z
-x,-y,-z
x,-y,1/2+z
loop_
_atom_site_type_symbol
_atom_site_label
_atom_site_fract_x
_atom_site_fract_y
_atom_site_fract_z
Si Si1 0.234933 0.140733 0.221251
Si Si2 0.350050 0.404466 0.398565
Si Si3 0.160933 0.968603 0.326020
Si Si4 0.906906 0.630333 0.254961
Si Si5 0.691803 0.841856 0.312085
Si Si6 0.636448 0.194367 0.951407
Si Si7 0.987725 0.324418 0.967182
O O1 0.343401 0.266954 0.332017
O O2 0.179850 0.038829 0.254988
O O3 0.292058 0.021934 0.196836
O O4 0.101127 0.228848 0.092930
O O5 0.500000 0.500000 0.500000
O O6 0.213628 0.516872 0.293245
O O7 0.321504 0.328904 0.461979
O O8 0.288511 0.043485 0.462345
O O9 0.000000 0.009135 0.250000
O O10 0.167802 0.785128 0.326403
O O11 0.000000 0.558127 0.250000
O O12 0.013978 0.681641 0.394902
O O13 0.538969 0.801204 0.169344
O O14 0.684104 0.802357 0.396003
O O15 0.828308 0.748533 0.371978
O O16 0.000000 0.500000 0.000000
#
# Coordination Sequence:
#
# PCOD9234865 Si02
#       7
#     4   4   4   4   4   4   4
#     4  11  24  40  70  94 124 175 217 276 326 393
#     4  11  25  44  66  99 133 178 217 271 342 404
#     4  10  22  41  66  98 128 166 218 273 327 391
#     4  11  25  41  64  98 134 170 218 271 333 397
#     4  11  24  44  65  96 128 173 222 269 334 389
#     4  10  25  42  68  92 132 170 215 276 327 394
#     4  12  24  42  66  94 133 171 220 274 328 400
#
# _framework density 19.933588
#
# number of rings (size 3 to 8) (size 9 to 14) (size 15 to 20)
#    0.000    1.143    2.857    2.143    8.000    3.429 
#    0.000    0.000    0.000    0.000    0.000    0.000 
#    0.000    0.000    0.000    0.000    0.000    0.000 
#
# Total GULP energy -156368.144195 kJ/mol
# GULP energy per Si atom -5584.576578 kJ/mol
# Density = 1.988822 g / cm^3
# Si number density = 19.933588 Si / 1000 Ang^3
#
#
#
# Elastic Constant Matrix: (Units=GPa)
#
#
# Indices 1 2 3 4 5 6 
#
# 1 52.3673 16.9932 28.9410 0.0000 -3.4310 0.0000
# 2 16.9932 86.1315 26.8136 0.0000 2.6522 0.0000
# 3 28.9410 26.8136 97.1314 0.0000 -13.9178 0.0000
# 4 0.0000 0.0000 0.0000 31.5247 0.0000 3.3510
# 5 -3.4310 2.6522 -13.9178 0.0000 20.3302 0.0000
# 6 0.0000 0.0000 0.0000 3.3510 0.0000 22.8126
#
#
#
# Elastic Compliance Matrix: (Units=1/GPa)
#
#
# Indices 1 2 3 4 5 6 
#
# 1 0.023411 -0.002680 -0.006231 0.000000 0.000035 0.000000
# 2 -0.002680 0.013391 -0.003563 0.000000 -0.004638 0.000000
# 3 -0.006231 -0.003563 0.014471 0.000000 0.009320 0.000000
# 4 0.000000 0.000000 0.000000 0.032224 0.000000 -0.004734
# 5 0.000035 -0.004638 0.009320 0.000000 0.056179 0.000000
# 6 0.000000 0.000000 0.000000 -0.004734 0.000000 0.044531
#
#
# Mechanical properties :
#
#
# Convention : Reuss Voigt Hill
#
# Bulk Modulus (GPa) = 37.98558 42.34732 40.16645
# Shear Modulus (GPa) = 22.94319 25.79231 24.36775
#
# Velocity S-wave (km/s) = 3.39629 3.60100 3.50014
# Velocity P-wave (km/s) = 5.87173 6.21127 6.04389
#
# Compressibility (1/GPa) = 0.02632578
#
# Stress axis : x y z
#
# Youngs Moduli (GPa) = 42.71438 74.67779 69.10522
#
# Poissons Ratio (x) = 0.20016 0.43057
# Poissons Ratio (y) = 0.11449 0.24619
# Poissons Ratio (z) = 0.26614 0.26605
#
# Static dielectric constant tensor:
#      x y z
#    x 1.718970 0.000000 -0.021900 
#    y 0.000000 1.724770 0.000000 
#    z -0.021900 0.000000 1.703920 
# 
# From -- ./inp_files/68231.got.cif
#   From: 2010.05.17/outbox.cif.g08.bks.cpg/sg13_35_cif.got.tgz:68231.got - 2010.06.03 16:44:36.
