data_PCOD9234879
_publ_section_title
;
Structure prediction by ZEFSAII (Michael W. Deem and Ramdas Pophale) SiO2 
 PCOD9234879
Probable space group: P 2/C
;
_chemical_formula_sum "Si O2"
_cell_formula_units_Z 22
_cell_length_a 13.071499
_cell_length_b 5.821375
_cell_length_c 11.862198
_cell_angle_alpha 90.000000
_cell_angle_beta 102.449680
_cell_angle_gamma 90.000000
_cell_volume 881.418244
_symmetry_space_group_name_H-M "P 2/C"
_symmetry_group_IT_number 13
_symmetry_cell_setting 'monoclinic'
loop_
_space_group_symop_operation_xyz
x,y,z
-x,y,1/2-z
-x,-y,-z
x,-y,1/2+z
loop_
_atom_site_type_symbol
_atom_site_label
_atom_site_fract_x
_atom_site_fract_y
_atom_site_fract_z
Si Si1 0.000000 0.638239 0.750000
Si Si2 0.266366 0.314040 0.014629
Si Si3 0.825081 0.969746 0.679382
Si Si4 0.532437 0.917580 0.877517
Si Si5 0.176877 0.644428 0.163702
Si Si6 0.352241 0.590904 0.847015
O O1 0.078116 0.484293 0.695969
O O2 0.078385 0.811205 0.831509
O O3 0.343258 0.137822 0.098396
O O4 0.195204 0.512204 0.052086
O O5 0.193159 0.167672 0.915215
O O6 0.350302 0.452811 0.961415
O O7 0.839962 0.091355 0.805354
O O8 0.722797 0.812571 0.659022
O O9 0.500000 0.046693 0.750000
O O10 0.464757 0.686283 0.849296
O O11 0.500000 0.000000 0.000000
O O12 0.288544 0.572071 0.247057
#
# Coordination Sequence:
#
# PCOD9234879 Si02
#       6
#     2   4   4   4   4   4
#     4  10  22  42  68  94 140 180 234 304 374 438
#     4  11  23  41  69 100 140 187 240 292 360 431
#     4  10  22  42  66  96 135 177 237 298 353 435
#     4  12  24  44  72 109 153 196 242 289 359 429
#     4  10  22  41  67  94 133 184 232 296 364 427
#     4  10  22  42  63  99 140 185 231 290 352 422
#
# _framework density 24.959775
#
# number of rings (size 3 to 8) (size 9 to 14) (size 15 to 20)
#    0.000    1.455    3.636    1.091    0.000    5.091 
#    0.000   12.727    0.000    0.000    0.000    0.000 
#    0.000    0.000    0.000    0.000    0.000    0.000 
#
# Total GULP energy -122733.190846 kJ/mol
# GULP energy per Si atom -5578.781402 kJ/mol
# Density = 2.490296 g / cm^3
# Si number density = 24.959775 Si / 1000 Ang^3
#
#
#
# Elastic Constant Matrix: (Units=GPa)
#
#
# Indices 1 2 3 4 5 6 
#
# 1 114.4588 16.7645 31.0117 0.0000 4.1728 0.0000
# 2 16.7645 67.3526 26.2185 0.0000 8.8918 0.0000
# 3 31.0117 26.2185 99.5200 0.0000 -10.6429 0.0000
# 4 0.0000 0.0000 0.0000 18.5174 0.0000 11.5516
# 5 4.1728 8.8918 -10.6429 0.0000 15.3711 0.0000
# 6 0.0000 0.0000 0.0000 11.5516 0.0000 24.0456
#
#
#
# Elastic Compliance Matrix: (Units=1/GPa)
#
#
# Indices 1 2 3 4 5 6 
#
# 1 0.009927 -0.000477 -0.003485 0.000000 -0.004832 0.000000
# 2 -0.000477 0.019695 -0.006744 0.000000 -0.015933 0.000000
# 3 -0.003485 -0.006744 0.014503 0.000000 0.014889 0.000000
# 4 0.000000 0.000000 0.000000 0.077113 0.000000 -0.037045
# 5 -0.004832 -0.015933 0.014889 0.000000 0.085895 0.000000
# 6 0.000000 0.000000 0.000000 -0.037045 0.000000 0.059384
#
#
# Mechanical properties :
#
#
# Convention : Reuss Voigt Hill
#
# Bulk Modulus (GPa) = 44.02492 47.70231 45.86362
# Shear Modulus (GPa) = 16.92062 25.40928 21.16495
#
# Velocity S-wave (km/s) = 2.60651 3.19409 2.91514
# Velocity P-wave (km/s) = 5.17060 5.72329 5.45395
#
# Compressibility (1/GPa) = 0.02271441
#
# Stress axis : x y z
#
# Youngs Moduli (GPa) = 100.73723 50.77555 68.95124
#
# Poissons Ratio (x) = 0.02420 0.24026
# Poissons Ratio (y) = 0.04800 0.46500
# Poissons Ratio (z) = 0.35102 0.34243
#
# Static dielectric constant tensor:
#      x y z
#    x 1.908420 0.000000 -0.026420 
#    y 0.000000 1.992280 0.000000 
#    z -0.026420 0.000000 2.226790 
# 
# From -- ./inp_files/35507.got.cif
#   From: 2010.05.17/outbox.cif.g08.bks.cpg/sg13_18_cif.got.tgz:35507.got - 2010.06.03 16:44:36.
