data_PCOD9234647
_publ_section_title
;
Structure prediction by ZEFSAII (Michael W. Deem and Ramdas Pophale) SiO2 
 PCOD9234647
Probable space group: P 2/C
;
_chemical_formula_sum "Si O2"
_cell_formula_units_Z 30
_cell_length_a 13.478035
_cell_length_b 4.921718
_cell_length_c 17.861428
_cell_angle_alpha 90.000000
_cell_angle_beta 103.583969
_cell_angle_gamma 90.000000
_cell_volume 1151.695585
_symmetry_space_group_name_H-M "P 2/C"
_symmetry_group_IT_number 13
_symmetry_cell_setting 'monoclinic'
loop_
_space_group_symop_operation_xyz
x,y,z
-x,y,1/2-z
-x,-y,-z
x,-y,1/2+z
loop_
_atom_site_type_symbol
_atom_site_label
_atom_site_fract_x
_atom_site_fract_y
_atom_site_fract_z
Si Si1 0.500000 0.864103 0.750000
Si Si2 0.853972 0.955256 0.911271
Si Si3 0.656154 0.582409 0.605839
Si Si4 0.288971 0.920733 0.749770
Si Si5 0.944091 0.525675 0.353440
Si Si6 0.319010 0.001361 0.518087
Si Si7 0.433697 0.497054 0.600133
Si Si8 0.847313 0.656998 0.184018
O O1 0.453552 0.663847 0.679223
O O2 0.403522 0.042729 0.760493
O O3 0.762441 0.866193 0.838758
O O4 0.885203 0.253722 0.891929
O O5 0.799820 0.967606 0.981696
O O6 0.943178 0.745530 0.903856
O O7 0.656140 0.853143 0.555816
O O8 0.546432 0.446679 0.587545
O O9 0.761108 0.429868 0.609484
O O10 0.681001 0.660498 0.696337
O O11 0.206862 0.089916 0.783837
O O12 0.885452 0.480695 0.263453
O O13 0.049606 0.662521 0.346021
O O14 0.369201 0.221590 0.585231
O O15 0.373778 0.715242 0.538725
#
# Coordination Sequence:
#
# PCOD9234647 Si02
#       8
#     2   4   4   4   4   4   4   4
#     4  10  22  42  68 104 134 174 224 284 328 402
#     4  11  22  42  66  95 130 173 220 276 340 388
#     4  11  25  41  67  97 134 184 226 272 330 414
#     4  10  22  40  66  98 133 173 222 275 330 402
#     4  10  23  42  68  97 129 168 222 291 337 388
#     4  12  26  45  66  97 143 179 221 272 341 403
#     4  11  26  43  68  99 140 180 221 272 333 402
#     4  10  23  40  69  97 130 172 227 281 338 395
#
# _framework density 26.048549000000001
#
# number of rings (size 3 to 8) (size 9 to 14) (size 15 to 20)
#    0.000    1.333    2.667    1.600    7.467    2.667 
#    0.000    1.333    0.000    0.000    0.000    0.000 
#    0.000    0.000    0.000    0.000    0.000    0.000 
#
# Total GULP energy -167698.192804 kJ/mol
# GULP energy per Si atom -5589.939760 kJ/mol
# Density = 2.598926 g / cm^3
# Si number density = 26.048549 Si / 1000 Ang^3
#
#
#
# Elastic Constant Matrix: (Units=GPa)
#
#
# Indices 1 2 3 4 5 6 
#
# 1 153.7995 19.6141 18.0355 0.0000 -17.2391 0.0000
# 2 19.6141 84.1823 13.1044 0.0000 -11.2630 0.0000
# 3 18.0355 13.1044 63.5769 0.0000 -4.4029 0.0000
# 4 0.0000 0.0000 0.0000 37.2705 0.0000 -8.2955
# 5 -17.2391 -11.2630 -4.4029 0.0000 43.0171 0.0000
# 6 0.0000 0.0000 0.0000 -8.2955 0.0000 24.7013
#
#
#
# Elastic Compliance Matrix: (Units=1/GPa)
#
#
# Indices 1 2 3 4 5 6 
#
# 1 0.007099 -0.001081 -0.001625 0.000000 0.002396 0.000000
# 2 -0.001081 0.012827 -0.002150 0.000000 0.002705 0.000000
# 3 -0.001625 -0.002150 0.016667 0.000000 0.000492 0.000000
# 4 0.000000 0.000000 0.000000 0.028998 0.000000 0.009739
# 5 0.002396 0.002705 0.000492 0.000000 0.024965 0.000000
# 6 0.000000 0.000000 0.000000 0.009739 0.000000 0.043754
#
#
# Mechanical properties :
#
#
# Convention : Reuss Voigt Hill
#
# Bulk Modulus (GPa) = 37.19969 44.78520 40.99245
# Shear Modulus (GPa) = 32.68322 37.71810 35.20066
#
# Velocity S-wave (km/s) = 3.54602 3.80938 3.68006
# Velocity P-wave (km/s) = 5.57473 6.04804 5.81620
#
# Compressibility (1/GPa) = 0.02688194
#
# Stress axis : x y z
#
# Youngs Moduli (GPa) = 140.86747 77.95810 59.99797
#
# Poissons Ratio (x) = 0.08423 0.09751
# Poissons Ratio (y) = 0.15221 0.12900
# Poissons Ratio (z) = 0.22894 0.16762
#
# Static dielectric constant tensor:
#      x y z
#    x 2.122930 0.000000 -0.009360 
#    y 0.000000 2.065990 0.000000 
#    z -0.009360 0.000000 2.118050 
# 
# From -- ./inp_files/77512.got.cif
#   From: 2010.05.17/outbox.cif.g08.bks.cpg/sg13_39_cif.got.tgz:77512.got - 2010.06.03 16:44:36.
