data_PCOD9234222
_publ_section_title
;
Structure prediction by ZEFSAII (Michael W. Deem and Ramdas Pophale) SiO2 
 PCOD9234222
Probable space group: P 2/C
;
_chemical_formula_sum "Si O2"
_cell_formula_units_Z 24
_cell_length_a 11.773272
_cell_length_b 9.389246
_cell_length_c 11.555303
_cell_angle_alpha 90.000000
_cell_angle_beta 131.753546
_cell_angle_gamma 90.000000
_cell_volume 952.922256
_symmetry_space_group_name_H-M "P 2/C"
_symmetry_group_IT_number 13
_symmetry_cell_setting 'monoclinic'
loop_
_space_group_symop_operation_xyz
x,y,z
-x,y,1/2-z
-x,-y,-z
x,-y,1/2+z
loop_
_atom_site_type_symbol
_atom_site_label
_atom_site_fract_x
_atom_site_fract_y
_atom_site_fract_z
Si Si1 0.368751 0.123630 0.747995
Si Si2 0.639871 0.333958 0.548475
Si Si3 0.073463 0.459903 0.676781
Si Si4 0.156387 0.891327 0.910864
Si Si5 0.867696 0.214711 0.525503
Si Si6 0.660092 0.809374 0.683649
O O1 0.500000 0.173564 0.750000
O O2 0.361544 0.203378 0.862931
O O3 0.213131 0.158210 0.574139
O O4 0.395042 0.955771 0.791285
O O5 0.743227 0.456436 0.680796
O O6 0.735802 0.303758 0.499197
O O7 0.462207 0.318012 0.392932
O O8 0.000000 0.518991 0.750000
O O9 0.000000 0.500000 0.500000
O O10 0.025208 0.293570 0.649012
O O11 0.288852 0.853278 0.910134
O O12 0.000000 0.839902 0.750000
O O13 0.137417 0.059312 0.922988
O O14 0.817041 0.218109 0.358140
#
# Coordination Sequence:
#
# PCOD9234222 Si02
#       6
#     4   4   4   4   4   4
#     4  11  21  33  55  89 136 176 217 255 321 401
#     4  11  20  39  62  89 129 173 219 270 337 401
#     4  10  24  48  74  96 126 173 236 298 356 393
#     4  11  22  34  53  92 140 180 216 263 317 411
#     4  10  22  38  62  92 130 177 221 272 340 404
#     4  11  21  35  60  93 137 183 218 255 326 418
#
# _framework density 25.185686
#
# number of rings (size 3 to 8) (size 9 to 14) (size 15 to 20)
#    0.000    1.333    3.333    4.500    2.333    1.333 
#    3.000    0.833    0.000    2.000    0.000    0.000 
#    0.000    0.000    0.000    0.000    0.000    0.000 
#
# Total GULP energy -133877.277924 kJ/mol
# GULP energy per Si atom -5578.219913 kJ/mol
# Density = 2.512836 g / cm^3
# Si number density = 25.185686 Si / 1000 Ang^3
#
#
#
# Elastic Constant Matrix: (Units=GPa)
#
#
# Indices 1 2 3 4 5 6 
#
# 1 99.9762 33.5673 35.2743 0.0000 -1.2273 0.0000
# 2 33.5673 36.0447 15.0279 0.0000 6.7920 0.0000
# 3 35.2743 15.0279 146.7287 0.0000 -9.6622 0.0000
# 4 0.0000 0.0000 0.0000 32.7009 0.0000 9.1224
# 5 -1.2273 6.7920 -9.6622 0.0000 52.5923 0.0000
# 6 0.0000 0.0000 0.0000 9.1224 0.0000 21.8066
#
#
#
# Elastic Compliance Matrix: (Units=1/GPa)
#
#
# Indices 1 2 3 4 5 6 
#
# 1 0.015419 -0.013778 -0.002181 0.000000 0.001738 0.000000
# 2 -0.013778 0.042305 -0.001419 0.000000 -0.006046 0.000000
# 3 -0.002181 -0.001419 0.007585 0.000000 0.001526 0.000000
# 4 0.000000 0.000000 0.000000 0.034620 0.000000 -0.014483
# 5 0.001738 -0.006046 0.001526 0.000000 0.020116 0.000000
# 6 0.000000 0.000000 0.000000 -0.014483 0.000000 0.051916
#
#
# Mechanical properties :
#
#
# Convention : Reuss Voigt Hill
#
# Bulk Modulus (GPa) = 32.72879 50.05429 41.39154
# Shear Modulus (GPa) = 23.05192 34.67864 28.86528
#
# Velocity S-wave (km/s) = 3.02864 3.71471 3.38908
# Velocity P-wave (km/s) = 5.02528 6.18999 5.63779
#
# Compressibility (1/GPa) = 0.03055414
#
# Stress axis : x y z
#
# Youngs Moduli (GPa) = 64.85422 23.63809 131.83086
#
# Poissons Ratio (x) = 0.32567 0.28756
# Poissons Ratio (y) = 0.89353 0.18703
# Poissons Ratio (z) = 0.14147 0.03354
#
# Static dielectric constant tensor:
#      x y z
#    x 1.950090 0.000000 0.036030 
#    y 0.000000 2.003030 0.000000 
#    z 0.036030 0.000000 2.051500 
# 
# From -- ./inp_files/33704.got.cif
#   From: 2010.05.17/outbox.cif.g08.bks.cpg/sg13_17_cif.got.tgz:33704.got - 2010.06.03 16:44:36.
