data_PCOD9234898
_publ_section_title
;
Structure prediction by ZEFSAII (Michael W. Deem and Ramdas Pophale) SiO2 
 PCOD9234898
Probable space group: P 2/C
;
_chemical_formula_sum "Si O2"
_cell_formula_units_Z 30
_cell_length_a 12.816775
_cell_length_b 10.343437
_cell_length_c 20.486437
_cell_angle_alpha 90.000000
_cell_angle_beta 27.804499
_cell_angle_gamma 90.000000
_cell_volume 1266.837299
_symmetry_space_group_name_H-M "P 2/C"
_symmetry_group_IT_number 13
_symmetry_cell_setting 'monoclinic'
loop_
_space_group_symop_operation_xyz
x,y,z
-x,y,1/2-z
-x,-y,-z
x,-y,1/2+z
loop_
_atom_site_type_symbol
_atom_site_label
_atom_site_fract_x
_atom_site_fract_y
_atom_site_fract_z
Si Si1 0.655006 0.667346 0.808768
Si Si2 0.500000 0.309964 0.750000
Si Si3 0.091498 0.523131 0.522927
Si Si4 0.246105 0.137841 0.132708
Si Si5 0.699884 0.872833 0.683107
Si Si6 0.804885 0.394688 0.904445
Si Si7 0.155715 0.853366 0.353158
Si Si8 0.279863 0.837988 0.145650
O O1 0.694090 0.786589 0.835317
O O2 0.601414 0.745058 0.772024
O O3 0.891317 0.602153 0.666699
O O4 0.462881 0.571608 0.942126
O O5 0.677340 0.399031 0.613245
O O6 0.654157 0.224861 0.712966
O O7 0.130110 0.412320 0.555763
O O8 0.000000 0.500000 0.500000
O O9 0.000000 0.179948 0.250000
O O10 0.247521 0.983768 0.139434
O O11 0.463692 0.173144 0.970020
O O12 0.500000 0.926084 0.750000
O O13 0.921786 0.837165 0.520038
O O14 0.779212 0.994187 0.682932
O O15 0.772492 0.258162 0.884514
O O16 0.135973 0.186333 0.789082
O O17 0.000000 0.541557 0.250000
#
# Coordination Sequence:
#
# PCOD9234898 Si02
#       8
#     4   2   4   4   4   4   4   4
#     4  11  25  47  72 109 148 191 255 314 387 461
#     4  12  26  48  74 106 148 202 250 328 386 454
#     4  12  29  52  74 104 146 207 270 321 377 453
#     4  10  22  41  68 104 148 194 228 301 387 457
#     4  11  24  41  73 114 158 195 243 307 393 484
#     4  11  28  50  75 103 142 197 255 324 377 453
#     4  11  24  43  72 116 153 196 248 311 392 472
#     4  10  23  43  68 108 146 187 246 304 380 465
#
# _framework density 23.681021999999999
#
# number of rings (size 3 to 8) (size 9 to 14) (size 15 to 20)
#    0.000    1.067    3.333    1.200    7.467    2.133 
#    2.400    0.000    0.000    0.000    0.000    0.000 
#    0.000    0.000    0.000    0.000    0.000    0.000 
#
# Total GULP energy -167393.927711 kJ/mol
# GULP energy per Si atom -5579.797590 kJ/mol
# Density = 2.362712 g / cm^3
# Si number density = 23.681022 Si / 1000 Ang^3
#
#
#
# Elastic Constant Matrix: (Units=GPa)
#
#
# Indices 1 2 3 4 5 6 
#
# 1 116.0631 34.4340 38.5450 0.0000 16.5474 0.0000
# 2 34.4340 64.0036 44.1691 0.0000 15.3951 0.0000
# 3 38.5450 44.1691 192.8345 0.0000 -6.0148 0.0000
# 4 0.0000 0.0000 0.0000 -14.7167 0.0000 7.3516
# 5 16.5474 15.3951 -6.0148 0.0000 35.1326 0.0000
# 6 0.0000 0.0000 0.0000 7.3516 0.0000 40.5571
#
#
#
# Elastic Compliance Matrix: (Units=1/GPa)
#
#
# Indices 1 2 3 4 5 6 
#
# 1 0.010756 -0.004009 -0.001342 0.000000 -0.003539 0.000000
# 2 -0.004009 0.023311 -0.004824 0.000000 -0.009153 0.000000
# 3 -0.001342 -0.004824 0.006680 0.000000 0.003889 0.000000
# 4 0.000000 0.000000 0.000000 -0.062308 0.000000 0.011294
# 5 -0.003539 -0.009153 0.003889 0.000000 0.034807 0.000000
# 6 0.000000 0.000000 0.000000 0.011294 0.000000 0.022609
#
#
# Mechanical properties :
#
#
# Convention : Reuss Voigt Hill
#
# Bulk Modulus (GPa) = 49.02532 67.46637 58.24585
# Shear Modulus (GPa) = 79.35963 29.24481 54.30222
#
# Velocity S-wave (km/s) = 5.79523 3.51799 4.79380
# Velocity P-wave (km/s) = 8.09487 6.71217 7.43573
#
# Compressibility (1/GPa) = 0.02039762
#
# Stress axis : x y z
#
# Youngs Moduli (GPa) = 92.97398 42.89750 149.69605
#
# Poissons Ratio (x) = 0.17199 0.20089
# Poissons Ratio (y) = 0.37276 0.72207
# Poissons Ratio (z) = 0.12477 0.20692
#
# Static dielectric constant tensor:
#      x y z
#    x 1.867150 0.000000 0.078210 
#    y 0.000000 1.931450 0.000000 
#    z 0.078210 0.000000 1.852420 
# 
# From -- ./inp_files/78628.got.cif
#   From: 2010.05.17/outbox.cif.g08.bks.cpg/sg13_40_cif.got.tgz:78628.got - 2010.06.03 16:44:36.
