data_PCOD9234646
_publ_section_title
;
Structure prediction by ZEFSAII (Michael W. Deem and Ramdas Pophale) SiO2 
 PCOD9234646
Probable space group: P 2/C
;
_chemical_formula_sum "Si O2"
_cell_formula_units_Z 22
_cell_length_a 20.807778
_cell_length_b 9.887425
_cell_length_c 20.004950
_cell_angle_alpha 90.000000
_cell_angle_beta 164.369278
_cell_angle_gamma 90.000000
_cell_volume 1108.925502
_symmetry_space_group_name_H-M "P 2/C"
_symmetry_group_IT_number 13
_symmetry_cell_setting 'monoclinic'
loop_
_space_group_symop_operation_xyz
x,y,z
-x,y,1/2-z
-x,-y,-z
x,-y,1/2+z
loop_
_atom_site_type_symbol
_atom_site_label
_atom_site_fract_x
_atom_site_fract_y
_atom_site_fract_z
Si Si1 0.590841 0.865689 0.152512
Si Si2 0.903461 0.189375 0.406421
Si Si3 0.000000 0.209114 0.750000
Si Si4 0.301039 0.127386 0.163420
Si Si5 0.620560 0.415343 0.060793
Si Si6 0.627058 0.374103 0.449227
O O1 0.546907 0.709952 0.130190
O O2 0.849112 0.862478 0.375438
O O3 0.593900 0.983592 0.210064
O O4 0.346421 0.884231 0.865098
O O5 0.893624 0.170200 0.475771
O O6 0.849192 0.339454 0.323025
O O7 0.812477 0.119068 0.523169
O O8 0.874371 0.308045 0.675934
O O9 0.480648 0.253294 0.338493
O O10 0.660392 0.508382 0.036470
O O11 0.500000 0.500000 0.000000
O O12 0.500000 0.408593 0.250000
#
# Coordination Sequence:
#
# PCOD9234646 Si02
#       6
#     4   4   2   4   4   4
#     4  10  24  40  65 101 128 172 208 276 335 382
#     4  10  23  38  68  99 133 165 213 274 333 384
#     4  10  26  36  70  90 130 182 218 278 324 400
#     4  11  22  41  65  92 136 164 231 262 336 391
#     4  10  22  40  66  98 133 173 221 271 334 390
#     4  10  22  44  61  96 127 178 221 276 330 400
#
# _framework density 19.839024999999999
#
# number of rings (size 3 to 8) (size 9 to 14) (size 15 to 20)
#    1.091    0.727    1.818    1.091    7.636    3.636 
#    0.000    4.545    0.000    1.091    0.000    0.000 
#    0.000    0.000    0.000    0.000    0.000    0.000 
#
# Total GULP energy -122536.987454 kJ/mol
# GULP energy per Si atom -5569.863066 kJ/mol
# Density = 1.979387 g / cm^3
# Si number density = 19.839025 Si / 1000 Ang^3
#
#
#
# Elastic Constant Matrix: (Units=GPa)
#
#
# Indices 1 2 3 4 5 6 
#
# 1 87.9471 63.8132 20.8134 0.0000 -0.4151 0.0000
# 2 63.8132 126.0317 36.7647 0.0000 -20.3939 0.0000
# 3 20.8134 36.7647 74.9687 0.0000 7.0254 0.0000
# 4 0.0000 0.0000 0.0000 9.0061 0.0000 1.3780
# 5 -0.4151 -20.3939 7.0254 0.0000 26.7214 0.0000
# 6 0.0000 0.0000 0.0000 1.3780 0.0000 36.9451
#
#
#
# Elastic Compliance Matrix: (Units=1/GPa)
#
#
# Indices 1 2 3 4 5 6 
#
# 1 0.019511 -0.011644 0.001126 0.000000 -0.008880 0.000000
# 2 -0.011644 0.018551 -0.007355 0.000000 0.015911 0.000000
# 3 0.001126 -0.007355 0.017591 0.000000 -0.010221 0.000000
# 4 0.000000 0.000000 0.000000 0.111674 0.000000 -0.004165
# 5 -0.008880 0.015911 -0.010221 0.000000 0.052116 0.000000
# 6 0.000000 0.000000 0.000000 -0.004165 0.000000 0.027223
#
#
# Mechanical properties :
#
#
# Convention : Reuss Voigt Hill
#
# Bulk Modulus (GPa) = 50.23888 59.08113 54.66000
# Shear Modulus (GPa) = 17.29816 25.70492 21.50154
#
# Velocity S-wave (km/s) = 2.95604 3.60345 3.29568
# Velocity P-wave (km/s) = 6.08516 6.86717 6.48796
#
# Compressibility (1/GPa) = 0.01990490
#
# Stress axis : x y z
#
# Youngs Moduli (GPa) = 51.25301 53.90668 56.84614
#
# Poissons Ratio (x) = 0.62770 -0.06399
# Poissons Ratio (y) = 0.59680 0.41813
# Poissons Ratio (z) = -0.05769 0.39651
#
# Static dielectric constant tensor:
#      x y z
#    x 1.707560 0.000000 -0.011240 
#    y 0.000000 1.742020 0.000000 
#    z -0.011240 0.000000 1.757180 
# 
# From -- ./inp_files/69876.got.cif
#   From: 2010.05.17/outbox.cif.g08.bks.cpg/sg13_35_cif.got.tgz:69876.got - 2010.06.03 16:44:36.
