data_PCOD9234818
_publ_section_title
;
Structure prediction by ZEFSAII (Michael W. Deem and Ramdas Pophale) SiO2 
 PCOD9234818
Probable space group: P 2/C
;
_chemical_formula_sum "Si O2"
_cell_formula_units_Z 30
_cell_length_a 7.813358
_cell_length_b 21.640052
_cell_length_c 10.608734
_cell_angle_alpha 90.000000
_cell_angle_beta 45.591845
_cell_angle_gamma 90.000000
_cell_volume 1281.399852
_symmetry_space_group_name_H-M "P 2/C"
_symmetry_group_IT_number 13
_symmetry_cell_setting 'monoclinic'
loop_
_space_group_symop_operation_xyz
x,y,z
-x,y,1/2-z
-x,-y,-z
x,-y,1/2+z
loop_
_atom_site_type_symbol
_atom_site_label
_atom_site_fract_x
_atom_site_fract_y
_atom_site_fract_z
Si Si1 0.393544 0.378284 0.606279
Si Si2 0.263768 0.269444 0.120041
Si Si3 0.766045 0.124862 0.957135
Si Si4 0.040364 0.413050 0.566123
Si Si5 0.747777 0.008285 0.454079
Si Si6 0.208517 0.545149 0.723462
Si Si7 0.372652 0.857086 0.444011
Si Si8 0.500000 0.778110 0.750000
O O1 0.551446 0.317903 0.532656
O O2 0.210069 0.380917 0.581696
O O3 0.561703 0.437571 0.481866
O O4 0.212104 0.378155 0.818743
O O5 0.373861 0.258674 0.202652
O O6 0.000000 0.295697 0.250000
O O7 0.239984 0.203657 0.060699
O O8 0.553867 0.129746 0.964913
O O9 0.000000 0.133083 0.750000
O O10 0.761173 0.056622 0.022230
O O11 0.708228 0.177758 0.086087
O O12 0.207715 0.423484 0.360152
O O13 0.912923 0.478177 0.677495
O O14 0.743754 0.075464 0.520619
O O15 0.000000 0.007885 0.250000
O O16 0.500000 0.000000 0.500000
O O17 0.000000 0.574193 0.750000
O O18 0.500000 0.839514 0.250000
#
# Coordination Sequence:
#
# PCOD9234818 Si02
#       8
#     4   4   4   4   4   4   4   2
#     4  11  23  47  65  99 137 181 233 278 346 418
#     4  11  26  48  69  97 136 191 243 289 342 423
#     4   9  20  40  64 103 131 177 227 284 364 428
#     4  10  24  42  72 100 140 181 218 287 351 403
#     4   9  18  37  63  95 139 170 227 288 360 436
#     4  11  22  41  69 106 136 172 222 279 341 419
#     4  10  22  41  64  98 133 179 230 294 352 417
#     4  10  24  44  72  94 140 182 236 298 348 412
#
# _framework density 23.411895000000001
#
# number of rings (size 3 to 8) (size 9 to 14) (size 15 to 20)
#    0.000    1.867    1.333    1.600    4.667    0.533 
#   14.400    2.000    0.000    0.000    0.000    0.000 
#    0.000    0.000    0.000    0.000    0.000    0.000 
#
# Total GULP energy -167041.160157 kJ/mol
# GULP energy per Si atom -5568.038672 kJ/mol
# Density = 2.335861 g / cm^3
# Si number density = 23.411895 Si / 1000 Ang^3
#
#
#
# Elastic Constant Matrix: (Units=GPa)
#
#
# Indices 1 2 3 4 5 6 
#
# 1 40.8259 18.9549 8.0601 0.0000 -11.0251 0.0000
# 2 18.9549 106.3793 15.9354 0.0000 -15.4127 0.0000
# 3 8.0601 15.9354 64.5158 0.0000 -20.6518 0.0000
# 4 0.0000 0.0000 0.0000 35.3807 0.0000 7.2749
# 5 -11.0251 -15.4127 -20.6518 0.0000 41.7270 0.0000
# 6 0.0000 0.0000 0.0000 7.2749 0.0000 -22.0769
#
#
#
# Elastic Compliance Matrix: (Units=1/GPa)
#
#
# Indices 1 2 3 4 5 6 
#
# 1 0.028029 -0.004084 -0.000719 0.000000 0.005541 0.000000
# 2 -0.004084 0.010654 -0.001434 0.000000 0.002146 0.000000
# 3 -0.000719 -0.001434 0.018672 0.000000 0.008521 0.000000
# 4 0.000000 0.000000 0.000000 0.026470 0.000000 0.008723
# 5 0.005541 0.002146 0.008521 0.000000 0.030440 0.000000
# 6 0.000000 0.000000 0.000000 0.008723 0.000000 -0.042422
#
#
# Mechanical properties :
#
#
# Convention : Reuss Voigt Hill
#
# Bulk Modulus (GPa) = 22.28150 33.06908 27.67529
# Shear Modulus (GPa) = 50.36415 22.25752 36.31083
#
# Velocity S-wave (km/s) = 4.64316 3.08668 3.94249
# Velocity P-wave (km/s) = 6.18733 5.18257 5.70710
#
# Compressibility (1/GPa) = 0.04488028
#
# Stress axis : x y z
#
# Youngs Moduli (GPa) = 35.67777 93.86341 53.55625
#
# Poissons Ratio (x) = 0.38330 0.03852
# Poissons Ratio (y) = 0.14569 0.07681
# Poissons Ratio (z) = 0.02566 0.13462
#
# Static dielectric constant tensor:
#      x y z
#    x 1.898810 0.000000 -0.004790 
#    y 0.000000 2.008040 0.000000 
#    z -0.004790 0.000000 1.894640 
# 
# From -- ./inp_files/30849.got.cif
#   From: 2010.05.17/outbox.cif.g08.bks.cpg/sg13_16_cif.got.tgz:30849.got - 2010.06.03 16:44:36.
