data_PCOD9234629
_publ_section_title
;
Structure prediction by ZEFSAII (Michael W. Deem and Ramdas Pophale) SiO2 
 PCOD9234629
Probable space group: P 2/C
;
_chemical_formula_sum "Si O2"
_cell_formula_units_Z 14
_cell_length_a 12.077326
_cell_length_b 10.360631
_cell_length_c 10.397674
_cell_angle_alpha 90.000000
_cell_angle_beta 155.325224
_cell_angle_gamma 90.000000
_cell_volume 543.144538
_symmetry_space_group_name_H-M "P 2/C"
_symmetry_group_IT_number 13
_symmetry_cell_setting 'monoclinic'
loop_
_space_group_symop_operation_xyz
x,y,z
-x,y,1/2-z
-x,-y,-z
x,-y,1/2+z
loop_
_atom_site_type_symbol
_atom_site_label
_atom_site_fract_x
_atom_site_fract_y
_atom_site_fract_z
Si Si1 0.566041 0.742538 0.547523
Si Si2 0.500000 0.713232 0.750000
Si Si3 0.024588 0.892553 0.917665
Si Si4 0.761280 0.460653 0.095872
O O1 0.611259 0.784269 0.743781
O O2 0.704991 0.598267 0.678001
O O3 0.758635 0.811772 0.652800
O O4 0.272520 0.795756 0.204372
O O5 0.712563 0.614972 0.040499
O O6 0.000000 0.949461 0.750000
O O7 0.000000 0.000000 0.000000
O O8 0.500000 0.406937 0.750000
O O9 0.000000 0.432078 0.250000
#
# Coordination Sequence:
#
# PCOD9234629 Si02
#       4
#     4   2   4   4
#     4  12  25  45  74 105 147 187 237 292 363 417
#     4  10  28  38  74 106 154 190 234 282 348 444
#     4  12  29  50  78 102 138 184 246 304 360 418
#     4  10  22  40  66 103 144 188 234 277 348 414
#
# _framework density 25.775829999999999
#
# number of rings (size 3 to 8) (size 9 to 14) (size 15 to 20)
#    0.857    0.000    0.000    6.857    8.000    1.143 
#    0.000    0.000    0.000    0.000    0.000    0.000 
#    0.000    0.000    0.000    0.000    0.000    0.000 
#
# Total GULP energy -78024.276641 kJ/mol
# GULP energy per Si atom -5573.162617 kJ/mol
# Density = 2.571716 g / cm^3
# Si number density = 25.775830 Si / 1000 Ang^3
#
#
#
# Elastic Constant Matrix: (Units=GPa)
#
#
# Indices 1 2 3 4 5 6 
#
# 1 163.4961 22.0623 59.0661 0.0000 7.4742 0.0000
# 2 22.0623 54.8854 24.3677 0.0000 4.6388 0.0000
# 3 59.0661 24.3677 116.9891 0.0000 33.1425 0.0000
# 4 0.0000 0.0000 0.0000 20.6566 0.0000 -11.2503
# 5 7.4742 4.6388 33.1425 0.0000 57.7801 0.0000
# 6 0.0000 0.0000 0.0000 -11.2503 0.0000 46.8313
#
#
#
# Elastic Compliance Matrix: (Units=1/GPa)
#
#
# Indices 1 2 3 4 5 6 
#
# 1 0.007683 -0.001442 -0.003976 0.000000 0.001403 0.000000
# 2 -0.001442 0.020390 -0.003711 0.000000 0.000678 0.000000
# 3 -0.003976 -0.003711 0.013252 0.000000 -0.006789 0.000000
# 4 0.000000 0.000000 0.000000 0.055698 0.000000 0.013380
# 5 0.001403 0.000678 -0.006789 0.000000 0.020965 0.000000
# 6 0.000000 0.000000 0.000000 0.013380 0.000000 0.024568
#
#
# Mechanical properties :
#
#
# Convention : Reuss Voigt Hill
#
# Bulk Modulus (GPa) = 43.35341 60.70699 52.03020
# Shear Modulus (GPa) = 29.67315 40.37855 35.02585
#
# Velocity S-wave (km/s) = 3.39662 3.96223 3.69028
# Velocity P-wave (km/s) = 5.67790 6.67349 6.19572
#
# Compressibility (1/GPa) = 0.02306624
#
# Stress axis : x y z
#
# Youngs Moduli (GPa) = 130.15293 49.04443 75.46247
#
# Poissons Ratio (x) = 0.07070 0.30006
# Poissons Ratio (y) = 0.18763 0.28006
# Poissons Ratio (z) = 0.51752 0.18202
#
# Static dielectric constant tensor:
#      x y z
#    x 2.180610 0.000000 -0.095950 
#    y 0.000000 3.127980 0.000000 
#    z -0.095950 0.000000 2.089410 
# 
# From -- ./inp_files/33471.got.cif
#   From: 2010.05.17/outbox.cif.g08.bks.cpg/sg13_17_cif.got.tgz:33471.got - 2010.06.03 16:44:36.
