data_PCOD9234587
_publ_section_title
;
Structure prediction by ZEFSAII (Michael W. Deem and Ramdas Pophale) SiO2 
 PCOD9234587
Probable space group: P 2/C
;
_chemical_formula_sum "Si O2"
_cell_formula_units_Z 20
_cell_length_a 25.457927
_cell_length_b 4.323387
_cell_length_c 7.896196
_cell_angle_alpha 90.000000
_cell_angle_beta 130.176021
_cell_angle_gamma 90.000000
_cell_volume 664.042685
_symmetry_space_group_name_H-M "P 2/C"
_symmetry_group_IT_number 13
_symmetry_cell_setting 'monoclinic'
loop_
_space_group_symop_operation_xyz
x,y,z
-x,y,1/2-z
-x,-y,-z
x,-y,1/2+z
loop_
_atom_site_type_symbol
_atom_site_label
_atom_site_fract_x
_atom_site_fract_y
_atom_site_fract_z
Si Si1 0.202151 0.307306 0.895109
Si Si2 0.896385 0.731681 0.036889
Si Si3 0.500000 0.178053 0.250000
Si Si4 0.000000 0.765869 0.750000
Si Si5 0.304010 0.697026 0.341866
Si Si6 0.598114 0.256983 0.728498
O O1 0.153481 0.544770 0.691409
O O2 0.151576 0.128743 0.915962
O O3 0.250974 0.140190 0.859723
O O4 0.254837 0.486022 0.125819
O O5 0.948078 0.478293 0.228188
O O6 0.945268 0.992866 0.057659
O O7 0.543330 0.376809 0.474521
O O8 0.446920 0.970265 0.249159
O O9 0.356793 0.491323 0.565482
O O10 0.347559 0.888174 0.294044
#
# Coordination Sequence:
#
# PCOD9234587 Si02
#       6
#     4   4   2   2   4   4
#     4   9  20  40  62  90 128 167 236 292 348 419
#     4  10  22  41  64  97 134 178 234 294 360 428
#     4  10  24  40  58 102 140 172 220 288 348 428
#     4  10  24  40  66  96 136 180 228 294 364 428
#     4   9  20  42  66  90 124 179 228 284 342 423
#     4  10  22  40  64  91 132 170 222 276 346 412
#
# _framework density 30.118542999999999
#
# number of rings (size 3 to 8) (size 9 to 14) (size 15 to 20)
#    0.000    2.400    0.000    0.000    0.000   15.200 
#    0.000   30.000    0.000    0.000    0.000    0.000 
#    0.000    0.000    0.000    0.000    0.000    0.000 
#
# Total GULP energy -111871.987156 kJ/mol
# GULP energy per Si atom -5593.599358 kJ/mol
# Density = 3.004999 g / cm^3
# Si number density = 30.118543 Si / 1000 Ang^3
#
#
#
# Elastic Constant Matrix: (Units=GPa)
#
#
# Indices 1 2 3 4 5 6 
#
# 1 271.0640 61.0638 67.2668 0.0000 15.6406 0.0000
# 2 61.0638 97.2276 77.0857 0.0000 16.3120 0.0000
# 3 67.2668 77.0857 258.4640 0.0000 12.1549 0.0000
# 4 0.0000 0.0000 0.0000 63.1606 0.0000 52.8761
# 5 15.6406 16.3120 12.1549 0.0000 29.8244 0.0000
# 6 0.0000 0.0000 0.0000 52.8761 0.0000 -38.4187
#
#
#
# Elastic Compliance Matrix: (Units=1/GPa)
#
#
# Indices 1 2 3 4 5 6 
#
# 1 0.004351 -0.002253 -0.000419 0.000000 -0.000879 0.000000
# 2 -0.002253 0.015715 -0.003825 0.000000 -0.005855 0.000000
# 3 -0.000419 -0.003825 0.005108 0.000000 0.000230 0.000000
# 4 0.000000 0.000000 0.000000 0.007356 0.000000 0.010125
# 5 -0.000879 -0.005855 0.000230 0.000000 0.037099 0.000000
# 6 0.000000 0.000000 0.000000 0.010125 0.000000 -0.012094
#
#
# Mechanical properties :
#
#
# Convention : Reuss Voigt Hill
#
# Bulk Modulus (GPa) = 82.10392 115.28759 98.69576
# Shear Modulus (GPa) = 67.03202 39.00255 53.01729
#
# Velocity S-wave (km/s) = 4.72275 3.60247 4.20013
# Velocity P-wave (km/s) = 7.55371 7.46088 7.50744
#
# Compressibility (1/GPa) = 0.01217969
#
# Stress axis : x y z
#
# Youngs Moduli (GPa) = 229.80692 63.63218 195.76536
#
# Poissons Ratio (x) = 0.14337 0.08206
# Poissons Ratio (y) = 0.51779 0.74886
# Poissons Ratio (z) = 0.09633 0.24341
#
# Static dielectric constant tensor:
#      x y z
#    x 2.314310 0.000000 0.026670 
#    y 0.000000 2.261210 0.000000 
#    z 0.026670 0.000000 2.309540 
# 
# From -- ./inp_files/23704.got.cif
#   From: 2010.05.17/outbox.cif.g08.bks.cpg/sg13_12_cif.got.tgz:23704.got - 2010.06.03 16:44:36.
