data_PCOD9234306
_publ_section_title
;
Structure prediction by ZEFSAII (Michael W. Deem and Ramdas Pophale) SiO2 
 PCOD9234306
Probable space group: P 2/C
;
_chemical_formula_sum "Si O2"
_cell_formula_units_Z 20
_cell_length_a 24.459287
_cell_length_b 8.172966
_cell_length_c 15.324775
_cell_angle_alpha 90.000000
_cell_angle_beta 18.055274
_cell_angle_gamma 90.000000
_cell_volume 949.483233
_symmetry_space_group_name_H-M "P 2/C"
_symmetry_group_IT_number 13
_symmetry_cell_setting 'monoclinic'
loop_
_space_group_symop_operation_xyz
x,y,z
-x,y,1/2-z
-x,-y,-z
x,-y,1/2+z
loop_
_atom_site_type_symbol
_atom_site_label
_atom_site_fract_x
_atom_site_fract_y
_atom_site_fract_z
Si Si1 0.034187 0.089152 0.353530
Si Si2 0.644579 0.700636 0.193943
Si Si3 0.000000 0.872254 0.250000
Si Si4 0.136967 0.435790 0.864483
Si Si5 0.500000 0.507532 0.250000
Si Si6 0.733822 0.616685 0.663346
O O1 0.941248 0.263970 0.489852
O O2 0.944420 0.979330 0.415925
O O3 0.232993 0.142629 0.016171
O O4 0.000000 0.000000 0.500000
O O5 0.581673 0.624768 0.198544
O O6 0.459626 0.696724 0.528781
O O7 0.742077 0.551390 0.096197
O O8 0.847097 0.755873 0.447320
O O9 0.334766 0.402842 0.530910
O O10 0.175437 0.567674 0.882213
O O11 0.000000 0.500000 0.000000
#
# Coordination Sequence:
#
# PCOD9234306 Si02
#       6
#     4   4   2   4   2   4
#     4  12  26  41  64 100 143 177 214 280 356 412
#     4  10  22  44  70  96 129 177 237 276 329 404
#     4  12  26  42  64 102 140 176 216 280 362 406
#     4  11  21  43  69  96 126 177 232 273 326 399
#     4  10  22  38  74  94 122 166 242 276 310 388
#     4  10  23  43  74  94 128 181 234 286 325 404
#
# _framework density 21.064091999999999
#
# number of rings (size 3 to 8) (size 9 to 14) (size 15 to 20)
#    0.000    1.200    2.000    3.600    5.600    0.800 
#    3.600    0.000    0.000    0.000    0.000    0.000 
#    0.000    0.000    0.000    0.000    0.000    0.000 
#
# Total GULP energy -111402.144312 kJ/mol
# GULP energy per Si atom -5570.107216 kJ/mol
# Density = 2.101615 g / cm^3
# Si number density = 21.064092 Si / 1000 Ang^3
#
#
#
# Elastic Constant Matrix: (Units=GPa)
#
#
# Indices 1 2 3 4 5 6 
#
# 1 87.6431 4.0335 2.3225 0.0000 -7.6636 0.0000
# 2 4.0335 74.4982 40.6136 0.0000 -1.2865 0.0000
# 3 2.3225 40.6136 97.7428 0.0000 -3.3287 0.0000
# 4 0.0000 0.0000 0.0000 42.2982 0.0000 19.9066
# 5 -7.6636 -1.2865 -3.3287 0.0000 28.0690 0.0000
# 6 0.0000 0.0000 0.0000 19.9066 0.0000 4.7545
#
#
#
# Elastic Compliance Matrix: (Units=1/GPa)
#
#
# Indices 1 2 3 4 5 6 
#
# 1 0.011715 -0.000629 0.000091 0.000000 0.003180 0.000000
# 2 -0.000629 0.017388 -0.007218 0.000000 -0.000231 0.000000
# 3 0.000091 -0.007218 0.013271 0.000000 0.001268 0.000000
# 4 0.000000 0.000000 0.000000 -0.024361 0.000000 0.101998
# 5 0.003180 -0.000231 0.001268 0.000000 0.036635 0.000000
# 6 0.000000 0.000000 0.000000 0.101998 0.000000 -0.216729
#
#
# Mechanical properties :
#
#
# Convention : Reuss Voigt Hill
#
# Bulk Modulus (GPa) = 37.22682 39.31371 38.27026
# Shear Modulus (GPa) = -36.33308 29.21864 -3.55722
#
# Velocity S-wave (km/s) = -4.15768 3.72846 -1.30093
# Velocity P-wave (km/s) = 2.31017 6.10243 3.99392
#
# Compressibility (1/GPa) = 0.02686236
#
# Stress axis : x y z
#
# Youngs Moduli (GPa) = 85.36404 57.51036 75.35159
#
# Poissons Ratio (x) = 0.03618 -0.00689
# Poissons Ratio (y) = 0.05371 0.54388
# Poissons Ratio (z) = -0.00780 0.41511
#
# Static dielectric constant tensor:
#      x y z
#    x 1.779830 0.000000 0.045050 
#    y 0.000000 1.735490 0.000000 
#    z 0.045050 0.000000 1.891970 
# 
# From -- ./inp_files/58480.got.cif
#   From: 2010.05.17/outbox.cif.g08.bks.cpg/sg13_30_cif.got.tgz:58480.got - 2010.06.03 16:44:36.
