data_PCOD9234034
_publ_section_title
;
Structure prediction by ZEFSAII (Michael W. Deem and Ramdas Pophale) SiO2 
 PCOD9234034
Probable space group: P 2/C
;
_chemical_formula_sum "Si O2"
_cell_formula_units_Z 26
_cell_length_a 10.779283
_cell_length_b 11.198883
_cell_length_c 10.421681
_cell_angle_alpha 90.000000
_cell_angle_beta 101.873471
_cell_angle_gamma 90.000000
_cell_volume 1231.145840
_symmetry_space_group_name_H-M "P 2/C"
_symmetry_group_IT_number 13
_symmetry_cell_setting 'monoclinic'
loop_
_space_group_symop_operation_xyz
x,y,z
-x,y,1/2-z
-x,-y,-z
x,-y,1/2+z
loop_
_atom_site_type_symbol
_atom_site_label
_atom_site_fract_x
_atom_site_fract_y
_atom_site_fract_z
Si Si1 0.368748 0.751463 0.169173
Si Si2 0.622816 0.028060 0.362963
Si Si3 0.000000 0.472693 0.250000
Si Si4 0.747244 0.174691 0.586822
Si Si5 0.151117 0.062196 0.282113
Si Si6 0.984119 0.297113 0.602833
Si Si7 0.820184 0.705000 0.570150
O O1 0.500000 0.701676 0.250000
O O2 0.289051 0.772495 0.282647
O O3 0.296522 0.674091 0.047565
O O4 0.389029 0.885468 0.116112
O O5 0.500000 0.056346 0.250000
O O6 0.630497 0.121770 0.481192
O O7 0.761085 0.039799 0.323696
O O8 0.023206 0.565795 0.138770
O O9 0.115641 0.392253 0.323761
O O10 0.838476 0.270703 0.538414
O O11 0.826051 0.053605 0.626468
O O12 0.211685 0.180752 0.353265
O O13 0.000000 0.081596 0.250000
O O14 0.000000 0.242665 0.750000
O O15 0.072476 0.252253 0.509280
#
# Coordination Sequence:
#
# PCOD9234034 Si02
#       7
#     4   4   2   4   4   4   4
#     4  10  22  36  58  87 122 168 202 239 290 365
#     4  10  23  37  55  88 131 171 201 232 295 375
#     4  10  24  40  62  86 118 158 196 262 314 360
#     4  11  21  37  60  85 128 159 198 242 302 370
#     4  11  23  34  58  95 124 158 195 260 308 352
#     4  10  22  38  60  87 113 157 190 248 309 363
#     4  12  21  40  59  90 119 153 204 248 308 357
#
# _framework density 21.118538000000001
#
# number of rings (size 3 to 8) (size 9 to 14) (size 15 to 20)
#    0.462    0.923    3.846    1.846    4.308    3.077 
#    0.000    0.000    0.000    4.615    0.000    0.000 
#    0.000    0.000    0.000    0.000    0.000    0.000 
#
# Total GULP energy -144867.668569 kJ/mol
# GULP energy per Si atom -5571.833407 kJ/mol
# Density = 2.107047 g / cm^3
# Si number density = 21.118538 Si / 1000 Ang^3
#
#
#
# Elastic Constant Matrix: (Units=GPa)
#
#
# Indices 1 2 3 4 5 6 
#
# 1 80.8512 0.4169 22.5633 0.0000 12.1956 0.0000
# 2 0.4169 47.8270 30.4423 0.0000 10.3564 0.0000
# 3 22.5633 30.4423 87.5839 0.0000 29.9001 0.0000
# 4 0.0000 0.0000 0.0000 25.0361 0.0000 0.9567
# 5 12.1956 10.3564 29.9001 0.0000 47.0921 0.0000
# 6 0.0000 0.0000 0.0000 0.9567 0.0000 23.4888
#
#
#
# Elastic Compliance Matrix: (Units=1/GPa)
#
#
# Indices 1 2 3 4 5 6 
#
# 1 0.013696 0.002729 -0.003908 0.000000 -0.001666 0.000000
# 2 0.002729 0.027392 -0.010120 0.000000 -0.000305 0.000000
# 3 -0.003908 -0.010120 0.018942 0.000000 -0.008789 0.000000
# 4 0.000000 0.000000 0.000000 0.040005 0.000000 -0.001629
# 5 -0.001666 -0.000305 -0.008789 0.000000 0.027314 0.000000
# 6 0.000000 0.000000 0.000000 -0.001629 0.000000 0.042640
#
#
# Mechanical properties :
#
#
# Convention : Reuss Voigt Hill
#
# Bulk Modulus (GPa) = 26.71446 35.90078 31.30762
# Shear Modulus (GPa) = 24.38246 29.97939 27.18093
#
# Velocity S-wave (km/s) = 3.40156 3.77182 3.59146
# Velocity P-wave (km/s) = 5.30138 6.00045 5.66171
#
# Compressibility (1/GPa) = 0.03743292
#
# Stress axis : x y z
#
# Youngs Moduli (GPa) = 73.01254 36.50658 52.79138
#
# Poissons Ratio (x) = -0.09963 0.20633
# Poissons Ratio (y) = -0.19925 0.53423
# Poissons Ratio (z) = 0.28536 0.36944
#
# Static dielectric constant tensor:
#      x y z
#    x 1.832310 0.000000 0.033880 
#    y 0.000000 1.744450 0.000000 
#    z 0.033880 0.000000 1.845250 
# 
# From -- ./inp_files/33316.got.cif
#   From: 2010.05.17/outbox.cif.g08.bks.cpg/sg13_17_cif.got.tgz:33316.got - 2010.06.03 16:44:36.
