data_PCOD9234970
_publ_section_title
;
Structure prediction by ZEFSAII (Michael W. Deem and Ramdas Pophale) SiO2 
 PCOD9234970
Probable space group: P 2/C
;
_chemical_formula_sum "Si O2"
_cell_formula_units_Z 24
_cell_length_a 11.733907
_cell_length_b 14.881538
_cell_length_c 14.387522
_cell_angle_alpha 90.000000
_cell_angle_beta 150.744535
_cell_angle_gamma 90.000000
_cell_volume 1227.786242
_symmetry_space_group_name_H-M "P 2/C"
_symmetry_group_IT_number 13
_symmetry_cell_setting 'monoclinic'
loop_
_space_group_symop_operation_xyz
x,y,z
-x,y,1/2-z
-x,-y,-z
x,-y,1/2+z
loop_
_atom_site_type_symbol
_atom_site_label
_atom_site_fract_x
_atom_site_fract_y
_atom_site_fract_z
Si Si1 0.849221 0.652952 0.800764
Si Si2 0.500000 0.955809 0.250000
Si Si3 0.110906 0.644098 0.452273
Si Si4 0.960059 0.160900 0.111189
Si Si5 0.440481 0.076892 0.385893
Si Si6 0.344840 0.265635 0.960251
Si Si7 0.000000 0.483292 0.250000
O O1 0.589321 0.691386 0.605789
O O2 0.030135 0.734399 0.910699
O O3 0.881072 0.578266 0.743881
O O4 0.872901 0.627182 0.926606
O O5 0.724124 0.891581 0.420820
O O6 0.460250 0.024281 0.304994
O O7 0.289328 0.711833 0.528694
O O8 0.146711 0.552437 0.418666
O O9 0.861177 0.688920 0.246799
O O10 0.000000 0.156234 0.250000
O O11 0.181815 0.115410 0.218886
O O12 0.620965 0.159350 0.525065
O O13 0.500000 0.000000 0.500000
#
# Coordination Sequence:
#
# PCOD9234970 Si02
#       7
#     4   2   4   4   4   4   2
#     4  11  22  41  67  86 131 163 201 258 316 372
#     4  12  26  42  66  92 128 168 218 256 314 370
#     4  10  23  41  66  93 123 164 211 252 316 377
#     4  11  24  42  62  93 126 167 210 259 316 369
#     4  11  24  41  65  92 128 167 213 264 306 370
#     4   9  23  41  62  92 125 163 210 257 310 366
#     4  10  22  42  62 100 122 160 210 256 304 386
#
# _framework density 19.547377000000001
#
# number of rings (size 3 to 8) (size 9 to 14) (size 15 to 20)
#    0.000    1.667    2.500    1.500    7.000    5.333 
#    0.000    3.333    0.000    0.000    0.000    0.000 
#    0.000    0.000    0.000    0.000    0.000    0.000 
#
# Total GULP energy -133866.104919 kJ/mol
# GULP energy per Si atom -5577.754372 kJ/mol
# Density = 1.950289 g / cm^3
# Si number density = 19.547377 Si / 1000 Ang^3
#
#
#
# Elastic Constant Matrix: (Units=GPa)
#
#
# Indices 1 2 3 4 5 6 
#
# 1 128.3244 74.5991 25.9620 0.0000 -19.4072 0.0000
# 2 74.5991 144.6892 41.2455 0.0000 -8.3242 0.0000
# 3 25.9620 41.2455 48.4643 0.0000 -1.9180 0.0000
# 4 0.0000 0.0000 0.0000 -22.5206 0.0000 -14.2157
# 5 -19.4072 -8.3242 -1.9180 0.0000 35.8202 0.0000
# 6 0.0000 0.0000 0.0000 -14.2157 0.0000 39.3555
#
#
#
# Elastic Compliance Matrix: (Units=1/GPa)
#
#
# Indices 1 2 3 4 5 6 
#
# 1 0.012085 -0.005473 -0.001611 0.000000 0.005190 0.000000
# 2 -0.005473 0.011709 -0.007058 0.000000 -0.000622 0.000000
# 3 -0.001611 -0.007058 0.027462 0.000000 -0.001042 0.000000
# 4 0.000000 0.000000 0.000000 -0.036159 0.000000 -0.013061
# 5 0.005190 -0.000622 -0.001042 0.000000 0.030528 0.000000
# 6 0.000000 0.000000 0.000000 -0.013061 0.000000 0.020692
#
#
# Mechanical properties :
#
#
# Convention : Reuss Voigt Hill
#
# Bulk Modulus (GPa) = 43.52934 67.23234 55.38084
# Shear Modulus (GPa) = 48.89569 22.50912 35.70241
#
# Velocity S-wave (km/s) = 5.00682 3.39708 4.27834
# Velocity P-wave (km/s) = 7.46601 7.06089 7.26627
#
# Compressibility (1/GPa) = 0.02297301
#
# Stress axis : x y z
#
# Youngs Moduli (GPa) = 82.74588 85.40131 36.41407
#
# Poissons Ratio (x) = 0.46742 0.05865
# Poissons Ratio (y) = 0.45289 0.25701
# Poissons Ratio (z) = 0.13327 0.60276
#
# Static dielectric constant tensor:
#      x y z
#    x 1.666710 0.000000 0.003580 
#    y 0.000000 1.705100 0.000000 
#    z 0.003580 0.000000 1.679170 
# 
# From -- ./inp_files/51535.got.cif
#   From: 2010.05.17/outbox.cif.g08.bks.cpg/sg13_26_cif.got.tgz:51535.got - 2010.06.03 16:44:36.
