data_PCOD9234951
_publ_section_title
;
Structure prediction by ZEFSAII (Michael W. Deem and Ramdas Pophale) SiO2 
 PCOD9234951
Probable space group: P 2/C
;
_chemical_formula_sum "Si O2"
_cell_formula_units_Z 22
_cell_length_a 7.850161
_cell_length_b 12.525721
_cell_length_c 15.436022
_cell_angle_alpha 90.000000
_cell_angle_beta 34.084364
_cell_angle_gamma 90.000000
_cell_volume 850.599033
_symmetry_space_group_name_H-M "P 2/C"
_symmetry_group_IT_number 13
_symmetry_cell_setting 'monoclinic'
loop_
_space_group_symop_operation_xyz
x,y,z
-x,y,1/2-z
-x,-y,-z
x,-y,1/2+z
loop_
_atom_site_type_symbol
_atom_site_label
_atom_site_fract_x
_atom_site_fract_y
_atom_site_fract_z
Si Si1 0.000000 0.869360 0.250000
Si Si2 0.154255 0.928308 0.767597
Si Si3 0.707189 0.147681 0.584767
Si Si4 0.193744 0.571783 0.041855
Si Si5 0.278160 0.215191 0.456425
Si Si6 0.550959 0.628844 0.373346
O O1 0.842802 0.807630 0.394116
O O2 0.771416 0.954287 0.300753
O O3 0.440499 0.862361 0.676578
O O4 0.000000 0.869586 0.750000
O O5 0.881144 0.936323 0.950615
O O6 0.500000 0.103871 0.750000
O O7 0.546738 0.248666 0.603810
O O8 0.997221 0.196163 0.512755
O O9 0.321692 0.597796 0.084837
O O10 0.835757 0.598207 0.192702
O O11 0.364869 0.661237 0.913913
O O12 0.272547 0.452722 0.980654
#
# Coordination Sequence:
#
# PCOD9234951 Si02
#       6
#     2   4   4   4   4   4
#     4  10  26  48  82 106 146 190 258 314 376 446
#     4  10  26  47  75 109 139 199 249 313 363 450
#     4  12  26  45  71 111 156 190 241 309 378 434
#     4  10  22  41  74 101 145 195 248 292 360 443
#     4  12  24  45  76 108 149 195 245 308 378 443
#     4  10  22  43  65 110 141 197 242 299 357 441
#
# _framework density 25.864125999999999
#
# number of rings (size 3 to 8) (size 9 to 14) (size 15 to 20)
#    0.545    0.727    1.818    3.273    5.091    1.455 
#    0.000    0.000    0.000    0.000    0.000    0.000 
#    0.000    0.000    0.000    0.000    0.000    0.000 
#
# Total GULP energy -123145.639197 kJ/mol
# GULP energy per Si atom -5597.529054 kJ/mol
# Density = 2.580526 g / cm^3
# Si number density = 25.864126 Si / 1000 Ang^3
#
#
#
# Elastic Constant Matrix: (Units=GPa)
#
#
# Indices 1 2 3 4 5 6 
#
# 1 77.6636 -8.5584 23.4866 0.0000 4.7813 0.0000
# 2 -8.5584 113.0807 40.4438 0.0000 -3.5512 0.0000
# 3 23.4866 40.4438 125.4562 0.0000 -4.3334 0.0000
# 4 0.0000 0.0000 0.0000 40.4950 0.0000 -12.8669
# 5 4.7813 -3.5512 -4.3334 0.0000 42.9122 0.0000
# 6 0.0000 0.0000 0.0000 -12.8669 0.0000 20.4502
#
#
#
# Elastic Compliance Matrix: (Units=1/GPa)
#
#
# Indices 1 2 3 4 5 6 
#
# 1 0.014281 0.002265 -0.003464 0.000000 -0.001754 0.000000
# 2 0.002265 0.010366 -0.003758 0.000000 0.000226 0.000000
# 3 -0.003464 -0.003758 0.009868 0.000000 0.001071 0.000000
# 4 0.000000 0.000000 0.000000 0.030865 0.000000 0.019420
# 5 -0.001754 0.000226 0.001071 0.000000 0.023626 0.000000
# 6 0.000000 0.000000 0.000000 0.019420 0.000000 0.061118
#
#
# Mechanical properties :
#
#
# Convention : Reuss Voigt Hill
#
# Bulk Modulus (GPa) = 40.64998 47.43829 44.04414
# Shear Modulus (GPa) = 29.71988 38.16008 33.93998
#
# Velocity S-wave (km/s) = 3.39348 3.84527 3.62642
# Velocity P-wave (km/s) = 5.57720 6.17219 5.88222
#
# Compressibility (1/GPa) = 0.02460026
#
# Stress axis : x y z
#
# Youngs Moduli (GPa) = 70.02204 96.47158 101.33886
#
# Poissons Ratio (x) = -0.21849 0.35106
# Poissons Ratio (y) = -0.15859 0.38081
# Poissons Ratio (z) = 0.24257 0.36252
#
# Static dielectric constant tensor:
#      x y z
#    x 2.168330 0.000000 0.007700 
#    y 0.000000 1.998140 0.000000 
#    z 0.007700 0.000000 2.010370 
# 
# From -- ./inp_files/64591.got.cif
#   From: 2010.05.17/outbox.cif.g08.bks.cpg/sg13_33_cif.got.tgz:64591.got - 2010.06.03 16:44:36.
