data_PCOD9234625
_publ_section_title
;
Structure prediction by ZEFSAII (Michael W. Deem and Ramdas Pophale) SiO2 
 PCOD9234625
Probable space group: P 2/C
;
_chemical_formula_sum "Si O2"
_cell_formula_units_Z 28
_cell_length_a 14.881143
_cell_length_b 5.674738
_cell_length_c 24.364846
_cell_angle_alpha 90.000000
_cell_angle_beta 33.573605
_cell_angle_gamma 90.000000
_cell_volume 1137.829050
_symmetry_space_group_name_H-M "P 2/C"
_symmetry_group_IT_number 13
_symmetry_cell_setting 'monoclinic'
loop_
_space_group_symop_operation_xyz
x,y,z
-x,y,1/2-z
-x,-y,-z
x,-y,1/2+z
loop_
_atom_site_type_symbol
_atom_site_label
_atom_site_fract_x
_atom_site_fract_y
_atom_site_fract_z
Si Si1 0.532572 0.459992 0.116043
Si Si2 0.000000 0.905892 0.750000
Si Si3 0.930736 0.713602 0.972552
Si Si4 0.500000 0.780867 0.750000
Si Si5 0.803032 0.254033 0.251642
Si Si6 0.159166 0.202335 0.456996
Si Si7 0.415765 0.157754 0.619710
Si Si8 0.697550 0.199427 0.940121
O O1 0.511439 0.352786 0.186198
O O2 0.364219 0.392155 0.170042
O O3 0.507143 0.736275 0.126266
O O4 0.672917 0.384908 0.001840
O O5 0.128708 0.073024 0.653061
O O6 0.103143 0.744203 0.738714
O O7 0.076338 0.665664 0.856834
O O8 0.006335 0.758217 0.994451
O O9 0.824081 0.473738 0.028813
O O10 0.865412 0.976902 0.990898
O O11 0.681860 0.883626 0.657881
O O12 0.740509 0.984367 0.279381
O O13 0.353247 0.282477 0.595171
O O14 0.560155 0.991898 0.524369
#
# Coordination Sequence:
#
# PCOD9234625 Si02
#       8
#     4   2   4   2   4   4   4   4
#     4  11  23  42  66  94 138 181 230 285 353 418
#     4  10  22  40  66 100 134 164 232 286 364 434
#     4  10  22  44  70  95 142 186 232 303 358 418
#     4  12  26  44  62 108 136 194 250 284 344 436
#     4  10  22  41  66  97 133 179 219 290 357 429
#     4  10  24  43  67 100 135 188 247 290 351 422
#     4   9  20  40  67  91 130 172 224 286 352 425
#     4   9  20  41  64  97 125 171 222 287 352 426
#
# _framework density 24.608264999999999
#
# number of rings (size 3 to 8) (size 9 to 14) (size 15 to 20)
#    0.000    2.000    1.429    1.286    4.000    2.857 
#    2.571    6.429    0.000    0.000    0.000    0.000 
#    0.000    0.000    0.000    0.000    0.000    0.000 
#
# Total GULP energy -155929.372607 kJ/mol
# GULP energy per Si atom -5568.906165 kJ/mol
# Density = 2.455226 g / cm^3
# Si number density = 24.608265 Si / 1000 Ang^3
#
#
#
# Elastic Constant Matrix: (Units=GPa)
#
#
# Indices 1 2 3 4 5 6 
#
# 1 55.8431 -10.4638 -13.4233 0.0000 -0.7904 0.0000
# 2 -10.4638 31.0577 3.0657 0.0000 -2.8413 0.0000
# 3 -13.4233 3.0657 112.6353 0.0000 -18.6303 0.0000
# 4 0.0000 0.0000 0.0000 18.6628 0.0000 -2.4321
# 5 -0.7904 -2.8413 -18.6303 0.0000 34.6967 0.0000
# 6 0.0000 0.0000 0.0000 -2.4321 0.0000 23.9408
#
#
#
# Elastic Compliance Matrix: (Units=1/GPa)
#
#
# Indices 1 2 3 4 5 6 
#
# 1 0.019803 0.006635 0.002572 0.000000 0.002376 0.000000
# 2 0.006635 0.034689 0.000375 0.000000 0.003193 0.000000
# 3 0.002572 0.000375 0.010085 0.000000 0.005504 0.000000
# 4 0.000000 0.000000 0.000000 0.054301 0.000000 0.005516
# 5 0.002376 0.003193 0.005504 0.000000 0.032092 0.000000
# 6 0.000000 0.000000 0.000000 0.005516 0.000000 0.042330
#
#
# Mechanical properties :
#
#
# Convention : Reuss Voigt Hill
#
# Bulk Modulus (GPa) = 11.94161 17.54371 14.74266
# Shear Modulus (GPa) = 24.74644 30.15055 27.44850
#
# Velocity S-wave (km/s) = 3.17458 3.50411 3.34341
# Velocity P-wave (km/s) = 4.27791 4.84937 4.57258
#
# Compressibility (1/GPa) = 0.08374080
#
# Stress axis : x y z
#
# Youngs Moduli (GPa) = 50.49855 28.82777 99.15699
#
# Poissons Ratio (x) = -0.19128 -0.25506
# Poissons Ratio (y) = -0.33507 -0.03716
# Poissons Ratio (z) = -0.12990 -0.01080
#
# Static dielectric constant tensor:
#      x y z
#    x 2.086810 0.000000 -0.047790 
#    y 0.000000 2.299940 0.000000 
#    z -0.047790 0.000000 1.908240 
# 
# From -- ./inp_files/93158.got.cif
#   From: 2010.05.17/outbox.cif.g08.bks.cpg/sg13_47_cif.got.tgz:93158.got - 2010.06.03 16:44:36.
