data_PCOD9234915
_publ_section_title
;
Structure prediction by ZEFSAII (Michael W. Deem and Ramdas Pophale) SiO2 
 PCOD9234915
Probable space group: P 2/C
;
_chemical_formula_sum "Si O2"
_cell_formula_units_Z 12
_cell_length_a 7.912643
_cell_length_b 11.426797
_cell_length_c 4.887830
_cell_angle_alpha 90.000000
_cell_angle_beta 97.014933
_cell_angle_gamma 90.000000
_cell_volume 438.630648
_symmetry_space_group_name_H-M "P 2/C"
_symmetry_group_IT_number 13
_symmetry_cell_setting 'monoclinic'
loop_
_space_group_symop_operation_xyz
x,y,z
-x,y,1/2-z
-x,-y,-z
x,-y,1/2+z
loop_
_atom_site_type_symbol
_atom_site_label
_atom_site_fract_x
_atom_site_fract_y
_atom_site_fract_z
Si Si1 0.706642 0.570646 0.288886
Si Si2 0.817171 0.188954 0.080874
Si Si3 0.626480 0.109684 0.578824
O O1 0.500000 0.574284 0.250000
O O2 0.757509 0.461401 0.491959
O O3 0.791088 0.686332 0.428777
O O4 0.000000 0.177608 0.250000
O O5 0.782065 0.095863 0.825446
O O6 0.690446 0.169028 0.315165
O O7 0.500000 0.184720 0.750000
O O8 0.500000 0.000000 0.500000
#
# Coordination Sequence:
#
# PCOD9234915 Si02
#       3
#     4   4   4
#     4  10  22  41  69 107 148 195 247 295 355 444
#     4  12  26  46  75 112 151 190 244 314 381 437
#     4  12  26  49  75 101 139 197 253 301 369 451
#
# _framework density 27.357870999999999
#
# number of rings (size 3 to 8) (size 9 to 14) (size 15 to 20)
#    0.000    0.667    0.000    8.000    0.000    6.667 
#    0.000   16.667    0.000    0.000    0.000    0.000 
#    0.000    0.000    0.000    0.000    0.000    0.000 
#
# Total GULP energy -67086.420206 kJ/mol
# GULP energy per Si atom -5590.535017 kJ/mol
# Density = 2.729560 g / cm^3
# Si number density = 27.357871 Si / 1000 Ang^3
#
#
#
# Elastic Constant Matrix: (Units=GPa)
#
#
# Indices 1 2 3 4 5 6 
#
# 1 88.4832 30.7083 48.0337 0.0000 -0.2344 0.0000
# 2 30.7083 141.2824 79.2682 0.0000 17.1925 0.0000
# 3 48.0337 79.2682 262.1233 0.0000 6.5064 0.0000
# 4 0.0000 0.0000 0.0000 69.2405 0.0000 3.6904
# 5 -0.2344 17.1925 6.5064 0.0000 61.2998 0.0000
# 6 0.0000 0.0000 0.0000 3.6904 0.0000 12.3188
#
#
#
# Elastic Compliance Matrix: (Units=1/GPa)
#
#
# Indices 1 2 3 4 5 6 
#
# 1 0.012947 -0.001886 -0.001821 0.000000 0.000772 0.000000
# 2 -0.001886 0.009084 -0.002344 0.000000 -0.002306 0.000000
# 3 -0.001821 -0.002344 0.004854 0.000000 0.000135 0.000000
# 4 0.000000 0.000000 0.000000 0.014677 0.000000 -0.004397
# 5 0.000772 -0.002306 0.000135 0.000000 0.016949 0.000000
# 6 0.000000 0.000000 0.000000 -0.004397 0.000000 0.082494
#
#
# Mechanical properties :
#
#
# Convention : Reuss Voigt Hill
#
# Bulk Modulus (GPa) = 67.65034 89.76767 78.70901
# Shear Modulus (GPa) = 31.63865 50.83042 41.23453
#
# Velocity S-wave (km/s) = 3.40439 4.31511 3.88651
# Velocity P-wave (km/s) = 6.34308 7.59674 6.99804
#
# Compressibility (1/GPa) = 0.01478189
#
# Stress axis : x y z
#
# Youngs Moduli (GPa) = 77.23850 110.08588 206.00393
#
# Poissons Ratio (x) = 0.20764 0.37519
# Poissons Ratio (y) = 0.14568 0.48290
# Poissons Ratio (z) = 0.14067 0.25806
#
# Static dielectric constant tensor:
#      x y z
#    x 2.260750 0.000000 0.001320 
#    y 0.000000 2.306800 0.000000 
#    z 0.001320 0.000000 2.375240 
# 
# From -- ./inp_files/1170.got.cif
#   From: 2010.05.17/outbox.cif.g08.bks.cpg/sg13_1_cif.got.tgz:1170.got - 2010.06.03 16:44:36.
