data_PCOD9234224
_publ_section_title
;
Structure prediction by ZEFSAII (Michael W. Deem and Ramdas Pophale) SiO2 
 PCOD9234224
Probable space group: P 2/C
;
_chemical_formula_sum "Si O2"
_cell_formula_units_Z 24
_cell_length_a 11.369673
_cell_length_b 17.778792
_cell_length_c 5.354444
_cell_angle_alpha 90.000000
_cell_angle_beta 56.830621
_cell_angle_gamma 90.000000
_cell_volume 905.981959
_symmetry_space_group_name_H-M "P 2/C"
_symmetry_group_IT_number 13
_symmetry_cell_setting 'monoclinic'
loop_
_space_group_symop_operation_xyz
x,y,z
-x,y,1/2-z
-x,-y,-z
x,-y,1/2+z
loop_
_atom_site_type_symbol
_atom_site_label
_atom_site_fract_x
_atom_site_fract_y
_atom_site_fract_z
Si Si1 0.291286 0.789127 0.734251
Si Si2 0.000000 0.952931 0.250000
Si Si3 0.807575 0.539708 0.820469
Si Si4 0.324151 0.048967 0.316172
Si Si5 0.500000 0.419778 0.750000
Si Si6 0.849066 0.297756 0.477076
Si Si7 0.000000 0.274835 0.750000
Si Si8 0.500000 0.324718 0.250000
O O1 0.271632 0.759940 0.468279
O O2 0.376322 0.727788 0.792338
O O3 0.372900 0.867670 0.675897
O O4 0.128052 0.779582 0.011644
O O5 0.839116 0.926659 0.452091
O O6 0.000000 0.000000 0.500000
O O7 0.857434 0.503103 0.508641
O O8 0.834658 0.628491 0.825531
O O9 0.637717 0.535042 0.015771
O O10 0.354892 0.992387 0.046482
O O11 0.460608 0.371997 0.544957
O O12 0.000000 0.257376 0.250000
O O13 0.897351 0.324806 0.693151
#
# Coordination Sequence:
#
# PCOD9234224 Si02
#       8
#     4   2   4   4   2   4   2   2
#     4  11  24  44  70 104 135 189 236 291 347 418
#     4   8  15  32  52  84 122 167 208 262 329 396
#     4  12  26  43  70 102 141 180 225 284 348 412
#     4  10  22  38  62  94 138 176 225 285 350 410
#     4  12  24  47  68 103 140 180 232 294 338 415
#     4  10  24  44  68  98 137 183 235 282 344 415
#     4  10  23  44  74  96 142 183 242 290 341 410
#     4  12  26  43  80 101 140 182 244 286 344 415
#
# _framework density 26.490594999999999
#
# number of rings (size 3 to 8) (size 9 to 14) (size 15 to 20)
#    0.000    1.333    1.667    3.000    7.000    0.667 
#   15.000    0.833    0.000    0.000    0.000    0.000 
#    0.000    0.000    0.000    0.000    0.000    0.000 
#
# Total GULP energy -133611.723649 kJ/mol
# GULP energy per Si atom -5567.155152 kJ/mol
# Density = 2.643030 g / cm^3
# Si number density = 26.490595 Si / 1000 Ang^3
#
#
#
# Elastic Constant Matrix: (Units=GPa)
#
#
# Indices 1 2 3 4 5 6 
#
# 1 158.7653 51.7338 49.8560 0.0000 30.3819 0.0000
# 2 51.7338 128.3528 46.9413 0.0000 35.3067 0.0000
# 3 49.8560 46.9413 121.9557 0.0000 23.8826 0.0000
# 4 0.0000 0.0000 0.0000 7.4662 0.0000 -2.3017
# 5 30.3819 35.3067 23.8826 0.0000 60.1198 0.0000
# 6 0.0000 0.0000 0.0000 -2.3017 0.0000 2.6634
#
#
#
# Elastic Compliance Matrix: (Units=1/GPa)
#
#
# Indices 1 2 3 4 5 6 
#
# 1 0.007975 -0.001858 -0.002135 0.000000 -0.002090 0.000000
# 2 -0.001858 0.010639 -0.002489 0.000000 -0.004320 0.000000
# 3 -0.002135 -0.002489 0.010337 0.000000 -0.001565 0.000000
# 4 0.000000 0.000000 0.000000 0.182582 0.000000 0.157789
# 5 -0.002090 -0.004320 -0.001565 0.000000 0.020849 0.000000
# 6 0.000000 0.000000 0.000000 0.157789 0.000000 0.511824
#
#
# Mechanical properties :
#
#
# Convention : Reuss Voigt Hill
#
# Bulk Modulus (GPa) = 62.55941 78.45957 70.50949
# Shear Modulus (GPa) = 6.55738 31.41938 18.98838
#
# Velocity S-wave (km/s) = 1.57503 3.44766 2.68021
# Velocity P-wave (km/s) = 5.19371 6.74764 6.02102
#
# Compressibility (1/GPa) = 0.01598481
#
# Stress axis : x y z
#
# Youngs Moduli (GPa) = 125.39576 93.99661 96.73634
#
# Poissons Ratio (x) = 0.17467 0.20658
# Poissons Ratio (y) = 0.23302 0.24080
# Poissons Ratio (z) = 0.26778 0.23398
#
# Static dielectric constant tensor:
#      x y z
#    x 2.163570 0.000000 0.027190 
#    y 0.000000 2.038900 0.000000 
#    z 0.027190 0.000000 2.879340 
# 
# From -- ./inp_files/3623.got.cif
#   From: 2010.05.17/outbox.cif.g08.bks.cpg/sg13_2_cif.got.tgz:3623.got - 2010.06.03 16:44:36.
