data_PCOD9234354
_publ_section_title
;
Structure prediction by ZEFSAII (Michael W. Deem and Ramdas Pophale) SiO2 
 PCOD9234354
Probable space group: P 2/C
;
_chemical_formula_sum "Si O2"
_cell_formula_units_Z 20
_cell_length_a 8.001350
_cell_length_b 5.061647
_cell_length_c 25.271885
_cell_angle_alpha 90.000000
_cell_angle_beta 104.396318
_cell_angle_gamma 90.000000
_cell_volume 991.372433
_symmetry_space_group_name_H-M "P 2/C"
_symmetry_group_IT_number 13
_symmetry_cell_setting 'monoclinic'
loop_
_space_group_symop_operation_xyz
x,y,z
-x,y,1/2-z
-x,-y,-z
x,-y,1/2+z
loop_
_atom_site_type_symbol
_atom_site_label
_atom_site_fract_x
_atom_site_fract_y
_atom_site_fract_z
Si Si1 0.333871 0.943093 0.331658
Si Si2 0.081014 0.412542 0.061388
Si Si3 0.736181 0.927137 0.384417
Si Si4 0.139597 0.179046 0.719407
Si Si5 0.876105 0.546991 0.649509
O O1 0.533270 0.962808 0.361548
O O2 0.307296 0.834361 0.269488
O O3 0.237368 0.220580 0.334306
O O4 0.237128 0.720307 0.358516
O O5 0.181581 0.137222 0.069346
O O6 0.934506 0.389492 0.094921
O O7 0.212758 0.636945 0.092057
O O8 0.000000 0.500000 0.000000
O O9 0.823844 0.960926 0.333158
O O10 0.000000 0.063294 0.750000
O O11 0.049176 0.456639 0.695557
#
# Coordination Sequence:
#
# PCOD9234354 Si02
#       5
#     4   4   4   4   4
#     4  11  22  39  59  92 125 151 187 245 294 344
#     4  11  23  43  63  83 113 158 203 245 290 347
#     4  11  23  39  62  91 118 150 198 246 292 344
#     4   9  20  36  60  86 119 158 189 224 284 355
#     4  10  22  39  61  86 118 159 198 232 286 358
#
# _framework density 20.174054000000002
#
# number of rings (size 3 to 8) (size 9 to 14) (size 15 to 20)
#    0.000    1.600    0.000    6.000    0.000   15.200 
#    0.000   14.000    0.000    0.000    0.000    0.000 
#    0.000    0.000    0.000    0.000    0.000    0.000 
#
# Total GULP energy -111591.376173 kJ/mol
# GULP energy per Si atom -5579.568809 kJ/mol
# Density = 2.012814 g / cm^3
# Si number density = 20.174054 Si / 1000 Ang^3
#
#
#
# Elastic Constant Matrix: (Units=GPa)
#
#
# Indices 1 2 3 4 5 6 
#
# 1 73.9447 32.2699 27.8864 0.0000 12.3903 0.0000
# 2 32.2699 89.7907 -19.3153 0.0000 1.2180 0.0000
# 3 27.8864 -19.3153 69.2106 0.0000 -1.1715 0.0000
# 4 0.0000 0.0000 0.0000 19.5334 0.0000 2.6636
# 5 12.3903 1.2180 -1.1715 0.0000 18.6419 0.0000
# 6 0.0000 0.0000 0.0000 2.6636 0.0000 23.2221
#
#
#
# Elastic Compliance Matrix: (Units=1/GPa)
#
#
# Indices 1 2 3 4 5 6 
#
# 1 0.028258 -0.013211 -0.015392 0.000000 -0.018886 0.000000
# 2 -0.013211 0.018030 0.010495 0.000000 0.008262 0.000000
# 3 -0.015392 0.010495 0.023766 0.000000 0.011038 0.000000
# 4 0.000000 0.000000 0.000000 0.052008 0.000000 -0.005965
# 5 -0.018886 0.008262 0.011038 0.000000 0.066349 0.000000
# 6 0.000000 0.000000 0.000000 -0.005965 0.000000 0.043747
#
#
# Mechanical properties :
#
#
# Convention : Reuss Voigt Hill
#
# Bulk Modulus (GPa) = 29.55268 34.95866 32.25567
# Shear Modulus (GPa) = 17.87921 25.08646 21.48284
#
# Velocity S-wave (km/s) = 2.98022 3.53016 3.26678
# Velocity P-wave (km/s) = 5.15004 5.82942 5.50023
#
# Compressibility (1/GPa) = 0.03383787
#
# Stress axis : x y z
#
# Youngs Moduli (GPa) = 35.38796 55.46237 42.07651
#
# Poissons Ratio (x) = 0.73269 0.64766
# Poissons Ratio (y) = 0.46750 -0.44157
# Poissons Ratio (z) = 0.54470 -0.58205
#
# Static dielectric constant tensor:
#      x y z
#    x 1.731490 0.000000 0.015290 
#    y 0.000000 1.740350 0.000000 
#    z 0.015290 0.000000 1.725990 
# 
# From -- ./inp_files/84178.got.cif
#   From: 2010.05.17/outbox.cif.g08.bks.cpg/sg13_43_cif.got.tgz:84178.got - 2010.06.03 16:44:36.
