data_PCOD9234177
_publ_section_title
;
Structure prediction by ZEFSAII (Michael W. Deem and Ramdas Pophale) SiO2 
 PCOD9234177
Probable space group: P 2/C
;
_chemical_formula_sum "Si O2"
_cell_formula_units_Z 32
_cell_length_a 14.271878
_cell_length_b 9.302592
_cell_length_c 19.832403
_cell_angle_alpha 90.000000
_cell_angle_beta 35.145251
_cell_angle_gamma 90.000000
_cell_volume 1515.723117
_symmetry_space_group_name_H-M "P 2/C"
_symmetry_group_IT_number 13
_symmetry_cell_setting 'monoclinic'
loop_
_space_group_symop_operation_xyz
x,y,z
-x,y,1/2-z
-x,-y,-z
x,-y,1/2+z
loop_
_atom_site_type_symbol
_atom_site_label
_atom_site_fract_x
_atom_site_fract_y
_atom_site_fract_z
Si Si1 0.466534 0.292557 0.371552
Si Si2 0.631965 0.426967 0.731492
Si Si3 0.691145 0.330988 0.900200
Si Si4 0.149536 0.211812 0.818139
Si Si5 0.166334 0.389558 0.479449
Si Si6 0.660809 0.947985 0.813492
Si Si7 0.396431 0.817308 0.509718
Si Si8 0.838090 0.592408 0.885617
O O1 0.544804 0.452195 0.329167
O O2 0.349805 0.259942 0.504071
O O3 0.337469 0.304337 0.387775
O O4 0.606465 0.175412 0.294231
O O5 0.500000 0.393542 0.750000
O O6 0.705381 0.291994 0.726700
O O7 0.790119 0.505521 0.607115
O O8 0.826560 0.256464 0.774506
O O9 0.745555 0.489680 0.886519
O O10 0.524682 0.303008 0.958981
O O11 0.980266 0.279006 0.941029
O O12 0.186897 0.043247 0.799100
O O13 0.139303 0.493897 0.560955
O O14 0.684118 0.879584 0.874282
O O15 0.507060 0.057236 0.913036
O O16 0.268262 0.734472 0.538764
O O17 0.000000 0.632507 0.750000
#
# Coordination Sequence:
#
# PCOD9234177 Si02
#       8
#     4   4   4   4   4   4   4   4
#     4   9  20  38  59  83 118 157 197 236 291 358
#     4  10  23  39  61  86 114 159 206 250 290 344
#     4   9  19  30  59  89 112 144 192 242 287 349
#     4  11  21  37  62  91 120 152 197 252 303 348
#     4  10  22  38  59  87 124 153 199 249 302 346
#     4   9  20  36  58  85 115 158 197 232 294 353
#     4   9  19  34  53  85 124 152 187 234 290 358
#     4  11  20  33  57  94 119 147 190 244 309 345
#
# _framework density 21.112034000000001
#
# number of rings (size 3 to 8) (size 9 to 14) (size 15 to 20)
#    0.000    2.250    1.250    1.500   14.000    0.000 
#    2.250    2.500    0.000    0.000    0.000    0.000 
#    0.000    0.000    0.000    0.000    0.000    0.000 
#
# Total GULP energy -178392.532920 kJ/mol
# GULP energy per Si atom -5574.766654 kJ/mol
# Density = 2.106398 g / cm^3
# Si number density = 21.112034 Si / 1000 Ang^3
#
#
#
# Elastic Constant Matrix: (Units=GPa)
#
#
# Indices 1 2 3 4 5 6 
#
# 1 33.2460 32.1752 6.1608 0.0000 -0.9059 0.0000
# 2 32.1752 64.5157 6.4432 0.0000 -10.8828 0.0000
# 3 6.1608 6.4432 55.3164 0.0000 -1.7406 0.0000
# 4 0.0000 0.0000 0.0000 39.2705 0.0000 -2.9787
# 5 -0.9059 -10.8828 -1.7406 0.0000 26.8220 0.0000
# 6 0.0000 0.0000 0.0000 -2.9787 0.0000 20.9593
#
#
#
# Elastic Compliance Matrix: (Units=1/GPa)
#
#
# Indices 1 2 3 4 5 6 
#
# 1 0.061693 -0.032320 -0.003460 0.000000 -0.011255 0.000000
# 2 -0.032320 0.033738 0.000066 0.000000 0.012602 0.000000
# 3 -0.003460 0.000066 0.018490 0.000000 0.001110 0.000000
# 4 0.000000 0.000000 0.000000 0.025742 0.000000 0.003658
# 5 -0.011255 0.012602 0.001110 0.000000 0.042088 0.000000
# 6 0.000000 0.000000 0.000000 0.003658 0.000000 0.048231
#
#
# Mechanical properties :
#
#
# Convention : Reuss Voigt Hill
#
# Bulk Modulus (GPa) = 23.53362 26.95962 25.24662
# Shear Modulus (GPa) = 15.84411 24.63027 20.23719
#
# Velocity S-wave (km/s) = 2.74246 3.41933 3.09942
# Velocity P-wave (km/s) = 4.60427 5.32790 4.97925
#
# Compressibility (1/GPa) = 0.04249240
#
# Stress axis : x y z
#
# Youngs Moduli (GPa) = 16.20939 29.64032 54.08203
#
# Poissons Ratio (x) = 0.95798 0.18715
# Poissons Ratio (y) = 0.52389 -0.00359
# Poissons Ratio (z) = 0.05609 -0.00197
#
# Static dielectric constant tensor:
#      x y z
#    x 1.817270 0.000000 0.008740 
#    y 0.000000 1.767840 0.000000 
#    z 0.008740 0.000000 1.816900 
# 
# From -- ./inp_files/87894.got.cif
#   From: 2010.05.17/outbox.cif.g08.bks.cpg/sg13_44_cif.got.tgz:87894.got - 2010.06.03 16:44:36.
