data_PCOD9234773
_publ_section_title
;
Structure prediction by ZEFSAII (Michael W. Deem and Ramdas Pophale) SiO2 
 PCOD9234773
Probable space group: P 2/C
;
_chemical_formula_sum "Si O2"
_cell_formula_units_Z 28
_cell_length_a 8.713425
_cell_length_b 22.369941
_cell_length_c 9.910828
_cell_angle_alpha 90.000000
_cell_angle_beta 125.917220
_cell_angle_gamma 90.000000
_cell_volume 1564.503378
_symmetry_space_group_name_H-M "P 2/C"
_symmetry_group_IT_number 13
_symmetry_cell_setting 'monoclinic'
loop_
_space_group_symop_operation_xyz
x,y,z
-x,y,1/2-z
-x,-y,-z
x,-y,1/2+z
loop_
_atom_site_type_symbol
_atom_site_label
_atom_site_fract_x
_atom_site_fract_y
_atom_site_fract_z
Si Si1 0.500000 0.147001 0.750000
Si Si2 0.225553 0.049852 0.716449
Si Si3 0.486319 0.756387 0.011550
Si Si4 0.500997 0.442108 0.908138
Si Si5 0.500000 0.168666 0.250000
Si Si6 0.185051 0.656736 0.936005
Si Si7 0.227631 0.937648 0.529278
Si Si8 0.190385 0.660963 0.259737
O O1 0.326412 0.103754 0.692265
O O2 0.524468 0.190087 0.888448
O O3 0.000871 0.062454 0.593487
O O4 0.273955 0.989220 0.661488
O O5 0.286425 0.047740 0.905036
O O6 0.679265 0.717865 0.131565
O O7 0.468292 0.787568 0.858747
O O8 0.317508 0.711099 0.957507
O O9 0.500000 0.459183 0.750000
O O10 0.324135 0.397632 0.846283
O O11 0.500000 0.500000 0.000000
O O12 0.689494 0.402438 0.022929
O O13 0.674169 0.123866 0.374322
O O14 0.000000 0.654955 0.750000
O O15 0.147924 0.663756 0.077229
O O16 0.000000 0.658379 0.250000
#
# Coordination Sequence:
#
# PCOD9234773 Si02
#       8
#     2   4   4   4   2   4   4   4
#     4  12  21  40  64  82 111 162 188 240 298 352
#     4  10  23  40  62  82 115 150 189 239 302 352
#     4  11  24  41  58  86 121 154 199 243 296 347
#     4   9  20  40  62  90 125 160 201 248 292 343
#     4  12  25  38  62  90 115 148 204 246 286 360
#     4  10  22  41  62  88 123 160 200 244 295 349
#     4  10  23  42  58  86 114 148 191 242 294 359
#     4  10  22  41  63  86 123 164 197 242 299 347
#
# _framework density 17.897053
#
# number of rings (size 3 to 8) (size 9 to 14) (size 15 to 20)
#    0.000    1.714    2.857    1.286    4.000    5.143 
#    2.571    2.857    0.000    0.000    0.000    0.000 
#    0.000    0.000    0.000    0.000    0.000    0.000 
#
# Total GULP energy -156318.265627 kJ/mol
# GULP energy per Si atom -5582.795201 kJ/mol
# Density = 1.785632 g / cm^3
# Si number density = 17.897053 Si / 1000 Ang^3
#
#
#
# Elastic Constant Matrix: (Units=GPa)
#
#
# Indices 1 2 3 4 5 6 
#
# 1 145.9701 73.4793 74.6900 0.0000 -14.1796 0.0000
# 2 73.4793 125.1779 58.2090 0.0000 -22.1130 0.0000
# 3 74.6900 58.2090 116.0448 0.0000 -14.7345 0.0000
# 4 0.0000 0.0000 0.0000 35.4913 0.0000 -18.0196
# 5 -14.1796 -22.1130 -14.7345 0.0000 34.0264 0.0000
# 6 0.0000 0.0000 0.0000 -18.0196 0.0000 18.8932
#
#
#
# Elastic Compliance Matrix: (Units=1/GPa)
#
#
# Indices 1 2 3 4 5 6 
#
# 1 0.011854 -0.004498 -0.005415 0.000000 -0.000328 0.000000
# 2 -0.004498 0.012913 -0.002915 0.000000 0.005255 0.000000
# 3 -0.005415 -0.002915 0.013796 0.000000 0.001823 0.000000
# 4 0.000000 0.000000 0.000000 0.054630 0.000000 0.052104
# 5 -0.000328 0.005255 0.001823 0.000000 0.033457 0.000000
# 6 0.000000 0.000000 0.000000 0.052104 0.000000 0.102624
#
#
# Mechanical properties :
#
#
# Convention : Reuss Voigt Hill
#
# Bulk Modulus (GPa) = 77.47643 88.88326 83.17984
# Shear Modulus (GPa) = 19.28775 29.73647 24.51211
#
# Velocity S-wave (km/s) = 3.28640 4.08061 3.70485
# Velocity P-wave (km/s) = 7.60162 8.48371 8.05475
#
# Compressibility (1/GPa) = 0.01290715
#
# Stress axis : x y z
#
# Youngs Moduli (GPa) = 84.36093 77.44270 72.48438
#
# Poissons Ratio (x) = 0.34836 0.39249
# Poissons Ratio (y) = 0.37948 0.21127
# Poissons Ratio (z) = 0.45680 0.22572
#
# Static dielectric constant tensor:
#      x y z
#    x 1.612750 0.000000 -0.025900 
#    y 0.000000 1.593870 0.000000 
#    z -0.025900 0.000000 1.687110 
# 
# From -- ./inp_files/13702.got.cif
#   From: 2010.05.17/outbox.cif.g08.bks.cpg/sg13_7_cif.got.tgz:13702.got - 2010.06.03 16:44:36.
