data_PCOD9234984
_publ_section_title
;
Structure prediction by ZEFSAII (Michael W. Deem and Ramdas Pophale) SiO2 
 PCOD9234984
Probable space group: P 2/C
;
_chemical_formula_sum "Si O2"
_cell_formula_units_Z 14
_cell_length_a 13.075537
_cell_length_b 10.696275
_cell_length_c 9.608980
_cell_angle_alpha 90.000000
_cell_angle_beta 148.400751
_cell_angle_gamma 90.000000
_cell_volume 704.173595
_symmetry_space_group_name_H-M "P 2/C"
_symmetry_group_IT_number 13
_symmetry_cell_setting 'monoclinic'
loop_
_space_group_symop_operation_xyz
x,y,z
-x,y,1/2-z
-x,-y,-z
x,-y,1/2+z
loop_
_atom_site_type_symbol
_atom_site_label
_atom_site_fract_x
_atom_site_fract_y
_atom_site_fract_z
Si Si1 0.713363 0.763839 0.441037
Si Si2 0.642352 0.522235 0.794448
Si Si3 0.000000 0.298929 0.750000
Si Si4 0.051819 0.144050 0.535567
O O1 0.500000 0.796132 0.250000
O O2 0.720142 0.614872 0.425499
O O3 0.767389 0.832570 0.359385
O O4 0.871619 0.798663 0.740036
O O5 0.500000 0.571154 0.750000
O O6 0.500000 0.500000 0.500000
O O7 0.824233 0.614394 0.989377
O O8 0.073353 0.214465 0.706903
O O9 0.000000 0.000000 0.500000
#
# Coordination Sequence:
#
# PCOD9234984 Si02
#       4
#     4   4   2   4
#     4  10  22  42  63  86 123 161 198 252 307 356
#     4  11  23  39  63  95 123 154 202 252 309 373
#     4  12  22  38  66  92 124 162 196 256 314 348
#     4  11  24  41  61  89 123 163 209 245 291 363
#
# _framework density 19.881461000000002
#
# number of rings (size 3 to 8) (size 9 to 14) (size 15 to 20)
#    0.000    1.143    0.000    8.571    0.000    4.571 
#    0.000    5.714    0.000    0.000    0.000    0.000 
#    0.000    0.000    0.000    0.000    0.000    0.000 
#
# Total GULP energy -78268.648646 kJ/mol
# GULP energy per Si atom -5590.617760 kJ/mol
# Density = 1.983621 g / cm^3
# Si number density = 19.881461 Si / 1000 Ang^3
#
#
#
# Elastic Constant Matrix: (Units=GPa)
#
#
# Indices 1 2 3 4 5 6 
#
# 1 166.9781 48.2341 45.5991 0.0000 4.2817 0.0000
# 2 48.2341 123.7989 49.0680 0.0000 7.5967 0.0000
# 3 45.5991 49.0680 111.0879 0.0000 -13.6621 0.0000
# 4 0.0000 0.0000 0.0000 14.1861 0.0000 -8.8895
# 5 4.2817 7.5967 -13.6621 0.0000 38.9699 0.0000
# 6 0.0000 0.0000 0.0000 -8.8895 0.0000 23.2537
#
#
#
# Elastic Compliance Matrix: (Units=1/GPa)
#
#
# Indices 1 2 3 4 5 6 
#
# 1 0.007170 -0.001807 -0.002298 0.000000 -0.001241 0.000000
# 2 -0.001807 0.010749 -0.004431 0.000000 -0.003450 0.000000
# 3 -0.002298 -0.004431 0.012582 0.000000 0.005527 0.000000
# 4 0.000000 0.000000 0.000000 0.092697 0.000000 0.035437
# 5 -0.001241 -0.003450 0.005527 0.000000 0.028408 0.000000
# 6 0.000000 0.000000 0.000000 0.035437 0.000000 0.056551
#
#
# Mechanical properties :
#
#
# Convention : Reuss Voigt Hill
#
# Bulk Modulus (GPa) = 74.45528 76.40748 75.43138
# Shear Modulus (GPa) = 21.76712 32.54618 27.15665
#
# Velocity S-wave (km/s) = 3.31243 4.05039 3.69986
# Velocity P-wave (km/s) = 7.22222 7.77105 7.50166
#
# Compressibility (1/GPa) = 0.01343088
#
# Stress axis : x y z
#
# Youngs Moduli (GPa) = 139.47002 93.02843 79.47912
#
# Poissons Ratio (x) = 0.16807 0.18262
# Poissons Ratio (y) = 0.25198 0.35216
# Poissons Ratio (z) = 0.32047 0.41219
#
# Static dielectric constant tensor:
#      x y z
#    x 1.705200 0.000000 0.016590 
#    y 0.000000 1.642250 0.000000 
#    z 0.016590 0.000000 1.653800 
# 
# From -- ./inp_files/11445.got.cif
#   From: 2010.05.17/outbox.cif.g08.bks.cpg/sg13_6_cif.got.tgz:11445.got - 2010.06.03 16:44:36.
