data_PCOD9234157
_publ_section_title
;
Structure prediction by ZEFSAII (Michael W. Deem and Ramdas Pophale) SiO2 
 PCOD9234157
Probable space group: P 2/C
;
_chemical_formula_sum "Si O2"
_cell_formula_units_Z 22
_cell_length_a 5.381023
_cell_length_b 5.108643
_cell_length_c 30.104962
_cell_angle_alpha 90.000000
_cell_angle_beta 79.712154
_cell_angle_gamma 90.000000
_cell_volume 814.272138
_symmetry_space_group_name_H-M "P 2/C"
_symmetry_group_IT_number 13
_symmetry_cell_setting 'monoclinic'
loop_
_space_group_symop_operation_xyz
x,y,z
-x,y,1/2-z
-x,-y,-z
x,-y,1/2+z
loop_
_atom_site_type_symbol
_atom_site_label
_atom_site_fract_x
_atom_site_fract_y
_atom_site_fract_z
Si Si1 0.899789 0.460392 0.069714
Si Si2 0.247325 0.195367 0.616016
Si Si3 0.846911 0.000151 0.795497
Si Si4 0.500000 0.616338 0.250000
Si Si5 0.638357 0.983866 0.042314
Si Si6 0.574680 0.400262 0.160434
O O1 0.744984 0.696003 0.050789
O O2 0.796869 0.341050 0.119681
O O3 0.141100 0.617609 0.080505
O O4 0.855936 0.205417 0.040379
O O5 0.408764 0.974276 0.585313
O O6 0.444085 0.358748 0.639193
O O7 0.044215 0.114251 0.661069
O O8 0.640941 0.807800 0.822642
O O9 0.000000 0.873194 0.750000
O O10 0.698281 0.216632 0.771555
O O11 0.656237 0.464479 0.207717
O O12 0.500000 0.000000 0.000000
#
# Coordination Sequence:
#
# PCOD9234157 Si02
#       6
#     4   4   4   2   4   4
#     4  11  24  43  71  96 138 181 219 289 358 416
#     4  10  24  42  65  97 137 178 235 283 361 427
#     4  11  22  38  63  91 130 179 235 286 343 423
#     4  10  22  38  56  90 126 178 224 282 340 404
#     4  11  25  45  70 103 135 174 231 291 353 435
#     4  10  22  40  60  92 134 175 231 285 338 421
#
# _framework density 27.017997999999999
#
# number of rings (size 3 to 8) (size 9 to 14) (size 15 to 20)
#    0.000    1.455    1.818    2.182    2.545    7.273 
#    0.000    0.000    0.000    0.000    0.000    0.000 
#    0.000    0.000    0.000    0.000    0.000    0.000 
#
# Total GULP energy -122857.631764 kJ/mol
# GULP energy per Si atom -5584.437807 kJ/mol
# Density = 2.695650 g / cm^3
# Si number density = 27.017998 Si / 1000 Ang^3
#
#
#
# Elastic Constant Matrix: (Units=GPa)
#
#
# Indices 1 2 3 4 5 6 
#
# 1 62.8744 17.0630 34.8097 0.0000 22.0301 0.0000
# 2 17.0630 105.1266 44.7951 0.0000 20.0643 0.0000
# 3 34.8097 44.7951 179.4003 0.0000 23.4697 0.0000
# 4 0.0000 0.0000 0.0000 37.8943 0.0000 34.5116
# 5 22.0301 20.0643 23.4697 0.0000 50.0427 0.0000
# 6 0.0000 0.0000 0.0000 34.5116 0.0000 76.5292
#
#
#
# Elastic Compliance Matrix: (Units=1/GPa)
#
#
# Indices 1 2 3 4 5 6 
#
# 1 0.020197 -0.000695 -0.002790 0.000000 -0.007304 0.000000
# 2 -0.000695 0.011179 -0.002248 0.000000 -0.003122 0.000000
# 3 -0.002790 -0.002248 0.006816 0.000000 -0.001067 0.000000
# 4 0.000000 0.000000 0.000000 0.044781 0.000000 -0.020194
# 5 -0.007304 -0.003122 -0.001067 0.000000 0.024951 0.000000
# 6 0.000000 0.000000 0.000000 -0.020194 0.000000 0.022174
#
#
# Mechanical properties :
#
#
# Convention : Reuss Voigt Hill
#
# Bulk Modulus (GPa) = 37.41645 60.08188 48.74917
# Shear Modulus (GPa) = 33.22861 49.60879 41.41870
#
# Velocity S-wave (km/s) = 3.51075 4.28967 3.91961
# Velocity P-wave (km/s) = 5.50569 6.84259 6.21022
#
# Compressibility (1/GPa) = 0.02672621
#
# Stress axis : x y z
#
# Youngs Moduli (GPa) = 49.51177 89.45437 146.70552
#
# Poissons Ratio (x) = 0.06221 0.40927
# Poissons Ratio (y) = 0.03443 0.32979
# Poissons Ratio (z) = 0.13813 0.20109
#
# Static dielectric constant tensor:
#      x y z
#    x 2.217100 0.000000 -0.088180 
#    y 0.000000 2.194900 0.000000 
#    z -0.088180 0.000000 1.916870 
# 
# From -- ./inp_files/94577.got.cif
#   From: 2010.05.17/outbox.cif.g08.bks.cpg/sg13_48_cif.got.tgz:94577.got - 2010.06.03 16:44:36.
