data_PCOD9234125
_publ_section_title
;
Structure prediction by ZEFSAII (Michael W. Deem and Ramdas Pophale) SiO2 
 PCOD9234125
Probable space group: P 2/C
;
_chemical_formula_sum "Si O2"
_cell_formula_units_Z 24
_cell_length_a 19.447340
_cell_length_b 8.085164
_cell_length_c 20.934534
_cell_angle_alpha 90.000000
_cell_angle_beta 19.468808
_cell_angle_gamma 90.000000
_cell_volume 1097.082672
_symmetry_space_group_name_H-M "P 2/C"
_symmetry_group_IT_number 13
_symmetry_cell_setting 'monoclinic'
loop_
_space_group_symop_operation_xyz
x,y,z
-x,y,1/2-z
-x,-y,-z
x,-y,1/2+z
loop_
_atom_site_type_symbol
_atom_site_label
_atom_site_fract_x
_atom_site_fract_y
_atom_site_fract_z
Si Si1 0.362757 0.519313 0.752714
Si Si2 0.302007 0.928092 0.521885
Si Si3 0.669306 0.685867 0.902600
Si Si4 0.548697 0.182933 0.027508
Si Si5 0.057548 0.360327 0.836978
Si Si6 0.000000 0.780651 0.250000
Si Si7 0.500000 0.313960 0.750000
O O1 0.455203 0.383443 0.622223
O O2 0.518688 0.671074 0.605557
O O3 0.381092 0.429809 0.804499
O O4 0.139064 0.605111 0.946114
O O5 0.206329 0.804773 0.658119
O O6 0.361344 0.808776 0.412993
O O7 0.479411 0.012041 0.410627
O O8 0.183504 0.087056 0.599882
O O9 0.608967 0.778301 0.890859
O O10 0.805222 0.523682 0.774114
O O11 0.780475 0.208297 0.796146
O O12 0.981723 0.328011 0.830189
#
# Coordination Sequence:
#
# PCOD9234125 Si02
#       7
#     4   4   4   4   4   2   2
#     4  10  22  37  62  91 118 158 198 253 297 358
#     4  10  23  40  60  88 123 162 190 260 302 356
#     4  10  22  41  62  89 121 161 204 242 300 360
#     4  10  22  41  62  89 121 161 204 242 300 360
#     4  10  22  37  62  91 118 158 198 253 297 358
#     4  10  24  36  60  88 122 156 206 246 310 364
#     4  10  24  36  60  88 122 156 206 246 310 364
#
# _framework density 21.876200000000001
#
# number of rings (size 3 to 8) (size 9 to 14) (size 15 to 20)
#    0.000    2.000    0.000    2.500   14.000    2.667 
#    0.000    0.000    0.000    6.000    0.000    0.000 
#    0.000    0.000    0.000    0.000    0.000    0.000 
#
# Total GULP energy -133683.292141 kJ/mol
# GULP energy per Si atom -5570.137173 kJ/mol
# Density = 2.182641 g / cm^3
# Si number density = 21.876200 Si / 1000 Ang^3
#
#
#
# Elastic Constant Matrix: (Units=GPa)
#
#
# Indices 1 2 3 4 5 6 
#
# 1 82.5825 24.7577 17.5707 0.0000 9.5211 0.0000
# 2 24.7577 45.9576 11.5422 0.0000 9.3698 0.0000
# 3 17.5707 11.5422 86.7221 0.0000 -2.6474 0.0000
# 4 0.0000 0.0000 0.0000 18.0736 0.0000 7.7114
# 5 9.5211 9.3698 -2.6474 0.0000 18.3591 0.0000
# 6 0.0000 0.0000 0.0000 7.7114 0.0000 -2.1757
#
#
#
# Elastic Compliance Matrix: (Units=1/GPa)
#
#
# Indices 1 2 3 4 5 6 
#
# 1 0.015137 -0.006583 -0.002338 0.000000 -0.004827 0.000000
# 2 -0.006583 0.028340 -0.002788 0.000000 -0.011452 0.000000
# 3 -0.002338 -0.002788 0.012511 0.000000 0.004440 0.000000
# 4 0.000000 0.000000 0.000000 0.022024 0.000000 0.078059
# 5 -0.004827 -0.011452 0.004440 0.000000 0.063458 0.000000
# 6 0.000000 0.000000 0.000000 0.078059 0.000000 -0.182950
#
#
# Mechanical properties :
#
#
# Convention : Reuss Voigt Hill
#
# Bulk Modulus (GPa) = 30.70213 35.88929 33.29571
# Shear Modulus (GPa) = -693.85742 17.61081 -338.12330
#
# Velocity S-wave (km/s) = -17.82872 2.84037 -12.44579
# Velocity P-wave (km/s) = 20.24235 5.21519 13.83030
#
# Compressibility (1/GPa) = 0.03257103
#
# Stress axis : x y z
#
# Youngs Moduli (GPa) = 66.06494 35.28533 79.92731
#
# Poissons Ratio (x) = 0.23228 0.18687
# Poissons Ratio (y) = 0.43489 0.22282
# Poissons Ratio (z) = 0.15446 0.09837
#
# Static dielectric constant tensor:
#      x y z
#    x 1.872600 0.000000 -0.022430 
#    y 0.000000 1.816320 0.000000 
#    z -0.022430 0.000000 1.836060 
# 
# From -- ./inp_files/81656.got.cif
#   From: 2010.05.17/outbox.cif.g08.bks.cpg/sg13_41_cif.got.tgz:81656.got - 2010.06.03 16:44:36.
