data_PCOD9234581
_publ_section_title
;
Structure prediction by ZEFSAII (Michael W. Deem and Ramdas Pophale) SiO2 
 PCOD9234581
Probable space group: P 2/C
;
_chemical_formula_sum "Si O2"
_cell_formula_units_Z 12
_cell_length_a 5.634853
_cell_length_b 4.983723
_cell_length_c 16.479604
_cell_angle_alpha 90.000000
_cell_angle_beta 89.328287
_cell_angle_gamma 90.000000
_cell_volume 462.757442
_symmetry_space_group_name_H-M "P 2/C"
_symmetry_group_IT_number 13
_symmetry_cell_setting 'monoclinic'
loop_
_space_group_symop_operation_xyz
x,y,z
-x,y,1/2-z
-x,-y,-z
x,-y,1/2+z
loop_
_atom_site_type_symbol
_atom_site_label
_atom_site_fract_x
_atom_site_fract_y
_atom_site_fract_z
Si Si1 0.311516 0.830077 0.950999
Si Si2 0.928803 0.830936 0.383125
Si Si3 0.351199 0.353011 0.169253
O O1 0.456387 0.601358 0.903942
O O2 0.125556 0.757640 0.022052
O O3 0.180401 0.019802 0.885955
O O4 0.500000 0.000000 0.000000
O O5 0.864577 0.561524 0.336387
O O6 0.754668 0.058552 0.347325
O O7 0.500000 0.372798 0.250000
#
# Coordination Sequence:
#
# PCOD9234581 Si02
#       3
#     4   4   4
#     4   9  21  40  64  90 122 163 213 263 313 379
#     4  10  22  40  64  90 121 167 214 258 317 383
#     4  11  23  40  61  92 129 164 208 265 324 381
#
# _framework density 25.931509999999999
#
# number of rings (size 3 to 8) (size 9 to 14) (size 15 to 20)
#    0.000    2.000    0.000    2.000    0.000   18.667 
#    0.000    3.333    0.000    0.000    0.000    0.000 
#    0.000    0.000    0.000    0.000    0.000    0.000 
#
# Total GULP energy -67158.457166 kJ/mol
# GULP energy per Si atom -5596.538097 kJ/mol
# Density = 2.587249 g / cm^3
# Si number density = 25.931510 Si / 1000 Ang^3
#
#
#
# Elastic Constant Matrix: (Units=GPa)
#
#
# Indices 1 2 3 4 5 6 
#
# 1 78.8310 12.6079 24.5932 0.0000 27.0269 0.0000
# 2 12.6079 122.5058 36.8360 0.0000 12.0002 0.0000
# 3 24.5932 36.8360 128.9150 0.0000 28.1592 0.0000
# 4 0.0000 0.0000 0.0000 25.1403 0.0000 19.8677
# 5 27.0269 12.0002 28.1592 0.0000 40.9232 0.0000
# 6 0.0000 0.0000 0.0000 19.8677 0.0000 31.7848
#
#
#
# Elastic Compliance Matrix: (Units=1/GPa)
#
#
# Indices 1 2 3 4 5 6 
#
# 1 0.016511 -0.000462 -0.000783 0.000000 -0.010230 0.000000
# 2 -0.000462 0.008979 -0.002317 0.000000 -0.000734 0.000000
# 3 -0.000783 -0.002317 0.009777 0.000000 -0.005530 0.000000
# 4 0.000000 0.000000 0.000000 0.078606 0.000000 -0.049134
# 5 -0.010230 -0.000734 -0.005530 0.000000 0.035213 0.000000
# 6 0.000000 0.000000 0.000000 -0.049134 0.000000 0.062174
#
#
# Mechanical properties :
#
#
# Convention : Reuss Voigt Hill
#
# Bulk Modulus (GPa) = 35.53425 53.14734 44.34080
# Shear Modulus (GPa) = 21.95246 36.65062 29.30154
#
# Velocity S-wave (km/s) = 2.91272 3.76355 3.36513
# Velocity P-wave (km/s) = 5.00448 6.27897 5.67760
#
# Compressibility (1/GPa) = 0.02814187
#
# Stress axis : x y z
#
# Youngs Moduli (GPa) = 60.56627 111.37041 102.28426
#
# Poissons Ratio (x) = 0.05141 0.08012
# Poissons Ratio (y) = 0.02796 0.23703
# Poissons Ratio (z) = 0.04744 0.25809
#
# Static dielectric constant tensor:
#      x y z
#    x 2.118820 0.000000 -0.070050 
#    y 0.000000 2.002770 0.000000 
#    z -0.070050 0.000000 2.065320 
# 
# From -- ./inp_files/42960.got.cif
#   From: 2010.05.17/outbox.cif.g08.bks.cpg/sg13_22_cif.got.tgz:42960.got - 2010.06.03 16:44:36.
