data_PCOD9234303
_publ_section_title
;
Structure prediction by ZEFSAII (Michael W. Deem and Ramdas Pophale) SiO2 
 PCOD9234303
Probable space group: P 2/C
;
_chemical_formula_sum "Si O2"
_cell_formula_units_Z 26
_cell_length_a 9.001808
_cell_length_b 7.581030
_cell_length_c 29.709287
_cell_angle_alpha 90.000000
_cell_angle_beta 36.066709
_cell_angle_gamma 90.000000
_cell_volume 1193.614224
_symmetry_space_group_name_H-M "P 2/C"
_symmetry_group_IT_number 13
_symmetry_cell_setting 'monoclinic'
loop_
_space_group_symop_operation_xyz
x,y,z
-x,y,1/2-z
-x,-y,-z
x,-y,1/2+z
loop_
_atom_site_type_symbol
_atom_site_label
_atom_site_fract_x
_atom_site_fract_y
_atom_site_fract_z
Si Si1 0.000000 0.033754 0.750000
Si Si2 0.593530 0.711279 0.322276
Si Si3 0.780300 0.213713 0.372246
Si Si4 0.229303 0.639715 0.001553
Si Si5 0.000000 0.446321 0.250000
Si Si6 0.096633 0.736800 0.503635
Si Si7 0.500000 0.185824 0.750000
Si Si8 0.986798 0.020776 0.901363
O O1 0.823004 0.149479 0.761878
O O2 0.792663 0.927999 0.828912
O O3 0.351564 0.760524 0.411532
O O4 0.509551 0.690953 0.291692
O O5 0.741459 0.554329 0.310256
O O6 0.523947 0.322531 0.436234
O O7 0.835951 0.099616 0.402628
O O8 0.992485 0.342053 0.299281
O O9 0.148648 0.434147 0.023100
O O10 0.126746 0.692625 0.976857
O O11 0.111574 0.781226 0.064958
O O12 0.031278 0.908572 0.548350
O O13 0.266040 0.055264 0.815410
#
# Coordination Sequence:
#
# PCOD9234303 Si02
#       8
#     2   4   4   4   2   4   2   4
#     4  10  22  38  72  94 134 188 218 280 362 410
#     4  11  22  47  69  99 139 183 236 291 353 422
#     4  11  23  43  65 105 138 180 234 288 347 425
#     4  11  24  44  70  98 138 183 236 278 356 420
#     4  10  24  44  72  98 142 188 236 290 352 428
#     4  11  25  45  72 100 136 194 231 288 353 424
#     4  12  26  44  72 106 142 176 244 300 356 412
#     4  12  26  44  69 106 139 182 233 299 349 418
#
# _framework density 21.782582999999999
#
# number of rings (size 3 to 8) (size 9 to 14) (size 15 to 20)
#    0.000    0.923    4.615    1.846    2.154    1.846 
#    0.000    0.769    0.000    0.000    0.000    0.000 
#    0.000    0.000    0.000    0.000    0.000    0.000 
#
# Total GULP energy -144967.239471 kJ/mol
# GULP energy per Si atom -5575.663057 kJ/mol
# Density = 2.173300 g / cm^3
# Si number density = 21.782583 Si / 1000 Ang^3
#
#
#
# Elastic Constant Matrix: (Units=GPa)
#
#
# Indices 1 2 3 4 5 6 
#
# 1 64.9385 11.0943 18.3421 0.0000 8.0184 0.0000
# 2 11.0943 70.3315 29.5763 0.0000 3.6033 0.0000
# 3 18.3421 29.5763 103.9359 0.0000 -0.4446 0.0000
# 4 0.0000 0.0000 0.0000 27.7945 0.0000 13.1031
# 5 8.0184 3.6033 -0.4446 0.0000 27.9465 0.0000
# 6 0.0000 0.0000 0.0000 13.1031 0.0000 37.8407
#
#
#
# Elastic Compliance Matrix: (Units=1/GPa)
#
#
# Indices 1 2 3 4 5 6 
#
# 1 0.016955 -0.001323 -0.002636 0.000000 -0.004736 0.000000
# 2 -0.001323 0.016385 -0.004437 0.000000 -0.001804 0.000000
# 3 -0.002636 -0.004437 0.011355 0.000000 0.001509 0.000000
# 4 0.000000 0.000000 0.000000 0.042997 0.000000 -0.014889
# 5 -0.004736 -0.001804 0.001509 0.000000 0.037398 0.000000
# 6 0.000000 0.000000 0.000000 -0.014889 0.000000 0.031582
#
#
# Mechanical properties :
#
#
# Convention : Reuss Voigt Hill
#
# Bulk Modulus (GPa) = 35.83794 39.69236 37.76515
# Shear Modulus (GPa) = 27.35744 30.72922 29.04333
#
# Velocity S-wave (km/s) = 3.54776 3.76004 3.65544
# Velocity P-wave (km/s) = 5.76805 6.09197 5.93222
#
# Compressibility (1/GPa) = 0.02790339
#
# Stress axis : x y z
#
# Youngs Moduli (GPa) = 58.98128 61.03017 88.06334
#
# Poissons Ratio (x) = 0.08077 0.23211
# Poissons Ratio (y) = 0.07806 0.39072
# Poissons Ratio (z) = 0.15546 0.27078
#
# Static dielectric constant tensor:
#      x y z
#    x 1.844430 0.000000 0.022610 
#    y 0.000000 1.883790 0.000000 
#    z 0.022610 0.000000 1.810980 
# 
# From -- ./inp_files/63764.got.cif
#   From: 2010.05.17/outbox.cif.g08.bks.cpg/sg13_32_cif.got.tgz:63764.got - 2010.06.03 16:44:36.
