data_PCOD9234905
_publ_section_title
;
Structure prediction by ZEFSAII (Michael W. Deem and Ramdas Pophale) SiO2 
 PCOD9234905
Probable space group: P 2/C
;
_chemical_formula_sum "Si O2"
_cell_formula_units_Z 28
_cell_length_a 22.543777
_cell_length_b 8.600258
_cell_length_c 9.988129
_cell_angle_alpha 90.000000
_cell_angle_beta 46.654702
_cell_angle_gamma 90.000000
_cell_volume 1408.297089
_symmetry_space_group_name_H-M "P 2/C"
_symmetry_group_IT_number 13
_symmetry_cell_setting 'monoclinic'
loop_
_space_group_symop_operation_xyz
x,y,z
-x,y,1/2-z
-x,-y,-z
x,-y,1/2+z
loop_
_atom_site_type_symbol
_atom_site_label
_atom_site_fract_x
_atom_site_fract_y
_atom_site_fract_z
Si Si1 0.913894 0.840151 0.216194
Si Si2 0.735293 0.322213 0.365961
Si Si3 0.321359 0.188115 0.765603
Si Si4 0.899448 0.139872 0.051650
Si Si5 0.763876 0.314124 0.843276
Si Si6 0.351390 0.824499 0.751970
Si Si7 0.511958 0.350781 0.075625
O O1 0.895128 0.888386 0.398513
O O2 0.853914 0.704214 0.263541
O O3 0.895070 0.983556 0.146366
O O4 0.009223 0.797552 0.061916
O O5 0.697427 0.246413 0.556826
O O6 0.825684 0.252604 0.204087
O O7 0.738879 0.507003 0.374382
O O8 0.681196 0.274174 0.322837
O O9 0.246821 0.234278 0.784340
O O10 0.399536 0.278532 0.586793
O O11 0.339149 0.005246 0.739046
O O12 0.704154 0.222269 0.035842
O O13 0.443390 0.775822 0.642837
O O14 0.500000 0.392316 0.250000
O O15 0.500000 0.500000 0.000000
#
# Coordination Sequence:
#
# PCOD9234905 Si02
#       7
#     4   4   4   4   4   4   4
#     4  10  22  41  68  96 136 173 225 273 331 398
#     4  12  26  42  70  99 135 174 220 276 341 389
#     4  12  27  45  71  99 131 178 223 274 329 396
#     4  10  22  42  66  99 132 178 220 276 331 397
#     4  12  24  44  66 101 133 174 220 279 333 398
#     4  12  25  47  70  96 134 174 228 272 325 400
#     4  12  27  47  71 102 138 174 219 278 337 391
#
# _framework density 19.882168
#
# number of rings (size 3 to 8) (size 9 to 14) (size 15 to 20)
#    0.000    0.571    2.857    5.571    4.000    0.571 
#    0.000    0.000    0.000    0.000    0.000    0.000 
#    0.000    0.000    0.000    0.000    0.000    0.000 
#
# Total GULP energy -156715.636067 kJ/mol
# GULP energy per Si atom -5596.987002 kJ/mol
# Density = 1.983691 g / cm^3
# Si number density = 19.882168 Si / 1000 Ang^3
#
#
#
# Elastic Constant Matrix: (Units=GPa)
#
#
# Indices 1 2 3 4 5 6 
#
# 1 92.6477 35.4846 2.2700 0.0000 2.8403 0.0000
# 2 35.4846 103.7511 17.4787 0.0000 5.6177 0.0000
# 3 2.2700 17.4787 66.2775 0.0000 -3.4703 0.0000
# 4 0.0000 0.0000 0.0000 20.8461 0.0000 7.5216
# 5 2.8403 5.6177 -3.4703 0.0000 35.0384 0.0000
# 6 0.0000 0.0000 0.0000 7.5216 0.0000 18.3795
#
#
#
# Elastic Compliance Matrix: (Units=1/GPa)
#
#
# Indices 1 2 3 4 5 6 
#
# 1 0.012456 -0.004367 0.000713 0.000000 -0.000239 0.000000
# 2 -0.004367 0.011744 -0.003043 0.000000 -0.001830 0.000000
# 3 0.000713 -0.003043 0.015972 0.000000 0.002012 0.000000
# 4 0.000000 0.000000 0.000000 0.056281 0.000000 -0.023032
# 5 -0.000239 -0.001830 0.002012 0.000000 0.029052 0.000000
# 6 0.000000 0.000000 0.000000 -0.023032 0.000000 0.063834
#
#
# Mechanical properties :
#
#
# Convention : Reuss Voigt Hill
#
# Bulk Modulus (GPa) = 37.34749 41.46033 39.40391
# Shear Modulus (GPa) = 23.62272 28.68233 26.15252
#
# Velocity S-wave (km/s) = 3.45067 3.80230 3.63075
# Velocity P-wave (km/s) = 5.89079 6.33837 6.11867
#
# Compressibility (1/GPa) = 0.02677556
#
# Stress axis : x y z
#
# Youngs Moduli (GPa) = 80.28163 85.15007 62.61107
#
# Poissons Ratio (x) = 0.37188 -0.04462
# Poissons Ratio (y) = 0.35062 0.19055
# Poissons Ratio (z) = -0.05721 0.25914
#
# Static dielectric constant tensor:
#      x y z
#    x 1.705410 0.000000 -0.013750 
#    y 0.000000 1.653500 0.000000 
#    z -0.013750 0.000000 1.682500 
# 
# From -- ./inp_files/22961.got.cif
#   From: 2010.05.17/outbox.cif.g08.bks.cpg/sg13_12_cif.got.tgz:22961.got - 2010.06.03 16:44:36.
