data_PCOD9234618
_publ_section_title
;
Structure prediction by ZEFSAII (Michael W. Deem and Ramdas Pophale) SiO2 
 PCOD9234618
Probable space group: P 2/C
;
_chemical_formula_sum "Si O2"
_cell_formula_units_Z 28
_cell_length_a 17.183012
_cell_length_b 6.268626
_cell_length_c 18.112188
_cell_angle_alpha 90.000000
_cell_angle_beta 141.952526
_cell_angle_gamma 90.000000
_cell_volume 1202.388292
_symmetry_space_group_name_H-M "P 2/C"
_symmetry_group_IT_number 13
_symmetry_cell_setting 'monoclinic'
loop_
_space_group_symop_operation_xyz
x,y,z
-x,y,1/2-z
-x,-y,-z
x,-y,1/2+z
loop_
_atom_site_type_symbol
_atom_site_label
_atom_site_fract_x
_atom_site_fract_y
_atom_site_fract_z
Si Si1 0.508279 0.293363 0.904709
Si Si2 0.021353 0.508954 0.102841
Si Si3 0.309037 0.421788 0.335487
Si Si4 0.650253 0.904636 0.767244
Si Si5 0.119741 0.202056 0.891444
Si Si6 0.649851 0.570297 0.899275
Si Si7 0.180437 0.186577 0.519475
O O1 0.398028 0.382761 0.875524
O O2 0.537046 0.465083 0.861306
O O3 0.464390 0.066438 0.838622
O O4 0.632337 0.306504 0.048861
O O5 0.166676 0.505338 0.233794
O O6 0.939726 0.699758 0.077478
O O7 0.955329 0.292420 0.080214
O O8 0.000000 0.500000 0.000000
O O9 0.320205 0.250810 0.277764
O O10 0.630809 0.763484 0.827147
O O11 0.772500 0.049861 0.876109
O O12 0.000000 0.207196 0.750000
O O13 0.175667 0.969334 0.946477
O O14 0.240770 0.345856 0.963215
O O15 0.717203 0.372939 0.909368
#
# Coordination Sequence:
#
# PCOD9234618 Si02
#       7
#     4   4   4   4   4   4   4
#     4  11  25  44  65  95 134 176 220 271 332 395
#     4  11  22  41  66  95 132 171 215 269 326 395
#     4  11  25  42  64  97 137 174 215 272 333 396
#     4  11  23  43  67  93 127 172 223 269 330 402
#     4  10  22  40  65  96 130 170 215 270 337 399
#     4  10  23  43  66  95 129 170 223 278 327 392
#     4  10  23  40  65  96 125 164 221 276 330 392
#
# _framework density 23.286985999999999
#
# number of rings (size 3 to 8) (size 9 to 14) (size 15 to 20)
#    0.000    1.429    0.000    5.571    0.000   12.571 
#    0.000    0.000    0.000    0.000    0.000    0.000 
#    0.000    0.000    0.000    0.000    0.000    0.000 
#
# Total GULP energy -156531.719171 kJ/mol
# GULP energy per Si atom -5590.418542 kJ/mol
# Density = 2.323398 g / cm^3
# Si number density = 23.286986 Si / 1000 Ang^3
#
#
#
# Elastic Constant Matrix: (Units=GPa)
#
#
# Indices 1 2 3 4 5 6 
#
# 1 63.1686 16.8529 19.2515 0.0000 17.9416 0.0000
# 2 16.8529 89.7496 36.2152 0.0000 4.1550 0.0000
# 3 19.2515 36.2152 125.8952 0.0000 11.7289 0.0000
# 4 0.0000 0.0000 0.0000 37.9618 0.0000 1.6911
# 5 17.9416 4.1550 11.7289 0.0000 45.4180 0.0000
# 6 0.0000 0.0000 0.0000 1.6911 0.0000 17.0330
#
#
#
# Elastic Compliance Matrix: (Units=1/GPa)
#
#
# Indices 1 2 3 4 5 6 
#
# 1 0.018937 -0.002633 -0.001500 0.000000 -0.006852 0.000000
# 2 -0.002633 0.012974 -0.003397 0.000000 0.000731 0.000000
# 3 -0.001500 -0.003397 0.009289 0.000000 -0.001496 0.000000
# 4 0.000000 0.000000 0.000000 0.026459 0.000000 -0.002627
# 5 -0.006852 0.000731 -0.001496 0.000000 0.025044 0.000000
# 6 0.000000 0.000000 0.000000 -0.002627 0.000000 0.058970
#
#
# Mechanical properties :
#
#
# Convention : Reuss Voigt Hill
#
# Bulk Modulus (GPa) = 38.25837 47.05027 42.65432
# Shear Modulus (GPa) = 28.49867 33.84883 31.17375
#
# Velocity S-wave (km/s) = 3.50208 3.81668 3.66276
# Velocity P-wave (km/s) = 5.72866 6.29850 6.02033
#
# Compressibility (1/GPa) = 0.02613807
#
# Stress axis : x y z
#
# Youngs Moduli (GPa) = 52.80791 77.07918 107.65313
#
# Poissons Ratio (x) = 0.20298 0.16146
# Poissons Ratio (y) = 0.13907 0.36574
# Poissons Ratio (z) = 0.07920 0.26187
#
# Static dielectric constant tensor:
#      x y z
#    x 1.924150 0.000000 -0.002960 
#    y 0.000000 1.926020 0.000000 
#    z -0.002960 0.000000 1.949800 
# 
# From -- ./inp_files/81966.got.cif
#   From: 2010.05.17/outbox.cif.g08.bks.cpg/sg13_41_cif.got.tgz:81966.got - 2010.06.03 16:44:36.
