data_PCOD9234187
_publ_section_title
;
Structure prediction by ZEFSAII (Michael W. Deem and Ramdas Pophale) SiO2 
 PCOD9234187
Probable space group: P 2/C
;
_chemical_formula_sum "Si O2"
_cell_formula_units_Z 28
_cell_length_a 18.126401
_cell_length_b 5.756547
_cell_length_c 9.350296
_cell_angle_alpha 90.000000
_cell_angle_beta 75.643084
_cell_angle_gamma 90.000000
_cell_volume 945.191115
_symmetry_space_group_name_H-M "P 2/C"
_symmetry_group_IT_number 13
_symmetry_cell_setting 'monoclinic'
loop_
_space_group_symop_operation_xyz
x,y,z
-x,y,1/2-z
-x,-y,-z
x,-y,1/2+z
loop_
_atom_site_type_symbol
_atom_site_label
_atom_site_fract_x
_atom_site_fract_y
_atom_site_fract_z
Si Si1 0.932185 0.707703 0.936177
Si Si2 0.211905 0.644919 0.285230
Si Si3 0.349520 0.110540 0.477226
Si Si4 0.660161 0.601256 0.032140
Si Si5 0.771554 0.851581 0.715745
Si Si6 0.500000 0.000000 0.500000
Si Si7 0.081494 0.788849 0.057090
Si Si8 0.500000 0.695636 0.250000
O O1 0.923428 0.459663 0.858565
O O2 0.924194 0.959342 0.863354
O O3 0.866567 0.678324 0.087480
O O4 0.012133 0.746494 0.979433
O O5 0.276867 0.622431 0.376030
O O6 0.217741 0.392554 0.206112
O O7 0.219208 0.900290 0.210149
O O8 0.331931 0.359542 0.554055
O O9 0.300924 0.122738 0.355171
O O10 0.463433 0.178236 0.630973
O O11 0.339330 0.850170 0.548988
O O12 0.575217 0.580528 0.142076
O O13 0.841320 0.817786 0.569575
O O14 0.560783 0.914022 0.593753
#
# Coordination Sequence:
#
# PCOD9234187 Si02
#       8
#     4   4   4   4   4   2   4   2
#     4   8  12  17  27  46  74 109 148 190 236 288
#     4   8  13  22  36  55  82 117 156 198 246 300
#     4   9  18  32  50  72  99 133 172 216 266 320
#     4   9  18  32  50  72  99 133 172 216 266 320
#     4   8  13  22  36  55  82 117 156 198 246 300
#     4  10  22  40  60  84 112 144 184 230 282 338
#     4   8  12  17  27  46  74 109 148 190 236 288
#     4  10  22  38  60  84 112 144 184 230 282 338
#
# _framework density 29.623640999999999
#
# number of rings (size 3 to 8) (size 9 to 14) (size 15 to 20)
#    0.000    3.429    0.000    0.000    0.000    4.571 
#    0.000    0.000    0.000    0.000    0.000    0.000 
#    0.000    1.143    0.000    0.857    0.000  409.143 
#
# Total GULP energy -155949.824585 kJ/mol
# GULP energy per Si atom -5569.636592 kJ/mol
# Density = 2.955622 g / cm^3
# Si number density = 29.623641 Si / 1000 Ang^3
#
#
#
# Elastic Constant Matrix: (Units=GPa)
#
#
# Indices 1 2 3 4 5 6 
#
# 1 178.5845 66.5305 44.8974 0.0000 -15.3346 0.0000
# 2 66.5305 321.5379 68.3608 0.0000 1.7346 0.0000
# 3 44.8974 68.3608 83.9904 0.0000 -7.9972 0.0000
# 4 0.0000 0.0000 0.0000 19.8390 0.0000 -27.1983
# 5 -15.3346 1.7346 -7.9972 0.0000 21.4356 0.0000
# 6 0.0000 0.0000 0.0000 -27.1983 0.0000 15.8261
#
#
#
# Elastic Compliance Matrix: (Units=1/GPa)
#
#
# Indices 1 2 3 4 5 6 
#
# 1 0.006937 -0.000909 -0.002581 0.000000 0.004073 0.000000
# 2 -0.000909 0.003927 -0.002906 0.000000 -0.002052 0.000000
# 3 -0.002581 -0.002906 0.016068 0.000000 0.004384 0.000000
# 4 0.000000 0.000000 0.000000 -0.037170 0.000000 -0.063880
# 5 0.004073 -0.002052 0.004384 0.000000 0.051367 0.000000
# 6 0.000000 0.000000 0.000000 -0.063880 0.000000 -0.046595
#
#
# Mechanical properties :
#
#
# Convention : Reuss Voigt Hill
#
# Bulk Modulus (GPa) = 70.71409 104.85447 87.78428
# Shear Modulus (GPa) = 415.37550 38.37508 226.87529
#
# Velocity S-wave (km/s) = 11.85420 3.60310 8.76083
# Velocity P-wave (km/s) = 14.53566 7.26513 11.49059
#
# Compressibility (1/GPa) = 0.01414145
#
# Stress axis : x y z
#
# Youngs Moduli (GPa) = 144.16247 254.65235 62.23499
#
# Poissons Ratio (x) = 0.23137 0.16061
# Poissons Ratio (y) = 0.13098 0.18085
# Poissons Ratio (z) = 0.37204 0.73998
#
# Static dielectric constant tensor:
#      x y z
#    x 2.395560 0.000000 -0.271010 
#    y 0.000000 2.470700 0.000000 
#    z -0.271010 0.000000 2.376420 
# 
# From -- ./inp_files/56245.got.cif
#   From: 2010.05.17/outbox.cif.g08.bks.cpg/sg13_29_cif.got.tgz:56245.got - 2010.06.03 16:44:36.
