data_PCOD9234725
_publ_section_title
;
Structure prediction by ZEFSAII (Michael W. Deem and Ramdas Pophale) SiO2 
 PCOD9234725
Probable space group: P 2/C
;
_chemical_formula_sum "Si O2"
_cell_formula_units_Z 16
_cell_length_a 12.479295
_cell_length_b 5.059167
_cell_length_c 19.301345
_cell_angle_alpha 90.000000
_cell_angle_beta 36.996499
_cell_angle_gamma 90.000000
_cell_volume 733.304663
_symmetry_space_group_name_H-M "P 2/C"
_symmetry_group_IT_number 13
_symmetry_cell_setting 'monoclinic'
loop_
_space_group_symop_operation_xyz
x,y,z
-x,y,1/2-z
-x,-y,-z
x,-y,1/2+z
loop_
_atom_site_type_symbol
_atom_site_label
_atom_site_fract_x
_atom_site_fract_y
_atom_site_fract_z
Si Si1 0.145494 0.798461 0.457728
Si Si2 0.114674 0.377695 0.834780
Si Si3 0.710736 0.532662 0.895443
Si Si4 0.170571 0.031222 0.577741
O O1 0.230603 0.685781 0.343368
O O2 0.042911 0.564214 0.552484
O O3 0.256077 0.951829 0.459184
O O4 0.000000 0.000000 0.500000
O O5 0.214153 0.516075 0.720858
O O6 0.028038 0.115647 0.844378
O O7 0.769725 0.289193 0.912716
O O8 0.789066 0.790948 0.892147
O O9 0.500000 0.500000 0.000000
#
# Coordination Sequence:
#
# PCOD9234725 Si02
#       4
#     4   4   4   4
#     4   9  20  39  69  98 124 161 229 272 310 373
#     4  10  22  40  71  98 125 167 224 268 318 384
#     4  12  27  42  64 100 140 170 210 271 335 385
#     4  11  23  42  68  95 125 177 221 264 315 388
#
# _framework density 21.819033999999998
#
# number of rings (size 3 to 8) (size 9 to 14) (size 15 to 20)
#    0.000    1.500    2.500    1.500   10.500    0.000 
#    0.000    1.250   11.000    0.000    0.000    0.000 
#    0.000    0.000    0.000    0.000    0.000    0.000 
#
# Total GULP energy -89195.226731 kJ/mol
# GULP energy per Si atom -5574.701671 kJ/mol
# Density = 2.176937 g / cm^3
# Si number density = 21.819034 Si / 1000 Ang^3
#
#
#
# Elastic Constant Matrix: (Units=GPa)
#
#
# Indices 1 2 3 4 5 6 
#
# 1 80.7853 37.8286 91.5663 0.0000 51.3549 0.0000
# 2 37.8286 151.1175 41.5834 0.0000 22.6943 0.0000
# 3 91.5663 41.5834 87.0379 0.0000 31.3820 0.0000
# 4 0.0000 0.0000 0.0000 20.6976 0.0000 26.7936
# 5 51.3549 22.6943 31.3820 0.0000 34.0937 0.0000
# 6 0.0000 0.0000 0.0000 26.7936 0.0000 30.6674
#
#
#
# Elastic Compliance Matrix: (Units=1/GPa)
#
#
# Indices 1 2 3 4 5 6 
#
# 1 -0.031793 -0.002995 0.025284 0.000000 0.026611 0.000000
# 2 -0.002995 0.007491 -0.000384 0.000000 -0.000121 0.000000
# 3 0.025284 -0.000384 -0.001926 0.000000 -0.036056 0.000000
# 4 0.000000 0.000000 0.000000 -0.368794 0.000000 0.322209
# 5 0.026611 -0.000121 -0.036056 0.000000 0.022516 0.000000
# 6 0.000000 0.000000 0.000000 0.322209 0.000000 -0.248901
#
#
# Mechanical properties :
#
#
# Convention : Reuss Voigt Hill
#
# Bulk Modulus (GPa) = 56.88229 73.43305 65.15767
# Shear Modulus (GPa) = -7.58316 26.95591 9.68637
#
# Velocity S-wave (km/s) = -1.86629 3.51868 2.10928
# Velocity P-wave (km/s) = 4.63493 7.08779 5.98829
#
# Compressibility (1/GPa) = 0.01758017
#
# Stress axis : x y z
#
# Youngs Moduli (GPa) = -31.45319 133.49212 -519.16324
#
# Poissons Ratio (x) = 0.39981 13.12636
# Poissons Ratio (y) = -0.09420 -0.19957
# Poissons Ratio (z) = 0.79525 0.05132
#
# Static dielectric constant tensor:
#      x y z
#    x 2.040670 0.000000 0.051890 
#    y 0.000000 1.889970 0.000000 
#    z 0.051890 0.000000 1.858470 
# 
# From -- ./inp_files/64952.got.cif
#   From: 2010.05.17/outbox.cif.g08.bks.cpg/sg13_33_cif.got.tgz:64952.got - 2010.06.03 16:44:36.
