data_PCOD9234456
_publ_section_title
;
Structure prediction by ZEFSAII (Michael W. Deem and Ramdas Pophale) SiO2 
 PCOD9234456
Probable space group: P 2/C
;
_chemical_formula_sum "Si O2"
_cell_formula_units_Z 30
_cell_length_a 15.602128
_cell_length_b 5.434741
_cell_length_c 18.899362
_cell_angle_alpha 90.000000
_cell_angle_beta 61.628064
_cell_angle_gamma 90.000000
_cell_volume 1410.048287
_symmetry_space_group_name_H-M "P 2/C"
_symmetry_group_IT_number 13
_symmetry_cell_setting 'monoclinic'
loop_
_space_group_symop_operation_xyz
x,y,z
-x,y,1/2-z
-x,-y,-z
x,-y,1/2+z
loop_
_atom_site_type_symbol
_atom_site_label
_atom_site_fract_x
_atom_site_fract_y
_atom_site_fract_z
Si Si1 0.533975 0.293632 0.901496
Si Si2 0.506856 0.811900 0.662606
Si Si3 0.271915 0.799693 0.967157
Si Si4 0.913116 0.799868 0.541943
Si Si5 0.829913 0.886751 0.871383
Si Si6 0.337223 0.568740 0.546736
Si Si7 0.983329 0.458636 0.387657
Si Si8 0.000000 0.185104 0.750000
O O1 0.523609 0.547782 0.859677
O O2 0.619104 0.345648 0.924489
O O3 0.547555 0.047690 0.850419
O O4 0.433001 0.279232 0.986203
O O5 0.500000 0.802289 0.750000
O O6 0.619434 0.862200 0.598405
O O7 0.197476 0.863332 0.933251
O O8 0.286048 0.524811 0.994298
O O9 0.226166 0.938953 0.052009
O O10 0.935642 0.602467 0.471642
O O11 0.925719 0.681103 0.613807
O O12 0.000000 0.000000 0.500000
O O13 0.745235 0.709390 0.877019
O O14 0.907833 0.734240 0.886287
O O15 0.900388 0.030166 0.791094
O O16 0.004322 0.647924 0.317589
#
# Coordination Sequence:
#
# PCOD9234456 Si02
#       8
#     4   4   4   4   4   4   4   2
#     4  10  23  41  73 101 137 174 226 291 348 418
#     4  11  24  45  69 100 141 182 227 285 356 416
#     4  11  22  40  70  96 128 180 230 280 341 421
#     4  11  21  40  65  96 128 178 232 279 331 416
#     4  12  21  41  67  93 134 179 229 274 346 412
#     4  10  22  39  69 103 126 172 229 281 342 415
#     4  11  23  39  64  94 134 175 233 282 342 399
#     4  12  24  40  64  98 138 186 224 296 348 400
#
# _framework density 21.275867000000002
#
# number of rings (size 3 to 8) (size 9 to 14) (size 15 to 20)
#    0.000    1.067    5.333    0.800    1.867    1.600 
#    0.000    5.333    2.933    0.000    0.000    0.000 
#    0.000    0.000    0.000    0.000    0.000    0.000 
#
# Total GULP energy -167485.095750 kJ/mol
# GULP energy per Si atom -5582.836525 kJ/mol
# Density = 2.122744 g / cm^3
# Si number density = 21.275867 Si / 1000 Ang^3
#
#
#
# Elastic Constant Matrix: (Units=GPa)
#
#
# Indices 1 2 3 4 5 6 
#
# 1 120.6004 32.7308 24.6486 0.0000 3.0895 0.0000
# 2 32.7308 68.1180 24.5295 0.0000 0.7651 0.0000
# 3 24.6486 24.5295 89.8663 0.0000 -4.4425 0.0000
# 4 0.0000 0.0000 0.0000 14.0326 0.0000 -16.6495
# 5 3.0895 0.7651 -4.4425 0.0000 27.6262 0.0000
# 6 0.0000 0.0000 0.0000 -16.6495 0.0000 6.1245
#
#
#
# Elastic Compliance Matrix: (Units=1/GPa)
#
#
# Indices 1 2 3 4 5 6 
#
# 1 0.009766 -0.004095 -0.001622 0.000000 -0.001240 0.000000
# 2 -0.004095 0.018035 -0.003832 0.000000 -0.000658 0.000000
# 3 -0.001622 -0.003832 0.012734 0.000000 0.002335 0.000000
# 4 0.000000 0.000000 0.000000 -0.032021 0.000000 -0.087050
# 5 -0.001240 -0.000658 0.002335 0.000000 0.036730 0.000000
# 6 0.000000 0.000000 0.000000 -0.087050 0.000000 -0.073368
#
#
# Mechanical properties :
#
#
# Convention : Reuss Voigt Hill
#
# Bulk Modulus (GPa) = 46.64770 49.15582 47.90176
# Shear Modulus (GPa) = -2660.55686 22.66838 -1318.94424
#
# Velocity S-wave (km/s) = -35.40084 3.26766 -24.92530
# Velocity P-wave (km/s) = 40.60771 6.11482 28.38657
#
# Compressibility (1/GPa) = 0.02143729
#
# Stress axis : x y z
#
# Youngs Moduli (GPa) = 102.39107 55.44684 78.52928
#
# Poissons Ratio (x) = 0.22704 0.12740
# Poissons Ratio (y) = 0.41926 0.30094
# Poissons Ratio (z) = 0.16612 0.21249
#
# Static dielectric constant tensor:
#      x y z
#    x 1.815930 0.000000 0.011070 
#    y 0.000000 1.872800 0.000000 
#    z 0.011070 0.000000 1.735040 
# 
# From -- ./inp_files/67559.got.cif
#   From: 2010.05.17/outbox.cif.g08.bks.cpg/sg13_34_cif.got.tgz:67559.got - 2010.06.03 16:44:36.
