data_PCOD9234427
_publ_section_title
;
Structure prediction by ZEFSAII (Michael W. Deem and Ramdas Pophale) SiO2 
 PCOD9234427
Probable space group: P 2/C
;
_chemical_formula_sum "Si O2"
_cell_formula_units_Z 22
_cell_length_a 8.026420
_cell_length_b 13.345068
_cell_length_c 9.730811
_cell_angle_alpha 90.000000
_cell_angle_beta 118.367846
_cell_angle_gamma 90.000000
_cell_volume 917.133600
_symmetry_space_group_name_H-M "P 2/C"
_symmetry_group_IT_number 13
_symmetry_cell_setting 'monoclinic'
loop_
_space_group_symop_operation_xyz
x,y,z
-x,y,1/2-z
-x,-y,-z
x,-y,1/2+z
loop_
_atom_site_type_symbol
_atom_site_label
_atom_site_fract_x
_atom_site_fract_y
_atom_site_fract_z
Si Si1 0.500000 0.683293 0.750000
Si Si2 0.590490 0.162712 0.514690
Si Si3 0.874551 0.802584 0.336415
Si Si4 0.844051 0.586388 0.408018
Si Si5 0.679730 0.958557 0.426898
Si Si6 0.777749 0.441192 0.169138
O O1 0.409229 0.755186 0.601175
O O2 0.344722 0.619470 0.770032
O O3 0.667589 0.207824 0.686070
O O4 0.389633 0.114314 0.477117
O O5 0.708029 0.067006 0.504477
O O6 0.917097 0.699716 0.431054
O O7 0.849846 0.901492 0.418412
O O8 0.000000 0.811380 0.250000
O O9 0.776449 0.553661 0.229779
O O10 0.707015 0.572961 0.485460
O O11 0.000000 0.500000 0.500000
O O12 0.500000 0.970799 0.250000
O O13 0.000000 0.407668 0.250000
#
# Coordination Sequence:
#
# PCOD9234427 Si02
#       6
#     2   4   4   4   4   4
#     4  12  24  40  66 100 132 180 234 276 346 412
#     4  10  22  39  65  91 131 177 222 282 330 410
#     4  11  23  38  68  96 129 175 225 279 343 400
#     4  10  22  44  66  94 136 180 217 283 346 405
#     4   9  19  42  62  90 130 176 221 275 346 395
#     4  10  24  42  66  92 135 174 222 281 341 403
#
# _framework density 23.987780999999998
#
# number of rings (size 3 to 8) (size 9 to 14) (size 15 to 20)
#    0.000    1.818    0.909    2.727    7.636    1.455 
#    4.909    0.909    0.000    0.000    0.000    0.000 
#    0.000    0.000    0.000    0.000    0.000    0.000 
#
# Total GULP energy -122812.572191 kJ/mol
# GULP energy per Si atom -5582.389645 kJ/mol
# Density = 2.393318 g / cm^3
# Si number density = 23.987781 Si / 1000 Ang^3
#
#
#
# Elastic Constant Matrix: (Units=GPa)
#
#
# Indices 1 2 3 4 5 6 
#
# 1 127.3594 53.0957 28.6606 0.0000 -38.9361 0.0000
# 2 53.0957 111.5035 19.1590 0.0000 -8.3628 0.0000
# 3 28.6606 19.1590 51.6503 0.0000 -28.7400 0.0000
# 4 0.0000 0.0000 0.0000 38.6179 0.0000 -20.8746
# 5 -38.9361 -8.3628 -28.7400 0.0000 40.8761 0.0000
# 6 0.0000 0.0000 0.0000 -20.8746 0.0000 12.4088
#
#
#
# Elastic Compliance Matrix: (Units=1/GPa)
#
#
# Indices 1 2 3 4 5 6 
#
# 1 0.014057 -0.006016 0.001966 0.000000 0.013542 0.000000
# 2 -0.006016 0.012173 -0.004895 0.000000 -0.006682 0.000000
# 3 0.001966 -0.004895 0.033790 0.000000 0.024630 0.000000
# 4 0.000000 0.000000 0.000000 0.285564 0.000000 0.480388
# 5 0.013542 -0.006682 0.024630 0.000000 0.053314 0.000000
# 6 0.000000 0.000000 0.000000 0.480388 0.000000 0.888715
#
#
# Mechanical properties :
#
#
# Convention : Reuss Voigt Hill
#
# Bulk Modulus (GPa) = 23.73538 54.70486 39.22012
# Shear Modulus (GPa) = 3.78918 31.02043 17.40481
#
# Velocity S-wave (km/s) = 1.25820 3.59998 2.69656
# Velocity P-wave (km/s) = 3.46800 6.33519 5.10694
#
# Compressibility (1/GPa) = 0.04213119
#
# Stress axis : x y z
#
# Youngs Moduli (GPa) = 71.13692 82.14885 29.59424
#
# Poissons Ratio (x) = 0.49421 -0.05819
# Poissons Ratio (y) = 0.42796 0.14487
# Poissons Ratio (z) = -0.13988 0.40213
#
# Static dielectric constant tensor:
#      x y z
#    x 2.033260 0.000000 0.087270 
#    y 0.000000 1.872770 0.000000 
#    z 0.087270 0.000000 2.095970 
# 
# From -- ./inp_files/29564.got.cif
#   From: 2010.05.17/outbox.cif.g08.bks.cpg/sg13_15_cif.got.tgz:29564.got - 2010.06.03 16:44:36.
