data_PCOD9234447
_publ_section_title
;
Structure prediction by ZEFSAII (Michael W. Deem and Ramdas Pophale) SiO2 
 PCOD9234447
Probable space group: P 2/C
;
_chemical_formula_sum "Si O2"
_cell_formula_units_Z 28
_cell_length_a 16.447465
_cell_length_b 11.744079
_cell_length_c 18.341874
_cell_angle_alpha 90.000000
_cell_angle_beta 20.534364
_cell_angle_gamma 90.000000
_cell_volume 1242.747708
_symmetry_space_group_name_H-M "P 2/C"
_symmetry_group_IT_number 13
_symmetry_cell_setting 'monoclinic'
loop_
_space_group_symop_operation_xyz
x,y,z
-x,y,1/2-z
-x,-y,-z
x,-y,1/2+z
loop_
_atom_site_type_symbol
_atom_site_label
_atom_site_fract_x
_atom_site_fract_y
_atom_site_fract_z
Si Si1 0.549096 0.675046 0.466955
Si Si2 0.246087 0.040678 0.074164
Si Si3 0.156376 0.473397 0.056760
Si Si4 0.836162 0.107612 0.723182
Si Si5 0.912449 0.240180 0.216413
Si Si6 0.418937 0.490094 0.695733
Si Si7 0.751352 0.043287 0.628506
O O1 0.744990 0.767980 0.317625
O O2 0.297279 0.732953 0.663259
O O3 0.509289 0.592186 0.568838
O O4 0.623794 0.606838 0.330052
O O5 0.216173 0.175259 0.110339
O O6 0.000000 0.997243 0.250000
O O7 0.276565 0.979881 0.125829
O O8 0.485394 0.025154 0.833349
O O9 0.000000 0.536353 0.250000
O O10 0.027139 0.357579 0.142800
O O11 0.221990 0.523442 0.921319
O O12 0.381829 0.448700 0.916449
O O13 0.761765 0.078648 0.704131
O O14 0.106019 0.073554 0.500861
O O15 0.105876 0.147277 0.029083
#
# Coordination Sequence:
#
# PCOD9234447 Si02
#       7
#     4   4   4   4   4   4   4
#     4  11  22  45  66 104 136 197 238 302 363 428
#     4  11  24  40  64 101 143 179 230 292 355 454
#     4  11  22  43  65  99 134 185 231 313 365 419
#     4  10  22  39  67  94 142 178 235 281 356 434
#     4  11  23  36  71 101 134 174 241 300 369 423
#     4  10  25  43  68  96 145 177 249 304 361 430
#     4  10  22  40  65 107 128 185 228 299 354 435
#
# _framework density 22.530719999999999
#
# number of rings (size 3 to 8) (size 9 to 14) (size 15 to 20)
#    0.000    1.429    2.857    1.714    4.000    4.000 
#    2.571    0.714    3.143    0.000    0.000    0.000 
#    0.000    0.000    0.000    0.000    0.000    0.000 
#
# Total GULP energy -156151.307791 kJ/mol
# GULP energy per Si atom -5576.832421 kJ/mol
# Density = 2.247944 g / cm^3
# Si number density = 22.530720 Si / 1000 Ang^3
#
#
#
# Elastic Constant Matrix: (Units=GPa)
#
#
# Indices 1 2 3 4 5 6 
#
# 1 113.9034 25.0603 54.6527 0.0000 34.8918 0.0000
# 2 25.0603 78.7978 44.2275 0.0000 1.0299 0.0000
# 3 54.6527 44.2275 159.0487 0.0000 3.6829 0.0000
# 4 0.0000 0.0000 0.0000 29.0805 0.0000 0.0892
# 5 34.8918 1.0299 3.6829 0.0000 48.6404 0.0000
# 6 0.0000 0.0000 0.0000 0.0892 0.0000 19.2949
#
#
#
# Elastic Compliance Matrix: (Units=1/GPa)
#
#
# Indices 1 2 3 4 5 6 
#
# 1 0.014210 -0.002107 -0.004069 0.000000 -0.009841 0.000000
# 2 -0.002107 0.015350 -0.003578 0.000000 0.001457 0.000000
# 3 -0.004069 -0.003578 0.008626 0.000000 0.002342 0.000000
# 4 0.000000 0.000000 0.000000 0.034388 0.000000 -0.000159
# 5 -0.009841 0.001457 0.002342 0.000000 0.027410 0.000000
# 6 0.000000 0.000000 0.000000 -0.000159 0.000000 0.051828
#
#
# Mechanical properties :
#
#
# Convention : Reuss Voigt Hill
#
# Bulk Modulus (GPa) = 53.53864 66.62563 60.08214
# Shear Modulus (GPa) = 28.16171 34.59045 31.37608
#
# Velocity S-wave (km/s) = 3.53926 3.92249 3.73579
# Velocity P-wave (km/s) = 6.36521 7.08165 6.73297
#
# Compressibility (1/GPa) = 0.01867810
#
# Stress axis : x y z
#
# Youngs Moduli (GPa) = 70.37437 65.14618 115.92264
#
# Poissons Ratio (x) = 0.13724 0.47170
# Poissons Ratio (y) = 0.14825 0.41481
# Poissons Ratio (z) = 0.28636 0.23311
#
# Static dielectric constant tensor:
#      x y z
#    x 1.882320 0.000000 0.011630 
#    y 0.000000 1.804560 0.000000 
#    z 0.011630 0.000000 1.959480 
# 
# From -- ./inp_files/81060.got.cif
#   From: 2010.05.17/outbox.cif.g08.bks.cpg/sg13_41_cif.got.tgz:81060.got - 2010.06.03 16:44:36.
