data_PCOD9234930
_publ_section_title
;
Structure prediction by ZEFSAII (Michael W. Deem and Ramdas Pophale) SiO2 
 PCOD9234930
Probable space group: P 2/C
;
_chemical_formula_sum "Si O2"
_cell_formula_units_Z 26
_cell_length_a 9.239697
_cell_length_b 21.714040
_cell_length_c 9.530327
_cell_angle_alpha 90.000000
_cell_angle_beta 135.849745
_cell_angle_gamma 90.000000
_cell_volume 1331.845134
_symmetry_space_group_name_H-M "P 2/C"
_symmetry_group_IT_number 13
_symmetry_cell_setting 'monoclinic'
loop_
_space_group_symop_operation_xyz
x,y,z
-x,y,1/2-z
-x,-y,-z
x,-y,1/2+z
loop_
_atom_site_type_symbol
_atom_site_label
_atom_site_fract_x
_atom_site_fract_y
_atom_site_fract_z
Si Si1 0.500000 0.879374 0.250000
Si Si2 0.165839 0.176781 0.054444
Si Si3 0.648169 0.486763 0.237626
Si Si4 0.880822 0.706857 0.306829
Si Si5 0.438235 0.200753 0.985651
Si Si6 0.054130 0.061094 0.451662
Si Si7 0.947695 0.592936 0.552045
O O1 0.511598 0.836449 0.120280
O O2 0.704006 0.921078 0.380785
O O3 0.354005 0.201461 0.279578
O O4 0.071641 0.116407 0.060257
O O5 0.264550 0.168734 0.967097
O O6 0.995803 0.230343 0.932233
O O7 0.500000 0.457389 0.250000
O O8 0.754170 0.547747 0.380352
O O9 0.843314 0.442619 0.348638
O O10 0.500000 0.500000 0.000000
O O11 0.651605 0.731529 0.110341
O O12 0.901670 0.655159 0.437009
O O13 0.000000 0.684779 0.250000
O O14 0.000000 0.055045 0.250000
O O15 0.000000 0.000000 0.500000
O O16 0.000000 0.605225 0.750000
#
# Coordination Sequence:
#
# PCOD9234930 Si02
#       7
#     2   4   4   4   4   4   4
#     4  12  24  42  70  98 126 174 220 264 338 390
#     4  10  22  46  66  92 136 173 217 273 335 399
#     4  11  24  45  68  94 137 183 228 279 342 398
#     4  10  23  41  67  97 135 174 218 276 338 399
#     4  10  22  41  70  94 127 175 217 267 335 399
#     4  12  28  44  68 101 134 173 222 276 335 400
#     4  11  25  42  66 103 135 176 230 285 334 404
#
# _framework density 19.521788000000001
#
# number of rings (size 3 to 8) (size 9 to 14) (size 15 to 20)
#    0.000    1.231    4.615    0.000    4.308    4.923 
#    4.154    0.000    0.000    0.000    0.000    0.000 
#    0.000    0.000    0.000    0.000    0.000    0.000 
#
# Total GULP energy -145160.067797 kJ/mol
# GULP energy per Si atom -5583.079531 kJ/mol
# Density = 1.947736 g / cm^3
# Si number density = 19.521788 Si / 1000 Ang^3
#
#
#
# Elastic Constant Matrix: (Units=GPa)
#
#
# Indices 1 2 3 4 5 6 
#
# 1 95.9043 54.1511 59.6121 0.0000 -12.6561 0.0000
# 2 54.1511 98.3217 57.9647 0.0000 -14.4089 0.0000
# 3 59.6121 57.9647 139.6141 0.0000 -6.7739 0.0000
# 4 0.0000 0.0000 0.0000 30.4075 0.0000 -7.8745
# 5 -12.6561 -14.4089 -6.7739 0.0000 47.0178 0.0000
# 6 0.0000 0.0000 0.0000 -7.8745 0.0000 16.5117
#
#
#
# Elastic Compliance Matrix: (Units=1/GPa)
#
#
# Indices 1 2 3 4 5 6 
#
# 1 0.017178 -0.006492 -0.004543 0.000000 0.001980 0.000000
# 2 -0.006492 0.016464 -0.003931 0.000000 0.002732 0.000000
# 3 -0.004543 -0.003931 0.010691 0.000000 -0.000887 0.000000
# 4 0.000000 0.000000 0.000000 0.037520 0.000000 0.017894
# 5 0.001980 0.002732 -0.000887 0.000000 0.022511 0.000000
# 6 0.000000 0.000000 0.000000 0.017894 0.000000 0.069097
#
#
# Mechanical properties :
#
#
# Convention : Reuss Voigt Hill
#
# Bulk Modulus (GPa) = 69.44066 75.25510 72.34788
# Shear Modulus (GPa) = 24.01599 29.59487 26.80543
#
# Velocity S-wave (km/s) = 3.51125 3.89780 3.70956
# Velocity P-wave (km/s) = 7.21710 7.67399 7.44905
#
# Compressibility (1/GPa) = 0.01440079
#
# Stress axis : x y z
#
# Youngs Moduli (GPa) = 58.21368 60.73800 93.53332
#
# Poissons Ratio (x) = 0.39434 0.42493
# Poissons Ratio (y) = 0.37795 0.36767
# Poissons Ratio (z) = 0.26447 0.23875
#
# Static dielectric constant tensor:
#      x y z
#    x 1.679350 0.000000 0.010700 
#    y 0.000000 1.646920 0.000000 
#    z 0.010700 0.000000 1.739940 
# 
# From -- ./inp_files/13664.got.cif
#   From: 2010.05.17/outbox.cif.g08.bks.cpg/sg13_7_cif.got.tgz:13664.got - 2010.06.03 16:44:36.
