data_PCOD9234639
_publ_section_title
;
Structure prediction by ZEFSAII (Michael W. Deem and Ramdas Pophale) SiO2 
 PCOD9234639
Probable space group: P 2/C
;
_chemical_formula_sum "Si O2"
_cell_formula_units_Z 18
_cell_length_a 17.244371
_cell_length_b 4.982394
_cell_length_c 9.315110
_cell_angle_alpha 90.000000
_cell_angle_beta 56.804341
_cell_angle_gamma 90.000000
_cell_volume 669.727441
_symmetry_space_group_name_H-M "P 2/C"
_symmetry_group_IT_number 13
_symmetry_cell_setting 'monoclinic'
loop_
_space_group_symop_operation_xyz
x,y,z
-x,y,1/2-z
-x,-y,-z
x,-y,1/2+z
loop_
_atom_site_type_symbol
_atom_site_label
_atom_site_fract_x
_atom_site_fract_y
_atom_site_fract_z
Si Si1 0.104700 0.970410 0.957284
Si Si2 0.592242 0.828488 0.443429
Si Si3 0.000000 0.310951 0.250000
Si Si4 0.653374 0.334762 0.560178
Si Si5 0.840667 0.530028 0.241710
O O1 0.169514 0.174874 0.807677
O O2 0.148012 0.681135 0.900814
O O3 0.084262 0.109811 0.127764
O O4 0.000000 0.000000 0.000000
O O5 0.588455 0.563355 0.549588
O O6 0.631745 0.724922 0.249282
O O7 0.500000 0.000000 0.500000
O O8 0.645643 0.055317 0.481677
O O9 0.943816 0.506200 0.203365
O O10 0.755865 0.449111 0.426239
#
# Coordination Sequence:
#
# PCOD9234639 Si02
#       5
#     4   4   2   4   4
#     4  10  22  41  59  97 134 196 253 314 376 448
#     4  12  28  55  84 121 162 210 263 334 424 503
#     4  10  22  40  66  94 144 204 248 314 374 450
#     4  12  28  50  83 123 162 212 267 342 400 495
#     4  11  25  40  68 101 149 195 265 317 391 450
#
# _framework density 26.876601999999998
#
# number of rings (size 3 to 8) (size 9 to 14) (size 15 to 20)
#    0.000    0.889    0.000    6.667    6.222    9.778 
#    0.000    0.000    0.000    0.000    0.000    0.000 
#    0.000    0.000    0.000    0.000    0.000    0.000 
#
# Total GULP energy -100697.697010 kJ/mol
# GULP energy per Si atom -5594.316501 kJ/mol
# Density = 2.681543 g / cm^3
# Si number density = 26.876602 Si / 1000 Ang^3
#
#
#
# Elastic Constant Matrix: (Units=GPa)
#
#
# Indices 1 2 3 4 5 6 
#
# 1 73.5835 35.1595 49.8677 0.0000 5.5173 0.0000
# 2 35.1595 178.8798 57.0302 0.0000 20.9650 0.0000
# 3 49.8677 57.0302 179.7408 0.0000 5.2614 0.0000
# 4 0.0000 0.0000 0.0000 58.1466 0.0000 -0.2257
# 5 5.5173 20.9650 5.2614 0.0000 38.4359 0.0000
# 6 0.0000 0.0000 0.0000 -0.2257 0.0000 53.6884
#
#
#
# Elastic Compliance Matrix: (Units=1/GPa)
#
#
# Indices 1 2 3 4 5 6 
#
# 1 0.017440 -0.001996 -0.004181 0.000000 -0.000842 0.000000
# 2 -0.001996 0.006848 -0.001524 0.000000 -0.003240 0.000000
# 3 -0.004181 -0.001524 0.007194 0.000000 0.000447 0.000000
# 4 0.000000 0.000000 0.000000 0.017198 0.000000 0.000072
# 5 -0.000842 -0.003240 0.000447 0.000000 0.027845 0.000000
# 6 0.000000 0.000000 0.000000 0.000072 0.000000 0.018626
#
#
# Mechanical properties :
#
#
# Convention : Reuss Voigt Hill
#
# Bulk Modulus (GPa) = 62.18778 79.59099 70.88939
# Shear Modulus (GPa) = 43.13533 49.39727 46.26630
#
# Velocity S-wave (km/s) = 4.01052 4.29176 4.15352
# Velocity P-wave (km/s) = 6.68088 7.36456 7.03103
#
# Compressibility (1/GPa) = 0.01608033
#
# Stress axis : x y z
#
# Youngs Moduli (GPa) = 57.33860 146.01812 139.00513
#
# Poissons Ratio (x) = 0.29151 0.58112
# Poissons Ratio (y) = 0.11447 0.21188
# Poissons Ratio (z) = 0.23971 0.22256
#
# Static dielectric constant tensor:
#      x y z
#    x 2.223280 0.000000 0.229880 
#    y 0.000000 2.123200 0.000000 
#    z 0.229880 0.000000 2.544500 
# 
# From -- ./inp_files/22177.got.cif
#   From: 2010.05.17/outbox.cif.g08.bks.cpg/sg13_12_cif.got.tgz:22177.got - 2010.06.03 16:44:36.
