data_PCOD9234640
_publ_section_title
;
Structure prediction by ZEFSAII (Michael W. Deem and Ramdas Pophale) SiO2 
 PCOD9234640
Probable space group: P 2/C
;
_chemical_formula_sum "Si O2"
_cell_formula_units_Z 28
_cell_length_a 8.864894
_cell_length_b 11.877742
_cell_length_c 13.905585
_cell_angle_alpha 90.000000
_cell_angle_beta 117.526637
_cell_angle_gamma 90.000000
_cell_volume 1298.435730
_symmetry_space_group_name_H-M "P 2/C"
_symmetry_group_IT_number 13
_symmetry_cell_setting 'monoclinic'
loop_
_space_group_symop_operation_xyz
x,y,z
-x,y,1/2-z
-x,-y,-z
x,-y,1/2+z
loop_
_atom_site_type_symbol
_atom_site_label
_atom_site_fract_x
_atom_site_fract_y
_atom_site_fract_z
Si Si1 0.589249 0.179535 0.056826
Si Si2 0.699973 0.324080 0.791304
Si Si3 0.889265 0.279249 0.036104
Si Si4 0.478674 0.987432 0.140124
Si Si5 0.238122 0.728983 0.410408
Si Si6 0.121679 0.105679 0.024479
Si Si7 0.003274 0.512993 0.140385
O O1 0.425581 0.262457 0.014621
O O2 0.538961 0.102066 0.949776
O O3 0.760788 0.244453 0.082560
O O4 0.608183 0.086395 0.146136
O O5 0.500000 0.339504 0.750000
O O6 0.737668 0.270933 0.697609
O O7 0.807646 0.440199 0.821887
O O8 0.783710 0.259805 0.906066
O O9 0.053081 0.200703 0.075973
O O10 0.945328 0.407920 0.060866
O O11 0.500000 0.932185 0.250000
O O12 0.306340 0.057819 0.097777
O O13 0.135706 0.834841 0.423918
O O14 0.128867 0.618081 0.404378
O O15 0.000000 0.000000 0.000000
O O16 0.000000 0.474360 0.250000
#
# Coordination Sequence:
#
# PCOD9234640 Si02
#       7
#     4   4   4   4   4   4   4
#     4  10  22  40  66  96 128 174 226 274 330 401
#     4  11  22  41  67 102 126 174 224 276 337 395
#     4  12  23  41  70  95 135 172 224 277 339 398
#     4  10  23  43  63  92 136 176 222 278 331 396
#     4  10  22  41  64  96 133 166 224 272 330 398
#     4  11  23  41  66  97 132 177 219 273 338 400
#     4  10  24  44  64  96 136 174 222 283 333 408
#
# _framework density 21.564412000000001
#
# number of rings (size 3 to 8) (size 9 to 14) (size 15 to 20)
#    0.000    1.429    4.286    0.429    2.000    1.714 
#    0.000    0.714    3.143    0.000    0.000    0.000 
#    0.000    0.000    0.000    0.000    0.000    0.000 
#
# Total GULP energy -156364.360046 kJ/mol
# GULP energy per Si atom -5584.441430 kJ/mol
# Density = 2.151533 g / cm^3
# Si number density = 21.564412 Si / 1000 Ang^3
#
#
#
# Elastic Constant Matrix: (Units=GPa)
#
#
# Indices 1 2 3 4 5 6 
#
# 1 140.7633 53.5467 8.6830 0.0000 3.0581 0.0000
# 2 53.5467 106.0592 20.0595 0.0000 -0.9875 0.0000
# 3 8.6830 20.0595 40.7068 0.0000 -13.2848 0.0000
# 4 0.0000 0.0000 0.0000 30.7441 0.0000 0.5416
# 5 3.0581 -0.9875 -13.2848 0.0000 26.3375 0.0000
# 6 0.0000 0.0000 0.0000 0.5416 0.0000 29.3647
#
#
#
# Elastic Compliance Matrix: (Units=1/GPa)
#
#
# Indices 1 2 3 4 5 6 
#
# 1 0.008830 -0.004452 -0.000094 0.000000 -0.001240 0.000000
# 2 -0.004452 0.012796 -0.006022 0.000000 -0.002041 0.000000
# 3 -0.000094 -0.006022 0.032899 0.000000 0.016380 0.000000
# 4 0.000000 0.000000 0.000000 0.032537 0.000000 -0.000600
# 5 -0.001240 -0.002041 0.016380 0.000000 0.046298 0.000000
# 6 0.000000 0.000000 0.000000 -0.000600 0.000000 0.034066
#
#
# Mechanical properties :
#
#
# Convention : Reuss Voigt Hill
#
# Bulk Modulus (GPa) = 29.95003 50.23416 40.09209
# Shear Modulus (GPa) = 25.03835 30.97195 28.00515
#
# Velocity S-wave (km/s) = 3.41118 3.79390 3.60762
# Velocity P-wave (km/s) = 5.42528 6.52205 5.99878
#
# Compressibility (1/GPa) = 0.03338895
#
# Stress axis : x y z
#
# Youngs Moduli (GPa) = 113.24496 78.14707 30.39583
#
# Poissons Ratio (x) = 0.34791 0.00287
# Poissons Ratio (y) = 0.50416 0.18305
# Poissons Ratio (z) = 0.01069 0.47062
#
# Static dielectric constant tensor:
#      x y z
#    x 1.828760 0.000000 -0.041540 
#    y 0.000000 1.816710 0.000000 
#    z -0.041540 0.000000 1.850140 
# 
# From -- ./inp_files/47319.got.cif
#   From: 2010.05.17/outbox.cif.g08.bks.cpg/sg13_24_cif.got.tgz:47319.got - 2010.06.03 16:44:36.
