data_PCOD9234591
_publ_section_title
;
Structure prediction by ZEFSAII (Michael W. Deem and Ramdas Pophale) SiO2 
 PCOD9234591
Probable space group: P 2/C
;
_chemical_formula_sum "Si O2"
_cell_formula_units_Z 24
_cell_length_a 8.735006
_cell_length_b 8.611687
_cell_length_c 18.562316
_cell_angle_alpha 90.000000
_cell_angle_beta 130.501547
_cell_angle_gamma 90.000000
_cell_volume 1061.742266
_symmetry_space_group_name_H-M "P 2/C"
_symmetry_group_IT_number 13
_symmetry_cell_setting 'monoclinic'
loop_
_space_group_symop_operation_xyz
x,y,z
-x,y,1/2-z
-x,-y,-z
x,-y,1/2+z
loop_
_atom_site_type_symbol
_atom_site_label
_atom_site_fract_x
_atom_site_fract_y
_atom_site_fract_z
Si Si1 0.680212 0.505783 0.917536
Si Si2 0.724298 0.389740 0.732592
Si Si3 0.000000 0.197816 0.250000
Si Si4 0.909267 0.979881 0.866178
Si Si5 0.163983 0.490522 0.378558
Si Si6 0.500000 0.879533 0.250000
Si Si7 0.988473 0.754549 0.481206
O O1 0.457824 0.512895 0.819028
O O2 0.793907 0.355226 0.920611
O O3 0.699302 0.487283 0.009570
O O4 0.818110 0.651579 0.944121
O O5 0.767503 0.385338 0.660215
O O6 0.620327 0.233080 0.730666
O O7 0.932871 0.460030 0.827125
O O8 0.087128 0.088784 0.212942
O O9 0.148614 0.321778 0.335235
O O10 0.684085 0.008786 0.828609
O O11 0.009817 0.146576 0.914665
O O12 0.027640 0.864936 0.954960
#
# Coordination Sequence:
#
# PCOD9234591 Si02
#       7
#     4   4   2   4   4   2   4
#     4  11  20  42  70  95 130 174 231 281 330 397
#     4  10  23  39  65  97 131 167 231 277 328 394
#     4  10  22  40  64  92 136 182 210 274 344 398
#     4  11  23  42  61  94 141 172 217 274 344 411
#     4  10  23  42  67 101 132 173 229 287 337 388
#     4  12  24  38  62  98 128 178 222 272 334 412
#     4  10  23  39  66  96 131 179 220 280 339 398
#
# _framework density 22.604355999999999
#
# number of rings (size 3 to 8) (size 9 to 14) (size 15 to 20)
#    0.000    1.667    3.333    1.500    2.333    5.333 
#    0.000    0.000    0.000    8.000    0.000    0.000 
#    0.000    0.000    0.000    0.000    0.000    0.000 
#
# Total GULP energy -133867.583561 kJ/mol
# GULP energy per Si atom -5577.815982 kJ/mol
# Density = 2.255291 g / cm^3
# Si number density = 22.604356 Si / 1000 Ang^3
#
#
#
# Elastic Constant Matrix: (Units=GPa)
#
#
# Indices 1 2 3 4 5 6 
#
# 1 118.5321 46.3198 41.8749 0.0000 -8.2779 0.0000
# 2 46.3198 103.9923 14.0804 0.0000 -8.5416 0.0000
# 3 41.8749 14.0804 61.4659 0.0000 -3.9871 0.0000
# 4 0.0000 0.0000 0.0000 28.7958 0.0000 -14.1382
# 5 -8.2779 -8.5416 -3.9871 0.0000 60.5789 0.0000
# 6 0.0000 0.0000 0.0000 -14.1382 0.0000 37.3510
#
#
#
# Elastic Compliance Matrix: (Units=1/GPa)
#
#
# Indices 1 2 3 4 5 6 
#
# 1 0.013074 -0.004719 -0.007786 0.000000 0.000609 0.000000
# 2 -0.004719 0.011723 0.000597 0.000000 0.001047 0.000000
# 3 -0.007786 0.000597 0.021465 0.000000 0.000433 0.000000
# 4 0.000000 0.000000 0.000000 0.042655 0.000000 0.016146
# 5 0.000609 0.001047 0.000433 0.000000 0.016767 0.000000
# 6 0.000000 0.000000 0.000000 0.016146 0.000000 0.032885
#
#
# Mechanical properties :
#
#
# Convention : Reuss Voigt Hill
#
# Bulk Modulus (GPa) = 44.55119 54.28226 49.41672
# Shear Modulus (GPa) = 29.43494 37.45949 33.44722
#
# Velocity S-wave (km/s) = 3.61249 4.07526 3.85083
# Velocity P-wave (km/s) = 6.09524 6.79779 6.45608
#
# Compressibility (1/GPa) = 0.02244609
#
# Stress axis : x y z
#
# Youngs Moduli (GPa) = 76.48823 85.30098 46.58736
#
# Poissons Ratio (x) = 0.40254 0.36275
# Poissons Ratio (y) = 0.36095 -0.02783
# Poissons Ratio (z) = 0.59556 -0.05096
#
# Static dielectric constant tensor:
#      x y z
#    x 1.903600 0.000000 -0.022020 
#    y 0.000000 1.878310 0.000000 
#    z -0.022020 0.000000 1.905390 
# 
# From -- ./inp_files/75799.got.cif
#   From: 2010.05.17/outbox.cif.g08.bks.cpg/sg13_38_cif.got.tgz:75799.got - 2010.06.03 16:44:36.
