data_PCOD9234568
_publ_section_title
;
Structure prediction by ZEFSAII (Michael W. Deem and Ramdas Pophale) SiO2 
 PCOD9234568
Probable space group: P 2/C
;
_chemical_formula_sum "Si O2"
_cell_formula_units_Z 26
_cell_length_a 10.886715
_cell_length_b 11.530250
_cell_length_c 15.361438
_cell_angle_alpha 90.000000
_cell_angle_beta 144.052625
_cell_angle_gamma 90.000000
_cell_volume 1131.974331
_symmetry_space_group_name_H-M "P 2/C"
_symmetry_group_IT_number 13
_symmetry_cell_setting 'monoclinic'
loop_
_space_group_symop_operation_xyz
x,y,z
-x,y,1/2-z
-x,-y,-z
x,-y,1/2+z
loop_
_atom_site_type_symbol
_atom_site_label
_atom_site_fract_x
_atom_site_fract_y
_atom_site_fract_z
Si Si1 0.650824 0.769476 0.759364
Si Si2 0.000000 0.000844 0.250000
Si Si3 0.435072 0.096047 0.536311
Si Si4 0.665963 0.575734 0.996083
Si Si5 0.571084 0.648194 0.129348
Si Si6 0.176679 0.992681 0.176271
Si Si7 0.998355 0.378371 0.949327
O O1 0.500000 0.817473 0.750000
O O2 0.508387 0.669757 0.634570
O O3 0.746340 0.875460 0.760242
O O4 0.853095 0.708950 0.914858
O O5 0.189189 0.072298 0.402377
O O6 0.086150 0.935249 0.213716
O O7 0.471499 0.231592 0.541469
O O8 0.500000 0.000000 0.500000
O O9 0.599231 0.068954 0.708519
O O10 0.591065 0.446638 0.927731
O O11 0.671605 0.586230 0.102602
O O12 0.881080 0.604905 0.072685
O O13 0.764054 0.666228 0.304453
O O14 0.000000 0.000000 0.000000
O O15 0.000000 0.500000 0.000000
#
# Coordination Sequence:
#
# PCOD9234568 Si02
#       7
#     4   2   4   4   4   4   4
#     4  10  22  41  67  90 132 174 214 281 332 405
#     4  10  24  44  66  96 138 178 220 296 348 392
#     4  10  23  45  66 100 139 174 228 284 346 415
#     4  10  22  40  63  97 127 169 220 268 338 400
#     4  11  22  42  66  95 130 174 221 272 339 409
#     4  11  24  43  69 101 134 179 236 280 349 423
#     4  11  22  40  63  97 132 169 218 274 332 402
#
# _framework density 22.968719
#
# number of rings (size 3 to 8) (size 9 to 14) (size 15 to 20)
#    0.000    1.538    1.538    3.231    2.154    1.231 
#   22.154    1.538    0.000    0.000    0.000    0.000 
#    0.000    0.000    0.000    0.000    0.000    0.000 
#
# Total GULP energy -145047.395213 kJ/mol
# GULP energy per Si atom -5578.745970 kJ/mol
# Density = 2.291644 g / cm^3
# Si number density = 22.968719 Si / 1000 Ang^3
#
#
#
# Elastic Constant Matrix: (Units=GPa)
#
#
# Indices 1 2 3 4 5 6 
#
# 1 33.3828 -1.7508 -3.9257 0.0000 -6.8024 0.0000
# 2 -1.7508 97.3852 17.1340 0.0000 15.0662 0.0000
# 3 -3.9257 17.1340 158.7261 0.0000 14.2339 0.0000
# 4 0.0000 0.0000 0.0000 25.0768 0.0000 -5.6454
# 5 -6.8024 15.0662 14.2339 0.0000 27.6742 0.0000
# 6 0.0000 0.0000 0.0000 -5.6454 0.0000 18.6847
#
#
#
# Elastic Compliance Matrix: (Units=1/GPa)
#
#
# Indices 1 2 3 4 5 6 
#
# 1 0.031580 -0.000705 0.000133 0.000000 0.008078 0.000000
# 2 -0.000705 0.011302 -0.000703 0.000000 -0.005965 0.000000
# 3 0.000133 -0.000703 0.006649 0.000000 -0.003005 0.000000
# 4 0.000000 0.000000 0.000000 0.042788 0.000000 0.012928
# 5 0.008078 -0.005965 -0.003005 0.000000 0.042913 0.000000
# 6 0.000000 0.000000 0.000000 0.012928 0.000000 0.057426
#
#
# Mechanical properties :
#
#
# Convention : Reuss Voigt Hill
#
# Bulk Modulus (GPa) = 21.28522 34.71212 27.99867
# Shear Modulus (GPa) = 23.71145 32.82292 28.26718
#
# Velocity S-wave (km/s) = 3.21648 3.78435 3.51191
# Velocity P-wave (km/s) = 4.80432 5.85155 5.35361
#
# Compressibility (1/GPa) = 0.04698095
#
# Stress axis : x y z
#
# Youngs Moduli (GPa) = 31.66536 88.47772 150.40489
#
# Poissons Ratio (x) = 0.06241 -0.01997
# Poissons Ratio (y) = 0.02234 0.10567
# Poissons Ratio (z) = -0.00420 0.06216
#
# Static dielectric constant tensor:
#      x y z
#    x 1.939160 0.000000 -0.019290 
#    y 0.000000 1.912230 0.000000 
#    z -0.019290 0.000000 1.878270 
# 
# From -- ./inp_files/66748.got.cif
#   From: 2010.05.17/outbox.cif.g08.bks.cpg/sg13_34_cif.got.tgz:66748.got - 2010.06.03 16:44:36.
