data_PCOD9234488
_publ_section_title
;
Structure prediction by ZEFSAII (Michael W. Deem and Ramdas Pophale) SiO2 
 PCOD9234488
Probable space group: P 2/C
;
_chemical_formula_sum "Si O2"
_cell_formula_units_Z 18
_cell_length_a 8.023572
_cell_length_b 17.995219
_cell_length_c 5.402714
_cell_angle_alpha 90.000000
_cell_angle_beta 94.247038
_cell_angle_gamma 90.000000
_cell_volume 777.933837
_symmetry_space_group_name_H-M "P 2/C"
_symmetry_group_IT_number 13
_symmetry_cell_setting 'monoclinic'
loop_
_space_group_symop_operation_xyz
x,y,z
-x,y,1/2-z
-x,-y,-z
x,-y,1/2+z
loop_
_atom_site_type_symbol
_atom_site_label
_atom_site_fract_x
_atom_site_fract_y
_atom_site_fract_z
Si Si1 0.822030 0.678831 0.105747
Si Si2 0.693462 0.529008 0.982931
Si Si3 0.500000 0.166168 0.250000
Si Si4 0.000000 0.048698 0.750000
Si Si5 0.500000 0.738289 0.250000
Si Si6 0.844501 0.845756 0.912954
O O1 0.738362 0.614341 0.930044
O O2 0.670976 0.692017 0.283118
O O3 0.000000 0.661259 0.250000
O O4 0.844945 0.757627 0.969012
O O5 0.766968 0.516155 0.263010
O O6 0.500000 0.500000 0.000000
O O7 0.506573 0.214175 0.501268
O O8 0.323578 0.125976 0.234807
O O9 0.855547 0.108599 0.670470
O O10 0.000000 0.000000 0.500000
O O11 0.000000 0.858777 0.750000
#
# Coordination Sequence:
#
# PCOD9234488 Si02
#       6
#     4   4   2   2   2   4
#     4  11  23  41  72 103 137 189 248 302 353 430
#     4  10  23  42  62  90 136 184 228 287 363 419
#     4  10  24  38  70 104 144 180 238 298 356 420
#     4  12  26  48  78 108 154 200 228 292 384 442
#     4  10  22  40  60 102 140 176 228 310 366 402
#     4  11  24  46  76 110 149 190 250 302 360 430
#
# _framework density 23.138216
#
# number of rings (size 3 to 8) (size 9 to 14) (size 15 to 20)
#    0.000    1.333    2.222    2.667    3.111   13.333 
#    0.000    1.111    0.000    0.000    0.000    0.000 
#    0.000    0.000    0.000    0.000    0.000    0.000 
#
# Total GULP energy -100269.151835 kJ/mol
# GULP energy per Si atom -5570.508435 kJ/mol
# Density = 2.308555 g / cm^3
# Si number density = 23.138216 Si / 1000 Ang^3
#
#
#
# Elastic Constant Matrix: (Units=GPa)
#
#
# Indices 1 2 3 4 5 6 
#
# 1 175.1702 10.1991 32.4542 0.0000 20.1298 0.0000
# 2 10.1991 117.6461 35.1676 0.0000 0.5427 0.0000
# 3 32.4542 35.1676 134.8028 0.0000 -4.1297 0.0000
# 4 0.0000 0.0000 0.0000 29.1408 0.0000 -5.5917
# 5 20.1298 0.5427 -4.1297 0.0000 35.3007 0.0000
# 6 0.0000 0.0000 0.0000 -5.5917 0.0000 -60.7806
#
#
#
# Elastic Compliance Matrix: (Units=1/GPa)
#
#
# Indices 1 2 3 4 5 6 
#
# 1 0.006466 -0.000045 -0.001664 0.000000 -0.003881 0.000000
# 2 -0.000045 0.009226 -0.002408 0.000000 -0.000398 0.000000
# 3 -0.001664 -0.002408 0.008508 0.000000 0.001981 0.000000
# 4 0.000000 0.000000 0.000000 0.033721 0.000000 -0.003102
# 5 -0.003881 -0.000398 0.001981 0.000000 0.030779 0.000000
# 6 0.000000 0.000000 0.000000 -0.003102 0.000000 -0.016167
#
#
# Mechanical properties :
#
#
# Convention : Reuss Voigt Hill
#
# Bulk Modulus (GPa) = 62.63778 64.80677 63.72227
# Shear Modulus (GPa) = 58.08064 24.05207 41.06635
#
# Velocity S-wave (km/s) = 5.01559 3.22762 4.21744
# Velocity P-wave (km/s) = 7.78918 6.47761 7.16347
#
# Compressibility (1/GPa) = 0.01596481
#
# Stress axis : x y z
#
# Youngs Moduli (GPa) = 154.66529 108.39315 117.54067
#
# Poissons Ratio (x) = 0.00491 0.19555
# Poissons Ratio (y) = 0.00701 0.28305
# Poissons Ratio (z) = 0.25731 0.26102
#
# Static dielectric constant tensor:
#      x y z
#    x 1.978080 0.000000 0.073400 
#    y 0.000000 2.012960 0.000000 
#    z 0.073400 0.000000 2.092570 
# 
# From -- ./inp_files/1523.got.cif
#   From: 2010.05.17/outbox.cif.g08.bks.cpg/sg13_1_cif.got.tgz:1523.got - 2010.06.03 16:44:36.
