data_PCOD9234334
_publ_section_title
;
Structure prediction by ZEFSAII (Michael W. Deem and Ramdas Pophale) SiO2 
 PCOD9234334
Probable space group: P 2/C
;
_chemical_formula_sum "Si O2"
_cell_formula_units_Z 20
_cell_length_a 13.981001
_cell_length_b 7.421669
_cell_length_c 20.149544
_cell_angle_alpha 90.000000
_cell_angle_beta 155.997109
_cell_angle_gamma 90.000000
_cell_volume 850.486815
_symmetry_space_group_name_H-M "P 2/C"
_symmetry_group_IT_number 13
_symmetry_cell_setting 'monoclinic'
loop_
_space_group_symop_operation_xyz
x,y,z
-x,y,1/2-z
-x,-y,-z
x,-y,1/2+z
loop_
_atom_site_type_symbol
_atom_site_label
_atom_site_fract_x
_atom_site_fract_y
_atom_site_fract_z
Si Si1 0.900082 0.965548 0.759508
Si Si2 0.415487 0.130962 0.266963
Si Si3 0.965591 0.275941 0.039525
Si Si4 0.628343 0.480203 0.732337
Si Si5 0.472342 0.164857 0.915022
O O1 0.052232 0.847333 0.906788
O O2 0.659958 0.854609 0.592308
O O3 0.000000 0.997011 0.750000
O O4 0.793477 0.143162 0.726089
O O5 0.500000 0.062225 0.250000
O O6 0.134106 0.163466 0.095321
O O7 0.505140 0.337297 0.331958
O O8 0.490436 0.997908 0.372962
O O9 0.141394 0.445268 0.161012
O O10 0.736372 0.357377 0.859888
O O11 0.485262 0.350031 0.595081
#
# Coordination Sequence:
#
# PCOD9234334 Si02
#       5
#     4   4   4   4   4
#     4  10  22  40  57  87 121 155 202 233 286 366
#     4   9  19  34  55  88 115 143 198 241 286 352
#     4   8  19  39  55  84 117 145 192 246 282 349
#     4   9  19  39  60  82 113 152 189 248 296 331
#     4  10  22  39  60  84 121 157 191 245 295 337
#
# _framework density 23.515944000000001
#
# number of rings (size 3 to 8) (size 9 to 14) (size 15 to 20)
#    1.200    1.600    0.000    0.000    0.000    9.600 
#    0.000    1.000    0.000    0.000    0.000    0.000 
#    0.000    0.000    0.000    0.000    0.000    0.000 
#
# Total GULP energy -111522.648528 kJ/mol
# GULP energy per Si atom -5576.132426 kJ/mol
# Density = 2.346242 g / cm^3
# Si number density = 23.515944 Si / 1000 Ang^3
#
#
#
# Elastic Constant Matrix: (Units=GPa)
#
#
# Indices 1 2 3 4 5 6 
#
# 1 150.3288 27.7596 7.0515 0.0000 -8.8968 0.0000
# 2 27.7596 84.5990 23.4631 0.0000 -9.8567 0.0000
# 3 7.0515 23.4631 34.3938 0.0000 -4.0410 0.0000
# 4 0.0000 0.0000 0.0000 13.2031 0.0000 0.3222
# 5 -8.8968 -9.8567 -4.0410 0.0000 24.1292 0.0000
# 6 0.0000 0.0000 0.0000 0.3222 0.0000 15.7883
#
#
#
# Elastic Compliance Matrix: (Units=1/GPa)
#
#
# Indices 1 2 3 4 5 6 
#
# 1 0.007154 -0.002209 0.000249 0.000000 0.001777 0.000000
# 2 -0.002209 0.015729 -0.009811 0.000000 0.003967 0.000000
# 3 0.000249 -0.009811 0.035964 0.000000 0.002107 0.000000
# 4 0.000000 0.000000 0.000000 0.075778 0.000000 -0.001546
# 5 0.001777 0.003967 0.002107 0.000000 0.044072 0.000000
# 6 0.000000 0.000000 0.000000 -0.001546 0.000000 0.063370
#
#
# Mechanical properties :
#
#
# Convention : Reuss Voigt Hill
#
# Bulk Modulus (GPa) = 28.32477 42.87444 35.59961
# Shear Modulus (GPa) = 18.02605 24.69394 21.35999
#
# Velocity S-wave (km/s) = 2.77166 3.24403 3.01710
# Velocity P-wave (km/s) = 4.72376 5.68360 5.22576
#
# Compressibility (1/GPa) = 0.03530478
#
# Stress axis : x y z
#
# Youngs Moduli (GPa) = 139.79100 63.57803 27.80529
#
# Poissons Ratio (x) = 0.14047 -0.00693
# Poissons Ratio (y) = 0.30886 0.27279
# Poissons Ratio (z) = -0.03486 0.62376
#
# Static dielectric constant tensor:
#      x y z
#    x 1.963440 0.000000 0.070230 
#    y 0.000000 1.893710 0.000000 
#    z 0.070230 0.000000 1.886050 
# 
# From -- ./inp_files/59809.got.cif
#   From: 2010.05.17/outbox.cif.g08.bks.cpg/sg13_30_cif.got.tgz:59809.got - 2010.06.03 16:44:36.
