data_PCOD9234987
_publ_section_title
;
Structure prediction by ZEFSAII (Michael W. Deem and Ramdas Pophale) SiO2 
 PCOD9234987
Probable space group: P 2/C
;
_chemical_formula_sum "Si O2"
_cell_formula_units_Z 32
_cell_length_a 11.576880
_cell_length_b 8.163627
_cell_length_c 28.932325
_cell_angle_alpha 90.000000
_cell_angle_beta 147.839871
_cell_angle_gamma 90.000000
_cell_volume 1455.472897
_symmetry_space_group_name_H-M "P 2/C"
_symmetry_group_IT_number 13
_symmetry_cell_setting 'monoclinic'
loop_
_space_group_symop_operation_xyz
x,y,z
-x,y,1/2-z
-x,-y,-z
x,-y,1/2+z
loop_
_atom_site_type_symbol
_atom_site_label
_atom_site_fract_x
_atom_site_fract_y
_atom_site_fract_z
Si Si1 0.212833 0.327219 0.299612
Si Si2 0.844862 0.601557 0.290794
Si Si3 0.111691 0.649847 0.011489
Si Si4 0.309314 0.593998 0.410162
Si Si5 0.870572 0.805822 0.385549
Si Si6 0.358956 0.878016 0.571218
Si Si7 0.717284 0.162696 0.345386
Si Si8 0.483752 0.759119 0.390067
O O1 0.192126 0.417708 0.242362
O O2 0.237196 0.476307 0.343765
O O3 0.428472 0.219801 0.372569
O O4 0.000000 0.239568 0.250000
O O5 0.794187 0.661438 0.325499
O O6 0.706278 0.722280 0.210756
O O7 0.100269 0.628619 0.369578
O O8 0.176046 0.764542 0.076728
O O9 0.331716 0.621115 0.057833
O O10 0.000000 0.500000 0.000000
O O11 0.935118 0.730104 0.917830
O O12 0.500000 0.500000 0.500000
O O13 0.399499 0.749365 0.413574
O O14 0.131532 0.825107 0.471561
O O15 0.764401 0.982993 0.339962
O O16 0.325850 0.852766 0.614643
O O17 0.403153 0.068120 0.578080
O O18 0.500000 0.234948 0.250000
#
# Coordination Sequence:
#
# PCOD9234987 Si02
#       8
#     4   4   4   4   4   4   4   4
#     4   9  21  40  62  93 128 165 218 272 331 384
#     4  10  23  39  66  94 123 177 220 269 328 398
#     4  11  25  41  62  96 130 172 217 277 327 395
#     4  10  22  42  63  90 127 170 217 272 323 385
#     4  11  22  42  66  91 133 170 216 263 340 393
#     4  11  21  41  67  92 130 176 209 279 337 393
#     4  11  23  43  63  93 133 173 217 268 334 399
#     4  11  22  42  64  92 132 168 220 270 335 393
#
# _framework density 21.985980999999999
#
# number of rings (size 3 to 8) (size 9 to 14) (size 15 to 20)
#    0.000    1.500    2.500    3.375    8.750    2.000 
#    2.250    2.500    0.000    0.000    0.000    0.000 
#    0.000    0.000    0.000    0.000    0.000    0.000 
#
# Total GULP energy -178712.998725 kJ/mol
# GULP energy per Si atom -5584.781210 kJ/mol
# Density = 2.193594 g / cm^3
# Si number density = 21.985981 Si / 1000 Ang^3
#
#
#
# Elastic Constant Matrix: (Units=GPa)
#
#
# Indices 1 2 3 4 5 6 
#
# 1 50.6846 7.2668 19.5283 0.0000 12.3422 0.0000
# 2 7.2668 40.1433 4.1602 0.0000 2.5313 0.0000
# 3 19.5283 4.1602 108.2180 0.0000 -3.3129 0.0000
# 4 0.0000 0.0000 0.0000 25.1995 0.0000 7.6730
# 5 12.3422 2.5313 -3.3129 0.0000 33.2726 0.0000
# 6 0.0000 0.0000 0.0000 7.6730 0.0000 28.6859
#
#
#
# Elastic Compliance Matrix: (Units=1/GPa)
#
#
# Indices 1 2 3 4 5 6 
#
# 1 0.024179 -0.003331 -0.004516 0.000000 -0.009165 0.000000
# 2 -0.003331 0.025603 -0.000406 0.000000 -0.000753 0.000000
# 3 -0.004516 -0.000406 0.010154 0.000000 0.002717 0.000000
# 4 0.000000 0.000000 0.000000 0.043202 0.000000 -0.011556
# 5 -0.009165 -0.000753 0.002717 0.000000 0.033782 0.000000
# 6 0.000000 0.000000 0.000000 -0.011556 0.000000 0.037951
#
#
# Mechanical properties :
#
#
# Convention : Reuss Voigt Hill
#
# Bulk Modulus (GPa) = 23.02516 28.99517 26.01017
# Shear Modulus (GPa) = 24.28892 28.63764 26.46328
#
# Velocity S-wave (km/s) = 3.32738 3.61299 3.47312
# Velocity P-wave (km/s) = 5.02567 5.53368 5.28578
#
# Compressibility (1/GPa) = 0.04343074
#
# Stress axis : x y z
#
# Youngs Moduli (GPa) = 41.35800 39.05748 98.48064
#
# Poissons Ratio (x) = 0.13010 0.44471
# Poissons Ratio (y) = 0.13777 0.04000
# Poissons Ratio (z) = 0.18676 0.01587
#
# Static dielectric constant tensor:
#      x y z
#    x 1.835600 0.000000 0.028180 
#    y 0.000000 1.835450 0.000000 
#    z 0.028180 0.000000 1.844520 
# 
# From -- ./inp_files/96719.got.cif
#   From: 2010.05.17/outbox.cif.g08.bks.cpg/sg13_49_cif.got.tgz:96719.got - 2010.06.03 16:44:36.
