data_PCOD9234572
_publ_section_title
;
Structure prediction by ZEFSAII (Michael W. Deem and Ramdas Pophale) SiO2 
 PCOD9234572
Probable space group: P 2/C
;
_chemical_formula_sum "Si O2"
_cell_formula_units_Z 18
_cell_length_a 23.768155
_cell_length_b 4.807958
_cell_length_c 16.210977
_cell_angle_alpha 90.000000
_cell_angle_beta 159.242834
_cell_angle_gamma 90.000000
_cell_volume 656.551554
_symmetry_space_group_name_H-M "P 2/C"
_symmetry_group_IT_number 13
_symmetry_cell_setting 'monoclinic'
loop_
_space_group_symop_operation_xyz
x,y,z
-x,y,1/2-z
-x,-y,-z
x,-y,1/2+z
loop_
_atom_site_type_symbol
_atom_site_label
_atom_site_fract_x
_atom_site_fract_y
_atom_site_fract_z
Si Si1 0.500000 0.500000 0.000000
Si Si2 0.328563 0.501555 0.540264
Si Si3 0.196887 0.673026 0.688930
Si Si4 0.356224 0.966228 0.687890
Si Si5 0.881702 0.175081 0.014298
O O1 0.368318 0.653607 0.879575
O O2 0.474305 0.751336 0.893114
O O3 0.500000 0.630167 0.750000
O O4 0.220955 0.429333 0.314308
O O5 0.252832 0.730986 0.497378
O O6 0.374672 0.210438 0.646622
O O7 0.130150 0.976190 0.580273
O O8 0.092308 0.474078 0.487576
O O9 0.284730 0.159649 0.663842
O O10 0.000000 0.100617 0.250000
#
# Coordination Sequence:
#
# PCOD9234572 Si02
#       5
#     2   4   4   4   4
#     4  10  22  40  64 102 126 174 212 274 326 398
#     4  12  24  41  62 104 141 166 206 271 349 404
#     4  11  24  41  68  96 134 171 222 272 335 391
#     4  11  24  41  67  96 137 171 218 269 333 390
#     4  11  25  46  67  92 129 181 234 273 311 387
#
# _framework density 27.415973000000001
#
# number of rings (size 3 to 8) (size 9 to 14) (size 15 to 20)
#    0.000    0.889    2.222    5.333    3.111    2.667 
#    0.000    6.667    0.000    0.000    0.000    0.000 
#    0.000    0.000    0.000    0.000    0.000    0.000 
#
# Total GULP energy -100260.549992 kJ/mol
# GULP energy per Si atom -5570.030555 kJ/mol
# Density = 2.735357 g / cm^3
# Si number density = 27.415973 Si / 1000 Ang^3
#
#
#
# Elastic Constant Matrix: (Units=GPa)
#
#
# Indices 1 2 3 4 5 6 
#
# 1 86.4487 29.2542 43.0908 0.0000 -38.9563 0.0000
# 2 29.2542 127.5116 -5.9862 0.0000 -17.2617 0.0000
# 3 43.0908 -5.9862 93.5359 0.0000 -39.2540 0.0000
# 4 0.0000 0.0000 0.0000 34.7256 0.0000 -21.5304
# 5 -38.9563 -17.2617 -39.2540 0.0000 51.1834 0.0000
# 6 0.0000 0.0000 0.0000 -21.5304 0.0000 27.3217
#
#
#
# Elastic Compliance Matrix: (Units=1/GPa)
#
#
# Indices 1 2 3 4 5 6 
#
# 1 0.019782 -0.003435 -0.005162 0.000000 0.009939 0.000000
# 2 -0.003435 0.009227 0.003512 0.000000 0.003191 0.000000
# 3 -0.005162 0.003512 0.017905 0.000000 0.010987 0.000000
# 4 0.000000 0.000000 0.000000 0.056310 0.000000 0.044374
# 5 0.009939 0.003191 0.010987 0.000000 0.036605 0.000000
# 6 0.000000 0.000000 0.000000 0.044374 0.000000 0.071569
#
#
# Mechanical properties :
#
#
# Convention : Reuss Voigt Hill
#
# Bulk Modulus (GPa) = 27.21540 48.91265 38.06403
# Shear Modulus (GPa) = 21.38432 38.72196 30.05314
#
# Velocity S-wave (km/s) = 2.79587 3.76225 3.31447
# Velocity P-wave (km/s) = 4.51341 6.06237 5.34431
#
# Compressibility (1/GPa) = 0.03674390
#
# Stress axis : x y z
#
# Youngs Moduli (GPa) = 50.55153 108.37242 55.84999
#
# Poissons Ratio (x) = 0.37230 0.28831
# Poissons Ratio (y) = 0.17366 -0.19616
# Poissons Ratio (z) = 0.26096 -0.38064
#
# Static dielectric constant tensor:
#      x y z
#    x 2.288730 0.000000 0.178280 
#    y 0.000000 1.767730 0.000000 
#    z 0.178280 0.000000 2.224640 
# 
# From -- ./inp_files/57972.got.cif
#   From: 2010.05.17/outbox.cif.g08.bks.cpg/sg13_29_cif.got.tgz:57972.got - 2010.06.03 16:44:36.
