data_PCOD9234236
_publ_section_title
;
Structure prediction by ZEFSAII (Michael W. Deem and Ramdas Pophale) SiO2 
 PCOD9234236
Probable space group: P 2/C
;
_chemical_formula_sum "Si O2"
_cell_formula_units_Z 18
_cell_length_a 9.099153
_cell_length_b 4.904997
_cell_length_c 20.871795
_cell_angle_alpha 90.000000
_cell_angle_beta 47.244936
_cell_angle_gamma 90.000000
_cell_volume 683.991760
_symmetry_space_group_name_H-M "P 2/C"
_symmetry_group_IT_number 13
_symmetry_cell_setting 'monoclinic'
loop_
_space_group_symop_operation_xyz
x,y,z
-x,y,1/2-z
-x,-y,-z
x,-y,1/2+z
loop_
_atom_site_type_symbol
_atom_site_label
_atom_site_fract_x
_atom_site_fract_y
_atom_site_fract_z
Si Si1 0.436939 0.137308 0.084836
Si Si2 0.711008 0.636440 0.309127
Si Si3 0.500000 0.440968 0.250000
Si Si4 0.884473 0.864320 0.475628
Si Si5 0.063771 0.341914 0.359678
O O1 0.286039 0.942945 0.168091
O O2 0.355328 0.442989 0.112508
O O3 0.650171 0.143893 0.057345
O O4 0.500000 0.000000 0.000000
O O5 0.542361 0.614298 0.302026
O O6 0.898748 0.502502 0.217564
O O7 0.291707 0.278333 0.314775
O O8 0.936199 0.069110 0.401170
O O9 0.965012 0.566692 0.434809
O O10 0.000000 0.000000 0.500000
#
# Coordination Sequence:
#
# PCOD9234236 Si02
#       5
#     4   4   2   4   4
#     4  12  25  43  63  93 134 171 203 258 325 380
#     4  10  22  41  66  91 122 175 212 251 314 384
#     4   8  20  36  70  86 128 148 226 240 330 336
#     4  12  23  39  63  97 126 158 215 264 310 359
#     4  10  22  38  63  93 121 162 210 265 302 371
#
# _framework density 26.316106999999999
#
# number of rings (size 3 to 8) (size 9 to 14) (size 15 to 20)
#    1.333    0.000    0.000    6.667    0.000    1.778 
#    0.000    6.667    0.000    0.000    0.000    0.000 
#    0.000    0.000    0.000    0.000    0.000    0.000 
#
# Total GULP energy -100749.135668 kJ/mol
# GULP energy per Si atom -5597.174204 kJ/mol
# Density = 2.625621 g / cm^3
# Si number density = 26.316107 Si / 1000 Ang^3
#
#
#
# Elastic Constant Matrix: (Units=GPa)
#
#
# Indices 1 2 3 4 5 6 
#
# 1 91.3526 4.1663 19.0926 0.0000 -6.3683 0.0000
# 2 4.1663 128.4994 30.7132 0.0000 -22.0714 0.0000
# 3 19.0926 30.7132 86.5813 0.0000 4.1056 0.0000
# 4 0.0000 0.0000 0.0000 52.2453 0.0000 3.4633
# 5 -6.3683 -22.0714 4.1056 0.0000 48.3098 0.0000
# 6 0.0000 0.0000 0.0000 3.4633 0.0000 13.1866
#
#
#
# Elastic Compliance Matrix: (Units=1/GPa)
#
#
# Indices 1 2 3 4 5 6 
#
# 1 0.011671 0.000678 -0.002913 0.000000 0.002096 0.000000
# 2 0.000678 0.009464 -0.003731 0.000000 0.004731 0.000000
# 3 -0.002913 -0.003731 0.013670 0.000000 -0.003250 0.000000
# 4 0.000000 0.000000 0.000000 0.019480 0.000000 -0.005116
# 5 0.002096 0.004731 -0.003250 0.000000 0.023413 0.000000
# 6 0.000000 0.000000 0.000000 -0.005116 0.000000 0.077179
#
#
# Mechanical properties :
#
#
# Convention : Reuss Voigt Hill
#
# Bulk Modulus (GPa) = 43.72194 46.04194 44.88194
# Shear Modulus (GPa) = 28.66412 39.57907 34.12159
#
# Velocity S-wave (km/s) = 3.30392 3.88233 3.60475
# Velocity P-wave (km/s) = 5.58612 6.13436 5.86665
#
# Compressibility (1/GPa) = 0.02287181
#
# Stress axis : x y z
#
# Youngs Moduli (GPa) = 85.68483 105.65812 73.15284
#
# Poissons Ratio (x) = -0.07163 0.21313
# Poissons Ratio (y) = -0.05809 0.27295
# Poissons Ratio (z) = 0.24964 0.39423
#
# Static dielectric constant tensor:
#      x y z
#    x 2.256470 0.000000 0.080260 
#    y 0.000000 1.943970 0.000000 
#    z 0.080260 0.000000 2.074920 
# 
# From -- ./inp_files/85392.got.cif
#   From: 2010.05.17/outbox.cif.g08.bks.cpg/sg13_43_cif.got.tgz:85392.got - 2010.06.03 16:44:36.
