data_PCOD9234874
_publ_section_title
;
Structure prediction by ZEFSAII (Michael W. Deem and Ramdas Pophale) SiO2 
 PCOD9234874
Probable space group: P 2/C
;
_chemical_formula_sum "Si O2"
_cell_formula_units_Z 26
_cell_length_a 20.699658
_cell_length_b 14.025578
_cell_length_c 11.203732
_cell_angle_alpha 90.000000
_cell_angle_beta 160.693345
_cell_angle_gamma 90.000000
_cell_volume 1075.427269
_symmetry_space_group_name_H-M "P 2/C"
_symmetry_group_IT_number 13
_symmetry_cell_setting 'monoclinic'
loop_
_space_group_symop_operation_xyz
x,y,z
-x,y,1/2-z
-x,-y,-z
x,-y,1/2+z
loop_
_atom_site_type_symbol
_atom_site_label
_atom_site_fract_x
_atom_site_fract_y
_atom_site_fract_z
Si Si1 0.769675 0.335571 0.020341
Si Si2 0.815394 0.277510 0.644332
Si Si3 0.701659 0.855409 0.732981
Si Si4 0.500000 0.178940 0.250000
Si Si5 0.324429 0.124871 0.711429
Si Si6 0.111290 0.470950 0.821501
Si Si7 0.000000 0.008342 0.250000
Si Si8 0.500000 0.690652 0.250000
O O1 0.796724 0.426994 0.985466
O O2 0.970805 0.299601 0.431505
O O3 0.693683 0.239445 0.828438
O O4 0.613726 0.366443 0.848738
O O5 0.802826 0.192263 0.526021
O O6 0.671169 0.244689 0.496273
O O7 0.759932 0.379036 0.487731
O O8 0.490781 0.897697 0.404848
O O9 0.660069 0.764353 0.579560
O O10 0.837491 0.936110 0.915914
O O11 0.582106 0.112619 0.496491
O O12 0.116900 0.072013 0.356891
O O13 0.000000 0.441753 0.750000
O O14 0.000000 0.500000 0.500000
#
# Coordination Sequence:
#
# PCOD9234874 Si02
#       8
#     4   4   4   2   4   4   2   2
#     4  10  22  41  67  92 131 173 218 272 331 391
#     4  10  22  41  67  92 131 173 218 272 331 391
#     4  10  23  41  61  94 128 163 219 270 330 399
#     4  10  22  42  64  92 130 172 212 274 326 404
#     4  10  23  41  61  94 128 163 219 270 330 399
#     4  10  24  39  67 103 138 177 229 279 327 402
#     4  12  22  38  70  86 124 172 212 272 342 400
#     4  10  22  42  64  92 130 172 212 274 326 404
#
# _framework density 24.176438000000001
#
# number of rings (size 3 to 8) (size 9 to 14) (size 15 to 20)
#    0.000    1.846    0.000    2.308   10.769    1.231 
#    0.000   21.538    0.000    0.000    0.000    0.000 
#    0.000    0.000    0.000    0.000    0.000    0.000 
#
# Total GULP energy -145178.652729 kJ/mol
# GULP energy per Si atom -5583.794336 kJ/mol
# Density = 2.412141 g / cm^3
# Si number density = 24.176438 Si / 1000 Ang^3
#
#
#
# Elastic Constant Matrix: (Units=GPa)
#
#
# Indices 1 2 3 4 5 6 
#
# 1 68.0284 10.2581 12.3095 0.0000 15.6471 0.0000
# 2 10.2581 95.3011 15.9700 0.0000 26.1886 0.0000
# 3 12.3095 15.9700 59.4661 0.0000 19.4544 0.0000
# 4 0.0000 0.0000 0.0000 11.2770 0.0000 8.9963
# 5 15.6471 26.1886 19.4544 0.0000 39.3450 0.0000
# 6 0.0000 0.0000 0.0000 8.9963 0.0000 -4.0986
#
#
#
# Elastic Compliance Matrix: (Units=1/GPa)
#
#
# Indices 1 2 3 4 5 6 
#
# 1 0.016291 0.000091 -0.001500 0.000000 -0.005798 0.000000
# 2 0.000091 0.012873 -0.000788 0.000000 -0.008215 0.000000
# 3 -0.001500 -0.000788 0.020247 0.000000 -0.008890 0.000000
# 4 0.000000 0.000000 0.000000 0.032234 0.000000 0.070752
# 5 -0.005798 -0.008215 -0.008890 0.000000 0.037585 0.000000
# 6 0.000000 0.000000 0.000000 0.070752 0.000000 -0.088689
#
#
# Mechanical properties :
#
#
# Convention : Reuss Voigt Hill
#
# Bulk Modulus (GPa) = 22.21448 33.31898 27.76673
# Shear Modulus (GPa) = 100.11783 21.58854 60.85319
#
# Velocity S-wave (km/s) = 6.44214 2.99148 5.02246
# Velocity P-wave (km/s) = 8.03389 5.07380 6.71889
#
# Compressibility (1/GPa) = 0.04501569
#
# Stress axis : x y z
#
# Youngs Moduli (GPa) = 61.38383 77.68351 49.39035
#
# Poissons Ratio (x) = -0.00707 0.07408
# Poissons Ratio (y) = -0.00559 0.03894
# Poissons Ratio (z) = 0.09207 0.06125
#
# Static dielectric constant tensor:
#      x y z
#    x 1.956050 0.000000 -0.039750 
#    y 0.000000 1.964950 0.000000 
#    z -0.039750 0.000000 2.016970 
# 
# From -- ./inp_files/40978.got.cif
#   From: 2010.05.17/outbox.cif.g08.bks.cpg/sg13_21_cif.got.tgz:40978.got - 2010.06.03 16:44:36.
