data_PCOD9234878
_publ_section_title
;
Structure prediction by ZEFSAII (Michael W. Deem and Ramdas Pophale) SiO2 
 PCOD9234878
Probable space group: P 2/C
;
_chemical_formula_sum "Si O2"
_cell_formula_units_Z 26
_cell_length_a 21.905049
_cell_length_b 8.851683
_cell_length_c 9.867100
_cell_angle_alpha 90.000000
_cell_angle_beta 44.504972
_cell_angle_gamma 90.000000
_cell_volume 1341.095665
_symmetry_space_group_name_H-M "P 2/C"
_symmetry_group_IT_number 13
_symmetry_cell_setting 'monoclinic'
loop_
_space_group_symop_operation_xyz
x,y,z
-x,y,1/2-z
-x,-y,-z
x,-y,1/2+z
loop_
_atom_site_type_symbol
_atom_site_label
_atom_site_fract_x
_atom_site_fract_y
_atom_site_fract_z
Si Si1 0.706989 0.202667 0.895669
Si Si2 0.564039 0.989875 0.023541
Si Si3 0.000000 0.837178 0.750000
Si Si4 0.812146 0.521375 0.103044
Si Si5 0.703471 0.231613 0.204562
Si Si6 0.156674 0.957285 0.887619
Si Si7 0.897007 0.663710 0.699073
O O1 0.760151 0.342017 0.752562
O O2 0.778285 0.070354 0.789526
O O3 0.628012 0.134461 0.933509
O O4 0.673414 0.240225 0.097937
O O5 0.500000 0.980612 0.250000
O O6 0.500000 0.000000 0.000000
O O7 0.627496 0.845188 0.911586
O O8 0.979056 0.728260 0.655026
O O9 0.077900 0.947400 0.577441
O O10 0.741756 0.389023 0.193761
O O11 0.886435 0.452195 0.087774
O O12 0.845444 0.581580 0.904295
O O13 0.786507 0.120114 0.084560
O O14 0.133943 0.821403 0.820870
#
# Coordination Sequence:
#
# PCOD9234878 Si02
#       7
#     4   4   2   4   4   4   4
#     4  11  21  40  68  93 133 167 220 269 333 395
#     4  11  23  41  68 102 129 166 218 272 323 391
#     4  12  22  42  64 100 134 172 234 294 334 382
#     4  11  23  43  65  97 133 175 227 262 345 412
#     4  10  22  41  67  94 131 177 213 269 338 402
#     4  10  23  39  68  95 125 177 230 281 330 387
#     4  11  24  41  64  95 134 177 225 280 332 400
#
# _framework density 19.387132999999999
#
# number of rings (size 3 to 8) (size 9 to 14) (size 15 to 20)
#    0.000    1.231    4.615    1.385    2.154    1.846 
#    0.000    4.615    0.000    0.000    0.000    0.000 
#    0.000    0.000    0.000    0.000    0.000    0.000 
#
# Total GULP energy -144848.683712 kJ/mol
# GULP energy per Si atom -5571.103220 kJ/mol
# Density = 1.934301 g / cm^3
# Si number density = 19.387133 Si / 1000 Ang^3
#
#
#
# Elastic Constant Matrix: (Units=GPa)
#
#
# Indices 1 2 3 4 5 6 
#
# 1 118.3469 44.9707 31.1484 0.0000 12.1021 0.0000
# 2 44.9707 119.8964 27.0067 0.0000 2.2469 0.0000
# 3 31.1484 27.0067 58.1517 0.0000 8.1204 0.0000
# 4 0.0000 0.0000 0.0000 8.5937 0.0000 -2.1905
# 5 12.1021 2.2469 8.1204 0.0000 30.2932 0.0000
# 6 0.0000 0.0000 0.0000 -2.1905 0.0000 27.2457
#
#
#
# Elastic Compliance Matrix: (Units=1/GPa)
#
#
# Indices 1 2 3 4 5 6 
#
# 1 0.011026 -0.003177 -0.003998 0.000000 -0.003098 0.000000
# 2 -0.003177 0.010237 -0.003245 0.000000 0.001380 0.000000
# 3 -0.003998 -0.003245 0.021389 0.000000 -0.003896 0.000000
# 4 0.000000 0.000000 0.000000 0.118798 0.000000 0.009551
# 5 -0.003098 0.001380 -0.003896 0.000000 0.035190 0.000000
# 6 0.000000 0.000000 0.000000 0.009551 0.000000 0.037471
#
#
# Mechanical properties :
#
#
# Convention : Reuss Voigt Hill
#
# Bulk Modulus (GPa) = 45.84690 55.84964 50.84827
# Shear Modulus (GPa) = 19.06774 26.11113 22.58944
#
# Velocity S-wave (km/s) = 3.13952 3.67390 3.41717
# Velocity P-wave (km/s) = 6.06973 6.84593 6.46948
#
# Compressibility (1/GPa) = 0.02181173
#
# Stress axis : x y z
#
# Youngs Moduli (GPa) = 90.69502 97.68169 46.75288
#
# Poissons Ratio (x) = 0.31034 0.18691
# Poissons Ratio (y) = 0.28814 0.15173
# Poissons Ratio (z) = 0.36259 0.31701
#
# Static dielectric constant tensor:
#      x y z
#    x 1.706030 0.000000 0.011250 
#    y 0.000000 1.680920 0.000000 
#    z 0.011250 0.000000 1.651660 
# 
# From -- ./inp_files/22833.got.cif
#   From: 2010.05.17/outbox.cif.g08.bks.cpg/sg13_12_cif.got.tgz:22833.got - 2010.06.03 16:44:36.
