data_PCOD9234273
_publ_section_title
;
Structure prediction by ZEFSAII (Michael W. Deem and Ramdas Pophale) SiO2 
 PCOD9234273
Probable space group: P 2/C
;
_chemical_formula_sum "Si O2"
_cell_formula_units_Z 20
_cell_length_a 7.696375
_cell_length_b 6.553878
_cell_length_c 21.588086
_cell_angle_alpha 90.000000
_cell_angle_beta 55.397263
_cell_angle_gamma 90.000000
_cell_volume 896.305766
_symmetry_space_group_name_H-M "P 2/C"
_symmetry_group_IT_number 13
_symmetry_cell_setting 'monoclinic'
loop_
_space_group_symop_operation_xyz
x,y,z
-x,y,1/2-z
-x,-y,-z
x,-y,1/2+z
loop_
_atom_site_type_symbol
_atom_site_label
_atom_site_fract_x
_atom_site_fract_y
_atom_site_fract_z
Si Si1 0.500000 0.259667 0.750000
Si Si2 0.000000 0.828578 0.750000
Si Si3 0.476092 0.756055 0.457642
Si Si4 0.433147 0.420901 0.158512
Si Si5 0.280433 0.031755 0.387543
Si Si6 0.859012 0.030343 0.408037
O O1 0.589921 0.407517 0.784132
O O2 0.654400 0.110158 0.683015
O O3 0.212268 0.696336 0.705238
O O4 0.023684 0.953395 0.681584
O O5 0.502081 0.544790 0.416468
O O6 0.300706 0.780619 0.546446
O O7 0.387539 0.919686 0.424622
O O8 0.701211 0.837532 0.436419
O O9 0.615144 0.255432 0.136826
O O10 0.029957 0.037384 0.428045
#
# Coordination Sequence:
#
# PCOD9234273 Si02
#       6
#     2   2   4   4   4   4
#     4  10  22  38  66  96 136 174 222 284 336 402
#     4  12  24  40  70 100 132 178 226 282 338 402
#     4  10  25  46  65 101 135 179 227 277 344 406
#     4  11  24  42  67 101 136 176 231 281 340 407
#     4  11  22  44  67  97 136 176 230 282 335 406
#     4  11  24  44  70  95 139 179 221 284 341 402
#
# _framework density 22.313811999999999
#
# number of rings (size 3 to 8) (size 9 to 14) (size 15 to 20)
#    0.000    1.200    2.000    3.600    5.600    1.600 
#    0.000    0.000    0.000    0.000    0.000    0.000 
#    0.000    0.000    0.000    0.000    0.000    0.000 
#
# Total GULP energy -111717.098488 kJ/mol
# GULP energy per Si atom -5585.854924 kJ/mol
# Density = 2.226303 g / cm^3
# Si number density = 22.313812 Si / 1000 Ang^3
#
#
#
# Elastic Constant Matrix: (Units=GPa)
#
#
# Indices 1 2 3 4 5 6 
#
# 1 151.3289 64.1059 37.5452 0.0000 -24.0585 0.0000
# 2 64.1059 100.9298 25.4360 0.0000 2.5793 0.0000
# 3 37.5452 25.4360 110.1008 0.0000 8.1791 0.0000
# 4 0.0000 0.0000 0.0000 82.2583 0.0000 84.0164
# 5 -24.0585 2.5793 8.1791 0.0000 35.3726 0.0000
# 6 0.0000 0.0000 0.0000 84.0164 0.0000 123.3216
#
#
#
# Elastic Compliance Matrix: (Units=1/GPa)
#
#
# Indices 1 2 3 4 5 6 
#
# 1 0.011787 -0.006941 -0.003102 0.000000 0.009241 0.000000
# 2 -0.006941 0.014609 -0.000588 0.000000 -0.005650 0.000000
# 3 -0.003102 -0.000588 0.010612 0.000000 -0.004521 0.000000
# 4 0.000000 0.000000 0.000000 0.039968 0.000000 -0.027230
# 5 0.009241 -0.005650 -0.004521 0.000000 0.036013 0.000000
# 6 0.000000 0.000000 0.000000 -0.027230 0.000000 0.026660
#
#
# Mechanical properties :
#
#
# Convention : Reuss Voigt Hill
#
# Bulk Modulus (GPa) = 63.51212 68.50374 66.00793
# Shear Modulus (GPa) = 30.09117 63.87536 46.98326
#
# Velocity S-wave (km/s) = 3.67624 5.35612 4.59363
# Velocity P-wave (km/s) = 6.82236 8.30768 7.60139
#
# Compressibility (1/GPa) = 0.01574503
#
# Stress axis : x y z
#
# Youngs Moduli (GPa) = 84.83741 68.45029 94.22996
#
# Poissons Ratio (x) = 0.47511 0.29234
# Poissons Ratio (y) = 0.58886 0.05545
# Poissons Ratio (z) = 0.26320 0.04028
#
# Static dielectric constant tensor:
#      x y z
#    x 1.867380 0.000000 0.045960 
#    y 0.000000 1.780080 0.000000 
#    z 0.045960 0.000000 1.881710 
# 
# From -- ./inp_files/62366.got.cif
#   From: 2010.05.17/outbox.cif.g08.bks.cpg/sg13_32_cif.got.tgz:62366.got - 2010.06.03 16:44:36.
