data_PCOD9234021
_publ_section_title
;
Structure prediction by ZEFSAII (Michael W. Deem and Ramdas Pophale) SiO2 
 PCOD9234021
Probable space group: P 2/C
;
_chemical_formula_sum "Si O2"
_cell_formula_units_Z 28
_cell_length_a 11.707459
_cell_length_b 15.481325
_cell_length_c 8.544774
_cell_angle_alpha 90.000000
_cell_angle_beta 120.704397
_cell_angle_gamma 90.000000
_cell_volume 1331.604966
_symmetry_space_group_name_H-M "P 2/C"
_symmetry_group_IT_number 13
_symmetry_cell_setting 'monoclinic'
loop_
_space_group_symop_operation_xyz
x,y,z
-x,y,1/2-z
-x,-y,-z
x,-y,1/2+z
loop_
_atom_site_type_symbol
_atom_site_label
_atom_site_fract_x
_atom_site_fract_y
_atom_site_fract_z
Si Si1 0.635974 0.549416 0.760277
Si Si2 0.187341 0.937477 0.128421
Si Si3 0.415339 0.928287 0.844443
Si Si4 0.000000 0.020216 0.750000
Si Si5 0.060550 0.409666 0.967828
Si Si6 0.000000 0.378975 0.250000
Si Si7 0.288646 0.603390 0.011090
Si Si8 0.357369 0.796561 0.076542
O O1 0.500000 0.575375 0.750000
O O2 0.622975 0.573460 0.571371
O O3 0.777180 0.589338 0.920821
O O4 0.661200 0.447149 0.803423
O O5 0.277826 0.859873 0.135072
O O6 0.109809 0.924902 0.235507
O O7 0.280834 0.021658 0.206602
O O8 0.076801 0.958768 0.923188
O O9 0.500000 0.905436 0.750000
O O10 0.381154 0.848204 0.931896
O O11 0.500000 0.000000 0.000000
O O12 0.000000 0.394569 0.750000
O O13 0.017423 0.343471 0.081321
O O14 0.000000 0.500000 0.000000
O O15 0.140783 0.426527 0.363856
O O16 0.284696 0.705813 0.011750
O O17 0.500000 0.778075 0.250000
#
# Coordination Sequence:
#
# PCOD9234021 Si02
#       8
#     4   4   4   2   4   2   4   4
#     4  11  23  41  67  97 132 174 225 279 361 406
#     4  11  20  39  65  97 133 175 218 261 333 405
#     4  12  20  39  71  98 128 175 222 269 327 400
#     4  10  22  35  66  99 134 184 212 258 333 418
#     4  11  18  34  66  93 119 167 227 276 326 423
#     4  10  22  41  66  95 126 172 226 282 343 406
#     4  11  25  42  69  94 132 179 225 286 341 408
#     4  12  25  42  66 100 135 173 228 281 333 397
#
# _framework density 21.027256999999999
#
# number of rings (size 3 to 8) (size 9 to 14) (size 15 to 20)
#    0.000    0.857    6.429    1.714    0.000    1.143 
#    0.000    0.000    1.571    0.000    0.000    0.000 
#    0.000    0.000    0.000    0.000    0.000    0.000 
#
# Total GULP energy -156107.731996 kJ/mol
# GULP energy per Si atom -5575.276143 kJ/mol
# Density = 2.097940 g / cm^3
# Si number density = 21.027257 Si / 1000 Ang^3
#
#
#
# Elastic Constant Matrix: (Units=GPa)
#
#
# Indices 1 2 3 4 5 6 
#
# 1 151.7036 4.3781 17.1708 0.0000 -12.5859 0.0000
# 2 4.3781 45.0783 8.0211 0.0000 -10.3647 0.0000
# 3 17.1708 8.0211 86.1621 0.0000 0.7528 0.0000
# 4 0.0000 0.0000 0.0000 13.1715 0.0000 2.3127
# 5 -12.5859 -10.3647 0.7528 0.0000 48.4563 0.0000
# 6 0.0000 0.0000 0.0000 2.3127 0.0000 -3.4406
#
#
#
# Elastic Compliance Matrix: (Units=1/GPa)
#
#
# Indices 1 2 3 4 5 6 
#
# 1 0.006900 -0.000006 -0.001390 0.000000 0.001812 0.000000
# 2 -0.000006 0.023762 -0.002256 0.000000 0.005116 0.000000
# 3 -0.001390 -0.002256 0.012102 0.000000 -0.001032 0.000000
# 4 0.000000 0.000000 0.000000 0.067907 0.000000 0.045646
# 5 0.001812 0.005116 -0.001032 0.000000 0.022218 0.000000
# 6 0.000000 0.000000 0.000000 0.045646 0.000000 -0.259969
#
#
# Mechanical properties :
#
#
# Convention : Reuss Voigt Hill
#
# Bulk Modulus (GPa) = 28.20085 38.00936 33.10510
# Shear Modulus (GPa) = -46.31500 28.52905 -8.89298
#
# Velocity S-wave (km/s) = -4.69830 3.68743 -2.05875
# Velocity P-wave (km/s) = 3.99891 6.02038 3.18227
#
# Compressibility (1/GPa) = 0.03545993
#
# Stress axis : x y z
#
# Youngs Moduli (GPa) = 144.93387 42.08422 82.63043
#
# Poissons Ratio (x) = 0.00025 0.11488
# Poissons Ratio (y) = 0.00087 0.18638
# Poissons Ratio (z) = 0.20150 0.09492
#
# Static dielectric constant tensor:
#      x y z
#    x 1.822990 0.000000 -0.023920 
#    y 0.000000 1.791000 0.000000 
#    z -0.023920 0.000000 1.839600 
# 
# From -- ./inp_files/16905.got.cif
#   From: 2010.05.17/outbox.cif.g08.bks.cpg/sg13_9_cif.got.tgz:16905.got - 2010.06.03 16:44:36.
