data_PCOD9234483
_publ_section_title
;
Structure prediction by ZEFSAII (Michael W. Deem and Ramdas Pophale) SiO2 
 PCOD9234483
Probable space group: P 2/C
;
_chemical_formula_sum "Si O2"
_cell_formula_units_Z 32
_cell_length_a 14.169827
_cell_length_b 16.790558
_cell_length_c 10.861956
_cell_angle_alpha 90.000000
_cell_angle_beta 146.490547
_cell_angle_gamma 90.000000
_cell_volume 1426.709159
_symmetry_space_group_name_H-M "P 2/C"
_symmetry_group_IT_number 13
_symmetry_cell_setting 'monoclinic'
loop_
_space_group_symop_operation_xyz
x,y,z
-x,y,1/2-z
-x,-y,-z
x,-y,1/2+z
loop_
_atom_site_type_symbol
_atom_site_label
_atom_site_fract_x
_atom_site_fract_y
_atom_site_fract_z
Si Si1 0.949296 0.065762 0.839579
Si Si2 0.198334 0.376745 0.979045
Si Si3 0.226767 0.840208 0.761567
Si Si4 0.103178 0.317770 0.239134
Si Si5 0.543456 0.244076 0.157050
Si Si6 0.393592 0.000284 0.011118
Si Si7 0.312925 0.451673 0.599626
Si Si8 0.747646 0.343569 0.736074
O O1 0.000000 0.049509 0.750000
O O2 0.747071 0.069732 0.634268
O O3 0.050139 0.142259 0.998609
O O4 0.000000 0.000000 0.000000
O O5 0.275908 0.377301 0.925794
O O6 0.000000 0.352079 0.750000
O O7 0.316852 0.317205 0.186956
O O8 0.214536 0.468602 0.033731
O O9 0.214524 0.758100 0.822403
O O10 0.365095 0.828981 0.805995
O O11 0.287166 0.916826 0.902839
O O12 0.208577 0.397319 0.387633
O O13 0.000000 0.295491 0.250000
O O14 0.949769 0.333022 0.976942
O O15 0.500000 0.228424 0.250000
O O16 0.373273 0.266713 0.897737
O O17 0.500000 0.005059 0.250000
O O18 0.500000 0.000000 0.000000
O O19 0.500000 0.469092 0.750000
O O20 0.322471 0.398640 0.732321
#
# Coordination Sequence:
#
# PCOD9234483 Si02
#       8
#     4   4   4   4   4   4   4   4
#     4  10  23  44  68  96 131 173 216 263 329 402
#     4  11  23  39  61  88 122 166 217 268 325 391
#     4  11  24  40  67  96 130 173 215 272 330 391
#     4  10  23  40  60  92 126 165 215 267 327 388
#     4  10  23  41  61  93 127 164 216 269 328 388
#     4  11  25  45  69 101 136 174 222 270 330 406
#     4  11  23  39  61  88 122 166 217 268 324 390
#     4  10  22  40  59  82 121 161 204 267 325 384
#
# _framework density 22.429238000000002
#
# number of rings (size 3 to 8) (size 9 to 14) (size 15 to 20)
#    0.000    1.500    0.000    5.250    0.000   15.500 
#    0.000    0.000    0.000    0.000    0.000    0.000 
#    0.000    0.000    0.000    0.000    0.000    0.000 
#
# Total GULP energy -178766.839132 kJ/mol
# GULP energy per Si atom -5586.463723 kJ/mol
# Density = 2.237819 g / cm^3
# Si number density = 22.429238 Si / 1000 Ang^3
#
#
#
# Elastic Constant Matrix: (Units=GPa)
#
#
# Indices 1 2 3 4 5 6 
#
# 1 73.3393 -4.6511 19.8165 0.0000 2.7168 0.0000
# 2 -4.6511 53.1089 11.3187 0.0000 -5.6486 0.0000
# 3 19.8165 11.3187 113.7129 0.0000 -2.1569 0.0000
# 4 0.0000 0.0000 0.0000 25.9594 0.0000 9.6403
# 5 2.7168 -5.6486 -2.1569 0.0000 38.0234 0.0000
# 6 0.0000 0.0000 0.0000 9.6403 0.0000 29.3844
#
#
#
# Elastic Compliance Matrix: (Units=1/GPa)
#
#
# Indices 1 2 3 4 5 6 
#
# 1 0.014516 0.001752 -0.002722 0.000000 -0.000931 0.000000
# 2 0.001752 0.019741 -0.002219 0.000000 0.002682 0.000000
# 3 -0.002722 -0.002219 0.009497 0.000000 0.000403 0.000000
# 4 0.000000 0.000000 0.000000 0.043866 0.000000 -0.014391
# 5 -0.000931 0.002682 0.000403 0.000000 0.026787 0.000000
# 6 0.000000 0.000000 0.000000 -0.014391 0.000000 0.038753
#
#
# Mechanical properties :
#
#
# Convention : Reuss Voigt Hill
#
# Bulk Modulus (GPa) = 26.75493 32.56991 29.66242
# Shear Modulus (GPa) = 29.07018 32.91857 30.99437
#
# Velocity S-wave (km/s) = 3.60402 3.83517 3.72139
# Velocity P-wave (km/s) = 5.41046 5.84500 5.63193
#
# Compressibility (1/GPa) = 0.03737629
#
# Stress axis : x y z
#
# Youngs Moduli (GPa) = 68.88793 50.65625 105.29668
#
# Poissons Ratio (x) = -0.08877 0.28660
# Poissons Ratio (y) = -0.12071 0.23370
# Poissons Ratio (z) = 0.18750 0.11243
#
# Static dielectric constant tensor:
#      x y z
#    x 1.815420 0.000000 0.020110 
#    y 0.000000 1.852380 0.000000 
#    z 0.020110 0.000000 1.848010 
# 
# From -- ./inp_files/37720.got.cif
#   From: 2010.05.17/outbox.cif.g08.bks.cpg/sg13_19_cif.got.tgz:37720.got - 2010.06.03 16:44:36.
