data_PCOD9234868
_publ_section_title
;
Structure prediction by ZEFSAII (Michael W. Deem and Ramdas Pophale) SiO2 
 PCOD9234868
Probable space group: P 2/C
;
_chemical_formula_sum "Si O2"
_cell_formula_units_Z 18
_cell_length_a 5.220167
_cell_length_b 29.655578
_cell_length_c 5.178822
_cell_angle_alpha 90.000000
_cell_angle_beta 94.908323
_cell_angle_gamma 90.000000
_cell_volume 798.778259
_symmetry_space_group_name_H-M "P 2/C"
_symmetry_group_IT_number 13
_symmetry_cell_setting 'monoclinic'
loop_
_space_group_symop_operation_xyz
x,y,z
-x,y,1/2-z
-x,-y,-z
x,-y,1/2+z
loop_
_atom_site_type_symbol
_atom_site_label
_atom_site_fract_x
_atom_site_fract_y
_atom_site_fract_z
Si Si1 0.500000 0.093124 0.750000
Si Si2 0.000000 0.031674 0.750000
Si Si3 0.500000 0.593021 0.750000
Si Si4 0.172157 0.765947 0.515898
Si Si5 0.000000 0.531582 0.750000
Si Si6 0.183716 0.332142 0.010251
Si Si7 0.500000 0.152510 0.250000
O O1 0.252925 0.062637 0.789222
O O2 0.421067 0.121539 0.486247
O O3 0.000000 0.000000 0.500000
O O4 0.744175 0.562066 0.708281
O O5 0.608735 0.628333 0.968546
O O6 0.313019 0.717706 0.502597
O O7 0.315742 0.811900 0.589709
O O8 0.000000 0.758717 0.750000
O O9 0.000000 0.771975 0.250000
O O10 0.000000 0.500000 0.500000
O O11 0.000000 0.336227 0.250000
O O12 0.000000 0.336196 0.750000
#
# Coordination Sequence:
#
# PCOD9234868 Si02
#       7
#     2   2   2   4   2   4   2
#     4  12  28  43  78 110 140 190 240 295 352 442
#     4  12  26  52  76 104 142 180 238 308 374 418
#     4  12  25  50  78 102 144 180 238 296 355 418
#     4  10  22  41  66  98 148 192 232 284 342 405
#     4  12  30  50  74 104 140 182 228 292 374 444
#     4  10  23  42  70 108 137 188 242 286 342 408
#     4  12  25  41  66 108 150 190 240 281 349 422
#
# _framework density 22.534413000000001
#
# number of rings (size 3 to 8) (size 9 to 14) (size 15 to 20)
#    0.000    0.889    1.111    4.667    6.222    2.667 
#    0.000    6.667    0.000    0.000    0.000    0.000 
#    0.000    0.000    0.000    0.000    0.000    0.000 
#
# Total GULP energy -100626.885074 kJ/mol
# GULP energy per Si atom -5590.382504 kJ/mol
# Density = 2.248312 g / cm^3
# Si number density = 22.534413 Si / 1000 Ang^3
#
#
#
# Elastic Constant Matrix: (Units=GPa)
#
#
# Indices 1 2 3 4 5 6 
#
# 1 127.9185 90.8235 47.9715 0.0000 12.3844 0.0000
# 2 90.8235 201.1482 83.1996 0.0000 4.3532 0.0000
# 3 47.9715 83.1996 211.8585 0.0000 12.1253 0.0000
# 4 0.0000 0.0000 0.0000 174.6698 0.0000 38.9224
# 5 12.3844 4.3532 12.1253 0.0000 38.2352 0.0000
# 6 0.0000 0.0000 0.0000 38.9224 0.0000 47.5110
#
#
#
# Elastic Compliance Matrix: (Units=1/GPa)
#
#
# Indices 1 2 3 4 5 6 
#
# 1 0.011943 -0.005110 -0.000519 0.000000 -0.003122 0.000000
# 2 -0.005110 0.008122 -0.002113 0.000000 0.001400 0.000000
# 3 -0.000519 -0.002113 0.005748 0.000000 -0.001414 0.000000
# 4 0.000000 0.000000 0.000000 0.007004 0.000000 -0.005738
# 5 -0.003122 0.001400 -0.001414 0.000000 0.027454 0.000000
# 6 0.000000 0.000000 0.000000 -0.005738 0.000000 0.025748
#
#
# Mechanical properties :
#
#
# Convention : Reuss Voigt Hill
#
# Bulk Modulus (GPa) = 96.80707 109.43494 103.12101
# Shear Modulus (GPa) = 47.64352 73.34525 60.49439
#
# Velocity S-wave (km/s) = 4.60309 5.71128 5.18687
# Velocity P-wave (km/s) = 8.44418 9.60003 9.04060
#
# Compressibility (1/GPa) = 0.01032982
#
# Stress axis : x y z
#
# Youngs Moduli (GPa) = 83.73392 123.11487 173.96608
#
# Poissons Ratio (x) = 0.62915 0.09022
# Poissons Ratio (y) = 0.42791 0.36756
# Poissons Ratio (z) = 0.04343 0.26012
#
# Static dielectric constant tensor:
#      x y z
#    x 1.884220 0.000000 -0.009560 
#    y 0.000000 1.887660 0.000000 
#    z -0.009560 0.000000 1.799130 
# 
# From -- ./inp_files/518.got.cif
#   From: 2010.05.17/outbox.cif.g08.bks.cpg/sg13_1_cif.got.tgz:518.got - 2010.06.03 16:44:36.
