data_PCOD9234132
_publ_section_title
;
Structure prediction by ZEFSAII (Michael W. Deem and Ramdas Pophale) SiO2 
 PCOD9234132
Probable space group: P 2/C
;
_chemical_formula_sum "Si O2"
_cell_formula_units_Z 26
_cell_length_a 29.309768
_cell_length_b 6.543452
_cell_length_c 12.634895
_cell_angle_alpha 90.000000
_cell_angle_beta 26.384247
_cell_angle_gamma 90.000000
_cell_volume 1076.847330
_symmetry_space_group_name_H-M "P 2/C"
_symmetry_group_IT_number 13
_symmetry_cell_setting 'monoclinic'
loop_
_space_group_symop_operation_xyz
x,y,z
-x,y,1/2-z
-x,-y,-z
x,-y,1/2+z
loop_
_atom_site_type_symbol
_atom_site_label
_atom_site_fract_x
_atom_site_fract_y
_atom_site_fract_z
Si Si1 0.908544 0.444538 0.059465
Si Si2 0.239722 0.266715 0.721510
Si Si3 0.226004 0.929392 0.588328
Si Si4 0.500000 0.237593 0.750000
Si Si5 0.610645 0.117210 0.907760
Si Si6 0.068835 0.190906 0.819565
Si Si7 0.565160 0.573513 0.766435
O O1 0.850687 0.565728 0.084653
O O2 0.830436 0.285973 0.278341
O O3 0.928824 0.635831 0.095269
O O4 0.012325 0.306196 0.840520
O O5 0.305591 0.227697 0.690254
O O6 0.319510 0.349244 0.466400
O O7 0.208481 0.050781 0.734591
O O8 0.341269 0.894234 0.309186
O O9 0.178157 0.076347 0.595006
O O10 0.566929 0.386605 0.682367
O O11 0.577406 0.100862 0.521408
O O12 0.505209 0.241741 0.127369
O O13 0.000000 0.000000 0.000000
O O14 0.500000 0.500000 0.000000
#
# Coordination Sequence:
#
# PCOD9234132 Si02
#       7
#     4   4   4   2   4   4   4
#     4   9  18  35  65  87 120 161 201 264 323 378
#     4  11  22  39  57  94 122 161 216 255 315 381
#     4  10  22  37  64  91 119 166 211 260 321 385
#     4  12  24  44  62  86 134 172 208 280 312 362
#     4  12  25  41  59  94 130 167 217 265 312 384
#     4   8  16  36  61  92 118 154 209 260 320 382
#     4  12  25  42  64  90 127 170 217 259 321 379
#
# _framework density 24.144558
#
# number of rings (size 3 to 8) (size 9 to 14) (size 15 to 20)
#    0.000    1.538    3.077    1.846    4.308    2.462 
#    0.000    0.000    0.000   42.462    0.000    0.000 
#    0.000    0.000    0.000    0.000    0.000    0.000 
#
# Total GULP energy -145128.816066 kJ/mol
# GULP energy per Si atom -5581.877541 kJ/mol
# Density = 2.408960 g / cm^3
# Si number density = 24.144558 Si / 1000 Ang^3
#
#
#
# Elastic Constant Matrix: (Units=GPa)
#
#
# Indices 1 2 3 4 5 6 
#
# 1 39.2189 27.0108 3.0315 0.0000 -18.1240 0.0000
# 2 27.0108 156.8655 26.2142 0.0000 -11.4895 0.0000
# 3 3.0315 26.2142 42.2273 0.0000 -7.8929 0.0000
# 4 0.0000 0.0000 0.0000 49.8061 0.0000 -4.1986
# 5 -18.1240 -11.4895 -7.8929 0.0000 36.0902 0.0000
# 6 0.0000 0.0000 0.0000 -4.1986 0.0000 20.7018
#
#
#
# Elastic Compliance Matrix: (Units=1/GPa)
#
#
# Indices 1 2 3 4 5 6 
#
# 1 0.037468 -0.005858 0.004291 0.000000 0.017889 0.000000
# 2 -0.005858 0.008093 -0.004871 0.000000 -0.001431 0.000000
# 3 0.004291 -0.004871 0.027640 0.000000 0.006649 0.000000
# 4 0.000000 0.000000 0.000000 0.020427 0.000000 0.004143
# 5 0.017889 -0.001431 0.006649 0.000000 0.037691 0.000000
# 6 0.000000 0.000000 0.000000 0.004143 0.000000 0.049145
#
#
# Mechanical properties :
#
#
# Convention : Reuss Voigt Hill
#
# Bulk Modulus (GPa) = 16.57718 38.98051 27.77885
# Shear Modulus (GPa) = 23.42483 33.45663 28.44073
#
# Velocity S-wave (km/s) = 3.11817 3.72651 3.43583
# Velocity P-wave (km/s) = 4.45474 5.89029 5.22208
#
# Compressibility (1/GPa) = 0.06032387
#
# Stress axis : x y z
#
# Youngs Moduli (GPa) = 26.68935 123.56623 36.17964
#
# Poissons Ratio (x) = 0.72390 -0.15524
# Poissons Ratio (y) = 0.15636 0.17622
# Poissons Ratio (z) = -0.11452 0.60187
#
# Static dielectric constant tensor:
#      x y z
#    x 1.878480 0.000000 -0.137200 
#    y 0.000000 1.929890 0.000000 
#    z -0.137200 0.000000 1.862150 
# 
# From -- ./inp_files/56263.got.cif
#   From: 2010.05.17/outbox.cif.g08.bks.cpg/sg13_29_cif.got.tgz:56263.got - 2010.06.03 16:44:36.
