data_PCOD9234282
_publ_section_title
;
Structure prediction by ZEFSAII (Michael W. Deem and Ramdas Pophale) SiO2 
 PCOD9234282
Probable space group: P 2/C
;
_chemical_formula_sum "Si O2"
_cell_formula_units_Z 14
_cell_length_a 5.276863
_cell_length_b 13.986791
_cell_length_c 8.586619
_cell_angle_alpha 90.000000
_cell_angle_beta 82.831314
_cell_angle_gamma 90.000000
_cell_volume 628.793295
_symmetry_space_group_name_H-M "P 2/C"
_symmetry_group_IT_number 13
_symmetry_cell_setting 'monoclinic'
loop_
_space_group_symop_operation_xyz
x,y,z
-x,y,1/2-z
-x,-y,-z
x,-y,1/2+z
loop_
_atom_site_type_symbol
_atom_site_label
_atom_site_fract_x
_atom_site_fract_y
_atom_site_fract_z
Si Si1 0.500000 0.512976 0.750000
Si Si2 0.545283 0.894832 0.561885
Si Si3 0.045566 0.218071 0.059252
Si Si4 0.828319 0.412102 0.961326
O O1 0.289881 0.442184 0.693679
O O2 0.402178 0.581709 0.894844
O O3 0.500000 0.898065 0.750000
O O4 0.832734 0.857602 0.518130
O O5 0.329944 0.822167 0.513779
O O6 0.500000 0.000000 0.500000
O O7 0.979489 0.315037 0.974461
O O8 0.000000 0.233423 0.250000
O O9 0.000000 0.500000 0.000000
#
# Coordination Sequence:
#
# PCOD9234282 Si02
#       4
#     2   4   4   4
#     4  10  24  38  64  88 138 172 216 268 318 376
#     4  10  22  42  64  92 121 161 209 264 321 382
#     4  10  22  38  68  90 124 169 210 254 322 386
#     4  11  23  41  62  94 132 171 218 263 320 383
#
# _framework density 22.264869000000001
#
# number of rings (size 3 to 8) (size 9 to 14) (size 15 to 20)
#    0.000    1.714    0.000    3.429   14.000    0.000 
#    2.571    0.000    0.000    0.000    0.000    0.000 
#    0.000    0.000    0.000    0.000    0.000    0.000 
#
# Total GULP energy -78323.561770 kJ/mol
# GULP energy per Si atom -5594.540126 kJ/mol
# Density = 2.221419 g / cm^3
# Si number density = 22.264869 Si / 1000 Ang^3
#
#
#
# Elastic Constant Matrix: (Units=GPa)
#
#
# Indices 1 2 3 4 5 6 
#
# 1 89.6521 24.0416 33.2566 0.0000 40.7612 0.0000
# 2 24.0416 131.1000 36.6244 0.0000 38.0383 0.0000
# 3 33.2566 36.6244 59.8092 0.0000 27.1508 0.0000
# 4 0.0000 0.0000 0.0000 35.1239 0.0000 14.9261
# 5 40.7612 38.0383 27.1508 0.0000 49.6760 0.0000
# 6 0.0000 0.0000 0.0000 14.9261 0.0000 43.8825
#
#
#
# Elastic Compliance Matrix: (Units=1/GPa)
#
#
# Indices 1 2 3 4 5 6 
#
# 1 0.019134 0.002191 -0.005442 0.000000 -0.014403 0.000000
# 2 0.002191 0.010624 -0.004276 0.000000 -0.007596 0.000000
# 3 -0.005442 -0.004276 0.025071 0.000000 -0.005963 0.000000
# 4 0.000000 0.000000 0.000000 0.033281 0.000000 -0.011320
# 5 -0.014403 -0.007596 -0.005963 0.000000 0.041025 0.000000
# 6 0.000000 0.000000 0.000000 -0.011320 0.000000 0.026639
#
#
# Mechanical properties :
#
#
# Convention : Reuss Voigt Hill
#
# Bulk Modulus (GPa) = 25.14154 52.04517 38.59336
# Shear Modulus (GPa) = 27.16092 38.17905 32.66998
#
# Velocity S-wave (km/s) = 3.49650 4.14547 3.83473
# Velocity P-wave (km/s) = 5.25521 6.80730 6.08098
#
# Compressibility (1/GPa) = 0.03977481
#
# Stress axis : x y z
#
# Youngs Moduli (GPa) = 52.26234 94.12223 39.88617
#
# Poissons Ratio (x) = -0.20618 0.21708
# Poissons Ratio (y) = -0.11448 0.17054
# Poissons Ratio (z) = 0.28443 0.40244
#
# Static dielectric constant tensor:
#      x y z
#    x 1.876680 0.000000 -0.070110 
#    y 0.000000 1.755960 0.000000 
#    z -0.070110 0.000000 1.851640 
# 
# From -- ./inp_files/8491.got.cif
#   From: 2010.05.17/outbox.cif.g08.bks.cpg/sg13_5_cif.got.tgz:8491.got - 2010.06.03 16:44:36.
