data_PCOD9234906
_publ_section_title
;
Structure prediction by ZEFSAII (Michael W. Deem and Ramdas Pophale) SiO2 
 PCOD9234906
Probable space group: P 2/C
;
_chemical_formula_sum "Si O2"
_cell_formula_units_Z 20
_cell_length_a 10.842966
_cell_length_b 4.876692
_cell_length_c 15.320576
_cell_angle_alpha 90.000000
_cell_angle_beta 63.813194
_cell_angle_gamma 90.000000
_cell_volume 726.967894
_symmetry_space_group_name_H-M "P 2/C"
_symmetry_group_IT_number 13
_symmetry_cell_setting 'monoclinic'
loop_
_space_group_symop_operation_xyz
x,y,z
-x,y,1/2-z
-x,-y,-z
x,-y,1/2+z
loop_
_atom_site_type_symbol
_atom_site_label
_atom_site_fract_x
_atom_site_fract_y
_atom_site_fract_z
Si Si1 0.324271 0.995083 0.948266
Si Si2 0.879801 0.320526 0.211602
Si Si3 0.912084 0.838381 0.098496
Si Si4 0.268517 0.509456 0.084113
Si Si5 0.566213 0.402833 0.314530
O O1 0.463081 0.838554 0.876375
O O2 0.239470 0.128200 0.895667
O O3 0.244037 0.748311 0.023188
O O4 0.324982 0.240963 0.017942
O O5 0.932875 0.528123 0.121022
O O6 0.863856 0.427627 0.315849
O O7 0.715545 0.294392 0.241771
O O8 0.931234 0.016811 0.179823
O O9 0.000000 0.000000 0.000000
O O10 0.386493 0.588769 0.118138
O O11 0.500000 0.538565 0.250000
#
# Coordination Sequence:
#
# PCOD9234906 Si02
#       5
#     4   4   4   4   4
#     4  12  22  43  63 103 128 172 213 276 332 387
#     4  10  24  44  65  96 130 172 224 267 337 395
#     4  12  25  46  69  92 130 180 231 271 323 401
#     4  10  24  39  66  99 135 163 215 270 341 394
#     4  10  22  41  68  96 139 172 213 270 334 412
#
# _framework density 27.51153
#
# number of rings (size 3 to 8) (size 9 to 14) (size 15 to 20)
#    1.200    0.000    2.000    4.200    0.000    1.600 
#    0.000    6.000    0.000    0.000    0.000    0.000 
#    0.000    0.000    0.000    0.000    0.000    0.000 
#
# Total GULP energy -111878.201096 kJ/mol
# GULP energy per Si atom -5593.910055 kJ/mol
# Density = 2.744891 g / cm^3
# Si number density = 27.511530 Si / 1000 Ang^3
#
#
#
# Elastic Constant Matrix: (Units=GPa)
#
#
# Indices 1 2 3 4 5 6 
#
# 1 95.1147 10.7018 28.2438 0.0000 36.1148 0.0000
# 2 10.7018 92.5947 27.3545 0.0000 6.9416 0.0000
# 3 28.2438 27.3545 99.9341 0.0000 1.1720 0.0000
# 4 0.0000 0.0000 0.0000 33.8560 0.0000 -0.4675
# 5 36.1148 6.9416 1.1720 0.0000 54.0025 0.0000
# 6 0.0000 0.0000 0.0000 -0.4675 0.0000 28.7765
#
#
#
# Elastic Compliance Matrix: (Units=1/GPa)
#
#
# Indices 1 2 3 4 5 6 
#
# 1 0.015775 0.000265 -0.004408 0.000000 -0.010488 0.000000
# 2 0.000265 0.011868 -0.003304 0.000000 -0.001631 0.000000
# 3 -0.004408 -0.003304 0.012120 0.000000 0.003110 0.000000
# 4 0.000000 0.000000 0.000000 0.029543 0.000000 0.000480
# 5 -0.010488 -0.001631 0.003110 0.000000 0.025674 0.000000
# 6 0.000000 0.000000 0.000000 0.000480 0.000000 0.034758
#
#
# Mechanical properties :
#
#
# Convention : Reuss Voigt Hill
#
# Bulk Modulus (GPa) = 40.21083 46.69374 43.45228
# Shear Modulus (GPa) = 32.69633 38.08325 35.38979
#
# Velocity S-wave (km/s) = 3.45114 3.72461 3.59048
# Velocity P-wave (km/s) = 5.52524 5.95871 5.74606
#
# Compressibility (1/GPa) = 0.02486892
#
# Stress axis : x y z
#
# Youngs Moduli (GPa) = 63.39133 84.26346 82.50554
#
# Poissons Ratio (x) = -0.02235 0.36369
# Poissons Ratio (y) = -0.01682 0.27262
# Poissons Ratio (z) = 0.27943 0.27843
#
# Static dielectric constant tensor:
#      x y z
#    x 2.278430 0.000000 -0.030980 
#    y 0.000000 2.017010 0.000000 
#    z -0.030980 0.000000 2.190790 
# 
# From -- ./inp_files/65043.got.cif
#   From: 2010.05.17/outbox.cif.g08.bks.cpg/sg13_33_cif.got.tgz:65043.got - 2010.06.03 16:44:36.
