data_PCOD9234243
_publ_section_title
;
Structure prediction by ZEFSAII (Michael W. Deem and Ramdas Pophale) SiO2 
 PCOD9234243
Probable space group: P 2/C
;
_chemical_formula_sum "Si O2"
_cell_formula_units_Z 26
_cell_length_a 14.060875
_cell_length_b 13.411565
_cell_length_c 14.573107
_cell_angle_alpha 90.000000
_cell_angle_beta 150.423234
_cell_angle_gamma 90.000000
_cell_volume 1356.468276
_symmetry_space_group_name_H-M "P 2/C"
_symmetry_group_IT_number 13
_symmetry_cell_setting 'monoclinic'
loop_
_space_group_symop_operation_xyz
x,y,z
-x,y,1/2-z
-x,-y,-z
x,-y,1/2+z
loop_
_atom_site_type_symbol
_atom_site_label
_atom_site_fract_x
_atom_site_fract_y
_atom_site_fract_z
Si Si1 0.857635 0.743346 0.046297
Si Si2 0.672533 0.987751 0.716141
Si Si3 0.272445 0.483764 0.819665
Si Si4 0.933252 0.628099 0.515448
Si Si5 0.500000 0.882525 0.750000
Si Si6 0.276365 0.528703 0.538527
Si Si7 0.981328 0.841652 0.503119
O O1 0.000000 0.741368 0.250000
O O2 0.674651 0.809221 0.922076
O O3 0.793842 0.630381 0.972734
O O4 0.957666 0.794131 0.043237
O O5 0.500000 0.000000 0.500000
O O6 0.578496 0.947380 0.731356
O O7 0.834049 0.909135 0.815784
O O8 0.795775 0.087800 0.837526
O O9 0.187507 0.402355 0.677503
O O10 0.147782 0.581942 0.691129
O O11 0.500000 0.500000 0.000000
O O12 0.242196 0.459039 0.901312
O O13 0.832946 0.566515 0.512803
O O14 0.941207 0.746274 0.532692
O O15 0.500000 0.516554 0.750000
#
# Coordination Sequence:
#
# PCOD9234243 Si02
#       7
#     4   4   4   4   2   4   4
#     4  11  20  36  64  91 118 158 205 255 303 355
#     4  10  22  44  65  90 121 154 202 262 316 364
#     4  11  23  39  62  89 126 171 207 252 304 364
#     4  11  23  41  60  90 129 164 210 253 305 370
#     4  10  22  38  64  94 116 150 208 252 310 374
#     4  12  23  40  60  91 130 168 208 253 300 368
#     4  10  23  40  63  90 121 159 204 256 312 368
#
# _framework density 19.167422999999999
#
# number of rings (size 3 to 8) (size 9 to 14) (size 15 to 20)
#    0.000    1.231    2.308    5.077    0.000    1.231 
#    1.385    1.538    0.000    0.000    0.000    0.000 
#    0.000    0.000    0.000    0.000    0.000    0.000 
#
# Total GULP energy -145298.687995 kJ/mol
# GULP energy per Si atom -5588.411077 kJ/mol
# Density = 1.912380 g / cm^3
# Si number density = 19.167423 Si / 1000 Ang^3
#
#
#
# Elastic Constant Matrix: (Units=GPa)
#
#
# Indices 1 2 3 4 5 6 
#
# 1 84.3515 35.0670 37.7267 0.0000 10.8129 0.0000
# 2 35.0670 137.5089 47.2645 0.0000 22.5965 0.0000
# 3 37.7267 47.2645 147.0947 0.0000 24.1586 0.0000
# 4 0.0000 0.0000 0.0000 38.3128 0.0000 -28.9280
# 5 10.8129 22.5965 24.1586 0.0000 35.9171 0.0000
# 6 0.0000 0.0000 0.0000 -28.9280 0.0000 76.8073
#
#
#
# Elastic Compliance Matrix: (Units=1/GPa)
#
#
# Indices 1 2 3 4 5 6 
#
# 1 0.014233 -0.002565 -0.002684 0.000000 -0.000866 0.000000
# 2 -0.002565 0.009125 -0.001639 0.000000 -0.003866 0.000000
# 3 -0.002684 -0.001639 0.008669 0.000000 -0.003992 0.000000
# 4 0.000000 0.000000 0.000000 0.036473 0.000000 0.013737
# 5 -0.000866 -0.003866 -0.003992 0.000000 0.033220 0.000000
# 6 0.000000 0.000000 0.000000 0.013737 0.000000 0.018193
#
#
# Mechanical properties :
#
#
# Convention : Reuss Voigt Hill
#
# Bulk Modulus (GPa) = 54.79244 67.67463 61.23354
# Shear Modulus (GPa) = 35.77230 46.80055 41.28643
#
# Velocity S-wave (km/s) = 4.32476 4.94669 4.64614
# Velocity P-wave (km/s) = 7.32027 8.24682 7.79732
#
# Compressibility (1/GPa) = 0.01825069
#
# Stress axis : x y z
#
# Youngs Moduli (GPa) = 70.25997 109.58814 115.35244
#
# Poissons Ratio (x) = 0.28106 0.30962
# Poissons Ratio (y) = 0.18020 0.18910
# Poissons Ratio (z) = 0.18859 0.17965
#
# Static dielectric constant tensor:
#      x y z
#    x 1.696890 0.000000 0.015170 
#    y 0.000000 1.664290 0.000000 
#    z 0.015170 0.000000 1.667980 
# 
# From -- ./inp_files/53772.got.cif
#   From: 2010.05.17/outbox.cif.g08.bks.cpg/sg13_27_cif.got.tgz:53772.got - 2010.06.03 16:44:36.
