data_PCOD9234724
_publ_section_title
;
Structure prediction by ZEFSAII (Michael W. Deem and Ramdas Pophale) SiO2 
 PCOD9234724
Probable space group: P 2/C
;
_chemical_formula_sum "Si O2"
_cell_formula_units_Z 26
_cell_length_a 17.032120
_cell_length_b 13.476498
_cell_length_c 9.859252
_cell_angle_alpha 90.000000
_cell_angle_beta 149.413493
_cell_angle_gamma 90.000000
_cell_volume 1151.515692
_symmetry_space_group_name_H-M "P 2/C"
_symmetry_group_IT_number 13
_symmetry_cell_setting 'monoclinic'
loop_
_space_group_symop_operation_xyz
x,y,z
-x,y,1/2-z
-x,-y,-z
x,-y,1/2+z
loop_
_atom_site_type_symbol
_atom_site_label
_atom_site_fract_x
_atom_site_fract_y
_atom_site_fract_z
Si Si1 0.145928 0.629967 0.368536
Si Si2 0.387589 0.801330 0.810501
Si Si3 0.880069 0.671139 0.464989
Si Si4 0.500000 0.716994 0.250000
Si Si5 0.266998 0.872336 0.200877
Si Si6 0.324051 0.990878 0.541467
Si Si7 0.350940 0.443018 0.724521
O O1 0.281272 0.710558 0.602086
O O2 0.072224 0.656185 0.115663
O O3 0.232464 0.524819 0.494404
O O4 0.000000 0.630962 0.250000
O O5 0.315846 0.900442 0.638424
O O6 0.407407 0.782189 0.001483
O O7 0.565377 0.818954 0.026990
O O8 0.852320 0.785341 0.456307
O O9 0.723416 0.611822 0.258056
O O10 0.000000 0.629881 0.750000
O O11 0.607099 0.642219 0.321659
O O12 0.242773 0.954355 0.282639
O O13 0.270667 0.917752 0.055283
O O14 0.500000 0.005833 0.750000
O O15 0.500000 0.500000 0.000000
#
# Coordination Sequence:
#
# PCOD9234724 Si02
#       7
#     4   4   4   2   4   4   4
#     4  12  28  48  68  97 143 194 235 282 351 420
#     4  11  23  41  70 103 142 178 231 289 349 412
#     4  12  28  48  70 101 144 189 236 291 344 419
#     4  12  24  38  70 112 136 182 228 294 354 420
#     4  11  23  44  72 108 138 180 233 292 359 413
#     4  10  22  40  71 108 139 176 226 296 351 412
#     4  12  25  45  75 105 141 178 235 293 355 415
#
# _framework density 22.578937
#
# number of rings (size 3 to 8) (size 9 to 14) (size 15 to 20)
#    0.000    0.615    4.615    3.231    5.385    2.462 
#    0.000    1.538    0.000    0.000    0.000    0.000 
#    0.000    0.000    0.000    0.000    0.000    0.000 
#
# Total GULP energy -145276.227126 kJ/mol
# GULP energy per Si atom -5587.547197 kJ/mol
# Density = 2.252755 g / cm^3
# Si number density = 22.578937 Si / 1000 Ang^3
#
#
#
# Elastic Constant Matrix: (Units=GPa)
#
#
# Indices 1 2 3 4 5 6 
#
# 1 162.9340 57.7901 43.8372 0.0000 -32.3634 0.0000
# 2 57.7901 94.6672 14.8371 0.0000 -14.2028 0.0000
# 3 43.8372 14.8371 77.5412 0.0000 -23.3618 0.0000
# 4 0.0000 0.0000 0.0000 -43.4089 0.0000 -22.1154
# 5 -32.3634 -14.2028 -23.3618 0.0000 33.1214 0.0000
# 6 0.0000 0.0000 0.0000 -22.1154 0.0000 33.7415
#
#
#
# Elastic Compliance Matrix: (Units=1/GPa)
#
#
# Indices 1 2 3 4 5 6 
#
# 1 0.009630 -0.004614 -0.002949 0.000000 0.005351 0.000000
# 2 -0.004614 0.013549 0.000518 0.000000 0.001667 0.000000
# 3 -0.002949 0.000518 0.017350 0.000000 0.009578 0.000000
# 4 0.000000 0.000000 0.000000 -0.017270 0.000000 -0.011319
# 5 0.005351 0.001667 0.009578 0.000000 0.042891 0.000000
# 6 0.000000 0.000000 0.000000 -0.011319 0.000000 0.022218
#
#
# Mechanical properties :
#
#
# Convention : Reuss Voigt Hill
#
# Bulk Modulus (GPa) = 37.82241 63.11903 50.47072
# Shear Modulus (GPa) = 44.93493 19.26932 32.10213
#
# Velocity S-wave (km/s) = 4.46592 2.92451 3.77473
# Velocity P-wave (km/s) = 6.58636 6.27847 6.43426
#
# Compressibility (1/GPa) = 0.02643935
#
# Stress axis : x y z
#
# Youngs Moduli (GPa) = 103.83875 73.80762 57.63574
#
# Poissons Ratio (x) = 0.34053 0.16999
# Poissons Ratio (y) = 0.47909 -0.02986
# Poissons Ratio (z) = 0.30626 -0.03824
#
# Static dielectric constant tensor:
#      x y z
#    x 1.823970 0.000000 -0.010500 
#    y 0.000000 1.865100 0.000000 
#    z -0.010500 0.000000 1.877610 
# 
# From -- ./inp_files/19926.got.cif
#   From: 2010.05.17/outbox.cif.g08.bks.cpg/sg13_10_cif.got.tgz:19926.got - 2010.06.03 16:44:36.
