data_PCOD9234188
_publ_section_title
;
Structure prediction by ZEFSAII (Michael W. Deem and Ramdas Pophale) SiO2 
 PCOD9234188
Probable space group: P 2/C
;
_chemical_formula_sum "Si O2"
_cell_formula_units_Z 30
_cell_length_a 6.625972
_cell_length_b 16.864584
_cell_length_c 14.200621
_cell_angle_alpha 90.000000
_cell_angle_beta 88.503563
_cell_angle_gamma 90.000000
_cell_volume 1586.296715
_symmetry_space_group_name_H-M "P 2/C"
_symmetry_group_IT_number 13
_symmetry_cell_setting 'monoclinic'
loop_
_space_group_symop_operation_xyz
x,y,z
-x,y,1/2-z
-x,-y,-z
x,-y,1/2+z
loop_
_atom_site_type_symbol
_atom_site_label
_atom_site_fract_x
_atom_site_fract_y
_atom_site_fract_z
Si Si1 0.916601 0.144008 0.566096
Si Si2 0.438251 0.966405 0.359629
Si Si3 0.436165 0.738902 0.482509
Si Si4 0.311759 0.561059 0.505102
Si Si5 0.031363 0.465601 0.639578
Si Si6 0.000000 0.228007 0.750000
Si Si7 0.321395 0.886313 0.973358
Si Si8 0.665945 0.665110 0.311040
O O1 0.770359 0.076879 0.609596
O O2 0.770244 0.212271 0.527911
O O3 0.030456 0.178721 0.655616
O O4 0.080497 0.116712 0.488258
O O5 0.500000 0.955973 0.250000
O O6 0.596495 0.926340 0.430266
O O7 0.405076 0.057446 0.390119
O O8 0.390530 0.650297 0.518503
O O9 0.585391 0.798346 0.535607
O O10 0.548326 0.722971 0.382110
O O11 0.500000 0.500000 0.500000
O O12 0.152132 0.535444 0.586803
O O13 0.176851 0.553344 0.411619
O O14 0.184235 0.390880 0.633299
O O15 0.000000 0.480646 0.750000
O O16 0.192461 0.284082 0.758747
O O17 0.500000 0.620664 0.250000
#
# Coordination Sequence:
#
# PCOD9234188 Si02
#       8
#     4   4   4   4   4   2   4   4
#     4  11  21  34  58  87 120 151 190 247 306 367
#     4  10  22  39  59  86 117 152 200 244 297 362
#     4  11  22  36  57  84 120 155 198 246 301 368
#     4  11  24  41  63  89 123 169 207 254 316 365
#     4  11  24  39  61  90 122 161 212 260 309 373
#     4  12  20  28  52  92 120 148 190 240 322 368
#     4  10  22  38  60  84 117 157 194 244 303 362
#     4  12  21  33  56  89 126 154 194 255 321 376
#
# _framework density 18.911973
#
# number of rings (size 3 to 8) (size 9 to 14) (size 15 to 20)
#    0.000    1.067    4.667    2.800    1.867    0.000 
#    0.000    0.000    5.867    0.000    0.000    0.000 
#    0.000    0.000    0.000    0.000    0.000    0.000 
#
# Total GULP energy -167440.617513 kJ/mol
# GULP energy per Si atom -5581.353917 kJ/mol
# Density = 1.886893 g / cm^3
# Si number density = 18.911973 Si / 1000 Ang^3
#
#
#
# Elastic Constant Matrix: (Units=GPa)
#
#
# Indices 1 2 3 4 5 6 
#
# 1 113.1886 46.2945 21.2259 0.0000 0.9550 0.0000
# 2 46.2945 122.0116 21.2364 0.0000 -5.5069 0.0000
# 3 21.2259 21.2364 47.9619 0.0000 -1.0407 0.0000
# 4 0.0000 0.0000 0.0000 23.5662 0.0000 -11.4414
# 5 0.9550 -5.5069 -1.0407 0.0000 28.8309 0.0000
# 6 0.0000 0.0000 0.0000 -11.4414 0.0000 28.2511
#
#
#
# Elastic Compliance Matrix: (Units=1/GPa)
#
#
# Indices 1 2 3 4 5 6 
#
# 1 0.010944 -0.003638 -0.003258 0.000000 -0.001175 0.000000
# 2 -0.003638 0.010160 -0.002846 0.000000 0.001958 0.000000
# 3 -0.003258 -0.002846 0.023561 0.000000 0.000415 0.000000
# 4 0.000000 0.000000 0.000000 0.052819 0.000000 0.021391
# 5 -0.001175 0.001958 0.000415 0.000000 0.035113 0.000000
# 6 0.000000 0.000000 0.000000 0.021391 0.000000 0.044060
#
#
# Mechanical properties :
#
#
# Convention : Reuss Voigt Hill
#
# Bulk Modulus (GPa) = 39.71335 51.18618 45.44976
# Shear Modulus (GPa) = 24.44575 29.08999 26.76787
#
# Velocity S-wave (km/s) = 3.59918 3.92622 3.76625
# Velocity P-wave (km/s) = 6.19006 6.90491 6.55723
#
# Compressibility (1/GPa) = 0.02518045
#
# Stress axis : x y z
#
# Youngs Moduli (GPa) = 91.37640 98.42341 42.44340
#
# Poissons Ratio (x) = 0.35810 0.13827
# Poissons Ratio (y) = 0.33246 0.12079
# Poissons Ratio (z) = 0.29768 0.28011
#
# Static dielectric constant tensor:
#      x y z
#    x 1.702110 0.000000 0.016780 
#    y 0.000000 1.691500 0.000000 
#    z 0.016780 0.000000 1.652240 
# 
# From -- ./inp_files/44279.got.cif
#   From: 2010.05.17/outbox.cif.g08.bks.cpg/sg13_23_cif.got.tgz:44279.got - 2010.06.03 16:44:36.
