data_PCOD9234015
_publ_section_title
;
Structure prediction by ZEFSAII (Michael W. Deem and Ramdas Pophale) SiO2 
 PCOD9234015
Probable space group: P 2/C
;
_chemical_formula_sum "Si O2"
_cell_formula_units_Z 20
_cell_length_a 7.858901
_cell_length_b 5.595472
_cell_length_c 19.947157
_cell_angle_alpha 90.000000
_cell_angle_beta 61.807467
_cell_angle_gamma 90.000000
_cell_volume 773.099452
_symmetry_space_group_name_H-M "P 2/C"
_symmetry_group_IT_number 13
_symmetry_cell_setting 'monoclinic'
loop_
_space_group_symop_operation_xyz
x,y,z
-x,y,1/2-z
-x,-y,-z
x,-y,1/2+z
loop_
_atom_site_type_symbol
_atom_site_label
_atom_site_fract_x
_atom_site_fract_y
_atom_site_fract_z
Si Si1 0.880658 0.317164 0.477771
Si Si2 0.758400 0.800415 0.679141
Si Si3 0.291565 0.702042 0.062411
Si Si4 0.578032 0.000365 0.090695
Si Si5 0.115578 0.294663 0.797098
O O1 0.714315 0.424402 0.459245
O O2 0.764564 0.169202 0.554400
O O3 0.000000 0.500000 0.500000
O O4 0.040403 0.203501 0.400482
O O5 0.760488 0.534688 0.710955
O O6 0.588748 0.846158 0.656392
O O7 0.775438 0.040596 0.720593
O O8 0.400871 0.826910 0.104110
O O9 0.063538 0.727086 0.118029
O O10 0.369397 0.833786 0.982187
O O11 0.000000 0.334941 0.750000
#
# Coordination Sequence:
#
# PCOD9234015 Si02
#       5
#     4   4   4   4   4
#     4  11  19  34  57  91 129 163 200 248 317 390
#     4  11  22  38  65  91 121 163 215 260 313 380
#     4  10  22  35  59  93 130 160 198 263 321 380
#     4  11  20  36  58  97 129 154 198 262 336 369
#     4  11  24  44  64  88 120 173 222 263 302 379
#
# _framework density 25.869893999999999
#
# number of rings (size 3 to 8) (size 9 to 14) (size 15 to 20)
#    0.000    1.200    4.000    4.200    0.000    0.000 
#    0.000    1.000    0.000    4.800    0.000    0.000 
#    0.000    0.000    0.000    0.000    0.000    0.000 
#
# Total GULP energy -111709.196491 kJ/mol
# GULP energy per Si atom -5585.459825 kJ/mol
# Density = 2.581101 g / cm^3
# Si number density = 25.869894 Si / 1000 Ang^3
#
#
#
# Elastic Constant Matrix: (Units=GPa)
#
#
# Indices 1 2 3 4 5 6 
#
# 1 152.0979 89.1705 44.7480 0.0000 24.9771 0.0000
# 2 89.1705 184.9892 41.3005 0.0000 16.2926 0.0000
# 3 44.7480 41.3005 61.5380 0.0000 20.9369 0.0000
# 4 0.0000 0.0000 0.0000 20.2819 0.0000 9.7247
# 5 24.9771 16.2926 20.9369 0.0000 48.1817 0.0000
# 6 0.0000 0.0000 0.0000 9.7247 0.0000 72.7638
#
#
#
# Elastic Compliance Matrix: (Units=1/GPa)
#
#
# Indices 1 2 3 4 5 6 
#
# 1 0.010484 -0.003910 -0.004225 0.000000 -0.002277 0.000000
# 2 -0.003910 0.007821 -0.002577 0.000000 0.000502 0.000000
# 3 -0.004225 -0.002577 0.023482 0.000000 -0.007142 0.000000
# 4 0.000000 0.000000 0.000000 0.052681 0.000000 -0.007041
# 5 -0.002277 0.000502 -0.007142 0.000000 0.024869 0.000000
# 6 0.000000 0.000000 0.000000 -0.007041 0.000000 0.014684
#
#
# Mechanical properties :
#
#
# Convention : Reuss Voigt Hill
#
# Bulk Modulus (GPa) = 49.10641 83.22925 66.16783
# Shear Modulus (GPa) = 30.82010 43.13921 36.97966
#
# Velocity S-wave (km/s) = 3.45534 4.08799 3.78491
# Velocity P-wave (km/s) = 5.91121 7.38406 6.68830
#
# Compressibility (1/GPa) = 0.02036394
#
# Stress axis : x y z
#
# Youngs Moduli (GPa) = 95.38612 127.85297 42.58634
#
# Poissons Ratio (x) = 0.49987 0.17992
# Poissons Ratio (y) = 0.37293 0.10975
# Poissons Ratio (z) = 0.40298 0.32948
#
# Static dielectric constant tensor:
#      x y z
#    x 2.051690 0.000000 -0.012270 
#    y 0.000000 2.387330 0.000000 
#    z -0.012270 0.000000 2.094640 
# 
# From -- ./inp_files/74198.got.cif
#   From: 2010.05.17/outbox.cif.g08.bks.cpg/sg13_38_cif.got.tgz:74198.got - 2010.06.03 16:44:36.
