data_PCOD9234645
_publ_section_title
;
Structure prediction by ZEFSAII (Michael W. Deem and Ramdas Pophale) SiO2 
 PCOD9234645
Probable space group: P 2/C
;
_chemical_formula_sum "Si O2"
_cell_formula_units_Z 28
_cell_length_a 9.347537
_cell_length_b 8.191673
_cell_length_c 28.180990
_cell_angle_alpha 90.000000
_cell_angle_beta 37.405379
_cell_angle_gamma 90.000000
_cell_volume 1310.801354
_symmetry_space_group_name_H-M "P 2/C"
_symmetry_group_IT_number 13
_symmetry_cell_setting 'monoclinic'
loop_
_space_group_symop_operation_xyz
x,y,z
-x,y,1/2-z
-x,-y,-z
x,-y,1/2+z
loop_
_atom_site_type_symbol
_atom_site_label
_atom_site_fract_x
_atom_site_fract_y
_atom_site_fract_z
Si Si1 0.854626 0.746768 0.152751
Si Si2 0.545441 0.752659 0.852621
Si Si3 0.281862 0.399387 0.280660
Si Si4 0.847601 0.162764 0.407022
Si Si5 0.587402 0.331984 0.003048
Si Si6 0.104971 0.048651 0.767259
Si Si7 0.139149 0.967499 0.916293
O O1 0.744278 0.569119 0.185539
O O2 0.793735 0.837932 0.218194
O O3 0.770929 0.865335 0.132270
O O4 0.136899 0.710481 0.074129
O O5 0.646871 0.606464 0.793333
O O6 0.487650 0.691815 0.921244
O O7 0.727934 0.904811 0.797344
O O8 0.320796 0.828975 0.884662
O O9 0.500000 0.308872 0.250000
O O10 0.027251 0.313446 0.350666
O O11 0.576489 0.203057 0.480783
O O12 0.899376 0.042371 0.350260
O O13 0.950934 0.091145 0.427511
O O14 0.500000 0.500000 0.000000
O O15 0.000000 0.142110 0.750000
O O16 0.000000 0.000000 0.000000
#
# Coordination Sequence:
#
# PCOD9234645 Si02
#       7
#     4   4   4   4   4   4   4
#     4  11  26  40  69 104 141 171 231 292 333 401
#     4  11  24  44  72  95 135 189 225 276 346 413
#     4  11  23  44  67  98 134 178 223 277 340 404
#     4  10  22  42  69  93 133 179 219 272 342 405
#     4  12  24  45  68 102 138 179 227 284 338 407
#     4  10  22  40  66  98 132 176 228 272 341 406
#     4  11  23  44  68 101 134 174 230 280 343 406
#
# _framework density 21.360980000000001
#
# number of rings (size 3 to 8) (size 9 to 14) (size 15 to 20)
#    0.000    1.143    5.714    0.000    2.000    4.571 
#    2.571    2.143    0.000    0.000    0.000    0.000 
#    0.000    0.000    0.000    0.000    0.000    0.000 
#
# Total GULP energy -156036.973338 kJ/mol
# GULP energy per Si atom -5572.749048 kJ/mol
# Density = 2.131236 g / cm^3
# Si number density = 21.360980 Si / 1000 Ang^3
#
#
#
# Elastic Constant Matrix: (Units=GPa)
#
#
# Indices 1 2 3 4 5 6 
#
# 1 67.5073 15.0814 64.0560 0.0000 22.1042 0.0000
# 2 15.0814 54.3466 28.4398 0.0000 17.6511 0.0000
# 3 64.0560 28.4398 121.7742 0.0000 11.2813 0.0000
# 4 0.0000 0.0000 0.0000 27.1991 0.0000 -0.7838
# 5 22.1042 17.6511 11.2813 0.0000 56.0308 0.0000
# 6 0.0000 0.0000 0.0000 -0.7838 0.0000 19.2517
#
#
#
# Elastic Compliance Matrix: (Units=1/GPa)
#
#
# Indices 1 2 3 4 5 6 
#
# 1 0.034923 0.003440 -0.018135 0.000000 -0.011209 0.000000
# 2 0.003440 0.023273 -0.006562 0.000000 -0.007367 0.000000
# 3 -0.018135 -0.006562 0.018780 0.000000 0.005440 0.000000
# 4 0.000000 0.000000 0.000000 0.036809 0.000000 0.001499
# 5 -0.011209 -0.007367 0.005440 0.000000 0.023495 0.000000
# 6 0.000000 0.000000 0.000000 0.001499 0.000000 0.052005
#
#
# Mechanical properties :
#
#
# Convention : Reuss Voigt Hill
#
# Bulk Modulus (GPa) = 29.01871 50.97585 39.99728
# Shear Modulus (GPa) = 20.55189 29.56637 25.05913
#
# Velocity S-wave (km/s) = 3.10518 3.72443 3.42881
# Velocity P-wave (km/s) = 5.14495 6.51237 5.86862
#
# Compressibility (1/GPa) = 0.03446052
#
# Stress axis : x y z
#
# Youngs Moduli (GPa) = 28.63423 42.96889 53.24811
#
# Poissons Ratio (x) = -0.14780 0.96567
# Poissons Ratio (y) = -0.09849 0.34942
# Poissons Ratio (z) = 0.51929 0.28196
#
# Static dielectric constant tensor:
#      x y z
#    x 1.805820 0.000000 -0.040280 
#    y 0.000000 1.831820 0.000000 
#    z -0.040280 0.000000 1.804310 
# 
# From -- ./inp_files/91411.got.cif
#   From: 2010.05.17/outbox.cif.g08.bks.cpg/sg13_46_cif.got.tgz:91411.got - 2010.06.03 16:44:36.
