data_PCOD9234510
_publ_section_title
;
Structure prediction by ZEFSAII (Michael W. Deem and Ramdas Pophale) SiO2 
 PCOD9234510
Probable space group: P 2/C
;
_chemical_formula_sum "Si O2"
_cell_formula_units_Z 18
_cell_length_a 8.184205
_cell_length_b 4.912332
_cell_length_c 25.628156
_cell_angle_alpha 90.000000
_cell_angle_beta 124.522305
_cell_angle_gamma 90.000000
_cell_volume 848.904895
_symmetry_space_group_name_H-M "P 2/C"
_symmetry_group_IT_number 13
_symmetry_cell_setting 'monoclinic'
loop_
_space_group_symop_operation_xyz
x,y,z
-x,y,1/2-z
-x,-y,-z
x,-y,1/2+z
loop_
_atom_site_type_symbol
_atom_site_label
_atom_site_fract_x
_atom_site_fract_y
_atom_site_fract_z
Si Si1 0.352771 0.881092 0.930800
Si Si2 0.332629 0.528343 0.176050
Si Si3 0.618837 0.614055 0.134555
Si Si4 0.000000 0.310180 0.250000
Si Si5 0.913409 0.967358 0.843558
O O1 0.406547 0.582952 0.919960
O O2 0.124450 0.896926 0.907326
O O3 0.357051 0.081382 0.881454
O O4 0.500000 0.000000 0.000000
O O5 0.500000 0.568120 0.250000
O O6 0.434123 0.595792 0.139802
O O7 0.257661 0.220144 0.163404
O O8 0.150032 0.722970 0.158905
O O9 0.815806 0.497564 0.198505
O O10 0.931429 0.125970 0.286463
#
# Coordination Sequence:
#
# PCOD9234510 Si02
#       5
#     4   4   4   2   4
#     4  11  25  46  67  90 125 175 225 261 299 372
#     4  12  24  39  61 100 136 159 197 260 333 388
#     4  11  24  41  67  94 131 165 214 261 323 374
#     4  10  22  40  62 100 122 172 204 264 318 386
#     4  11  24  39  64  92 131 164 211 254 320 373
#
# _framework density 21.203790999999999
#
# number of rings (size 3 to 8) (size 9 to 14) (size 15 to 20)
#    0.000    0.889    2.222    5.333    6.222    1.778 
#    0.000    6.667    0.000    0.000    0.000    0.000 
#    0.000    0.000    0.000    0.000    0.000    0.000 
#
# Total GULP energy -100785.258348 kJ/mol
# GULP energy per Si atom -5599.181019 kJ/mol
# Density = 2.115553 g / cm^3
# Si number density = 21.203791 Si / 1000 Ang^3
#
#
#
# Elastic Constant Matrix: (Units=GPa)
#
#
# Indices 1 2 3 4 5 6 
#
# 1 78.1181 -9.1177 15.1463 0.0000 5.4497 0.0000
# 2 -9.1177 56.9691 -6.8744 0.0000 1.4984 0.0000
# 3 15.1463 -6.8744 70.2345 0.0000 9.0405 0.0000
# 4 0.0000 0.0000 0.0000 10.3356 0.0000 -1.3429
# 5 5.4497 1.4984 9.0405 0.0000 10.0051 0.0000
# 6 0.0000 0.0000 0.0000 -1.3429 0.0000 53.7178
#
#
#
# Elastic Compliance Matrix: (Units=1/GPa)
#
#
# Indices 1 2 3 4 5 6 
#
# 1 0.013861 0.002137 -0.002000 0.000000 -0.006063 0.000000
# 2 0.002137 0.018298 0.002074 0.000000 -0.005778 0.000000
# 3 -0.002000 0.002074 0.016716 0.000000 -0.014326 0.000000
# 4 0.000000 0.000000 0.000000 0.097068 0.000000 0.002427
# 5 -0.006063 -0.005778 -0.014326 0.000000 0.117061 0.000000
# 6 0.000000 0.000000 0.000000 0.002427 0.000000 0.018676
#
#
# Mechanical properties :
#
#
# Convention : Reuss Voigt Hill
#
# Bulk Modulus (GPa) = 18.76286 22.62556 20.69421
# Shear Modulus (GPa) = 16.94771 28.55621 22.75196
#
# Velocity S-wave (km/s) = 2.83022 3.67379 3.27924
# Velocity P-wave (km/s) = 4.42133 5.35624 4.91109
#
# Compressibility (1/GPa) = 0.05329679
#
# Stress axis : x y z
#
# Youngs Moduli (GPa) = 72.14379 54.65210 59.82201
#
# Poissons Ratio (x) = -0.11677 0.11962
# Poissons Ratio (y) = -0.15414 -0.12407
# Poissons Ratio (z) = 0.14426 -0.11334
#
# Static dielectric constant tensor:
#      x y z
#    x 1.758230 0.000000 0.005200 
#    y 0.000000 1.726600 0.000000 
#    z 0.005200 0.000000 1.755150 
# 
# From -- ./inp_files/62151.got.cif
#   From: 2010.05.17/outbox.cif.g08.bks.cpg/sg13_32_cif.got.tgz:62151.got - 2010.06.03 16:44:36.
