data_PCOD9234760
_publ_section_title
;
Structure prediction by ZEFSAII (Michael W. Deem and Ramdas Pophale) SiO2 
 PCOD9234760
Probable space group: P 2/C
;
_chemical_formula_sum "Si O2"
_cell_formula_units_Z 20
_cell_length_a 28.764458
_cell_length_b 5.289506
_cell_length_c 12.195159
_cell_angle_alpha 90.000000
_cell_angle_beta 152.699993
_cell_angle_gamma 90.000000
_cell_volume 851.020173
_symmetry_space_group_name_H-M "P 2/C"
_symmetry_group_IT_number 13
_symmetry_cell_setting 'monoclinic'
loop_
_space_group_symop_operation_xyz
x,y,z
-x,y,1/2-z
-x,-y,-z
x,-y,1/2+z
loop_
_atom_site_type_symbol
_atom_site_label
_atom_site_fract_x
_atom_site_fract_y
_atom_site_fract_z
Si Si1 0.573159 0.194841 0.712532
Si Si2 0.870307 0.753377 0.189673
Si Si3 0.577797 0.602639 0.993713
Si Si4 0.898318 0.750898 0.878682
Si Si5 0.737123 0.728446 0.717911
O O1 0.498061 0.380076 0.622197
O O2 0.621102 0.310916 0.702024
O O3 0.500000 0.000000 0.500000
O O4 0.661125 0.116007 0.980323
O O5 0.866176 0.466655 0.224860
O O6 0.979912 0.758791 0.359901
O O7 0.871533 0.964175 0.286608
O O8 0.778826 0.833655 0.918820
O O9 0.500000 0.757228 0.750000
O O10 0.670344 0.511301 0.113696
O O11 0.836844 0.675213 0.857207
#
# Coordination Sequence:
#
# PCOD9234760 Si02
#       5
#     4   4   4   4   4
#     4  10  22  41  61  89 127 170 218 274 330 391
#     4  10  23  44  67  99 139 175 218 274 338 398
#     4   9  21  41  60  87 126 169 216 271 326 390
#     4  10  23  44  68 100 138 173 221 277 329 405
#     4  11  22  40  67  95 129 177 225 274 336 401
#
# _framework density 23.501206
#
# number of rings (size 3 to 8) (size 9 to 14) (size 15 to 20)
#    0.000    2.000    0.000    1.800    2.800    4.000 
#   14.400    6.000    0.000    0.000    0.000    0.000 
#    0.000    0.000    0.000    0.000    0.000    0.000 
#
# Total GULP energy -111495.265019 kJ/mol
# GULP energy per Si atom -5574.763251 kJ/mol
# Density = 2.344772 g / cm^3
# Si number density = 23.501206 Si / 1000 Ang^3
#
#
#
# Elastic Constant Matrix: (Units=GPa)
#
#
# Indices 1 2 3 4 5 6 
#
# 1 92.3939 9.4804 11.3065 0.0000 19.3392 0.0000
# 2 9.4804 49.3208 25.2384 0.0000 2.9615 0.0000
# 3 11.3065 25.2384 128.0419 0.0000 -30.3189 0.0000
# 4 0.0000 0.0000 0.0000 -2.5622 0.0000 18.0015
# 5 19.3392 2.9615 -30.3189 0.0000 42.7874 0.0000
# 6 0.0000 0.0000 0.0000 18.0015 0.0000 11.9726
#
#
#
# Elastic Compliance Matrix: (Units=1/GPa)
#
#
# Indices 1 2 3 4 5 6 
#
# 1 0.012868 -0.000527 -0.002885 0.000000 -0.007824 0.000000
# 2 -0.000527 0.023773 -0.005975 0.000000 -0.005641 0.000000
# 3 -0.002885 -0.005975 0.011595 0.000000 0.009933 0.000000
# 4 0.000000 0.000000 0.000000 -0.033751 0.000000 0.050747
# 5 -0.007824 -0.005641 0.009933 0.000000 0.034337 0.000000
# 6 0.000000 0.000000 0.000000 0.050747 0.000000 0.007223
#
#
# Mechanical properties :
#
#
# Convention : Reuss Voigt Hill
#
# Bulk Modulus (GPa) = 33.94340 40.20079 37.07209
# Shear Modulus (GPa) = 59.07433 25.35498 42.21466
#
# Velocity S-wave (km/s) = 5.01909 3.28819 4.24285
# Velocity P-wave (km/s) = 6.93275 5.61776 6.30961
#
# Compressibility (1/GPa) = 0.02946081
#
# Stress axis : x y z
#
# Youngs Moduli (GPa) = 77.71216 42.06444 86.24751
#
# Poissons Ratio (x) = 0.02219 0.24882
# Poissons Ratio (y) = 0.04099 0.51533
# Poissons Ratio (z) = 0.22419 0.25134
#
# Static dielectric constant tensor:
#      x y z
#    x 2.324240 0.000000 0.047920 
#    y 0.000000 2.045000 0.000000 
#    z 0.047920 0.000000 1.947130 
# 
# From -- ./inp_files/35119.got.cif
#   From: 2010.05.17/outbox.cif.g08.bks.cpg/sg13_18_cif.got.tgz:35119.got - 2010.06.03 16:44:36.
