data_PCOD9234184
_publ_section_title
;
Structure prediction by ZEFSAII (Michael W. Deem and Ramdas Pophale) SiO2 
 PCOD9234184
Probable space group: P 2/C
;
_chemical_formula_sum "Si O2"
_cell_formula_units_Z 22
_cell_length_a 8.532048
_cell_length_b 5.743922
_cell_length_c 17.467961
_cell_angle_alpha 90.000000
_cell_angle_beta 79.839788
_cell_angle_gamma 90.000000
_cell_volume 842.635237
_symmetry_space_group_name_H-M "P 2/C"
_symmetry_group_IT_number 13
_symmetry_cell_setting 'monoclinic'
loop_
_space_group_symop_operation_xyz
x,y,z
-x,y,1/2-z
-x,-y,-z
x,-y,1/2+z
loop_
_atom_site_type_symbol
_atom_site_label
_atom_site_fract_x
_atom_site_fract_y
_atom_site_fract_z
Si Si1 0.126125 0.388713 0.669968
Si Si2 0.530322 0.439609 0.869430
Si Si3 0.339858 0.765980 0.983486
Si Si4 0.017865 0.881219 0.658642
Si Si5 0.000000 0.500000 0.500000
Si Si6 0.242717 0.146823 0.901577
O O1 0.300919 0.454625 0.686704
O O2 0.000000 0.375149 0.750000
O O3 0.125131 0.116199 0.641789
O O4 0.076910 0.624741 0.622811
O O5 0.451852 0.679348 0.903920
O O6 0.386833 0.283887 0.849692
O O7 0.588475 0.323115 0.944090
O O8 0.314288 0.036420 0.972602
O O9 0.167181 0.652768 0.990813
O O10 0.845625 0.951978 0.640994
O O11 0.000000 0.844113 0.750000
O O12 0.099707 0.694674 0.441360
#
# Coordination Sequence:
#
# PCOD9234184 Si02
#       6
#     4   4   4   4   2   4
#     4  10  23  46  73  98 135 189 245 293 356 425
#     4  10  23  40  65 102 141 180 231 293 363 425
#     4  10  22  39  63 100 144 180 231 285 366 428
#     4  10  24  45  73  97 135 186 245 294 349 422
#     4  10  22  38  60 104 130 184 230 282 346 450
#     4  11  23  40  69  99 144 182 239 289 366 429
#
# _framework density 26.108568000000002
#
# number of rings (size 3 to 8) (size 9 to 14) (size 15 to 20)
#    0.000    1.818    0.000    2.182   10.182    0.000 
#    3.273    3.636    0.000    0.000    0.000    0.000 
#    0.000    0.000    0.000    0.000    0.000    0.000 
#
# Total GULP energy -122500.113566 kJ/mol
# GULP energy per Si atom -5568.186980 kJ/mol
# Density = 2.604914 g / cm^3
# Si number density = 26.108568 Si / 1000 Ang^3
#
#
#
# Elastic Constant Matrix: (Units=GPa)
#
#
# Indices 1 2 3 4 5 6 
#
# 1 160.6340 49.3516 31.5349 0.0000 -36.9827 0.0000
# 2 49.3516 149.9978 18.3056 0.0000 -6.3150 0.0000
# 3 31.5349 18.3056 53.2965 0.0000 -23.8221 0.0000
# 4 0.0000 0.0000 0.0000 2.5968 0.0000 1.3994
# 5 -36.9827 -6.3150 -23.8221 0.0000 46.1483 0.0000
# 6 0.0000 0.0000 0.0000 1.3994 0.0000 16.4795
#
#
#
# Elastic Compliance Matrix: (Units=1/GPa)
#
#
# Indices 1 2 3 4 5 6 
#
# 1 0.008604 -0.002380 -0.001738 0.000000 0.005672 0.000000
# 2 -0.002380 0.007621 -0.002075 0.000000 -0.001935 0.000000
# 3 -0.001738 -0.002075 0.025679 0.000000 0.011579 0.000000
# 4 0.000000 0.000000 0.000000 0.403558 0.000000 -0.034269
# 5 0.005672 -0.001935 0.011579 0.000000 0.031927 0.000000
# 6 0.000000 0.000000 0.000000 -0.034269 0.000000 0.063592
#
#
# Mechanical properties :
#
#
# Convention : Reuss Voigt Hill
#
# Bulk Modulus (GPa) = 33.87570 62.47917 48.17744
# Shear Modulus (GPa) = 8.87775 30.69398 19.78587
#
# Velocity S-wave (km/s) = 1.84600 3.43246 2.75586
# Velocity P-wave (km/s) = 4.18888 6.30012 5.34968
#
# Compressibility (1/GPa) = 0.02951969
#
# Stress axis : x y z
#
# Youngs Moduli (GPa) = 116.23142 131.20835 38.94161
#
# Poissons Ratio (x) = 0.31225 0.06768
# Poissons Ratio (y) = 0.27661 0.08079
# Poissons Ratio (z) = 0.20201 0.27220
#
# Static dielectric constant tensor:
#      x y z
#    x 2.248470 0.000000 0.148690 
#    y 0.000000 2.096820 0.000000 
#    z 0.148690 0.000000 2.079130 
# 
# From -- ./inp_files/74493.got.cif
#   From: 2010.05.17/outbox.cif.g08.bks.cpg/sg13_38_cif.got.tgz:74493.got - 2010.06.03 16:44:36.
