data_PCOD9234425
_publ_section_title
;
Structure prediction by ZEFSAII (Michael W. Deem and Ramdas Pophale) SiO2 
 PCOD9234425
Probable space group: P 2/C
;
_chemical_formula_sum "Si O2"
_cell_formula_units_Z 24
_cell_length_a 14.867778
_cell_length_b 6.044834
_cell_length_c 28.242135
_cell_angle_alpha 90.000000
_cell_angle_beta 26.611227
_cell_angle_gamma 90.000000
_cell_volume 1136.952388
_symmetry_space_group_name_H-M "P 2/C"
_symmetry_group_IT_number 13
_symmetry_cell_setting 'monoclinic'
loop_
_space_group_symop_operation_xyz
x,y,z
-x,y,1/2-z
-x,-y,-z
x,-y,1/2+z
loop_
_atom_site_type_symbol
_atom_site_label
_atom_site_fract_x
_atom_site_fract_y
_atom_site_fract_z
Si Si1 0.155194 0.404957 0.575761
Si Si2 0.938750 0.284507 0.466815
Si Si3 0.463570 0.919104 0.591591
Si Si4 0.343941 0.310436 0.058075
Si Si5 0.825928 0.906837 0.195269
Si Si6 0.714986 0.393154 0.662586
O O1 0.157116 0.553737 0.527445
O O2 0.351595 0.248396 0.486176
O O3 0.162553 0.566742 0.617479
O O4 0.955692 0.257641 0.667014
O O5 0.796034 0.258241 0.579018
O O6 0.132615 0.411793 0.396203
O O7 0.013351 0.063229 0.406621
O O8 0.319873 0.829280 0.617145
O O9 0.557321 0.146235 0.527071
O O10 0.331554 0.957355 0.699857
O O11 0.500000 0.500000 0.000000
O O12 0.712431 0.765100 0.209081
O O13 0.500000 0.484465 0.750000
#
# Coordination Sequence:
#
# PCOD9234425 Si02
#       6
#     4   4   4   4   4   4
#     4  10  22  39  65  90 129 169 205 266 311 380
#     4  10  23  43  61  93 134 163 216 260 319 377
#     4  10  22  41  66  94 124 168 214 258 319 377
#     4   9  20  41  63  90 127 163 208 259 314 379
#     4  11  24  40  65  97 126 165 217 263 319 376
#     4  10  24  40  64  96 128 170 212 262 319 381
#
# _framework density 21.109062000000002
#
# number of rings (size 3 to 8) (size 9 to 14) (size 15 to 20)
#    0.000    2.000    0.000    1.500    7.000    4.667 
#    0.000   20.000    0.000    0.000    0.000    0.000 
#    0.000    0.000    0.000    0.000    0.000    0.000 
#
# Total GULP energy -134118.251853 kJ/mol
# GULP energy per Si atom -5588.260494 kJ/mol
# Density = 2.106102 g / cm^3
# Si number density = 21.109062 Si / 1000 Ang^3
#
#
#
# Elastic Constant Matrix: (Units=GPa)
#
#
# Indices 1 2 3 4 5 6 
#
# 1 110.7912 30.9291 29.4707 0.0000 -25.1827 0.0000
# 2 30.9291 54.8368 -11.1809 0.0000 -15.0183 0.0000
# 3 29.4707 -11.1809 32.3488 0.0000 -3.3341 0.0000
# 4 0.0000 0.0000 0.0000 6.5959 0.0000 4.8375
# 5 -25.1827 -15.0183 -3.3341 0.0000 13.6279 0.0000
# 6 0.0000 0.0000 0.0000 4.8375 0.0000 24.5253
#
#
#
# Elastic Compliance Matrix: (Units=1/GPa)
#
#
# Indices 1 2 3 4 5 6 
#
# 1 0.024619 -0.011140 -0.023447 0.000000 0.027480 0.000000
# 2 -0.011140 0.037002 0.025667 0.000000 0.026471 0.000000
# 3 -0.023447 0.025667 0.061136 0.000000 -0.000084 0.000000
# 4 0.000000 0.000000 0.000000 0.177252 0.000000 -0.034962
# 5 0.027480 0.026471 -0.000084 0.000000 0.153310 0.000000
# 6 0.000000 0.000000 0.000000 -0.034962 0.000000 0.047670
#
#
# Mechanical properties :
#
#
# Convention : Reuss Voigt Hill
#
# Bulk Modulus (GPa) = 9.53132 32.93495 21.23314
# Shear Modulus (GPa) = 9.02848 18.86701 13.94774
#
# Velocity S-wave (km/s) = 2.07035 2.99287 2.57329
# Velocity P-wave (km/s) = 3.20003 5.25159 4.34853
#
# Compressibility (1/GPa) = 0.10491727
#
# Stress axis : x y z
#
# Youngs Moduli (GPa) = 40.61904 27.02527 16.35686
#
# Poissons Ratio (x) = 0.30107 0.38352
# Poissons Ratio (y) = 0.45251 -0.41983
# Poissons Ratio (z) = 0.95239 -0.69365
#
# Static dielectric constant tensor:
#      x y z
#    x 1.757120 0.000000 0.003840 
#    y 0.000000 1.756670 0.000000 
#    z 0.003840 0.000000 1.732490 
# 
# From -- ./inp_files/52111.got.cif
#   From: 2010.05.17/outbox.cif.g08.bks.cpg/sg13_27_cif.got.tgz:52111.got - 2010.06.03 16:44:36.
