data_PCOD9234790
_publ_section_title
;
Structure prediction by ZEFSAII (Michael W. Deem and Ramdas Pophale) SiO2 
 PCOD9234790
Probable space group: P 2/C
;
_chemical_formula_sum "Si O2"
_cell_formula_units_Z 26
_cell_length_a 20.073799
_cell_length_b 7.003736
_cell_length_c 26.493261
_cell_angle_alpha 90.000000
_cell_angle_beta 162.171592
_cell_angle_gamma 90.000000
_cell_volume 1140.390591
_symmetry_space_group_name_H-M "P 2/C"
_symmetry_group_IT_number 13
_symmetry_cell_setting 'monoclinic'
loop_
_space_group_symop_operation_xyz
x,y,z
-x,y,1/2-z
-x,-y,-z
x,-y,1/2+z
loop_
_atom_site_type_symbol
_atom_site_label
_atom_site_fract_x
_atom_site_fract_y
_atom_site_fract_z
Si Si1 0.023162 0.230777 0.319594
Si Si2 0.923874 0.708143 0.044933
Si Si3 0.500000 0.324464 0.250000
Si Si4 0.392538 0.542623 0.562870
Si Si5 0.256426 0.101467 0.585765
Si Si6 0.162647 0.680792 0.118874
Si Si7 0.289870 0.452105 0.881281
O O1 0.193456 0.401385 0.431325
O O2 0.102545 0.127949 0.426820
O O3 0.000000 0.119158 0.250000
O O4 0.802818 0.338369 0.173393
O O5 0.068888 0.773274 0.102373
O O6 0.100202 0.660966 0.214553
O O7 0.739175 0.544678 0.910047
O O8 0.726071 0.867472 0.902418
O O9 0.564662 0.319486 0.359386
O O10 0.599551 0.406437 0.702622
O O11 0.344604 0.642580 0.474577
O O12 0.500000 0.167317 0.750000
O O13 0.165753 0.181235 0.572802
O O14 0.000000 0.500000 0.000000
O O15 0.500000 0.500000 0.000000
#
# Coordination Sequence:
#
# PCOD9234790 Si02
#       7
#     4   4   2   4   4   4   4
#     4  10  22  41  63  92 127 172 230 274 328 407
#     4  12  25  43  63 101 141 174 221 285 352 414
#     4  12  22  38  66 104 126 174 230 282 344 398
#     4  11  21  38  69  98 128 174 238 285 327 399
#     4  12  25  44  68  98 139 181 223 281 355 417
#     4  12  23  39  71 100 130 174 233 290 337 400
#     4  11  23  41  68  97 133 177 230 281 341 407
#
# _framework density 22.799208
#
# number of rings (size 3 to 8) (size 9 to 14) (size 15 to 20)
#    0.000    0.615    6.923    2.308    0.000    0.000 
#    2.769    0.769    0.000    0.000    0.000    0.000 
#    0.000    0.000    0.000    0.000    0.000    0.000 
#
# Total GULP energy -144747.622753 kJ/mol
# GULP energy per Si atom -5567.216260 kJ/mol
# Density = 2.274732 g / cm^3
# Si number density = 22.799208 Si / 1000 Ang^3
#
#
#
# Elastic Constant Matrix: (Units=GPa)
#
#
# Indices 1 2 3 4 5 6 
#
# 1 189.1684 35.0832 87.9919 0.0000 -19.9046 0.0000
# 2 35.0832 47.7639 21.7150 0.0000 -10.7352 0.0000
# 3 87.9919 21.7150 150.2977 0.0000 -5.8652 0.0000
# 4 0.0000 0.0000 0.0000 30.2122 0.0000 1.4388
# 5 -19.9046 -10.7352 -5.8652 0.0000 70.3955 0.0000
# 6 0.0000 0.0000 0.0000 1.4388 0.0000 22.4168
#
#
#
# Elastic Compliance Matrix: (Units=1/GPa)
#
#
# Indices 1 2 3 4 5 6 
#
# 1 0.008033 -0.003725 -0.004112 0.000000 0.001361 0.000000
# 2 -0.003725 0.024858 -0.001308 0.000000 0.002629 0.000000
# 3 -0.004112 -0.001308 0.009226 0.000000 -0.000593 0.000000
# 4 0.000000 0.000000 0.000000 0.033201 0.000000 -0.002131
# 5 0.001361 0.002629 -0.000593 0.000000 0.014942 0.000000
# 6 0.000000 0.000000 0.000000 -0.002131 0.000000 0.044746
#
#
# Mechanical properties :
#
#
# Convention : Reuss Voigt Hill
#
# Bulk Modulus (GPa) = 41.96782 75.20112 58.58447
# Shear Modulus (GPa) = 31.01017 40.76756 35.88887
#
# Velocity S-wave (km/s) = 3.69201 4.23320 3.97183
# Velocity P-wave (km/s) = 6.05162 7.54645 6.84000
#
# Compressibility (1/GPa) = 0.02382778
#
# Stress axis : x y z
#
# Youngs Moduli (GPa) = 124.48952 40.22862 108.38499
#
# Poissons Ratio (x) = 0.14986 0.44563
# Poissons Ratio (y) = 0.46374 0.14177
# Poissons Ratio (z) = 0.51184 0.05262
#
# Static dielectric constant tensor:
#      x y z
#    x 2.251230 0.000000 0.084970 
#    y 0.000000 2.019380 0.000000 
#    z 0.084970 0.000000 1.935300 
# 
# From -- ./inp_files/88067.got.cif
#   From: 2010.05.17/outbox.cif.g08.bks.cpg/sg13_45_cif.got.tgz:88067.got - 2010.06.03 16:44:36.
