data_PCOD9234530
_publ_section_title
;
Structure prediction by ZEFSAII (Michael W. Deem and Ramdas Pophale) SiO2 
 PCOD9234530
Probable space group: P 2/C
;
_chemical_formula_sum "Si O2"
_cell_formula_units_Z 22
_cell_length_a 17.541878
_cell_length_b 8.352346
_cell_length_c 8.519627
_cell_angle_alpha 90.000000
_cell_angle_beta 131.471423
_cell_angle_gamma 90.000000
_cell_volume 935.304084
_symmetry_space_group_name_H-M "P 2/C"
_symmetry_group_IT_number 13
_symmetry_cell_setting 'monoclinic'
loop_
_space_group_symop_operation_xyz
x,y,z
-x,y,1/2-z
-x,-y,-z
x,-y,1/2+z
loop_
_atom_site_type_symbol
_atom_site_label
_atom_site_fract_x
_atom_site_fract_y
_atom_site_fract_z
Si Si1 0.527051 0.172534 0.471267
Si Si2 0.079860 0.471095 0.478404
Si Si3 0.130204 0.169733 0.112595
Si Si4 0.673794 0.692795 0.702527
Si Si5 0.717694 0.343394 0.634187
Si Si6 0.000000 0.910963 0.750000
O O1 0.500000 0.179663 0.250000
O O2 0.446882 0.280264 0.455728
O O3 0.643178 0.230783 0.632563
O O4 0.500000 0.000000 0.500000
O O5 0.115518 0.655400 0.504592
O O6 0.166827 0.348191 0.645736
O O7 0.000000 0.400857 0.250000
O O8 0.000000 0.500000 0.500000
O O9 0.254173 0.174984 0.284865
O O10 0.069842 0.155817 0.195540
O O11 0.083110 0.028088 0.946832
O O12 0.688040 0.526654 0.630895
O O13 0.705752 0.686355 0.931944
#
# Coordination Sequence:
#
# PCOD9234530 Si02
#       6
#     4   4   4   4   4   2
#     4  10  23  43  67 103 136 175 227 287 349 422
#     4  11  22  39  63  94 132 173 233 283 337 406
#     4  10  22  40  62  92 131 179 230 276 344 410
#     4  10  22  43  66  99 133 179 228 282 351 421
#     4  10  22  41  68  97 138 178 226 289 344 408
#     4  10  22  42  60  90 140 184 222 282 342 428
#
# _framework density 23.521763
#
# number of rings (size 3 to 8) (size 9 to 14) (size 15 to 20)
#    0.000    1.818    0.909    2.727    1.273    4.364 
#    3.273    0.000    0.000    0.000    0.000    0.000 
#    0.000    0.000    0.000    0.000    0.000    0.000 
#
# Total GULP energy -122483.433413 kJ/mol
# GULP energy per Si atom -5567.428791 kJ/mol
# Density = 2.346823 g / cm^3
# Si number density = 23.521763 Si / 1000 Ang^3
#
#
#
# Elastic Constant Matrix: (Units=GPa)
#
#
# Indices 1 2 3 4 5 6 
#
# 1 203.3772 61.1658 53.3425 0.0000 22.7404 0.0000
# 2 61.1658 54.0472 12.4535 0.0000 8.7882 0.0000
# 3 53.3425 12.4535 67.6393 0.0000 16.2533 0.0000
# 4 0.0000 0.0000 0.0000 19.6387 0.0000 10.3321
# 5 22.7404 8.7882 16.2533 0.0000 38.7865 0.0000
# 6 0.0000 0.0000 0.0000 10.3321 0.0000 57.7133
#
#
#
# Elastic Compliance Matrix: (Units=1/GPa)
#
#
# Indices 1 2 3 4 5 6 
#
# 1 0.009102 -0.008906 -0.005272 0.000000 -0.001110 0.000000
# 2 -0.008906 0.028402 0.002319 0.000000 -0.002186 0.000000
# 3 -0.005272 0.002319 0.019903 0.000000 -0.005775 0.000000
# 4 0.000000 0.000000 0.000000 0.056215 0.000000 -0.010064
# 5 -0.001110 -0.002186 -0.005775 0.000000 0.029348 0.000000
# 6 0.000000 0.000000 0.000000 -0.010064 0.000000 0.019129
#
#
# Mechanical properties :
#
#
# Convention : Reuss Voigt Hill
#
# Bulk Modulus (GPa) = 29.68235 64.33190 47.00713
# Shear Modulus (GPa) = 25.37489 36.43448 30.90468
#
# Velocity S-wave (km/s) = 3.28805 3.93996 3.62868
# Velocity P-wave (km/s) = 5.20207 6.93593 6.13060
#
# Compressibility (1/GPa) = 0.03369005
#
# Stress axis : x y z
#
# Youngs Moduli (GPa) = 109.86293 35.20850 50.24483
#
# Poissons Ratio (x) = 0.31356 0.26489
# Poissons Ratio (y) = 0.97843 -0.11654
# Poissons Ratio (z) = 0.57920 -0.08166
#
# Static dielectric constant tensor:
#      x y z
#    x 2.249930 0.000000 0.553780 
#    y 0.000000 2.047570 0.000000 
#    z 0.553780 0.000000 2.587060 
# 
# From -- ./inp_files/21256.got.cif
#   From: 2010.05.17/outbox.cif.g08.bks.cpg/sg13_11_cif.got.tgz:21256.got - 2010.06.03 16:44:36.
