data_PCOD9234197
_publ_section_title
;
Structure prediction by ZEFSAII (Michael W. Deem and Ramdas Pophale) SiO2 
 PCOD9234197
Probable space group: P 2/C
;
_chemical_formula_sum "Si O2"
_cell_formula_units_Z 26
_cell_length_a 15.191118
_cell_length_b 10.127707
_cell_length_c 13.603415
_cell_angle_alpha 90.000000
_cell_angle_beta 41.613235
_cell_angle_gamma 90.000000
_cell_volume 1389.893727
_symmetry_space_group_name_H-M "P 2/C"
_symmetry_group_IT_number 13
_symmetry_cell_setting 'monoclinic'
loop_
_space_group_symop_operation_xyz
x,y,z
-x,y,1/2-z
-x,-y,-z
x,-y,1/2+z
loop_
_atom_site_type_symbol
_atom_site_label
_atom_site_fract_x
_atom_site_fract_y
_atom_site_fract_z
Si Si1 0.186571 0.032889 0.668625
Si Si2 0.151987 0.654541 0.859759
Si Si3 0.252595 0.274425 0.074799
Si Si4 0.286499 0.868371 0.277722
Si Si5 0.884104 0.086685 0.982313
Si Si6 0.500000 0.814610 0.250000
Si Si7 0.146941 0.384758 0.967101
O O1 0.290912 0.084870 0.661673
O O2 0.189263 0.102054 0.560735
O O3 0.039914 0.066599 0.832156
O O4 0.203269 0.876616 0.634168
O O5 0.247062 0.659217 0.685773
O O6 0.004062 0.637315 0.939700
O O7 0.148968 0.791790 0.920305
O O8 0.181319 0.533687 0.908088
O O9 0.163831 0.348203 0.067412
O O10 0.395119 0.265913 0.903118
O O11 0.413509 0.891949 0.240989
O O12 0.240946 0.717269 0.329144
O O13 0.170182 0.954330 0.423502
#
# Coordination Sequence:
#
# PCOD9234197 Si02
#       7
#     4   4   4   4   4   2   4
#     4  11  21  34  65  89 126 156 197 259 312 366
#     4  11  22  38  61  94 128 156 195 261 315 369
#     4  11  22  40  61  87 119 170 203 253 306 360
#     4  11  20  40  59  88 121 164 209 252 297 370
#     4  11  21  35  61  98 121 154 201 247 321 380
#     4  10  24  40  62  90 118 168 224 244 296 370
#     4  10  22  38  60  91 127 154 202 250 314 385
#
# _framework density 18.706467
#
# number of rings (size 3 to 8) (size 9 to 14) (size 15 to 20)
#    0.000    1.231    6.154    1.846    2.154    1.846 
#    2.769    3.077    0.000    3.692    0.000    0.000 
#    0.000    0.000    0.000    0.000    0.000    0.000 
#
# Total GULP energy -145072.733353 kJ/mol
# GULP energy per Si atom -5579.720514 kJ/mol
# Density = 1.866389 g / cm^3
# Si number density = 18.706467 Si / 1000 Ang^3
#
#
#
# Elastic Constant Matrix: (Units=GPa)
#
#
# Indices 1 2 3 4 5 6 
#
# 1 108.5441 25.4315 45.3226 0.0000 21.2101 0.0000
# 2 25.4315 74.3476 22.5064 0.0000 0.7024 0.0000
# 3 45.3226 22.5064 63.4050 0.0000 21.5949 0.0000
# 4 0.0000 0.0000 0.0000 16.5851 0.0000 13.1409
# 5 21.2101 0.7024 21.5949 0.0000 18.8377 0.0000
# 6 0.0000 0.0000 0.0000 13.1409 0.0000 26.4847
#
#
#
# Elastic Compliance Matrix: (Units=1/GPa)
#
#
# Indices 1 2 3 4 5 6 
#
# 1 0.014167 -0.002929 -0.006056 0.000000 -0.008899 0.000000
# 2 -0.002929 0.016699 -0.007784 0.000000 0.011598 0.000000
# 3 -0.006056 -0.007784 0.033536 0.000000 -0.031336 0.000000
# 4 0.000000 0.000000 0.000000 0.099355 0.000000 -0.049297
# 5 -0.008899 0.011598 -0.031336 0.000000 0.098595 0.000000
# 6 0.000000 0.000000 0.000000 -0.049297 0.000000 0.062217
#
#
# Mechanical properties :
#
#
# Convention : Reuss Voigt Hill
#
# Bulk Modulus (GPa) = 32.40026 48.09085 40.24556
# Shear Modulus (GPa) = 13.57240 22.58391 18.07815
#
# Velocity S-wave (km/s) = 2.69652 3.47836 3.11209
# Velocity P-wave (km/s) = 5.20124 6.47271 5.87149
#
# Compressibility (1/GPa) = 0.03086395
#
# Stress axis : x y z
#
# Youngs Moduli (GPa) = 70.58862 59.88389 29.81835
#
# Poissons Ratio (x) = 0.17537 0.18058
# Poissons Ratio (y) = 0.20672 0.23212
# Poissons Ratio (z) = 0.42749 0.46616
#
# Static dielectric constant tensor:
#      x y z
#    x 1.699090 0.000000 0.006090 
#    y 0.000000 1.625870 0.000000 
#    z 0.006090 0.000000 1.680920 
# 
# From -- ./inp_files/53324.got.cif
#   From: 2010.05.17/outbox.cif.g08.bks.cpg/sg13_27_cif.got.tgz:53324.got - 2010.06.03 16:44:36.
