data_PCOD9234104
_publ_section_title
;
Structure prediction by ZEFSAII (Michael W. Deem and Ramdas Pophale) SiO2 
 PCOD9234104
Probable space group: P 2/C
;
_chemical_formula_sum "Si O2"
_cell_formula_units_Z 12
_cell_length_a 16.755865
_cell_length_b 4.244442
_cell_length_c 7.825852
_cell_angle_alpha 90.000000
_cell_angle_beta 135.787133
_cell_angle_gamma 90.000000
_cell_volume 388.110146
_symmetry_space_group_name_H-M "P 2/C"
_symmetry_group_IT_number 13
_symmetry_cell_setting 'monoclinic'
loop_
_space_group_symop_operation_xyz
x,y,z
-x,y,1/2-z
-x,-y,-z
x,-y,1/2+z
loop_
_atom_site_type_symbol
_atom_site_label
_atom_site_fract_x
_atom_site_fract_y
_atom_site_fract_z
Si Si1 0.665770 0.753944 0.777622
Si Si2 0.500000 0.684281 0.250000
Si Si3 0.830910 0.801275 0.757533
Si Si4 0.000000 0.217016 0.250000
O O1 0.574688 0.884470 0.498351
O O2 0.588476 0.524908 0.774102
O O3 0.755604 0.606698 0.777987
O O4 0.743275 0.986584 0.009890
O O5 0.915551 0.007782 0.004006
O O6 0.914454 0.621567 0.754276
#
# Coordination Sequence:
#
# PCOD9234104 Si02
#       4
#     4   2   4   2
#     4  10  22  37  58  82 114 150 186 228 276 327
#     4  10  24  40  52  80 124 152 176 226 284 330
#     4   9  18  35  62  86 106 143 192 231 270 328
#     4   8  16  32  60  88 108 130 188 248 272 306
#
# _framework density 30.919060999999999
#
# number of rings (size 3 to 8) (size 9 to 14) (size 15 to 20)
#    0.000    2.667    0.000    0.000    0.000   14.667 
#    0.000    0.000    0.000  100.000    0.000    0.000 
#    0.000    0.000    0.000    0.000    0.000    0.000 
#
# Total GULP energy -67137.735447 kJ/mol
# GULP energy per Si atom -5594.811287 kJ/mol
# Density = 3.084869 g / cm^3
# Si number density = 30.919061 Si / 1000 Ang^3
#
#
#
# Elastic Constant Matrix: (Units=GPa)
#
#
# Indices 1 2 3 4 5 6 
#
# 1 412.5530 64.0339 5.7079 0.0000 65.5500 0.0000
# 2 64.0339 65.2677 86.5626 0.0000 1.4165 0.0000
# 3 5.7079 86.5626 374.2691 0.0000 -53.1740 0.0000
# 4 0.0000 0.0000 0.0000 47.8433 0.0000 59.8451
# 5 65.5500 1.4165 -53.1740 0.0000 54.2040 0.0000
# 6 0.0000 0.0000 0.0000 59.8451 0.0000 -68.3307
#
#
#
# Elastic Compliance Matrix: (Units=1/GPa)
#
#
# Indices 1 2 3 4 5 6 
#
# 1 0.003666 -0.003843 0.000252 0.000000 -0.004085 0.000000
# 2 -0.003843 0.028291 -0.006890 0.000000 -0.002851 0.000000
# 3 0.000252 -0.006890 0.004931 0.000000 0.004712 0.000000
# 4 0.000000 0.000000 0.000000 0.009974 0.000000 0.008736
# 5 -0.004085 -0.002851 0.004712 0.000000 0.028086 0.000000
# 6 0.000000 0.000000 0.000000 0.008736 0.000000 -0.006984
#
#
# Mechanical properties :
#
#
# Convention : Reuss Voigt Hill
#
# Bulk Modulus (GPa) = 62.78281 129.41096 96.09688
# Shear Modulus (GPa) = 53.05895 53.12902 53.09399
#
# Velocity S-wave (km/s) = 4.14703 4.14977 4.14840
# Velocity P-wave (km/s) = 6.57876 8.05645 7.35481
#
# Compressibility (1/GPa) = 0.01592793
#
# Stress axis : x y z
#
# Youngs Moduli (GPa) = 272.77573 35.34650 202.79982
#
# Poissons Ratio (x) = 0.13583 -0.05120
# Poissons Ratio (y) = 1.04826 1.39724
# Poissons Ratio (z) = -0.06887 0.24353
#
# Static dielectric constant tensor:
#      x y z
#    x 2.392690 0.000000 0.042650 
#    y 0.000000 2.308260 0.000000 
#    z 0.042650 0.000000 2.390040 
# 
# From -- ./inp_files/10570.got.cif
#   From: 2010.05.17/outbox.cif.g08.bks.cpg/sg13_6_cif.got.tgz:10570.got - 2010.06.03 16:44:36.
