data_PCOD9234113
_publ_section_title
;
Structure prediction by ZEFSAII (Michael W. Deem and Ramdas Pophale) SiO2 
 PCOD9234113
Probable space group: P 2/C
;
_chemical_formula_sum "Si O2"
_cell_formula_units_Z 32
_cell_length_a 19.277525
_cell_length_b 14.538725
_cell_length_c 8.522750
_cell_angle_alpha 90.000000
_cell_angle_beta 45.989185
_cell_angle_gamma 90.000000
_cell_volume 1717.956875
_symmetry_space_group_name_H-M "P 2/C"
_symmetry_group_IT_number 13
_symmetry_cell_setting 'monoclinic'
loop_
_space_group_symop_operation_xyz
x,y,z
-x,y,1/2-z
-x,-y,-z
x,-y,1/2+z
loop_
_atom_site_type_symbol
_atom_site_label
_atom_site_fract_x
_atom_site_fract_y
_atom_site_fract_z
Si Si1 0.102737 0.874632 0.631980
Si Si2 0.095352 0.924372 0.010074
Si Si3 0.464657 0.305718 0.487519
Si Si4 0.576258 0.959650 0.999396
Si Si5 0.310751 0.848261 0.174800
Si Si6 0.340203 0.635056 0.697055
Si Si7 0.601453 0.465466 0.688446
Si Si8 0.272850 0.181212 0.373625
O O1 0.097729 0.900984 0.823059
O O2 0.210875 0.837589 0.428075
O O3 0.000000 0.825714 0.750000
O O4 0.101116 0.966222 0.526621
O O5 0.182069 0.877433 0.964676
O O6 0.000000 0.893194 0.250000
O O7 0.394780 0.217957 0.610194
O O8 0.560520 0.306245 0.442813
O O9 0.414263 0.397256 0.638254
O O10 0.500000 0.310113 0.250000
O O11 0.639235 0.875921 0.839880
O O12 0.649043 0.046959 0.909692
O O13 0.500000 0.929423 0.250000
O O14 0.500000 0.000000 0.000000
O O15 0.289116 0.815794 0.033174
O O16 0.354662 0.558835 0.810429
O O17 0.333536 0.584156 0.542607
O O18 0.261799 0.713612 0.837734
O O19 0.500000 0.477830 0.750000
#
# Coordination Sequence:
#
# PCOD9234113 Si02
#       8
#     4   4   4   4   4   4   4   4
#     4  11  23  41  66  87 118 159 204 254 306 353
#     4  11  23  42  65  89 118 154 206 259 304 352
#     4  11  20  37  58  84 118 168 203 250 294 358
#     4  12  25  39  52  79 124 173 205 237 283 350
#     4  12  24  39  59  84 124 165 207 248 301 351
#     4  11  22  38  59  87 122 160 207 254 305 360
#     4  10  22  37  60  83 115 161 207 259 312 349
#     4  12  25  39  60  90 120 163 209 249 299 362
#
# _framework density 18.626776
#
# number of rings (size 3 to 8) (size 9 to 14) (size 15 to 20)
#    0.000    0.750    3.750    6.750    3.500    1.500 
#    0.000    0.000    0.000    0.000    0.000    1.750 
#    0.000    0.000    0.000    0.000    0.000    0.000 
#
# Total GULP energy -178489.718858 kJ/mol
# GULP energy per Si atom -5577.803714 kJ/mol
# Density = 1.858438 g / cm^3
# Si number density = 18.626776 Si / 1000 Ang^3
#
#
#
# Elastic Constant Matrix: (Units=GPa)
#
#
# Indices 1 2 3 4 5 6 
#
# 1 41.4220 9.6541 28.4880 0.0000 -3.8125 0.0000
# 2 9.6541 95.5816 31.8436 0.0000 -2.6961 0.0000
# 3 28.4880 31.8436 124.6763 0.0000 4.9284 0.0000
# 4 0.0000 0.0000 0.0000 65.1363 0.0000 8.3167
# 5 -3.8125 -2.6961 4.9284 0.0000 30.5913 0.0000
# 6 0.0000 0.0000 0.0000 8.3167 0.0000 13.4700
#
#
#
# Elastic Compliance Matrix: (Units=1/GPa)
#
#
# Indices 1 2 3 4 5 6 
#
# 1 0.029347 -0.000586 -0.006741 0.000000 0.004692 0.000000
# 2 -0.000586 0.011515 -0.002863 0.000000 0.001403 0.000000
# 3 -0.006741 -0.002863 0.010402 0.000000 -0.002768 0.000000
# 4 0.000000 0.000000 0.000000 0.016666 0.000000 -0.010290
# 5 0.004692 0.001403 -0.002768 0.000000 0.033843 0.000000
# 6 0.000000 0.000000 0.000000 -0.010290 0.000000 0.080593
#
#
# Mechanical properties :
#
#
# Convention : Reuss Voigt Hill
#
# Bulk Modulus (GPa) = 32.37989 44.62791 38.50390
# Shear Modulus (GPa) = 23.46986 34.61912 29.04449
#
# Velocity S-wave (km/s) = 3.55351 4.31579 3.95306
# Velocity P-wave (km/s) = 5.85302 6.98897 6.44607
#
# Compressibility (1/GPa) = 0.03088337
#
# Stress axis : x y z
#
# Youngs Moduli (GPa) = 34.07557 86.84549 96.13800
#
# Poissons Ratio (x) = 0.05087 0.64810
# Poissons Ratio (y) = 0.01996 0.27520
# Poissons Ratio (z) = 0.22972 0.24860
#
# Static dielectric constant tensor:
#      x y z
#    x 1.655290 0.000000 -0.012290 
#    y 0.000000 1.708280 0.000000 
#    z -0.012290 0.000000 1.671930 
# 
# From -- ./inp_files/23545.got.cif
#   From: 2010.05.17/outbox.cif.g08.bks.cpg/sg13_12_cif.got.tgz:23545.got - 2010.06.03 16:44:36.
