data_PCOD9234749
_publ_section_title
;
Structure prediction by ZEFSAII (Michael W. Deem and Ramdas Pophale) SiO2 
 PCOD9234749
Probable space group: P 2/C
;
_chemical_formula_sum "Si O2"
_cell_formula_units_Z 26
_cell_length_a 18.721241
_cell_length_b 7.909585
_cell_length_c 10.889233
_cell_angle_alpha 90.000000
_cell_angle_beta 50.687349
_cell_angle_gamma 90.000000
_cell_volume 1247.551290
_symmetry_space_group_name_H-M "P 2/C"
_symmetry_group_IT_number 13
_symmetry_cell_setting 'monoclinic'
loop_
_space_group_symop_operation_xyz
x,y,z
-x,y,1/2-z
-x,-y,-z
x,-y,1/2+z
loop_
_atom_site_type_symbol
_atom_site_label
_atom_site_fract_x
_atom_site_fract_y
_atom_site_fract_z
Si Si1 0.269654 0.433137 0.415157
Si Si2 0.909225 0.795948 0.401641
Si Si3 0.619479 0.061077 0.998970
Si Si4 0.763304 0.645276 0.290911
Si Si5 0.000000 0.114885 0.250000
Si Si6 0.973280 0.304282 0.523631
Si Si7 0.592267 0.149623 0.293021
O O1 0.186316 0.297334 0.493783
O O2 0.252833 0.567210 0.326018
O O3 0.261346 0.481467 0.568419
O O4 0.363545 0.330597 0.286703
O O5 0.000000 0.695051 0.250000
O O6 0.948048 0.809008 0.497160
O O7 0.916171 0.978292 0.330173
O O8 0.621876 0.030203 0.144063
O O9 0.518633 0.145306 0.086523
O O10 0.698073 0.195148 0.882499
O O11 0.625001 0.913813 0.891145
O O12 0.869420 0.702697 0.187507
O O13 0.972851 0.234959 0.388468
O O14 0.000000 0.500000 0.500000
#
# Coordination Sequence:
#
# PCOD9234749 Si02
#       7
#     4   4   4   4   2   4   4
#     4  11  23  40  59  89 121 162 200 257 300 369
#     4  10  22  41  58  82 122 155 206 247 303 361
#     4   9  20  40  64  90 118 156 200 251 311 372
#     4  11  24  38  61  88 121 161 204 246 312 363
#     4  10  26  38  62  86 116 166 202 254 310 358
#     4  12  24  40  62  87 123 163 207 253 307 366
#     4   9  20  40  63  88 122 155 197 255 309 366
#
# _framework density 20.840827000000001
#
# number of rings (size 3 to 8) (size 9 to 14) (size 15 to 20)
#    0.462    1.231    3.077    0.462    5.385    1.846 
#    2.769    0.000    0.000    0.000    0.000    0.000 
#    0.000    0.000    0.000    0.000    0.000    0.000 
#
# Total GULP energy -144826.528444 kJ/mol
# GULP energy per Si atom -5570.251094 kJ/mol
# Density = 2.079339 g / cm^3
# Si number density = 20.840827 Si / 1000 Ang^3
#
#
#
# Elastic Constant Matrix: (Units=GPa)
#
#
# Indices 1 2 3 4 5 6 
#
# 1 37.2296 2.6682 18.3230 0.0000 6.5609 0.0000
# 2 2.6682 46.7828 25.9459 0.0000 -7.7843 0.0000
# 3 18.3230 25.9459 101.6359 0.0000 -3.8228 0.0000
# 4 0.0000 0.0000 0.0000 26.6249 0.0000 9.1653
# 5 6.5609 -7.7843 -3.8228 0.0000 28.6073 0.0000
# 6 0.0000 0.0000 0.0000 9.1653 0.0000 27.2697
#
#
#
# Elastic Compliance Matrix: (Units=1/GPa)
#
#
# Indices 1 2 3 4 5 6 
#
# 1 0.031174 0.000223 -0.005974 0.000000 -0.007887 0.000000
# 2 0.000223 0.025955 -0.006435 0.000000 0.006152 0.000000
# 3 -0.005974 -0.006435 0.012608 0.000000 0.001304 0.000000
# 4 0.000000 0.000000 0.000000 0.042473 0.000000 -0.014275
# 5 -0.007887 0.006152 0.001304 0.000000 0.038613 0.000000
# 6 0.000000 0.000000 0.000000 -0.014275 0.000000 0.041469
#
#
# Mechanical properties :
#
#
# Convention : Reuss Voigt Hill
#
# Bulk Modulus (GPa) = 22.04307 31.05805 26.55056
# Shear Modulus (GPa) = 21.57173 25.74778 23.65976
#
# Velocity S-wave (km/s) = 3.22074 3.51871 3.37302
# Velocity P-wave (km/s) = 4.94275 5.60743 5.28555
#
# Compressibility (1/GPa) = 0.04536574
#
# Stress axis : x y z
#
# Youngs Moduli (GPa) = 32.07769 38.52831 79.31679
#
# Poissons Ratio (x) = -0.00858 0.47381
# Poissons Ratio (y) = -0.00714 0.51037
# Poissons Ratio (z) = 0.19162 0.24791
#
# Static dielectric constant tensor:
#      x y z
#    x 1.844100 0.000000 0.084560 
#    y 0.000000 1.716840 0.000000 
#    z 0.084560 0.000000 1.776550 
# 
# From -- ./inp_files/38580.got.cif
#   From: 2010.05.17/outbox.cif.g08.bks.cpg/sg13_20_cif.got.tgz:38580.got - 2010.06.03 16:44:36.
