data_PCOD9234924
_publ_section_title
;
Structure prediction by ZEFSAII (Michael W. Deem and Ramdas Pophale) SiO2 
 PCOD9234924
Probable space group: P 2/C
;
_chemical_formula_sum "Si O2"
_cell_formula_units_Z 26
_cell_length_a 10.242098
_cell_length_b 7.282509
_cell_length_c 20.107609
_cell_angle_alpha 90.000000
_cell_angle_beta 55.967130
_cell_angle_gamma 90.000000
_cell_volume 1242.900733
_symmetry_space_group_name_H-M "P 2/C"
_symmetry_group_IT_number 13
_symmetry_cell_setting 'monoclinic'
loop_
_space_group_symop_operation_xyz
x,y,z
-x,y,1/2-z
-x,-y,-z
x,-y,1/2+z
loop_
_atom_site_type_symbol
_atom_site_label
_atom_site_fract_x
_atom_site_fract_y
_atom_site_fract_z
Si Si1 0.246619 0.920047 0.750803
Si Si2 0.426279 0.117473 0.580588
Si Si3 0.401550 0.547075 0.717174
Si Si4 0.161023 0.711521 0.342994
Si Si5 0.821674 0.580976 0.400515
Si Si6 0.000000 0.680996 0.750000
Si Si7 0.329360 0.614842 0.431990
O O1 0.355796 0.754737 0.744235
O O2 0.087430 0.815019 0.776407
O O3 0.322033 0.001559 0.662034
O O4 0.218144 0.083420 0.810355
O O5 0.314242 0.279669 0.584286
O O6 0.572796 0.202582 0.579375
O O7 0.500000 0.000000 0.500000
O O8 0.500000 0.464703 0.750000
O O9 0.247755 0.420230 0.764185
O O10 0.527028 0.528580 0.622897
O O11 0.216010 0.645336 0.400571
O O12 0.975977 0.690653 0.381994
O O13 0.878682 0.445514 0.325550
O O14 0.762786 0.456889 0.478174
#
# Coordination Sequence:
#
# PCOD9234924 Si02
#       7
#     4   4   4   4   4   2   4
#     4  12  23  41  69 101 135 175 235 278 340 417
#     4  12  25  42  68 103 139 181 233 284 342 410
#     4  10  22  41  69  99 134 177 220 278 351 401
#     4  11  24  45  70 103 134 182 228 290 342 408
#     4  12  24  47  69  99 143 182 231 286 344 416
#     4  12  24  42  70 100 136 190 220 278 356 406
#     4  11  24  45  70  99 142 179 231 288 348 408
#
# _framework density 20.918806
#
# number of rings (size 3 to 8) (size 9 to 14) (size 15 to 20)
#    0.000    0.615    3.077    5.538    2.154    0.000 
#    0.000    1.538    0.000    0.000    0.000    0.000 
#    0.000    0.000    0.000    0.000    0.000    0.000 
#
# Total GULP energy -145287.355956 kJ/mol
# GULP energy per Si atom -5587.975229 kJ/mol
# Density = 2.087119 g / cm^3
# Si number density = 20.918806 Si / 1000 Ang^3
#
#
#
# Elastic Constant Matrix: (Units=GPa)
#
#
# Indices 1 2 3 4 5 6 
#
# 1 90.9621 10.0220 16.5220 0.0000 -2.7361 0.0000
# 2 10.0220 93.2991 28.4573 0.0000 -10.3661 0.0000
# 3 16.5220 28.4573 106.3354 0.0000 -4.7361 0.0000
# 4 0.0000 0.0000 0.0000 51.1538 0.0000 -3.3878
# 5 -2.7361 -10.3661 -4.7361 0.0000 13.1904 0.0000
# 6 0.0000 0.0000 0.0000 -3.3878 0.0000 34.0096
#
#
#
# Elastic Compliance Matrix: (Units=1/GPa)
#
#
# Indices 1 2 3 4 5 6 
#
# 1 0.011381 -0.000602 -0.001548 0.000000 0.001332 0.000000
# 2 -0.000602 0.012641 -0.002899 0.000000 0.008769 0.000000
# 3 -0.001548 -0.002899 0.010472 0.000000 0.001161 0.000000
# 4 0.000000 0.000000 0.000000 0.019679 0.000000 0.001960
# 5 0.001332 0.008769 0.001161 0.000000 0.083397 0.000000
# 6 0.000000 0.000000 0.000000 0.001960 0.000000 0.029599
#
#
# Mechanical properties :
#
#
# Convention : Reuss Voigt Hill
#
# Bulk Modulus (GPa) = 40.98973 44.51101 42.75037
# Shear Modulus (GPa) = 26.96879 35.37713 31.17296
#
# Velocity S-wave (km/s) = 3.59446 4.11684 3.86448
# Velocity P-wave (km/s) = 6.07158 6.62737 6.35555
#
# Compressibility (1/GPa) = 0.02439635
#
# Stress axis : x y z
#
# Youngs Moduli (GPa) = 87.86442 79.10513 95.49092
#
# Poissons Ratio (x) = 0.04766 0.14780
# Poissons Ratio (y) = 0.05294 0.27682
# Poissons Ratio (z) = 0.13600 0.22932
#
# Static dielectric constant tensor:
#      x y z
#    x 1.797420 0.000000 -0.007420 
#    y 0.000000 1.732390 0.000000 
#    z -0.007420 0.000000 1.766060 
# 
# From -- ./inp_files/85776.got.cif
#   From: 2010.05.17/outbox.cif.g08.bks.cpg/sg13_43_cif.got.tgz:85776.got - 2010.06.03 16:44:36.
