data_PCOD9234357
_publ_section_title
;
Structure prediction by ZEFSAII (Michael W. Deem and Ramdas Pophale) SiO2 
 PCOD9234357
Probable space group: P 2/C
;
_chemical_formula_sum "Si O2"
_cell_formula_units_Z 18
_cell_length_a 14.426215
_cell_length_b 10.668662
_cell_length_c 12.308022
_cell_angle_alpha 90.000000
_cell_angle_beta 31.426292
_cell_angle_gamma 90.000000
_cell_volume 987.694632
_symmetry_space_group_name_H-M "P 2/C"
_symmetry_group_IT_number 13
_symmetry_cell_setting 'monoclinic'
loop_
_space_group_symop_operation_xyz
x,y,z
-x,y,1/2-z
-x,-y,-z
x,-y,1/2+z
loop_
_atom_site_type_symbol
_atom_site_label
_atom_site_fract_x
_atom_site_fract_y
_atom_site_fract_z
Si Si1 0.000000 0.521770 0.250000
Si Si2 0.710941 0.145703 0.806730
Si Si3 0.710491 0.853975 0.772083
Si Si4 0.999838 0.277090 0.127035
Si Si5 0.290515 0.265827 0.459438
O O1 0.000205 0.426342 0.147837
O O2 0.829922 0.611073 0.419979
O O3 0.829647 0.229585 0.608895
O O4 0.754708 0.999803 0.745438
O O5 0.500284 0.161916 0.996380
O O6 0.746731 0.186626 0.894746
O O7 0.828752 0.769980 0.733072
O O8 0.746649 0.813024 0.612154
O O9 0.000000 0.223741 0.250000
O O10 0.500000 0.297134 0.250000
#
# Coordination Sequence:
#
# PCOD9234357 Si02
#       5
#     2   4   4   4   4
#     4  10  24  40  58  84 126 158 200 248 278 352
#     4  10  22  40  64  90 120 153 194 249 301 353
#     4  10  22  40  64  90 120 153 194 249 301 353
#     4  10  24  39  58  88 118 160 199 235 291 350
#     4  10  22  39  61  89 117 156 201 246 298 346
#
# _framework density 18.224254999999999
#
# number of rings (size 3 to 8) (size 9 to 14) (size 15 to 20)
#    0.667    1.333    0.000    2.000    3.111    6.222 
#    0.000    4.444    0.000    0.000    0.000    0.000 
#    0.000    0.000    0.000    0.000    0.000    0.000 
#
# Total GULP energy -100462.456002 kJ/mol
# GULP energy per Si atom -5581.247556 kJ/mol
# Density = 1.818278 g / cm^3
# Si number density = 18.224255 Si / 1000 Ang^3
#
#
#
# Elastic Constant Matrix: (Units=GPa)
#
#
# Indices 1 2 3 4 5 6 
#
# 1 138.2084 88.6381 87.9276 0.0000 19.0862 0.0000
# 2 88.6381 173.5575 85.1101 0.0000 0.7875 0.0000
# 3 87.9276 85.1101 105.0044 0.0000 14.8668 0.0000
# 4 0.0000 0.0000 0.0000 41.5895 0.0000 1.2621
# 5 19.0862 0.7875 14.8668 0.0000 20.6676 0.0000
# 6 0.0000 0.0000 0.0000 1.2621 0.0000 43.0604
#
#
#
# Elastic Compliance Matrix: (Units=1/GPa)
#
#
# Indices 1 2 3 4 5 6 
#
# 1 0.017384 -0.003806 -0.010266 0.000000 -0.008525 0.000000
# 2 -0.003806 0.011064 -0.006925 0.000000 0.008074 0.000000
# 3 -0.010266 -0.006925 0.024887 0.000000 -0.008158 0.000000
# 4 0.000000 0.000000 0.000000 0.024066 0.000000 -0.000705
# 5 -0.008525 0.008074 -0.008158 0.000000 0.061818 0.000000
# 6 0.000000 0.000000 0.000000 -0.000705 0.000000 0.023244
#
#
# Mechanical properties :
#
#
# Convention : Reuss Voigt Hill
#
# Bulk Modulus (GPa) = 88.14891 104.45799 96.30345
# Shear Modulus (GPa) = 24.01119 31.40314 27.70716
#
# Velocity S-wave (km/s) = 3.63373 4.15559 3.90339
# Velocity P-wave (km/s) = 8.12892 8.97038 8.56000
#
# Compressibility (1/GPa) = 0.01134444
#
# Stress axis : x y z
#
# Youngs Moduli (GPa) = 57.52326 90.37991 40.18147
#
# Poissons Ratio (x) = 0.34395 0.41248
# Poissons Ratio (y) = 0.21891 0.27824
# Poissons Ratio (z) = 0.59051 0.62584
#
# Static dielectric constant tensor:
#      x y z
#    x 1.616590 0.000000 -0.003570 
#    y 0.000000 1.594330 0.000000 
#    z -0.003570 0.000000 1.619320 
# 
# From -- ./inp_files/27821.got.cif
#   From: 2010.05.17/outbox.cif.g08.bks.cpg/sg13_14_cif.got.tgz:27821.got - 2010.06.03 16:44:36.
