data_PCOD9234292
_publ_section_title
;
Structure prediction by ZEFSAII (Michael W. Deem and Ramdas Pophale) SiO2 
 PCOD9234292
Probable space group: P 2/C
;
_chemical_formula_sum "Si O2"
_cell_formula_units_Z 20
_cell_length_a 15.807368
_cell_length_b 9.618833
_cell_length_c 20.630481
_cell_angle_alpha 90.000000
_cell_angle_beta 162.370801
_cell_angle_gamma 90.000000
_cell_volume 950.007278
_symmetry_space_group_name_H-M "P 2/C"
_symmetry_group_IT_number 13
_symmetry_cell_setting 'monoclinic'
loop_
_space_group_symop_operation_xyz
x,y,z
-x,y,1/2-z
-x,-y,-z
x,-y,1/2+z
loop_
_atom_site_type_symbol
_atom_site_label
_atom_site_fract_x
_atom_site_fract_y
_atom_site_fract_z
Si Si1 0.000000 0.022251 0.250000
Si Si2 0.208475 0.551757 0.097247
Si Si3 0.527838 0.242316 0.909712
Si Si4 0.792609 0.489359 0.176746
Si Si5 0.902822 0.207441 0.784323
Si Si6 0.500000 0.316307 0.250000
O O1 0.267367 0.118592 0.460037
O O2 0.903271 0.925298 0.238794
O O3 0.341756 0.696182 0.215830
O O4 0.436748 0.428372 0.260323
O O5 0.000000 0.500000 0.000000
O O6 0.033293 0.557286 0.902916
O O7 0.319262 0.205862 0.818111
O O8 0.722385 0.372301 0.073509
O O9 0.850654 0.651086 0.205043
O O10 0.500000 0.500000 0.000000
O O11 0.220207 0.227911 0.040775
#
# Coordination Sequence:
#
# PCOD9234292 Si02
#       6
#     2   4   4   4   4   2
#     4  12  28  40  66  94 144 188 214 262 340 414
#     4  11  20  39  68 103 128 162 217 293 332 377
#     4  11  24  45  67  98 135 174 225 280 334 391
#     4   9  19  38  71  97 122 165 226 279 326 382
#     4  10  23  45  64  96 132 175 226 268 332 409
#     4  10  22  38  70 102 126 166 230 276 340 394
#
# _framework density 21.052468999999999
#
# number of rings (size 3 to 8) (size 9 to 14) (size 15 to 20)
#    0.000    1.600    6.000    0.600    8.400    0.000 
#    3.600    1.000    0.000    0.000    0.000    0.000 
#    0.000    0.000    0.000    0.000    0.000    0.000 
#
# Total GULP energy -111591.541967 kJ/mol
# GULP energy per Si atom -5579.577098 kJ/mol
# Density = 2.100455 g / cm^3
# Si number density = 21.052469 Si / 1000 Ang^3
#
#
#
# Elastic Constant Matrix: (Units=GPa)
#
#
# Indices 1 2 3 4 5 6 
#
# 1 59.6845 25.3860 32.6719 0.0000 14.6645 0.0000
# 2 25.3860 124.9009 49.8243 0.0000 -6.3999 0.0000
# 3 32.6719 49.8243 125.5657 0.0000 13.4164 0.0000
# 4 0.0000 0.0000 0.0000 39.2396 0.0000 6.5367
# 5 14.6645 -6.3999 13.4164 0.0000 39.0067 0.0000
# 6 0.0000 0.0000 0.0000 6.5367 0.0000 36.6464
#
#
#
# Elastic Compliance Matrix: (Units=1/GPa)
#
#
# Indices 1 2 3 4 5 6 
#
# 1 0.022043 -0.003456 -0.003549 0.000000 -0.007633 0.000000
# 2 -0.003456 0.010397 -0.003683 0.000000 0.004272 0.000000
# 3 -0.003549 -0.003683 0.010662 0.000000 -0.002937 0.000000
# 4 0.000000 0.000000 0.000000 0.026265 0.000000 -0.004685
# 5 -0.007633 0.004272 -0.002937 0.000000 0.030218 0.000000
# 6 0.000000 0.000000 0.000000 -0.004685 0.000000 0.028123
#
#
# Mechanical properties :
#
#
# Convention : Reuss Voigt Hill
#
# Bulk Modulus (GPa) = 46.02393 58.43506 52.22949
# Shear Modulus (GPa) = 31.98482 36.46312 34.22397
#
# Velocity S-wave (km/s) = 3.90204 4.16626 4.03631
# Velocity P-wave (km/s) = 6.49694 7.13868 6.82535
#
# Compressibility (1/GPa) = 0.02172783
#
# Stress axis : x y z
#
# Youngs Moduli (GPa) = 45.36659 96.18511 93.78732
#
# Poissons Ratio (x) = 0.33239 0.33282
# Poissons Ratio (y) = 0.15677 0.34538
# Poissons Ratio (z) = 0.16099 0.35421
#
# Static dielectric constant tensor:
#      x y z
#    x 1.849870 0.000000 0.007130 
#    y 0.000000 1.756900 0.000000 
#    z 0.007130 0.000000 1.784120 
# 
# From -- ./inp_files/45939.got.cif
#   From: 2010.05.17/outbox.cif.g08.bks.cpg/sg13_23_cif.got.tgz:45939.got - 2010.06.03 16:44:36.
