data_PCOD9234808
_publ_section_title
;
Structure prediction by ZEFSAII (Michael W. Deem and Ramdas Pophale) SiO2 
 PCOD9234808
Probable space group: P 2/C
;
_chemical_formula_sum "Si O2"
_cell_formula_units_Z 16
_cell_length_a 12.786894
_cell_length_b 11.660118
_cell_length_c 15.169586
_cell_angle_alpha 90.000000
_cell_angle_beta 161.926448
_cell_angle_gamma 90.000000
_cell_volume 701.675348
_symmetry_space_group_name_H-M "P 2/C"
_symmetry_group_IT_number 13
_symmetry_cell_setting 'monoclinic'
loop_
_space_group_symop_operation_xyz
x,y,z
-x,y,1/2-z
-x,-y,-z
x,-y,1/2+z
loop_
_atom_site_type_symbol
_atom_site_label
_atom_site_fract_x
_atom_site_fract_y
_atom_site_fract_z
Si Si1 0.785100 0.885607 0.310692
Si Si2 0.093708 0.547895 0.926569
Si Si3 0.101422 0.298022 0.933558
Si Si4 0.082053 0.791328 0.712877
O O1 0.979249 0.802619 0.398808
O O2 0.794832 0.833418 0.416830
O O3 0.405248 0.875675 0.968978
O O4 0.000000 0.000000 0.500000
O O5 0.004474 0.423746 0.894813
O O6 0.000000 0.531962 0.750000
O O7 0.880280 0.658074 0.786776
O O8 0.500000 0.570060 0.250000
O O9 0.000000 0.281414 0.750000
O O10 0.500000 0.298825 0.250000
O O11 0.000000 0.786607 0.750000
#
# Coordination Sequence:
#
# PCOD9234808 Si02
#       4
#     4   4   4   4
#     4  12  26  41  61  93 124 167 223 251 297 382
#     4   9  18  36  63  94 123 157 205 256 321 387
#     4  10  22  41  64  92 129 166 205 264 321 369
#     4  11  23  42  65  90 124 161 204 266 319 364
#
# _framework density 22.802568000000001
#
# number of rings (size 3 to 8) (size 9 to 14) (size 15 to 20)
#    0.000    1.500    0.000    6.000    0.000    5.000 
#    0.000    0.000    0.000    0.000    0.000    0.000 
#    0.000    0.000    0.000    0.000    0.000    0.000 
#
# Total GULP energy -89204.812701 kJ/mol
# GULP energy per Si atom -5575.300794 kJ/mol
# Density = 2.275067 g / cm^3
# Si number density = 22.802568 Si / 1000 Ang^3
#
#
#
# Elastic Constant Matrix: (Units=GPa)
#
#
# Indices 1 2 3 4 5 6 
#
# 1 73.6821 37.1543 19.6198 0.0000 -24.3000 0.0000
# 2 37.1543 143.9355 34.0387 0.0000 6.1150 0.0000
# 3 19.6198 34.0387 134.1502 0.0000 -33.6704 0.0000
# 4 0.0000 0.0000 0.0000 38.2618 0.0000 -5.8698
# 5 -24.3000 6.1150 -33.6704 0.0000 39.6663 0.0000
# 6 0.0000 0.0000 0.0000 -5.8698 0.0000 35.2415
#
#
#
# Elastic Compliance Matrix: (Units=1/GPa)
#
#
# Indices 1 2 3 4 5 6 
#
# 1 0.021969 -0.007061 0.002833 0.000000 0.016952 0.000000
# 2 -0.007061 0.010057 -0.003804 0.000000 -0.009105 0.000000
# 3 0.002833 -0.003804 0.010913 0.000000 0.011586 0.000000
# 4 0.000000 0.000000 0.000000 0.026821 0.000000 0.004467
# 5 0.016952 -0.009105 0.011586 0.000000 0.046834 0.000000
# 6 0.000000 0.000000 0.000000 0.004467 0.000000 0.029120
#
#
# Mechanical properties :
#
#
# Convention : Reuss Voigt Hill
#
# Bulk Modulus (GPa) = 37.21007 59.26595 48.23801
# Shear Modulus (GPa) = 29.28513 40.03091 34.65802
#
# Velocity S-wave (km/s) = 3.58759 4.19447 3.90284
# Velocity P-wave (km/s) = 5.78920 7.03601 6.44284
#
# Compressibility (1/GPa) = 0.02687444
#
# Stress axis : x y z
#
# Youngs Moduli (GPa) = 45.51959 99.43549 91.63221
#
# Poissons Ratio (x) = 0.70212 -0.25963
# Poissons Ratio (y) = 0.32142 0.34861
# Poissons Ratio (z) = -0.12898 0.37830
#
# Static dielectric constant tensor:
#      x y z
#    x 1.803470 0.000000 0.023190 
#    y 0.000000 1.990660 0.000000 
#    z 0.023190 0.000000 1.817920 
# 
# From -- ./inp_files/51030.got.cif
#   From: 2010.05.17/outbox.cif.g08.bks.cpg/sg13_26_cif.got.tgz:51030.got - 2010.06.03 16:44:36.
