data_PCOD9234653
_publ_section_title
;
Structure prediction by ZEFSAII (Michael W. Deem and Ramdas Pophale) SiO2 
 PCOD9234653
Probable space group: P 2/C
;
_chemical_formula_sum "Si O2"
_cell_formula_units_Z 16
_cell_length_a 12.270790
_cell_length_b 4.901970
_cell_length_c 29.680021
_cell_angle_alpha 90.000000
_cell_angle_beta 21.433160
_cell_angle_gamma 90.000000
_cell_volume 652.370672
_symmetry_space_group_name_H-M "P 2/C"
_symmetry_group_IT_number 13
_symmetry_cell_setting 'monoclinic'
loop_
_space_group_symop_operation_xyz
x,y,z
-x,y,1/2-z
-x,-y,-z
x,-y,1/2+z
loop_
_atom_site_type_symbol
_atom_site_label
_atom_site_fract_x
_atom_site_fract_y
_atom_site_fract_z
Si Si1 0.855644 0.504163 0.853944
Si Si2 0.857692 0.015844 0.716150
Si Si3 0.272427 0.693490 0.428171
Si Si4 0.064694 0.814750 0.416371
O O1 0.000000 0.582405 0.750000
O O2 0.935344 0.190006 0.831067
O O3 0.500000 0.500000 0.000000
O O4 0.036807 0.704430 0.818813
O O5 0.526853 0.128578 0.853988
O O6 0.895739 0.135055 0.651352
O O7 0.212694 0.394814 0.470034
O O8 0.293631 0.693674 0.365678
O O9 0.980756 0.875374 0.549412
#
# Coordination Sequence:
#
# PCOD9234653 Si02
#       4
#     4   4   4   4
#     4  12  30  50  73 105 139 189 251 318 363 428
#     4  12  25  44  76  95 143 188 240 295 378 435
#     4  10  22  40  67 106 144 178 228 286 356 445
#     4  10  22  40  67 106 143 179 229 285 355 448
#
# _framework density 24.525936999999999
#
# number of rings (size 3 to 8) (size 9 to 14) (size 15 to 20)
#    0.000    1.000    0.000    5.250   10.500    0.000 
#    0.000   10.000    0.000    0.000    0.000    0.000 
#    0.000    0.000    0.000    0.000    0.000    0.000 
#
# Total GULP energy -89157.903210 kJ/mol
# GULP energy per Si atom -5572.368951 kJ/mol
# Density = 2.447011 g / cm^3
# Si number density = 24.525937 Si / 1000 Ang^3
#
#
#
# Elastic Constant Matrix: (Units=GPa)
#
#
# Indices 1 2 3 4 5 6 
#
# 1 74.4045 -1.0540 29.8198 0.0000 26.7184 0.0000
# 2 -1.0540 121.3936 13.3945 0.0000 9.0582 0.0000
# 3 29.8198 13.3945 69.8579 0.0000 -0.9593 0.0000
# 4 0.0000 0.0000 0.0000 19.7651 0.0000 -8.9901
# 5 26.7184 9.0582 -0.9593 0.0000 38.8028 0.0000
# 6 0.0000 0.0000 0.0000 -8.9901 0.0000 51.5255
#
#
#
# Elastic Compliance Matrix: (Units=1/GPa)
#
#
# Indices 1 2 3 4 5 6 
#
# 1 0.024271 0.002754 -0.011131 0.000000 -0.017630 0.000000
# 2 0.002754 0.008887 -0.002935 0.000000 -0.004044 0.000000
# 3 -0.011131 -0.002935 0.019750 0.000000 0.008838 0.000000
# 4 0.000000 0.000000 0.000000 0.054955 0.000000 0.009589
# 5 -0.017630 -0.004044 0.008838 0.000000 0.039074 0.000000
# 6 0.000000 0.000000 0.000000 0.009589 0.000000 0.021081
#
#
# Mechanical properties :
#
#
# Convention : Reuss Voigt Hill
#
# Bulk Modulus (GPa) = 33.01920 38.88628 35.95274
# Shear Modulus (GPa) = 24.90824 36.91838 30.91331
#
# Velocity S-wave (km/s) = 3.19029 3.88400 3.55411
# Velocity P-wave (km/s) = 5.20219 6.00030 5.61544
#
# Compressibility (1/GPa) = 0.03028541
#
# Stress axis : x y z
#
# Youngs Moduli (GPa) = 41.20133 112.52124 50.63232
#
# Poissons Ratio (x) = -0.30993 0.56357
# Poissons Ratio (y) = -0.11349 0.14862
# Poissons Ratio (z) = 0.45860 0.33029
#
# Static dielectric constant tensor:
#      x y z
#    x 2.041930 0.000000 0.011100 
#    y 0.000000 1.856080 0.000000 
#    z 0.011100 0.000000 2.166260 
# 
# From -- ./inp_files/31417.got.cif
#   From: 2010.05.17/outbox.cif.g08.bks.cpg/sg13_16_cif.got.tgz:31417.got - 2010.06.03 16:44:36.
