data_PCOD9234852
_publ_section_title
;
Structure prediction by ZEFSAII (Michael W. Deem and Ramdas Pophale) SiO2 
 PCOD9234852
Probable space group: P 2/C
;
_chemical_formula_sum "Si O2"
_cell_formula_units_Z 20
_cell_length_a 5.781404
_cell_length_b 9.570333
_cell_length_c 18.290450
_cell_angle_alpha 90.000000
_cell_angle_beta 66.880102
_cell_angle_gamma 90.000000
_cell_volume 930.730511
_symmetry_space_group_name_H-M "P 2/C"
_symmetry_group_IT_number 13
_symmetry_cell_setting 'monoclinic'
loop_
_space_group_symop_operation_xyz
x,y,z
-x,y,1/2-z
-x,-y,-z
x,-y,1/2+z
loop_
_atom_site_type_symbol
_atom_site_label
_atom_site_fract_x
_atom_site_fract_y
_atom_site_fract_z
Si Si1 0.771288 0.349994 0.409946
Si Si2 0.702622 0.176638 0.790637
Si Si3 0.093436 0.155308 0.476482
Si Si4 0.718219 0.661151 0.429161
Si Si5 0.594033 0.853976 0.819506
O O1 0.844379 0.512467 0.396048
O O2 0.497564 0.357171 0.482710
O O3 0.759123 0.268031 0.335046
O O4 0.937138 0.255248 0.442544
O O5 0.500000 0.198044 0.750000
O O6 0.606115 0.265045 0.871881
O O7 0.000000 0.218994 0.750000
O O8 0.707744 0.009383 0.803522
O O9 0.098556 0.229857 0.554381
O O10 0.360189 0.136956 0.403782
O O11 0.000000 0.000000 0.500000
O O12 0.500000 0.818976 0.750000
#
# Coordination Sequence:
#
# PCOD9234852 Si02
#       5
#     4   4   4   4   4
#     4  10  22  41  66  92 130 172 219 276 333 396
#     4  11  26  44  67 100 134 179 222 277 336 395
#     4  11  22  38  69  96 125 174 222 273 329 395
#     4  10  23  42  62  96 130 171 222 273 331 403
#     4  10  24  40  62  96 129 170 219 279 329 390
#
# _framework density 21.488496999999999
#
# number of rings (size 3 to 8) (size 9 to 14) (size 15 to 20)
#    0.000    1.600    0.000    3.000   14.000    4.000 
#    3.600    0.000    0.000    0.000    0.000    0.000 
#    0.000    0.000    0.000    0.000    0.000    0.000 
#
# Total GULP energy -111626.248462 kJ/mol
# GULP energy per Si atom -5581.312423 kJ/mol
# Density = 2.143959 g / cm^3
# Si number density = 21.488497 Si / 1000 Ang^3
#
#
#
# Elastic Constant Matrix: (Units=GPa)
#
#
# Indices 1 2 3 4 5 6 
#
# 1 63.3013 49.4629 21.3763 0.0000 17.9095 0.0000
# 2 49.4629 170.5349 63.3355 0.0000 53.3645 0.0000
# 3 21.3763 63.3355 98.5497 0.0000 35.0046 0.0000
# 4 0.0000 0.0000 0.0000 76.2499 0.0000 17.1881
# 5 17.9095 53.3645 35.0046 0.0000 40.5037 0.0000
# 6 0.0000 0.0000 0.0000 17.1881 0.0000 14.4980
#
#
#
# Elastic Compliance Matrix: (Units=1/GPa)
#
#
# Indices 1 2 3 4 5 6 
#
# 1 0.020545 -0.005224 -0.000458 0.000000 -0.001807 0.000000
# 2 -0.005224 0.011757 -0.002513 0.000000 -0.011009 0.000000
# 3 -0.000458 -0.002513 0.015315 0.000000 -0.009723 0.000000
# 4 0.000000 0.000000 0.000000 0.017898 0.000000 -0.021219
# 5 -0.001807 -0.011009 -0.009723 0.000000 0.048396 0.000000
# 6 0.000000 0.000000 0.000000 -0.021219 0.000000 0.094131
#
#
# Mechanical properties :
#
#
# Convention : Reuss Voigt Hill
#
# Bulk Modulus (GPa) = 32.02143 66.74836 49.38489
# Shear Modulus (GPa) = 21.29119 39.46439 30.37779
#
# Velocity S-wave (km/s) = 3.15114 4.29013 3.76397
# Velocity P-wave (km/s) = 5.30788 7.46124 6.47471
#
# Compressibility (1/GPa) = 0.03122909
#
# Stress axis : x y z
#
# Youngs Moduli (GPa) = 48.67407 85.05426 65.29684
#
# Poissons Ratio (x) = 0.44430 0.02988
# Poissons Ratio (y) = 0.25426 0.16406
# Poissons Ratio (z) = 0.02227 0.21370
#
# Static dielectric constant tensor:
#      x y z
#    x 2.017290 0.000000 0.222110 
#    y 0.000000 1.812420 0.000000 
#    z 0.222110 0.000000 2.159840 
# 
# From -- ./inp_files/60578.got.cif
#   From: 2010.05.17/outbox.cif.g08.bks.cpg/sg13_31_cif.got.tgz:60578.got - 2010.06.03 16:44:36.
