data_PCOD9234817
_publ_section_title
;
Structure prediction by ZEFSAII (Michael W. Deem and Ramdas Pophale) SiO2 
 PCOD9234817
Probable space group: P 2/C
;
_chemical_formula_sum "Si O2"
_cell_formula_units_Z 28
_cell_length_a 22.009422
_cell_length_b 11.256568
_cell_length_c 12.779358
_cell_angle_alpha 90.000000
_cell_angle_beta 25.007953
_cell_angle_gamma 90.000000
_cell_volume 1338.447023
_symmetry_space_group_name_H-M "P 2/C"
_symmetry_group_IT_number 13
_symmetry_cell_setting 'monoclinic'
loop_
_space_group_symop_operation_xyz
x,y,z
-x,y,1/2-z
-x,-y,-z
x,-y,1/2+z
loop_
_atom_site_type_symbol
_atom_site_label
_atom_site_fract_x
_atom_site_fract_y
_atom_site_fract_z
Si Si1 0.593888 0.418084 0.509076
Si Si2 0.141091 0.152057 0.215804
Si Si3 0.143383 0.570520 0.747968
Si Si4 0.856716 0.967965 0.097289
Si Si5 0.663951 0.192396 0.030229
Si Si6 0.337956 0.993282 0.291519
Si Si7 0.653389 0.586461 0.683104
O O1 0.500000 0.357000 0.750000
O O2 0.743125 0.443784 0.333696
O O3 0.495691 0.531364 0.629052
O O4 0.627404 0.365625 0.341346
O O5 0.114987 0.289924 0.275840
O O6 0.015467 0.087006 0.346129
O O7 0.143045 0.075950 0.319779
O O8 0.289488 0.129534 0.922116
O O9 0.227355 0.516730 0.515668
O O10 0.000000 0.500000 0.000000
O O11 0.761902 0.855948 0.284771
O O12 0.773792 0.015438 0.126592
O O13 0.500000 0.200292 0.250000
O O14 0.705190 0.313273 0.022382
O O15 0.678367 0.091690 0.094949
O O16 0.500000 0.000000 0.000000
#
# Coordination Sequence:
#
# PCOD9234817 Si02
#       7
#     4   4   4   4   4   4   4
#     4   9  21  42  62  91 133 170 221 274 332 398
#     4  10  24  42  66  92 132 178 215 283 333 405
#     4  11  23  43  64  98 134 178 223 274 339 414
#     4  10  22  45  62  92 133 169 224 271 339 395
#     4  11  21  38  66  95 129 170 214 277 337 401
#     4  11  23  40  65  99 126 171 226 275 333 397
#     4  10  22  41  64  97 130 174 221 276 340 403
#
# _framework density 20.919768000000001
#
# number of rings (size 3 to 8) (size 9 to 14) (size 15 to 20)
#    0.000    1.714    1.429    2.571    2.000    4.000 
#   12.857    0.000    0.000    0.000    0.000    0.000 
#    0.000    0.000    0.000    0.000    0.000    0.000 
#
# Total GULP energy -156203.149702 kJ/mol
# GULP energy per Si atom -5578.683918 kJ/mol
# Density = 2.087215 g / cm^3
# Si number density = 20.919768 Si / 1000 Ang^3
#
#
#
# Elastic Constant Matrix: (Units=GPa)
#
#
# Indices 1 2 3 4 5 6 
#
# 1 110.0119 12.2466 38.5602 0.0000 -2.2896 0.0000
# 2 12.2466 100.0693 33.5072 0.0000 -3.4214 0.0000
# 3 38.5602 33.5072 117.8105 0.0000 -18.1950 0.0000
# 4 0.0000 0.0000 0.0000 18.2323 0.0000 -4.5277
# 5 -2.2896 -3.4214 -18.1950 0.0000 30.4882 0.0000
# 6 0.0000 0.0000 0.0000 -4.5277 0.0000 13.4099
#
#
#
# Elastic Compliance Matrix: (Units=1/GPa)
#
#
# Indices 1 2 3 4 5 6 
#
# 1 0.010321 -0.000120 -0.003554 0.000000 -0.001359 0.000000
# 2 -0.000120 0.011060 -0.003212 0.000000 -0.000685 0.000000
# 3 -0.003554 -0.003212 0.011531 0.000000 0.006254 0.000000
# 4 0.000000 0.000000 0.000000 0.059867 0.000000 0.020213
# 5 -0.001359 -0.000685 0.006254 0.000000 0.036353 0.000000
# 6 0.000000 0.000000 0.000000 0.020213 0.000000 0.081396
#
#
# Mechanical properties :
#
#
# Convention : Reuss Voigt Hill
#
# Bulk Modulus (GPa) = 52.24659 55.16887 53.70773
# Shear Modulus (GPa) = 21.67509 28.66461 25.16985
#
# Velocity S-wave (km/s) = 3.22235 3.70566 3.47242
# Velocity P-wave (km/s) = 6.23488 6.68866 6.46575
#
# Compressibility (1/GPa) = 0.01914001
#
# Stress axis : x y z
#
# Youngs Moduli (GPa) = 96.89322 90.41685 86.72291
#
# Poissons Ratio (x) = 0.01081 0.30821
# Poissons Ratio (y) = 0.01158 0.27858
# Poissons Ratio (z) = 0.34436 0.29044
#
# Static dielectric constant tensor:
#      x y z
#    x 1.760780 0.000000 0.029910 
#    y 0.000000 1.783370 0.000000 
#    z 0.029910 0.000000 1.756150 
# 
# From -- ./inp_files/40767.got.cif
#   From: 2010.05.17/outbox.cif.g08.bks.cpg/sg13_21_cif.got.tgz:40767.got - 2010.06.03 16:44:36.
