data_PCOD9234635
_publ_section_title
;
Structure prediction by ZEFSAII (Michael W. Deem and Ramdas Pophale) SiO2 
 PCOD9234635
Probable space group: P 2/C
;
_chemical_formula_sum "Si O2"
_cell_formula_units_Z 24
_cell_length_a 23.200790
_cell_length_b 6.355554
_cell_length_c 22.483116
_cell_angle_alpha 90.000000
_cell_angle_beta 161.427575
_cell_angle_gamma 90.000000
_cell_volume 1055.908776
_symmetry_space_group_name_H-M "P 2/C"
_symmetry_group_IT_number 13
_symmetry_cell_setting 'monoclinic'
loop_
_space_group_symop_operation_xyz
x,y,z
-x,y,1/2-z
-x,-y,-z
x,-y,1/2+z
loop_
_atom_site_type_symbol
_atom_site_label
_atom_site_fract_x
_atom_site_fract_y
_atom_site_fract_z
Si Si1 0.849901 0.327948 0.035547
Si Si2 0.617739 0.575569 0.492193
Si Si3 0.175577 0.969561 0.836052
Si Si4 0.748466 0.568471 0.307295
Si Si5 0.500000 0.610926 0.250000
Si Si6 0.000000 0.716736 0.250000
Si Si7 0.093707 0.298002 0.659013
O O1 0.896054 0.564003 0.102320
O O2 0.794331 0.312930 0.913045
O O3 0.678109 0.259797 0.906382
O O4 0.029185 0.196677 0.215603
O O5 0.463061 0.525518 0.389285
O O6 0.551408 0.494130 0.362186
O O7 0.799848 0.471007 0.696062
O O8 0.653702 0.824168 0.514859
O O9 0.149758 0.148052 0.861162
O O10 0.111740 0.084552 0.713166
O O11 0.801615 0.697874 0.301134
O O12 0.887881 0.371014 0.445127
#
# Coordination Sequence:
#
# PCOD9234635 Si02
#       7
#     4   4   4   4   2   2   4
#     4  11  22  43  63  95 137 172 220 290 335 406
#     4  11  23  45  65 100 139 177 227 296 336 411
#     4  12  23  40  71  96 133 183 226 279 353 407
#     4  10  23  45  70  98 141 180 227 284 349 403
#     4  10  22  40  66  92 130 174 220 276 348 394
#     4  12  22  40  68  94 130 184 224 278 356 414
#     4  11  23  46  69 100 137 185 228 284 343 415
#
# _framework density 22.729234999999999
#
# number of rings (size 3 to 8) (size 9 to 14) (size 15 to 20)
#    0.000    1.000    3.333    4.000    0.000    1.333 
#    6.000    7.500    0.000    0.000    0.000    0.000 
#    0.000    0.000    0.000    0.000    0.000    0.000 
#
# Total GULP energy -133916.125095 kJ/mol
# GULP energy per Si atom -5579.838546 kJ/mol
# Density = 2.267750 g / cm^3
# Si number density = 22.729235 Si / 1000 Ang^3
#
#
#
# Elastic Constant Matrix: (Units=GPa)
#
#
# Indices 1 2 3 4 5 6 
#
# 1 174.4573 30.7847 33.0223 0.0000 17.1046 0.0000
# 2 30.7847 76.2852 34.7385 0.0000 10.7179 0.0000
# 3 33.0223 34.7385 96.3773 0.0000 29.5731 0.0000
# 4 0.0000 0.0000 0.0000 13.1692 0.0000 -3.9934
# 5 17.1046 10.7179 29.5731 0.0000 46.6148 0.0000
# 6 0.0000 0.0000 0.0000 -3.9934 0.0000 19.2707
#
#
#
# Elastic Compliance Matrix: (Units=1/GPa)
#
#
# Indices 1 2 3 4 5 6 
#
# 1 0.006399 -0.001894 -0.001146 0.000000 -0.001186 0.000000
# 2 -0.001894 0.016243 -0.005306 0.000000 0.000326 0.000000
# 3 -0.001146 -0.005306 0.015121 0.000000 -0.007953 0.000000
# 4 0.000000 0.000000 0.000000 0.081026 0.000000 0.016791
# 5 -0.001186 0.000326 -0.007953 0.000000 0.026858 0.000000
# 6 0.000000 0.000000 0.000000 0.016791 0.000000 0.055372
#
#
# Mechanical properties :
#
#
# Convention : Reuss Voigt Hill
#
# Bulk Modulus (GPa) = 47.45684 60.46786 53.96235
# Shear Modulus (GPa) = 22.24827 32.38256 27.31542
#
# Velocity S-wave (km/s) = 3.13204 3.77863 3.47042
# Velocity P-wave (km/s) = 5.83130 6.76008 6.31279
#
# Compressibility (1/GPa) = 0.02107178
#
# Stress axis : x y z
#
# Youngs Moduli (GPa) = 156.26293 61.56351 66.13138
#
# Poissons Ratio (x) = 0.11660 0.07580
# Poissons Ratio (y) = 0.29595 0.35090
# Poissons Ratio (z) = 0.17912 0.32666
#
# Static dielectric constant tensor:
#      x y z
#    x 1.871360 0.000000 -0.003770 
#    y 0.000000 1.859600 0.000000 
#    z -0.003770 0.000000 1.904380 
# 
# From -- ./inp_files/88832.got.cif
#   From: 2010.05.17/outbox.cif.g08.bks.cpg/sg13_45_cif.got.tgz:88832.got - 2010.06.03 16:44:36.
