data_PCOD9234052
_publ_section_title
;
Structure prediction by ZEFSAII (Michael W. Deem and Ramdas Pophale) SiO2 
 PCOD9234052
Probable space group: P 2/C
;
_chemical_formula_sum "Si O2"
_cell_formula_units_Z 20
_cell_length_a 9.093002
_cell_length_b 14.149382
_cell_length_c 7.698351
_cell_angle_alpha 90.000000
_cell_angle_beta 113.084116
_cell_angle_gamma 90.000000
_cell_volume 911.165687
_symmetry_space_group_name_H-M "P 2/C"
_symmetry_group_IT_number 13
_symmetry_cell_setting 'monoclinic'
loop_
_space_group_symop_operation_xyz
x,y,z
-x,y,1/2-z
-x,-y,-z
x,-y,1/2+z
loop_
_atom_site_type_symbol
_atom_site_label
_atom_site_fract_x
_atom_site_fract_y
_atom_site_fract_z
Si Si1 0.414051 0.842962 0.989201
Si Si2 0.000000 0.734416 0.750000
Si Si3 0.252010 0.083909 0.747885
Si Si4 0.659598 0.362205 0.029795
Si Si5 0.500000 0.488987 0.250000
Si Si6 0.172611 0.122260 0.092492
O O1 0.564057 0.910333 0.095263
O O2 0.280712 0.869959 0.072142
O O3 0.445849 0.732950 0.037986
O O4 0.339282 0.848571 0.763296
O O5 0.841335 0.672488 0.641050
O O6 0.952625 0.804513 0.885833
O O7 0.167157 0.985130 0.662102
O O8 0.170866 0.124974 0.883801
O O9 0.579553 0.420476 0.147849
O O10 0.639549 0.437702 0.868002
#
# Coordination Sequence:
#
# PCOD9234052 Si02
#       6
#     4   2   4   4   2   4
#     4  10  22  36  61  98 132 168 235 281 312 403
#     4  10  26  44  64  98 152 170 226 272 344 408
#     4  11  21  35  62  91 131 184 235 268 321 373
#     4  10  23  46  68 107 128 171 217 287 347 414
#     4  10  22  44  84  92 128 164 226 282 354 416
#     4  11  22  38  57  88 134 190 219 273 320 386
#
# _framework density 21.949905000000001
#
# number of rings (size 3 to 8) (size 9 to 14) (size 15 to 20)
#    0.000    1.600    2.000    2.400    8.400    1.600 
#    0.000    0.000    0.000    0.000    0.000    0.000 
#    0.000    0.000    0.000    0.000    0.000    0.000 
#
# Total GULP energy -111460.543232 kJ/mol
# GULP energy per Si atom -5573.027162 kJ/mol
# Density = 2.189995 g / cm^3
# Si number density = 21.949905 Si / 1000 Ang^3
#
#
#
# Elastic Constant Matrix: (Units=GPa)
#
#
# Indices 1 2 3 4 5 6 
#
# 1 122.4191 45.8840 50.3407 0.0000 18.4451 0.0000
# 2 45.8840 145.3063 30.7161 0.0000 -2.6219 0.0000
# 3 50.3407 30.7161 70.0760 0.0000 -10.3026 0.0000
# 4 0.0000 0.0000 0.0000 20.8276 0.0000 9.8682
# 5 18.4451 -2.6219 -10.3026 0.0000 48.2631 0.0000
# 6 0.0000 0.0000 0.0000 9.8682 0.0000 32.9876
#
#
#
# Elastic Compliance Matrix: (Units=1/GPa)
#
#
# Indices 1 2 3 4 5 6 
#
# 1 0.014699 -0.002540 -0.010626 0.000000 -0.008024 0.000000
# 2 -0.002540 0.008028 -0.001535 0.000000 0.001079 0.000000
# 3 -0.010626 -0.001535 0.023912 0.000000 0.009082 0.000000
# 4 0.000000 0.000000 0.000000 0.055942 0.000000 -0.016735
# 5 -0.008024 0.001079 0.009082 0.000000 0.025784 0.000000
# 6 0.000000 0.000000 0.000000 -0.016735 0.000000 0.035321
#
#
# Mechanical properties :
#
#
# Convention : Reuss Voigt Hill
#
# Bulk Modulus (GPa) = 58.01731 65.74255 61.87993
# Shear Modulus (GPa) = 25.14655 34.47301 29.80978
#
# Velocity S-wave (km/s) = 3.38839 3.96729 3.68922
# Velocity P-wave (km/s) = 6.46509 7.14157 6.81173
#
# Compressibility (1/GPa) = 0.01723623
#
# Stress axis : x y z
#
# Youngs Moduli (GPa) = 68.03065 124.56071 41.82048
#
# Poissons Ratio (x) = 0.31642 0.44437
# Poissons Ratio (y) = 0.17282 0.06421
# Poissons Ratio (z) = 0.72288 0.19126
#
# Static dielectric constant tensor:
#      x y z
#    x 1.880210 0.000000 0.043630 
#    y 0.000000 1.793910 0.000000 
#    z 0.043630 0.000000 1.891340 
# 
# From -- ./inp_files/11886.got.cif
#   From: 2010.05.17/outbox.cif.g08.bks.cpg/sg13_6_cif.got.tgz:11886.got - 2010.06.03 16:44:36.
