data_PCOD9234743
_publ_section_title
;
Structure prediction by ZEFSAII (Michael W. Deem and Ramdas Pophale) SiO2 
 PCOD9234743
Probable space group: P 2/C
;
_chemical_formula_sum "Si O2"
_cell_formula_units_Z 22
_cell_length_a 20.377368
_cell_length_b 8.497062
_cell_length_c 8.655315
_cell_angle_alpha 90.000000
_cell_angle_beta 43.822991
_cell_angle_gamma 90.000000
_cell_volume 1037.713214
_symmetry_space_group_name_H-M "P 2/C"
_symmetry_group_IT_number 13
_symmetry_cell_setting 'monoclinic'
loop_
_space_group_symop_operation_xyz
x,y,z
-x,y,1/2-z
-x,-y,-z
x,-y,1/2+z
loop_
_atom_site_type_symbol
_atom_site_label
_atom_site_fract_x
_atom_site_fract_y
_atom_site_fract_z
Si Si1 0.423771 0.634273 0.088363
Si Si2 0.302368 0.565684 0.582455
Si Si3 0.595402 0.058870 0.044033
Si Si4 0.714804 0.835563 0.634272
Si Si5 0.000000 0.557959 0.750000
Si Si6 0.872228 0.643132 0.236425
O O1 0.351380 0.647437 0.353792
O O2 0.371141 0.568337 0.027699
O O3 0.500000 0.500000 0.000000
O O4 0.449325 0.808790 0.993069
O O5 0.295635 0.680953 0.740199
O O6 0.206987 0.480918 0.689772
O O7 0.500000 0.960376 0.250000
O O8 0.646405 0.133872 0.105858
O O9 0.679899 0.970930 0.810394
O O10 0.818737 0.800259 0.385475
O O11 0.056469 0.660666 0.528418
O O12 0.071129 0.444330 0.723424
#
# Coordination Sequence:
#
# PCOD9234743 Si02
#       6
#     4   4   4   4   2   4
#     4  12  23  38  64 100 141 187 240 290 327 399
#     4  12  21  40  65 100 135 178 235 289 347 404
#     4  12  26  45  64  98 145 200 241 275 336 415
#     4  12  25  44  68 100 143 186 235 286 351 415
#     4  10  22  40  76 108 132 160 230 316 362 436
#     4  11  21  42  70 109 131 169 226 302 370 416
#
# _framework density 21.200461000000001
#
# number of rings (size 3 to 8) (size 9 to 14) (size 15 to 20)
#    0.000    0.364    5.455    4.364    0.000    1.455 
#    0.000    0.000    0.000    3.273    0.000    0.000 
#    0.000    0.000    0.000    0.000    0.000    0.000 
#
# Total GULP energy -122759.775178 kJ/mol
# GULP energy per Si atom -5579.989781 kJ/mol
# Density = 2.115221 g / cm^3
# Si number density = 21.200461 Si / 1000 Ang^3
#
#
#
# Elastic Constant Matrix: (Units=GPa)
#
#
# Indices 1 2 3 4 5 6 
#
# 1 125.8170 33.1180 32.0793 0.0000 -5.2673 0.0000
# 2 33.1180 57.5002 20.7943 0.0000 -1.2675 0.0000
# 3 32.0793 20.7943 125.3404 0.0000 3.3222 0.0000
# 4 0.0000 0.0000 0.0000 34.0372 0.0000 -3.1628
# 5 -5.2673 -1.2675 3.3222 0.0000 38.6516 0.0000
# 6 0.0000 0.0000 0.0000 -3.1628 0.0000 24.1822
#
#
#
# Elastic Compliance Matrix: (Units=1/GPa)
#
#
# Indices 1 2 3 4 5 6 
#
# 1 0.009745 -0.004967 -0.001705 0.000000 0.001312 0.000000
# 2 -0.004967 0.021063 -0.002228 0.000000 0.000205 0.000000
# 3 -0.001705 -0.002228 0.008812 0.000000 -0.001063 0.000000
# 4 0.000000 0.000000 0.000000 0.029741 0.000000 0.003890
# 5 0.001312 0.000205 -0.001063 0.000000 0.026149 0.000000
# 6 0.000000 0.000000 0.000000 0.003890 0.000000 0.041862
#
#
# Mechanical properties :
#
#
# Convention : Reuss Voigt Hill
#
# Bulk Modulus (GPa) = 45.83164 53.40453 49.61809
# Shear Modulus (GPa) = 30.77941 34.21861 32.49901
#
# Velocity S-wave (km/s) = 3.81442 4.02188 3.91952
# Velocity P-wave (km/s) = 6.40819 6.84195 6.62862
#
# Compressibility (1/GPa) = 0.02181899
#
# Stress axis : x y z
#
# Youngs Moduli (GPa) = 102.61481 47.47727 113.47553
#
# Poissons Ratio (x) = 0.23584 0.19345
# Poissons Ratio (y) = 0.50973 0.25287
# Poissons Ratio (z) = 0.17494 0.10580
#
# Static dielectric constant tensor:
#      x y z
#    x 1.740360 0.000000 0.007420 
#    y 0.000000 1.836720 0.000000 
#    z 0.007420 0.000000 1.875470 
# 
# From -- ./inp_files/17990.got.cif
#   From: 2010.05.17/outbox.cif.g08.bks.cpg/sg13_9_cif.got.tgz:17990.got - 2010.06.03 16:44:36.
