data_PCOD9234492
_publ_section_title
;
Structure prediction by ZEFSAII (Michael W. Deem and Ramdas Pophale) SiO2 
 PCOD9234492
Probable space group: P 2/C
;
_chemical_formula_sum "Si O2"
_cell_formula_units_Z 26
_cell_length_a 9.888023
_cell_length_b 10.559008
_cell_length_c 14.470334
_cell_angle_alpha 90.000000
_cell_angle_beta 131.094348
_cell_angle_gamma 90.000000
_cell_volume 1138.592462
_symmetry_space_group_name_H-M "P 2/C"
_symmetry_group_IT_number 13
_symmetry_cell_setting 'monoclinic'
loop_
_space_group_symop_operation_xyz
x,y,z
-x,y,1/2-z
-x,-y,-z
x,-y,1/2+z
loop_
_atom_site_type_symbol
_atom_site_label
_atom_site_fract_x
_atom_site_fract_y
_atom_site_fract_z
Si Si1 0.239755 0.976405 0.191975
Si Si2 0.767076 0.499520 0.193135
Si Si3 0.834313 0.930164 0.547329
Si Si4 0.658681 0.143540 0.577221
Si Si5 0.000000 0.275260 0.250000
Si Si6 0.500000 0.198318 0.250000
Si Si7 0.000000 0.704688 0.250000
Si Si8 0.416012 0.375027 0.055266
O O1 0.328583 0.890026 0.310043
O O2 0.357880 0.104658 0.235661
O O3 0.229204 0.914101 0.086213
O O4 0.034860 0.007376 0.130009
O O5 0.576191 0.471265 0.150397
O O6 0.875843 0.371062 0.251093
O O7 0.893317 0.616658 0.275078
O O8 0.721913 0.539525 0.065550
O O9 0.877581 0.809880 0.629261
O O10 0.680941 0.014642 0.529219
O O11 0.849669 0.209448 0.637654
O O12 0.529104 0.258993 0.491022
O O13 0.385660 0.290006 0.131728
#
# Coordination Sequence:
#
# PCOD9234492 Si02
#       8
#     4   4   4   4   2   2   2   4
#     4  11  23  36  58  96 126 159 206 241 328 383
#     4   9  21  38  61  85 111 168 212 249 302 359
#     4  11  21  36  60  93 123 159 198 260 317 376
#     4  11  19  39  65  90 125 166 196 261 317 376
#     4  11  19  38  60  86 121 155 206 258 302 367
#     4  12  24  38  60  94 132 166 204 262 310 386
#     4   9  17  36  66  88 113 157 216 248 304 361
#     4  10  22  40  60  86 125 165 210 254 308 367
#
# _framework density 22.835214000000001
#
# number of rings (size 3 to 8) (size 9 to 14) (size 15 to 20)
#    0.000    1.538    4.615    0.923    0.000    1.846 
#    0.000    4.615    0.000    8.308    0.000    0.000 
#    0.000    0.000    0.000    0.000    0.000    0.000 
#
# Total GULP energy -144893.266424 kJ/mol
# GULP energy per Si atom -5572.817939 kJ/mol
# Density = 2.278324 g / cm^3
# Si number density = 22.835214 Si / 1000 Ang^3
#
#
#
# Elastic Constant Matrix: (Units=GPa)
#
#
# Indices 1 2 3 4 5 6 
#
# 1 52.9692 14.7526 11.5611 0.0000 7.7370 0.0000
# 2 14.7526 99.6614 33.7187 0.0000 -11.1962 0.0000
# 3 11.5611 33.7187 82.9544 0.0000 -11.6373 0.0000
# 4 0.0000 0.0000 0.0000 23.4597 0.0000 3.7942
# 5 7.7370 -11.1962 -11.6373 0.0000 32.9391 0.0000
# 6 0.0000 0.0000 0.0000 3.7942 0.0000 20.4962
#
#
#
# Elastic Compliance Matrix: (Units=1/GPa)
#
#
# Indices 1 2 3 4 5 6 
#
# 1 0.021339 -0.003023 -0.002728 0.000000 -0.007003 0.000000
# 2 -0.003023 0.012246 -0.004075 0.000000 0.003433 0.000000
# 3 -0.002728 -0.004075 0.014716 0.000000 0.004455 0.000000
# 4 0.000000 0.000000 0.000000 0.043942 0.000000 -0.008134
# 5 -0.007003 0.003433 0.004455 0.000000 0.034745 0.000000
# 6 0.000000 0.000000 0.000000 -0.008134 0.000000 0.050295
#
#
# Mechanical properties :
#
#
# Convention : Reuss Voigt Hill
#
# Bulk Modulus (GPa) = 34.90327 39.51664 37.20996
# Shear Modulus (GPa) = 24.21503 27.08251 25.64877
#
# Velocity S-wave (km/s) = 3.25995 3.44757 3.35507
# Velocity P-wave (km/s) = 5.43026 5.76111 5.59813
#
# Compressibility (1/GPa) = 0.02865061
#
# Stress axis : x y z
#
# Youngs Moduli (GPa) = 46.86240 81.66172 67.95236
#
# Poissons Ratio (x) = 0.24683 0.18536
# Poissons Ratio (y) = 0.14165 0.27688
# Poissons Ratio (z) = 0.12783 0.33275
#
# Static dielectric constant tensor:
#      x y z
#    x 1.907230 0.000000 0.066830 
#    y 0.000000 1.895720 0.000000 
#    z 0.066830 0.000000 1.908270 
# 
# From -- ./inp_files/50931.got.cif
#   From: 2010.05.17/outbox.cif.g08.bks.cpg/sg13_26_cif.got.tgz:50931.got - 2010.06.03 16:44:36.
