data_PCOD9234710
_publ_section_title
;
Structure prediction by ZEFSAII (Michael W. Deem and Ramdas Pophale) SiO2 
 PCOD9234710
Probable space group: P 2/C
;
_chemical_formula_sum "Si O2"
_cell_formula_units_Z 18
_cell_length_a 10.400847
_cell_length_b 8.585708
_cell_length_c 9.144136
_cell_angle_alpha 90.000000
_cell_angle_beta 61.828212
_cell_angle_gamma 90.000000
_cell_volume 719.826057
_symmetry_space_group_name_H-M "P 2/C"
_symmetry_group_IT_number 13
_symmetry_cell_setting 'monoclinic'
loop_
_space_group_symop_operation_xyz
x,y,z
-x,y,1/2-z
-x,-y,-z
x,-y,1/2+z
loop_
_atom_site_type_symbol
_atom_site_label
_atom_site_fract_x
_atom_site_fract_y
_atom_site_fract_z
Si Si1 0.895556 0.957283 0.185729
Si Si2 0.500000 0.940741 0.750000
Si Si3 0.162385 0.635392 0.225244
Si Si4 0.333992 0.173180 0.059103
Si Si5 0.333986 0.500021 0.890276
O O1 0.805318 0.800897 0.209593
O O2 0.000000 0.885493 0.250000
O O3 0.817958 0.101617 0.302508
O O4 0.000000 0.000000 0.000000
O O5 0.575919 0.841641 0.837384
O O6 0.604409 0.053118 0.596658
O O7 0.222216 0.516227 0.315113
O O8 0.000000 0.591086 0.250000
O O9 0.271003 0.632901 0.029106
O O10 0.331169 0.342831 0.990963
O O11 0.500000 0.517136 0.750000
#
# Coordination Sequence:
#
# PCOD9234710 Si02
#       5
#     4   2   4   4   4
#     4  11  24  44  70 106 139 186 241 296 356 434
#     4  10  22  40  70 108 140 192 234 302 366 430
#     4  11  27  49  74 103 149 198 244 299 373 445
#     4  11  23  44  74 104 147 184 246 300 370 433
#     4  12  26  49  71 109 147 194 247 308 371 442
#
# _framework density 25.006043999999999
#
# number of rings (size 3 to 8) (size 9 to 14) (size 15 to 20)
#    0.000    0.889    1.111    5.333    3.111    8.000 
#    4.000    0.000    0.000    0.000    0.000    0.000 
#    0.000    0.000    0.000    0.000    0.000    0.000 
#
# Total GULP energy -100617.059251 kJ/mol
# GULP energy per Si atom -5589.836625 kJ/mol
# Density = 2.494913 g / cm^3
# Si number density = 25.006044 Si / 1000 Ang^3
#
#
#
# Elastic Constant Matrix: (Units=GPa)
#
#
# Indices 1 2 3 4 5 6 
#
# 1 135.5932 16.6309 49.6576 0.0000 22.0386 0.0000
# 2 16.6309 73.6089 53.5379 0.0000 -11.1925 0.0000
# 3 49.6576 53.5379 220.0544 0.0000 -17.0025 0.0000
# 4 0.0000 0.0000 0.0000 203.5306 0.0000 -113.3592
# 5 22.0386 -11.1925 -17.0025 0.0000 61.2006 0.0000
# 6 0.0000 0.0000 0.0000 -113.3592 0.0000 102.1898
#
#
#
# Elastic Compliance Matrix: (Units=1/GPa)
#
#
# Indices 1 2 3 4 5 6 
#
# 1 0.008909 -0.001133 -0.002043 0.000000 -0.003983 0.000000
# 2 -0.001133 0.016880 -0.003660 0.000000 0.002478 0.000000
# 3 -0.002043 -0.003660 0.006030 0.000000 0.001742 0.000000
# 4 0.000000 0.000000 0.000000 0.012857 0.000000 0.014262
# 5 -0.003983 0.002478 0.001742 0.000000 0.018711 0.000000
# 6 0.000000 0.000000 0.000000 0.014262 0.000000 0.025606
#
#
# Mechanical properties :
#
#
# Convention : Reuss Voigt Hill
#
# Bulk Modulus (GPa) = 55.09910 74.32327 64.71118
# Shear Modulus (GPa) = 45.99244 94.01286 70.00265
#
# Velocity S-wave (km/s) = 4.29330 6.13821 5.29670
# Velocity P-wave (km/s) = 6.83072 8.94559 7.95872
#
# Compressibility (1/GPa) = 0.01814912
#
# Stress axis : x y z
#
# Youngs Moduli (GPa) = 112.24118 59.24219 165.83209
#
# Poissons Ratio (x) = 0.06712 0.33873
# Poissons Ratio (y) = 0.12716 0.60688
# Poissons Ratio (z) = 0.22926 0.21680
#
# Static dielectric constant tensor:
#      x y z
#    x 2.191730 0.000000 -0.115600 
#    y 0.000000 2.129880 0.000000 
#    z -0.115600 0.000000 2.029850 
# 
# From -- ./inp_files/14754.got.cif
#   From: 2010.05.17/outbox.cif.g08.bks.cpg/sg13_8_cif.got.tgz:14754.got - 2010.06.03 16:44:36.
