data_PCOD9234976
_publ_section_title
;
Structure prediction by ZEFSAII (Michael W. Deem and Ramdas Pophale) SiO2 
 PCOD9234976
Probable space group: P 2/C
;
_chemical_formula_sum "Si O2"
_cell_formula_units_Z 18
_cell_length_a 16.141353
_cell_length_b 6.156323
_cell_length_c 14.405112
_cell_angle_alpha 90.000000
_cell_angle_beta 144.677298
_cell_angle_gamma 90.000000
_cell_volume 827.640535
_symmetry_space_group_name_H-M "P 2/C"
_symmetry_group_IT_number 13
_symmetry_cell_setting 'monoclinic'
loop_
_space_group_symop_operation_xyz
x,y,z
-x,y,1/2-z
-x,-y,-z
x,-y,1/2+z
loop_
_atom_site_type_symbol
_atom_site_label
_atom_site_fract_x
_atom_site_fract_y
_atom_site_fract_z
Si Si1 0.749423 0.936830 0.975950
Si Si2 0.361404 0.891254 0.822054
Si Si3 0.450054 0.591239 0.610154
Si Si4 0.805581 0.295415 0.174310
Si Si5 0.000000 0.391858 0.750000
O O1 0.692744 0.001931 0.822603
O O2 0.626829 0.811242 0.922781
O O3 0.877533 0.760776 0.093954
O O4 0.800132 0.141869 0.079949
O O5 0.420110 0.662677 0.835182
O O6 0.225891 0.854996 0.765639
O O7 0.500000 0.000000 0.000000
O O8 0.500000 0.474844 0.750000
O O9 0.334334 0.447036 0.454608
O O10 0.936171 0.457173 0.273799
#
# Coordination Sequence:
#
# PCOD9234976 Si02
#       5
#     4   4   4   4   2
#     4  10  22  42  62  93 131 166 210 268 307 376
#     4  11  22  38  66 102 132 160 207 266 331 383
#     4   9  20  36  60  95 130 161 204 256 320 387
#     4  11  22  40  68  87 127 177 205 268 314 374
#     4  10  24  46  62  86 126 176 232 244 310 378
#
# _framework density 21.748571999999999
#
# number of rings (size 3 to 8) (size 9 to 14) (size 15 to 20)
#    0.000    1.778    2.222    1.333    3.111    0.889 
#    4.000    4.444    0.000    0.000    0.000    0.000 
#    0.000    0.000    0.000    0.000    0.000    0.000 
#
# Total GULP energy -100419.043790 kJ/mol
# GULP energy per Si atom -5578.835766 kJ/mol
# Density = 2.169907 g / cm^3
# Si number density = 21.748572 Si / 1000 Ang^3
#
#
#
# Elastic Constant Matrix: (Units=GPa)
#
#
# Indices 1 2 3 4 5 6 
#
# 1 126.1736 23.1498 46.3239 0.0000 -13.4408 0.0000
# 2 23.1498 46.4396 20.4231 0.0000 -5.1597 0.0000
# 3 46.3239 20.4231 62.1268 0.0000 -5.0435 0.0000
# 4 0.0000 0.0000 0.0000 7.6060 0.0000 -4.7586
# 5 -13.4408 -5.1597 -5.0435 0.0000 36.4892 0.0000
# 6 0.0000 0.0000 0.0000 -4.7586 0.0000 14.7031
#
#
#
# Elastic Compliance Matrix: (Units=1/GPa)
#
#
# Indices 1 2 3 4 5 6 
#
# 1 0.011390 -0.002019 -0.007597 0.000000 0.002860 0.000000
# 2 -0.002019 0.025748 -0.006800 0.000000 0.001957 0.000000
# 3 -0.007597 -0.006800 0.023959 0.000000 -0.000448 0.000000
# 4 0.000000 0.000000 0.000000 0.164856 0.000000 0.053355
# 5 0.002860 0.001957 -0.000448 0.000000 0.028674 0.000000
# 6 0.000000 0.000000 0.000000 0.053355 0.000000 0.085281
#
#
# Mechanical properties :
#
#
# Convention : Reuss Voigt Hill
#
# Bulk Modulus (GPa) = 35.37838 46.05928 40.71883
# Shear Modulus (GPa) = 13.08352 21.41588 17.24970
#
# Velocity S-wave (km/s) = 2.45537 3.14140 2.81933
# Velocity P-wave (km/s) = 4.93364 5.86361 5.41861
#
# Compressibility (1/GPa) = 0.02826585
#
# Stress axis : x y z
#
# Youngs Moduli (GPa) = 87.79796 38.83848 41.73733
#
# Poissons Ratio (x) = 0.07842 0.31707
# Poissons Ratio (y) = 0.17727 0.28380
# Poissons Ratio (z) = 0.66698 0.26409
#
# Static dielectric constant tensor:
#      x y z
#    x 1.843670 0.000000 -0.017910 
#    y 0.000000 1.801060 0.000000 
#    z -0.017910 0.000000 1.817160 
# 
# From -- ./inp_files/48581.got.cif
#   From: 2010.05.17/outbox.cif.g08.bks.cpg/sg13_25_cif.got.tgz:48581.got - 2010.06.03 16:44:36.
