data_PCOD9234811
_publ_section_title
;
Structure prediction by ZEFSAII (Michael W. Deem and Ramdas Pophale) SiO2 
 PCOD9234811
Probable space group: P 2/C
;
_chemical_formula_sum "Si O2"
_cell_formula_units_Z 20
_cell_length_a 9.359317
_cell_length_b 6.851443
_cell_length_c 13.249758
_cell_angle_alpha 90.000000
_cell_angle_beta 90.889094
_cell_angle_gamma 90.000000
_cell_volume 849.536146
_symmetry_space_group_name_H-M "P 2/C"
_symmetry_group_IT_number 13
_symmetry_cell_setting 'monoclinic'
loop_
_space_group_symop_operation_xyz
x,y,z
-x,y,1/2-z
-x,-y,-z
x,-y,1/2+z
loop_
_atom_site_type_symbol
_atom_site_label
_atom_site_fract_x
_atom_site_fract_y
_atom_site_fract_z
Si Si1 0.263424 0.422957 0.342286
Si Si2 0.134269 0.096462 0.192548
Si Si3 0.699978 0.294904 0.833846
Si Si4 0.821661 0.388232 0.466488
Si Si5 0.499529 0.231501 0.489756
O O1 0.193203 0.263094 0.268358
O O2 0.319052 0.593863 0.270619
O O3 0.156514 0.526689 0.421407
O O4 0.387357 0.311349 0.405845
O O5 0.098008 0.209937 0.087547
O O6 0.000000 0.008337 0.250000
O O7 0.248061 0.926063 0.177174
O O8 0.818415 0.421997 0.895184
O O9 0.563306 0.301427 0.904368
O O10 0.657979 0.306493 0.469387
O O11 0.500000 0.000000 0.500000
#
# Coordination Sequence:
#
# PCOD9234811 Si02
#       5
#     4   4   4   4   4
#     4  10  24  42  67  99 129 177 215 267 337 389
#     4  11  25  44  65  95 130 176 232 271 315 387
#     4  10  22  41  64  95 135 168 213 265 327 387
#     4  10  23  44  65  97 136 166 213 274 330 393
#     4  11  22  43  69  99 139 164 207 273 331 398
#
# _framework density 23.542259000000001
#
# number of rings (size 3 to 8) (size 9 to 14) (size 15 to 20)
#    0.000    1.600    2.000    2.400    2.800   11.200 
#    0.000    7.000    0.000    0.000    0.000    0.000 
#    0.000    0.000    0.000    0.000    0.000    0.000 
#
# Total GULP energy -111839.877252 kJ/mol
# GULP energy per Si atom -5591.993863 kJ/mol
# Density = 2.348868 g / cm^3
# Si number density = 23.542259 Si / 1000 Ang^3
#
#
#
# Elastic Constant Matrix: (Units=GPa)
#
#
# Indices 1 2 3 4 5 6 
#
# 1 52.6295 -2.9219 7.4683 0.0000 -9.1167 0.0000
# 2 -2.9219 137.4540 44.7470 0.0000 0.5242 0.0000
# 3 7.4683 44.7470 137.2158 0.0000 -13.6645 0.0000
# 4 0.0000 0.0000 0.0000 45.6833 0.0000 -12.7772
# 5 -9.1167 0.5242 -13.6645 0.0000 22.3908 0.0000
# 6 0.0000 0.0000 0.0000 -12.7772 0.0000 23.0228
#
#
#
# Elastic Compliance Matrix: (Units=1/GPa)
#
#
# Indices 1 2 3 4 5 6 
#
# 1 0.020494 0.000568 -0.000502 0.000000 0.008025 0.000000
# 2 0.000568 0.008234 -0.002888 0.000000 -0.001724 0.000000
# 3 -0.000502 -0.002888 0.008777 0.000000 0.005219 0.000000
# 4 0.000000 0.000000 0.000000 0.025912 0.000000 0.014381
# 5 0.008025 -0.001724 0.005219 0.000000 0.051154 0.000000
# 6 0.000000 0.000000 0.000000 0.014381 0.000000 0.051416
#
#
# Mechanical properties :
#
#
# Convention : Reuss Voigt Hill
#
# Bulk Modulus (GPa) = 31.38532 47.32068 39.35300
# Shear Modulus (GPa) = 27.43499 36.75311 32.09405
#
# Velocity S-wave (km/s) = 3.41743 3.95543 3.69623
# Velocity P-wave (km/s) = 5.37886 6.40348 5.91340
#
# Compressibility (1/GPa) = 0.03186203
#
# Stress axis : x y z
#
# Youngs Moduli (GPa) = 48.79582 121.44932 113.93964
#
# Poissons Ratio (x) = -0.06902 0.05715
# Poissons Ratio (y) = -0.02773 0.32903
# Poissons Ratio (z) = 0.02448 0.35071
#
# Static dielectric constant tensor:
#      x y z
#    x 1.921050 0.000000 0.000370 
#    y 0.000000 1.849790 0.000000 
#    z 0.000370 0.000000 1.913260 
# 
# From -- ./inp_files/48917.got.cif
#   From: 2010.05.17/outbox.cif.g08.bks.cpg/sg13_25_cif.got.tgz:48917.got - 2010.06.03 16:44:36.
