data_PCOD9234426
_publ_section_title
;
Structure prediction by ZEFSAII (Michael W. Deem and Ramdas Pophale) SiO2 
 PCOD9234426
Probable space group: P 2/C
;
_chemical_formula_sum "Si O2"
_cell_formula_units_Z 30
_cell_length_a 6.421683
_cell_length_b 15.035797
_cell_length_c 18.133678
_cell_angle_alpha 90.000000
_cell_angle_beta 65.835517
_cell_angle_gamma 90.000000
_cell_volume 1597.475256
_symmetry_space_group_name_H-M "P 2/C"
_symmetry_group_IT_number 13
_symmetry_cell_setting 'monoclinic'
loop_
_space_group_symop_operation_xyz
x,y,z
-x,y,1/2-z
-x,-y,-z
x,-y,1/2+z
loop_
_atom_site_type_symbol
_atom_site_label
_atom_site_fract_x
_atom_site_fract_y
_atom_site_fract_z
Si Si1 0.899295 0.094365 0.143332
Si Si2 0.688471 0.038767 0.919474
Si Si3 0.000000 0.756736 0.750000
Si Si4 0.243353 0.484136 0.066671
Si Si5 0.385641 0.077268 0.832314
Si Si6 0.040518 0.167109 0.527378
Si Si7 0.096860 0.368109 0.479537
Si Si8 0.416345 0.384224 0.177054
O O1 0.924285 0.177515 0.194317
O O2 0.715853 0.016413 0.182122
O O3 0.127607 0.037672 0.113634
O O4 0.881740 0.126652 0.061888
O O5 0.590877 0.055414 0.854952
O O6 0.782102 0.130094 0.939094
O O7 0.500000 0.000000 0.000000
O O8 0.774193 0.695096 0.795927
O O9 0.286008 0.460693 0.146922
O O10 0.096941 0.404909 0.048902
O O11 0.500000 0.500000 0.000000
O O12 0.113350 0.568795 0.049670
O O13 0.500000 0.131931 0.750000
O O14 0.195889 0.126166 0.908754
O O15 0.033181 0.271115 0.516604
O O16 0.345068 0.365534 0.401982
O O17 0.500000 0.402169 0.250000
#
# Coordination Sequence:
#
# PCOD9234426 Si02
#       8
#     4   4   2   4   4   4   4   4
#     4  11  22  37  54  89 122 160 208 251 301 375
#     4  11  20  37  61  81 117 167 206 247 308 352
#     4  12  26  36  60  98 132 158 202 256 328 380
#     4   9  20  41  65  89 119 154 199 248 322 378
#     4  11  23  39  57  80 121 164 205 257 306 353
#     4  11  22  36  61  90 116 154 217 251 296 374
#     4  10  22  39  65  91 120 160 209 260 307 377
#     4  11  22  37  59  93 130 160 191 249 323 386
#
# _framework density 18.779634000000001
#
# number of rings (size 3 to 8) (size 9 to 14) (size 15 to 20)
#    0.000    1.333    2.667    4.000    1.867    6.400 
#    0.000    0.000    0.000   25.600    0.000    0.000 
#    0.000    0.000    0.000    0.000    0.000    0.000 
#
# Total GULP energy -167074.498221 kJ/mol
# GULP energy per Si atom -5569.149941 kJ/mol
# Density = 1.873689 g / cm^3
# Si number density = 18.779634 Si / 1000 Ang^3
#
#
#
# Elastic Constant Matrix: (Units=GPa)
#
#
# Indices 1 2 3 4 5 6 
#
# 1 92.9689 41.5282 17.8425 0.0000 17.3962 0.0000
# 2 41.5282 100.1986 44.5675 0.0000 -3.8378 0.0000
# 3 17.8425 44.5675 86.8021 0.0000 16.6851 0.0000
# 4 0.0000 0.0000 0.0000 11.0056 0.0000 35.7750
# 5 17.3962 -3.8378 16.6851 0.0000 29.0542 0.0000
# 6 0.0000 0.0000 0.0000 35.7750 0.0000 -23.6625
#
#
#
# Elastic Compliance Matrix: (Units=1/GPa)
#
#
# Indices 1 2 3 4 5 6 
#
# 1 0.016566 -0.009070 0.003809 0.000000 -0.013304 0.000000
# 2 -0.009070 0.018978 -0.010573 0.000000 0.014009 0.000000
# 3 0.003809 -0.010573 0.018966 0.000000 -0.014569 0.000000
# 4 0.000000 0.000000 0.000000 0.015363 0.000000 0.023226
# 5 -0.013304 0.014009 -0.014569 0.000000 0.052602 0.000000
# 6 0.000000 0.000000 0.000000 0.023226 0.000000 -0.007145
#
#
# Mechanical properties :
#
#
# Convention : Reuss Voigt Hill
#
# Bulk Modulus (GPa) = 43.77555 54.20514 48.99035
# Shear Modulus (GPa) = 32.33908 15.01487 23.67698
#
# Velocity S-wave (km/s) = 4.15424 2.83066 3.55460
# Velocity P-wave (km/s) = 6.80962 6.29365 6.55671
#
# Compressibility (1/GPa) = 0.02284380
#
# Stress axis : x y z
#
# Youngs Moduli (GPa) = 60.36427 52.69139 52.72464
#
# Poissons Ratio (x) = 0.47789 -0.20082
# Poissons Ratio (y) = 0.54748 0.55744
# Poissons Ratio (z) = -0.22992 0.55709
#
# Static dielectric constant tensor:
#      x y z
#    x 1.633120 0.000000 0.015820 
#    y 0.000000 1.645960 0.000000 
#    z 0.015820 0.000000 1.629990 
# 
# From -- ./inp_files/61596.got.cif
#   From: 2010.05.17/outbox.cif.g08.bks.cpg/sg13_31_cif.got.tgz:61596.got - 2010.06.03 16:44:36.
